@<TRIPOS>MOLECULE
ROC
   99   103     1     0     0
SMALL
bcc


@<TRIPOS>ATOM
      1 N           18.2790    -2.6270     7.0450 n        100 ROC      -0.549900
      2 CA          18.7730    -1.2910     7.3000 c3       100 ROC       0.036700
      3 CA1         19.5590    -1.0490    10.9830 c3       100 ROC       0.075700
      4 C           19.0260    -3.5990     6.5160 c        100 ROC       0.577600
      5 O           20.1680    -3.4210     6.0800 o        100 ROC      -0.619100
      6 CB          18.0410    -0.3040     6.4420 c3       100 ROC      -0.156400
      7 CB1         19.8880    -2.3140    11.7920 c3       100 ROC      -0.044100
      8 CG          18.4490    -0.5710     5.0140 c        100 ROC       0.657100
      9 CG1         19.0890    -3.5050    11.3210 ca       100 ROC      -0.088300
     10 CD          18.3340     0.1420    16.8130 c3       100 ROC       0.124400
     11 CD1         17.7280    -3.5760    11.5980 ca       100 ROC      -0.125500
     12 CD2         19.7250    -4.4940    10.5720 ca       100 ROC      -0.125500
     13 ND2         17.5560    -0.7630     4.0770 n        100 ROC      -0.672000
     14 OD1         19.6160    -0.6910     4.6750 o        100 ROC      -0.610100
     15 CE1         16.9950    -4.6560    11.1170 ca       100 ROC      -0.134500
     16 CE2         18.9830    -5.5600    10.1010 ca       100 ROC      -0.134500
     17 CZ          17.6200    -5.6400    10.3700 ca       100 ROC      -0.133000
     18 CM          20.4640     0.8860    12.4880 c3       100 ROC       0.174800
     19 C1          18.6260    -0.8980     8.7610 c        100 ROC       0.633100
     20 N1          17.0310    -4.8170     6.8790 nb       100 ROC      -0.649000
     21 O1          17.7090    -0.1980     9.2080 o        100 ROC      -0.625100
     22 C2          18.3400    -4.8180     6.5140 ca       100 ROC       0.382800
     23 N2          19.5670    -1.3870     9.5690 n        100 ROC      -0.561900
     24 O2          21.8770    -0.5100    11.1080 oh       100 ROC      -0.606800
     25 C3          18.9700    -6.0340     6.2250 ca       100 ROC      -0.205300
     26 C3A         18.4400     4.6080    12.9310 c3       100 ROC      -0.057700
     27 N3          18.7210     1.1200    15.8140 n        100 ROC      -0.571900
     28 O3          17.3660     0.4830    14.0690 o        100 ROC      -0.607100
     29 C4          18.2400    -7.2190     6.3330 ca       100 ROC      -0.087000
     30 C4A         16.8980    -7.1660     6.7210 ca       100 ROC      -0.129300
     31 C5          16.1460    -8.3330     6.8450 ca       100 ROC      -0.115000
     32 C6          14.8060    -8.2410     7.2430 ca       100 ROC      -0.115000
     33 C7          14.2170    -7.0010     7.5160 ca       100 ROC      -0.122000
     34 C7A         19.0660     4.2160    11.5430 c3       100 ROC      -0.051700
     35 C8          14.9660    -5.8350     7.3930 ca       100 ROC      -0.161300
     36 C8A         16.2970    -5.9290     6.9950 ca       100 ROC       0.390600
     37 C9          20.5870     0.0830    11.1880 c3       100 ROC       0.129100
     38 C11         19.1540     0.4560    18.0370 c3       100 ROC      -0.108767
     39 N11         19.4210     1.9070    12.4190 n3       100 ROC      -0.728600
     40 C21         18.8880     2.2870    13.7380 c3       100 ROC       0.131500
     41 C22         16.8870     0.3020    17.1980 c3       100 ROC      -0.108767
     42 C31         17.8450     3.3900    13.5940 c3       100 ROC      -0.071400
     43 C32         18.6330    -1.2900    16.3650 c3       100 ROC      -0.108767
     44 C41         17.3550     5.6530    12.7550 c3       100 ROC      -0.069400
     45 C51         16.3630     5.2980    11.6560 c3       100 ROC      -0.077400
     46 C61         17.0720     5.0810    10.3330 c3       100 ROC      -0.075400
     47 C71         17.9910     3.8940    10.5180 c3       100 ROC      -0.078400
     48 C81         20.0220     3.0510    11.7430 c3       100 ROC       0.164800
     49 CC          18.2420     1.1880    14.5710 c        100 ROC       0.660100
     50 H01         17.3190    -2.8350     7.2790 hn       100 ROC       0.334500
     51 H02         19.8350    -1.2840     7.0560 h1       100 ROC       0.106700
     52 H03         18.5870    -0.6960    11.3270 h1       100 ROC       0.101700
     53 H04         18.2860     0.7180     6.7310 hc       100 ROC       0.093700
     54 H05         16.9650    -0.4350     6.5550 hc       100 ROC       0.093700
     55 H06         19.6310    -2.1250    12.8340 hc       100 ROC       0.068700
     56 H07         20.9500    -2.5360    11.6850 hc       100 ROC       0.068700
     57 H08         17.2420    -2.7960    12.1840 ha       100 ROC       0.151000
     58 H09         20.7920    -4.4270    10.3610 ha       100 ROC       0.151000
     59 H10         17.8510    -0.9690     3.1330 hn       100 ROC       0.311000
     60 H11         16.5720    -0.7050     4.2980 hn       100 ROC       0.311000
     61 H12         15.9280    -4.7280    11.3280 ha       100 ROC       0.127500
     62 H13         19.4670    -6.3420     9.5160 ha       100 ROC       0.127500
     63 H14         17.0410    -6.4820     9.9900 ha       100 ROC       0.126000
     64 H15         20.1940     0.1900    13.2820 h1       100 ROC       0.045700
     65 H16         21.4180     1.3730    12.6900 h1       100 ROC       0.045700
     66 H17         20.2860    -1.9920     9.1990 hn       100 ROC       0.339500
     67 H18         22.1620    -0.5350    10.1920 ho       100 ROC       0.408000
     68 H19         20.0160    -6.0550     5.9200 ha       100 ROC       0.174000
     69 H20         19.2340     5.0180    13.5550 hc       100 ROC       0.038700
     70 H21         19.4110     1.8070    16.0820 hn       100 ROC       0.308500
     71 H22         18.7120    -8.1770     6.1170 ha       100 ROC       0.147000
     72 H23         16.5940    -9.3040     6.6350 ha       100 ROC       0.140000
     73 H24         14.2120    -9.1500     7.3420 ha       100 ROC       0.140000
     74 H25         13.1730    -6.9490     7.8250 ha       100 ROC       0.140000
     75 H26         19.6220     5.0660    11.1470 hc       100 ROC       0.049700
     76 H27         14.5180    -4.8640     7.6050 ha       100 ROC       0.151000
     77 H28         20.3970     0.8230    10.4100 h1       100 ROC       0.052700
     78 H29         20.0480     1.0060    17.7430 hc       100 ROC       0.045922
     79 H30         18.5640     1.0630    18.7240 hc       100 ROC       0.045922
     80 H31         19.4440    -0.4730    18.5290 hc       100 ROC       0.045922
     81 H32         19.7870     2.5960    14.2720 h1       100 ROC       0.020700
     82 H33         16.2700    -0.3320    16.5610 hc       100 ROC       0.045922
     83 H34         16.7530     0.0100    18.2400 hc       100 ROC       0.045922
     84 H35         16.5890     1.3430    17.0710 hc       100 ROC       0.045922
     85 H36         17.4940     3.6700    14.5870 hc       100 ROC       0.062200
     86 H37         17.0160     3.0220    12.9890 hc       100 ROC       0.062200
     87 H38         19.6120    -1.5900    16.7380 hc       100 ROC       0.045922
     88 H39         17.8720    -1.9620    16.7620 hc       100 ROC       0.045922
     89 H40         18.6290    -1.3390    15.2760 hc       100 ROC       0.045922
     90 H41         17.8420     6.5850    12.4670 hc       100 ROC       0.038200
     91 H42         16.8120     5.7540    13.6950 hc       100 ROC       0.038200
     92 H43         15.6610     6.1240    11.5420 hc       100 ROC       0.039700
     93 H44         15.8350     4.3850    11.9320 hc       100 ROC       0.039700
     94 H45         17.6340     5.9680    10.0410 hc       100 ROC       0.036700
     95 H46         16.3460     4.8750     9.5470 hc       100 ROC       0.036700
     96 H47         17.4070     3.0440    10.8710 hc       100 ROC       0.057700
     97 H48         18.4620     3.6510     9.5660 hc       100 ROC       0.057700
     98 H49         20.8300     3.4090    12.3820 h1       100 ROC       0.047200
     99 H50         20.3780     2.7260    10.7650 h1       100 ROC       0.047200
@<TRIPOS>BOND
     1     1     2 1   
     2     1     4 1   
     3     1    50 1   
     4     2     6 1   
     5     2    19 1   
     6     2    51 1   
     7     3     7 1   
     8     3    23 1   
     9     3    37 1   
    10     3    52 1   
    11     4     5 2   
    12     4    22 1   
    13     6     8 1   
    14     6    53 1   
    15     6    54 1   
    16     7     9 1   
    17     7    55 1   
    18     7    56 1   
    19     8    13 1   
    20     8    14 2   
    21     9    11 ar  
    22     9    12 ar  
    23    10    27 1   
    24    10    38 1   
    25    10    41 1   
    26    10    43 1   
    27    11    15 ar  
    28    11    57 1   
    29    12    16 ar  
    30    12    58 1   
    31    13    59 1   
    32    13    60 1   
    33    15    17 ar  
    34    15    61 1   
    35    16    17 ar  
    36    16    62 1   
    37    17    63 1   
    38    18    37 1   
    39    18    39 1   
    40    18    64 1   
    41    18    65 1   
    42    19    21 2   
    43    19    23 1   
    44    20    22 ar  
    45    20    36 ar  
    46    22    25 ar  
    47    23    66 1   
    48    24    37 1   
    49    24    67 1   
    50    25    29 ar  
    51    25    68 1   
    52    26    34 1   
    53    26    42 1   
    54    26    44 1   
    55    26    69 1   
    56    27    49 1   
    57    27    70 1   
    58    28    49 2   
    59    29    30 ar  
    60    29    71 1   
    61    30    31 ar  
    62    30    36 ar  
    63    31    32 ar  
    64    31    72 1   
    65    32    33 ar  
    66    32    73 1   
    67    33    35 ar  
    68    33    74 1   
    69    34    47 1   
    70    34    48 1   
    71    34    75 1   
    72    35    36 ar  
    73    35    76 1   
    74    37    77 1   
    75    38    78 1   
    76    38    79 1   
    77    38    80 1   
    78    39    40 1   
    79    39    48 1   
    80    40    42 1   
    81    40    49 1   
    82    40    81 1   
    83    41    82 1   
    84    41    83 1   
    85    41    84 1   
    86    42    85 1   
    87    42    86 1   
    88    43    87 1   
    89    43    88 1   
    90    43    89 1   
    91    44    45 1   
    92    44    90 1   
    93    44    91 1   
    94    45    46 1   
    95    45    92 1   
    96    45    93 1   
    97    46    47 1   
    98    46    94 1   
    99    46    95 1   
   100    47    96 1   
   101    47    97 1   
   102    48    98 1   
   103    48    99 1   
@<TRIPOS>SUBSTRUCTURE
     1 ROC         1 TEMP              0 ****  ****    0 ROOT
