MODEL 1
REMARK VINA RESULT:      -6.3      0.000      0.000
REMARK  3 active torsions:
REMARK  status: ('A' for Active; 'I' for Inactive)
REMARK    1  A    between atoms: C5_5  and  N6_6 
REMARK    2  A    between atoms: C9_9  and  S10_10 
REMARK    3  A    between atoms: S10_10  and  C11_11 
ROOT
ATOM      1  C11 <0> d   1      18.658   0.915  13.749  0.00  0.00     0.133 A 
ATOM      2  C12 <0> d   1      19.192   2.023  13.053  0.00  0.00     0.139 A 
ATOM      3  N13 <0> d   1      18.998   3.347  13.096  0.00  0.00    -0.237 NA
ATOM      4  C14 <0> d   1      19.767   3.934  12.215  0.00  0.00     0.209 A 
ATOM      5  N15 <0> d   1      20.506   3.006  11.550  0.00  0.00    -0.334 N 
ATOM      6  C16 <0> d   1      20.167   1.775  12.056  0.00  0.00     0.161 A 
ATOM      7  N17 <0> d   1      20.537   0.529  11.817  0.00  0.00    -0.222 NA
ATOM      8  C18 <0> d   1      20.009  -0.475  12.495  0.00  0.00     0.236 A 
ATOM      9  N19 <0> d   1      19.106  -0.303  13.435  0.00  0.00    -0.232 NA
ATOM     10  H25 <0> d   1      21.152   3.182  10.848  0.00  0.00     0.168 HD
ENDROOT
BRANCH   1  11
ATOM     11  S10 <0> d   1      17.441   1.136  15.004  0.00  0.00    -0.046 SA
BRANCH  11  12
ATOM     12  C9  <0> d   1      18.391   0.834  16.396  0.00  0.00     0.132 A 
ATOM     13  N2  <0> d   1      18.614  -0.379  17.016  0.00  0.00    -0.337 N 
ATOM     14  C1  <0> d   1      18.077  -1.677  16.601  0.00  0.00     0.158 C 
ATOM     15  C3  <0> d   1      19.419  -0.150  18.070  0.00  0.00     0.212 A 
ATOM     16  N4  <0> d   1      19.724   1.135  18.169  0.00  0.00    -0.218 NA
ATOM     17  C5  <0> d   1      19.147   1.817  17.203  0.00  0.00     0.230 A 
BRANCH  17  18
ATOM     18  N6  <0> d   1      19.241   3.278  16.966  0.00  0.00    -0.093 N 
ATOM     19  O7  <0> d   1      18.165   4.033  17.062  0.00  0.00    -0.530 OA
ATOM     20  O8  <0> d   1      20.400   3.823  16.660  0.00  0.00    -0.530 OA
ENDBRANCH  17  18
ENDBRANCH  11  12
ENDBRANCH   1  11
TORSDOF 3
ENDMDL
MODEL 2
REMARK VINA RESULT:      -6.3      3.972      4.730
REMARK  3 active torsions:
REMARK  status: ('A' for Active; 'I' for Inactive)
REMARK    1  A    between atoms: C5_5  and  N6_6 
REMARK    2  A    between atoms: C9_9  and  S10_10 
REMARK    3  A    between atoms: S10_10  and  C11_11 
ROOT
ATOM      1  C11 <0> d   1      17.841   0.695  10.673  0.00  0.00     0.133 A 
ATOM      2  C12 <0> d   1      17.741   2.103  10.597  0.00  0.00     0.139 A 
ATOM      3  N13 <0> d   1      17.028   3.035  11.242  0.00  0.00    -0.237 NA
ATOM      4  C14 <0> d   1      17.323   4.219  10.772  0.00  0.00     0.209 A 
ATOM      5  N15 <0> d   1      18.254   4.111   9.786  0.00  0.00    -0.334 N 
ATOM      6  C16 <0> d   1      18.545   2.775   9.645  0.00  0.00     0.161 A 
ATOM      7  N17 <0> d   1      19.350   2.068   8.872  0.00  0.00    -0.222 NA
ATOM      8  C18 <0> d   1      19.408   0.752   8.980  0.00  0.00     0.236 A 
ATOM      9  N19 <0> d   1      18.690   0.077   9.849  0.00  0.00    -0.232 NA
ATOM     10  H25 <0> d   1      18.639   4.841   9.276  0.00  0.00     0.168 HD
ENDROOT
BRANCH   1  11
ATOM     11  S10 <0> d   1      16.875  -0.219  11.830  0.00  0.00    -0.046 SA
BRANCH  11  12
ATOM     12  C9  <0> d   1      18.062  -0.536  13.022  0.00  0.00     0.132 A 
ATOM     13  N2  <0> d   1      18.406   0.257  14.098  0.00  0.00    -0.337 N 
ATOM     14  C1  <0> d   1      17.813   1.550  14.448  0.00  0.00     0.158 C 
ATOM     15  C3  <0> d   1      19.383  -0.379  14.771  0.00  0.00     0.212 A 
ATOM     16  N4  <0> d   1      19.692  -1.529  14.191  0.00  0.00    -0.218 NA
ATOM     17  C5  <0> d   1      18.950  -1.715  13.120  0.00  0.00     0.230 A 
BRANCH  17  18
ATOM     18  N6  <0> d   1      18.991  -2.878  12.200  0.00  0.00    -0.093 N 
ATOM     19  O7  <0> d   1      17.941  -3.666  12.086  0.00  0.00    -0.530 OA
ATOM     20  O8  <0> d   1      20.077  -3.124  11.497  0.00  0.00    -0.530 OA
ENDBRANCH  17  18
ENDBRANCH  11  12
ENDBRANCH   1  11
TORSDOF 3
ENDMDL
MODEL 3
REMARK VINA RESULT:      -6.2      4.547      5.580
REMARK  3 active torsions:
REMARK  status: ('A' for Active; 'I' for Inactive)
REMARK    1  A    between atoms: C5_5  and  N6_6 
REMARK    2  A    between atoms: C9_9  and  S10_10 
REMARK    3  A    between atoms: S10_10  and  C11_11 
ROOT
ATOM      1  C11 <0> d   1      19.680  -0.149   9.872  0.00  0.00     0.133 A 
ATOM      2  C12 <0> d   1      19.318   1.195  10.120  0.00  0.00     0.139 A 
ATOM      3  N13 <0> d   1      19.290   1.980  11.204  0.00  0.00    -0.237 NA
ATOM      4  C14 <0> d   1      18.862   3.171  10.874  0.00  0.00     0.209 A 
ATOM      5  N15 <0> d   1      18.589   3.217   9.543  0.00  0.00    -0.334 N 
ATOM      6  C16 <0> d   1      18.867   1.974   9.027  0.00  0.00     0.161 A 
ATOM      7  N17 <0> d   1      18.802   1.421   7.829  0.00  0.00    -0.222 NA
ATOM      8  C18 <0> d   1      19.152   0.159   7.646  0.00  0.00     0.236 A 
ATOM      9  N19 <0> d   1      19.583  -0.608   8.622  0.00  0.00    -0.232 NA
ATOM     10  H25 <0> d   1      18.258   3.984   9.050  0.00  0.00     0.168 HD
ENDROOT
BRANCH   1  11
ATOM     11  S10 <0> d   1      20.251  -1.187  11.176  0.00  0.00    -0.046 SA
BRANCH  11  12
ATOM     12  C9  <0> d   1      18.920  -2.256  11.310  0.00  0.00     0.132 A 
ATOM     13  N2  <0> d   1      18.887  -3.601  11.002  0.00  0.00    -0.337 N 
ATOM     14  C1  <0> d   1      20.003  -4.402  10.494  0.00  0.00     0.158 C 
ATOM     15  C3  <0> d   1      17.641  -4.042  11.259  0.00  0.00     0.212 A 
ATOM     16  N4  <0> d   1      16.871  -3.063  11.709  0.00  0.00    -0.218 NA
ATOM     17  C5  <0> d   1      17.551  -1.938  11.772  0.00  0.00     0.230 A 
BRANCH  17  18
ATOM     18  N6  <0> d   1      17.048  -0.618  12.223  0.00  0.00    -0.093 N 
ATOM     19  O7  <0> d   1      17.502  -0.085  13.340  0.00  0.00    -0.530 OA
ATOM     20  O8  <0> d   1      16.146   0.023  11.509  0.00  0.00    -0.530 OA
ENDBRANCH  17  18
ENDBRANCH  11  12
ENDBRANCH   1  11
TORSDOF 3
ENDMDL
MODEL 4
REMARK VINA RESULT:      -6.1      3.108      5.388
REMARK  3 active torsions:
REMARK  status: ('A' for Active; 'I' for Inactive)
REMARK    1  A    between atoms: C5_5  and  N6_6 
REMARK    2  A    between atoms: C9_9  and  S10_10 
REMARK    3  A    between atoms: S10_10  and  C11_11 
ROOT
ATOM      1  C11 <0> d   1      19.680   0.299  13.660  0.00  0.00     0.133 A 
ATOM      2  C12 <0> d   1      19.105   1.394  14.343  0.00  0.00     0.139 A 
ATOM      3  N13 <0> d   1      18.966   2.701  14.084  0.00  0.00    -0.237 NA
ATOM      4  C14 <0> d   1      18.342   3.282  15.075  0.00  0.00     0.209 A 
ATOM      5  N15 <0> d   1      18.041   2.369  16.037  0.00  0.00    -0.334 N 
ATOM      6  C16 <0> d   1      18.513   1.153  15.607  0.00  0.00     0.161 A 
ATOM      7  N17 <0> d   1      18.519  -0.075  16.094  0.00  0.00    -0.222 NA
ATOM      8  C18 <0> d   1      19.070  -1.069  15.417  0.00  0.00     0.236 A 
ATOM      9  N19 <0> d   1      19.628  -0.904  14.239  0.00  0.00    -0.232 NA
ATOM     10  H25 <0> d   1      17.580   2.545  16.872  0.00  0.00     0.168 HD
ENDROOT
BRANCH   1  11
ATOM     11  S10 <0> d   1      20.438   0.512  12.083  0.00  0.00    -0.046 SA
BRANCH  11  12
ATOM     12  C9  <0> d   1      19.171  -0.034  11.069  0.00  0.00     0.132 A 
ATOM     13  N2  <0> d   1      18.903  -1.332  10.682  0.00  0.00    -0.337 N 
ATOM     14  C1  <0> d   1      19.657  -2.526  11.072  0.00  0.00     0.158 C 
ATOM     15  C3  <0> d   1      17.818  -1.299   9.887  0.00  0.00     0.212 A 
ATOM     16  N4  <0> d   1      17.376  -0.060   9.733  0.00  0.00    -0.218 NA
ATOM     17  C5  <0> d   1      18.130   0.782  10.407  0.00  0.00     0.230 A 
BRANCH  17  18
ATOM     18  N6  <0> d   1      17.965   2.253  10.491  0.00  0.00    -0.093 N 
ATOM     19  O7  <0> d   1      18.729   3.046   9.767  0.00  0.00    -0.530 OA
ATOM     20  O8  <0> d   1      17.055   2.770  11.291  0.00  0.00    -0.530 OA
ENDBRANCH  17  18
ENDBRANCH  11  12
ENDBRANCH   1  11
TORSDOF 3
ENDMDL
MODEL 5
REMARK VINA RESULT:      -6.1      5.082      6.793
REMARK  3 active torsions:
REMARK  status: ('A' for Active; 'I' for Inactive)
REMARK    1  A    between atoms: C5_5  and  N6_6 
REMARK    2  A    between atoms: C9_9  and  S10_10 
REMARK    3  A    between atoms: S10_10  and  C11_11 
ROOT
ATOM      1  C11 <0> d   1      19.265  -0.387   8.108  0.00  0.00     0.133 A 
ATOM      2  C12 <0> d   1      18.909  -1.604   7.485  0.00  0.00     0.139 A 
ATOM      3  N13 <0> d   1      18.981  -2.896   7.827  0.00  0.00    -0.237 NA
ATOM      4  C14 <0> d   1      18.502  -3.636   6.861  0.00  0.00     0.209 A 
ATOM      5  N15 <0> d   1      18.091  -2.848   5.831  0.00  0.00    -0.334 N 
ATOM      6  C16 <0> d   1      18.335  -1.545   6.192  0.00  0.00     0.161 A 
ATOM      7  N17 <0> d   1      18.155  -0.366   5.623  0.00  0.00    -0.222 NA
ATOM      8  C18 <0> d   1      18.504   0.746   6.246  0.00  0.00     0.236 A 
ATOM      9  N19 <0> d   1      19.035   0.751   7.449  0.00  0.00    -0.232 NA
ATOM     10  H25 <0> d   1      17.699  -3.151   4.997  0.00  0.00     0.168 HD
ENDROOT
BRANCH   1  11
ATOM     11  S10 <0> d   1      19.985  -0.370   9.717  0.00  0.00    -0.046 SA
BRANCH  11  12
ATOM     12  C9  <0> d   1      18.616   0.060  10.651  0.00  0.00     0.132 A 
ATOM     13  N2  <0> d   1      17.683  -0.786  11.215  0.00  0.00    -0.337 N 
ATOM     14  C1  <0> d   1      17.675  -2.249  11.131  0.00  0.00     0.158 C 
ATOM     15  C3  <0> d   1      16.783  -0.020  11.860  0.00  0.00     0.212 A 
ATOM     16  N4  <0> d   1      17.078   1.266  11.741  0.00  0.00    -0.218 NA
ATOM     17  C5  <0> d   1      18.170   1.420  11.023  0.00  0.00     0.230 A 
BRANCH  17  18
ATOM     18  N6  <0> d   1      18.825   2.701  10.664  0.00  0.00    -0.093 N 
ATOM     19  O7  <0> d   1      19.806   3.171  11.406  0.00  0.00    -0.530 OA
ATOM     20  O8  <0> d   1      18.425   3.371   9.602  0.00  0.00    -0.530 OA
ENDBRANCH  17  18
ENDBRANCH  11  12
ENDBRANCH   1  11
TORSDOF 3
ENDMDL
MODEL 6
REMARK VINA RESULT:      -6.1      3.236      5.707
REMARK  3 active torsions:
REMARK  status: ('A' for Active; 'I' for Inactive)
REMARK    1  A    between atoms: C5_5  and  N6_6 
REMARK    2  A    between atoms: C9_9  and  S10_10 
REMARK    3  A    between atoms: S10_10  and  C11_11 
ROOT
ATOM      1  C11 <0> d   1      19.514   0.188  14.143  0.00  0.00     0.133 A 
ATOM      2  C12 <0> d   1      19.108   1.167  15.078  0.00  0.00     0.139 A 
ATOM      3  N13 <0> d   1      19.219   2.499  15.157  0.00  0.00    -0.237 NA
ATOM      4  C14 <0> d   1      18.656   2.923  16.259  0.00  0.00     0.209 A 
ATOM      5  N15 <0> d   1      18.146   1.873  16.956  0.00  0.00    -0.334 N 
ATOM      6  C16 <0> d   1      18.415   0.735  16.235  0.00  0.00     0.161 A 
ATOM      7  N17 <0> d   1      18.176  -0.554  16.395  0.00  0.00    -0.222 NA
ATOM      8  C18 <0> d   1      18.576  -1.434  15.492  0.00  0.00     0.236 A 
ATOM      9  N19 <0> d   1      19.217  -1.089  14.398  0.00  0.00    -0.232 NA
ATOM     10  H25 <0> d   1      17.679   1.920  17.806  0.00  0.00     0.168 HD
ENDROOT
BRANCH   1  11
ATOM     11  S10 <0> d   1      20.381   0.640  12.677  0.00  0.00    -0.046 SA
BRANCH  11  12
ATOM     12  C9  <0> d   1      19.103   1.343  11.781  0.00  0.00     0.132 A 
ATOM     13  N2  <0> d   1      18.912   2.679  11.493  0.00  0.00    -0.337 N 
ATOM     14  C1  <0> d   1      19.781   3.786  11.898  0.00  0.00     0.158 C 
ATOM     15  C3  <0> d   1      17.783   2.777  10.766  0.00  0.00     0.212 A 
ATOM     16  N4  <0> d   1      17.234   1.588  10.574  0.00  0.00    -0.218 NA
ATOM     17  C5  <0> d   1      17.955   0.652  11.153  0.00  0.00     0.230 A 
BRANCH  17  18
ATOM     18  N6  <0> d   1      17.678  -0.805  11.167  0.00  0.00    -0.093 N 
ATOM     19  O7  <0> d   1      18.353  -1.613  10.375  0.00  0.00    -0.530 OA
ATOM     20  O8  <0> d   1      16.755  -1.292  11.971  0.00  0.00    -0.530 OA
ENDBRANCH  17  18
ENDBRANCH  11  12
ENDBRANCH   1  11
TORSDOF 3
ENDMDL
MODEL 7
REMARK VINA RESULT:      -6.1      3.172      5.617
REMARK  3 active torsions:
REMARK  status: ('A' for Active; 'I' for Inactive)
REMARK    1  A    between atoms: C5_5  and  N6_6 
REMARK    2  A    between atoms: C9_9  and  S10_10 
REMARK    3  A    between atoms: S10_10  and  C11_11 
ROOT
ATOM      1  C11 <0> d   1      19.497   0.424  13.405  0.00  0.00     0.133 A 
ATOM      2  C12 <0> d   1      19.221   0.981  14.674  0.00  0.00     0.139 A 
ATOM      3  N13 <0> d   1      19.387   2.186  15.233  0.00  0.00    -0.237 NA
ATOM      4  C14 <0> d   1      18.951   2.165  16.465  0.00  0.00     0.209 A 
ATOM      5  N15 <0> d   1      18.473   0.929  16.769  0.00  0.00    -0.334 N 
ATOM      6  C16 <0> d   1      18.628   0.145  15.652  0.00  0.00     0.161 A 
ATOM      7  N17 <0> d   1      18.359  -1.111  15.344  0.00  0.00    -0.222 NA
ATOM      8  C18 <0> d   1      18.636  -1.587  14.142  0.00  0.00     0.236 A 
ATOM      9  N19 <0> d   1      19.179  -0.855  13.194  0.00  0.00    -0.232 NA
ATOM     10  H25 <0> d   1      18.094   0.652  17.619  0.00  0.00     0.168 HD
ENDROOT
BRANCH   1  11
ATOM     11  S10 <0> d   1      20.232   1.395  12.131  0.00  0.00    -0.046 SA
BRANCH  11  12
ATOM     12  C9  <0> d   1      18.928   2.442  11.765  0.00  0.00     0.132 A 
ATOM     13  N2  <0> d   1      18.857   3.804  11.976  0.00  0.00    -0.337 N 
ATOM     14  C1  <0> d   1      19.903   4.647  12.561  0.00  0.00     0.158 C 
ATOM     15  C3  <0> d   1      17.653   4.217  11.539  0.00  0.00     0.212 A 
ATOM     16  N4  <0> d   1      16.943   3.204  11.065  0.00  0.00    -0.218 NA
ATOM     17  C5  <0> d   1      17.626   2.083  11.161  0.00  0.00     0.230 A 
BRANCH  17  18
ATOM     18  N6  <0> d   1      17.182   0.732  10.741  0.00  0.00    -0.093 N 
ATOM     19  O7  <0> d   1      17.777   0.124   9.736  0.00  0.00    -0.530 OA
ATOM     20  O8  <0> d   1      16.190   0.138  11.373  0.00  0.00    -0.530 OA
ENDBRANCH  17  18
ENDBRANCH  11  12
ENDBRANCH   1  11
TORSDOF 3
ENDMDL
MODEL 8
REMARK VINA RESULT:      -6.0      3.899      6.148
REMARK  3 active torsions:
REMARK  status: ('A' for Active; 'I' for Inactive)
REMARK    1  A    between atoms: C5_5  and  N6_6 
REMARK    2  A    between atoms: C9_9  and  S10_10 
REMARK    3  A    between atoms: S10_10  and  C11_11 
ROOT
ATOM      1  C11 <0> d   1      19.091  -1.613  10.633  0.00  0.00     0.133 A 
ATOM      2  C12 <0> d   1      18.812  -2.095   9.334  0.00  0.00     0.139 A 
ATOM      3  N13 <0> d   1      19.197  -1.754   8.097  0.00  0.00    -0.237 NA
ATOM      4  C14 <0> d   1      18.630  -2.545   7.225  0.00  0.00     0.209 A 
ATOM      5  N15 <0> d   1      17.840  -3.452   7.862  0.00  0.00    -0.334 N 
ATOM      6  C16 <0> d   1      17.930  -3.196   9.209  0.00  0.00     0.161 A 
ATOM      7  N17 <0> d   1      17.407  -3.726  10.300  0.00  0.00    -0.222 NA
ATOM      8  C18 <0> d   1      17.697  -3.239  11.494  0.00  0.00     0.236 A 
ATOM      9  N19 <0> d   1      18.514  -2.224  11.670  0.00  0.00    -0.232 NA
ATOM     10  H25 <0> d   1      17.311  -4.149   7.442  0.00  0.00     0.168 HD
ENDROOT
BRANCH   1  11
ATOM     11  S10 <0> d   1      20.177  -0.247  10.877  0.00  0.00    -0.046 SA
BRANCH  11  12
ATOM     12  C9  <0> d   1      19.039   1.029  10.948  0.00  0.00     0.132 A 
ATOM     13  N2  <0> d   1      18.642   1.860   9.921  0.00  0.00    -0.337 N 
ATOM     14  C1  <0> d   1      19.118   1.816   8.536  0.00  0.00     0.158 C 
ATOM     15  C3  <0> d   1      17.732   2.716  10.423  0.00  0.00     0.212 A 
ATOM     16  N4  <0> d   1      17.524   2.489  11.711  0.00  0.00    -0.218 NA
ATOM     17  C5  <0> d   1      18.271   1.489  12.126  0.00  0.00     0.230 A 
BRANCH  17  18
ATOM     18  N6  <0> d   1      18.328   0.930  13.499  0.00  0.00    -0.093 N 
ATOM     19  O7  <0> d   1      19.303   1.278  14.314  0.00  0.00    -0.530 OA
ATOM     20  O8  <0> d   1      17.403   0.083  13.905  0.00  0.00    -0.530 OA
ENDBRANCH  17  18
ENDBRANCH  11  12
ENDBRANCH   1  11
TORSDOF 3
ENDMDL
MODEL 9
REMARK VINA RESULT:      -6.0      4.873      6.342
REMARK  3 active torsions:
REMARK  status: ('A' for Active; 'I' for Inactive)
REMARK    1  A    between atoms: C5_5  and  N6_6 
REMARK    2  A    between atoms: C9_9  and  S10_10 
REMARK    3  A    between atoms: S10_10  and  C11_11 
ROOT
ATOM      1  C11 <0> d   1      19.739  -0.068   9.361  0.00  0.00     0.133 A 
ATOM      2  C12 <0> d   1      19.423  -0.830   8.214  0.00  0.00     0.139 A 
ATOM      3  N13 <0> d   1      19.477  -2.131   7.900  0.00  0.00    -0.237 NA
ATOM      4  C14 <0> d   1      19.058  -2.306   6.674  0.00  0.00     0.209 A 
ATOM      5  N15 <0> d   1      18.705  -1.112   6.126  0.00  0.00    -0.334 N 
ATOM      6  C16 <0> d   1      18.925  -0.146   7.078  0.00  0.00     0.161 A 
ATOM      7  N17 <0> d   1      18.776   1.166   7.134  0.00  0.00    -0.222 NA
ATOM      8  C18 <0> d   1      19.086   1.836   8.231  0.00  0.00     0.236 A 
ATOM      9  N19 <0> d   1      19.546   1.252   9.315  0.00  0.00    -0.232 NA
ATOM     10  H25 <0> d   1      18.363  -0.970   5.229  0.00  0.00     0.168 HD
ENDROOT
BRANCH   1  11
ATOM     11  S10 <0> d   1      20.364  -0.841  10.817  0.00  0.00    -0.046 SA
BRANCH  11  12
ATOM     12  C9  <0> d   1      19.019  -1.812  11.238  0.00  0.00     0.132 A 
ATOM     13  N2  <0> d   1      18.947  -3.190  11.252  0.00  0.00    -0.337 N 
ATOM     14  C1  <0> d   1      20.027  -4.118  10.907  0.00  0.00     0.158 C 
ATOM     15  C3  <0> d   1      17.704  -3.525  11.646  0.00  0.00     0.212 A 
ATOM     16  N4  <0> d   1      16.971  -2.447  11.881  0.00  0.00    -0.218 NA
ATOM     17  C5  <0> d   1      17.675  -1.358  11.660  0.00  0.00     0.230 A 
BRANCH  17  18
ATOM     18  N6  <0> d   1      17.216   0.044  11.809  0.00  0.00    -0.093 N 
ATOM     19  O7  <0> d   1      17.483   0.712  12.913  0.00  0.00    -0.530 OA
ATOM     20  O8  <0> d   1      16.540   0.624  10.838  0.00  0.00    -0.530 OA
ENDBRANCH  17  18
ENDBRANCH  11  12
ENDBRANCH   1  11
TORSDOF 3
ENDMDL
