MODEL 1
REMARK VINA RESULT:      -8.2      0.000      0.000
REMARK  3 active torsions:
REMARK  status: ('A' for Active; 'I' for Inactive)
REMARK    1  A    between atoms: N7_7  and  C8_8 
REMARK    2  A    between atoms: C11_11  and  N12_12 
REMARK    3  A    between atoms: C15_15  and  C16_16 
ROOT
ATOM      1  C8  ZIN A   1      19.032   1.350  13.777  0.00  0.00     0.048 A 
ATOM      2  C9  ZIN A   1      19.159   2.577  14.414  0.00  0.00     0.032 A 
ATOM      3  C10 ZIN A   1      19.066   2.653  15.789  0.00  0.00     0.039 A 
ATOM      4  C11 ZIN A   1      18.846   1.508  16.533  0.00  0.00     0.118 A 
ATOM      5  C15 ZIN A   1      18.718   0.284  15.901  0.00  0.00     0.083 A 
ATOM      6  C20 ZIN A   1      18.806   0.204  14.525  0.00  0.00     0.049 A 
ENDROOT
BRANCH   1   7
ATOM      7  N7  ZIN A   1      19.125   1.271  12.380  0.00  0.00    -0.232 N 
ATOM      8  C5  ZIN A   1      20.211   0.852  11.722  0.00  0.00     0.331 A 
ATOM      9  N4  ZIN A   1      20.043   0.871  10.387  0.00  0.00    -0.325 N 
ATOM     10  O6  ZIN A   1      21.238   0.495  12.267  0.00  0.00    -0.246 OA
ATOM     11  C2  ZIN A   1      18.676   1.361  10.142  0.00  0.00     0.109 A 
ATOM     12  H29 ZIN A   1      20.693   0.610   9.716  0.00  0.00     0.165 HD
ATOM     13  C1  ZIN A   1      18.707   2.664   9.340  0.00  0.00     0.049 C 
ATOM     14  C21 ZIN A   1      18.130   1.606  11.536  0.00  0.00     0.260 A 
ATOM     15  C3  ZIN A   1      17.841   0.305   9.416  0.00  0.00     0.049 C 
ATOM     16  O22 ZIN A   1      17.028   2.019  11.828  0.00  0.00    -0.270 OA
ENDBRANCH   1   7
BRANCH   5  17
ATOM     17  C16 ZIN A   1      18.477  -0.961  16.715  0.00  0.00     0.419 C 
ATOM     18  F17 ZIN A   1      18.438  -2.072  15.866  0.00  0.00    -0.166 F 
ATOM     19  F18 ZIN A   1      19.512  -1.119  17.643  0.00  0.00    -0.166 F 
ATOM     20  F19 ZIN A   1      17.257  -0.848  17.391  0.00  0.00    -0.166 F 
ENDBRANCH   5  17
BRANCH   4  21
ATOM     21  N12 ZIN A   1      18.746   1.592  18.007  0.00  0.00    -0.115 N 
ATOM     22  O13 ZIN A   1      19.753   1.535  18.690  0.00  0.00    -0.532 OA
ATOM     23  O14 ZIN A   1      17.657   1.718  18.537  0.00  0.00    -0.532 OA
ENDBRANCH   4  21
TORSDOF 3
ENDMDL
MODEL 2
REMARK VINA RESULT:      -7.9      5.215      8.551
REMARK  3 active torsions:
REMARK  status: ('A' for Active; 'I' for Inactive)
REMARK    1  A    between atoms: N7_7  and  C8_8 
REMARK    2  A    between atoms: C11_11  and  N12_12 
REMARK    3  A    between atoms: C15_15  and  C16_16 
ROOT
ATOM      1  C8  ZIN A   1      19.017  -1.041   9.401  0.00  0.00     0.048 A 
ATOM      2  C9  ZIN A   1      19.032  -2.344   8.921  0.00  0.00     0.032 A 
ATOM      3  C10 ZIN A   1      18.932  -2.580   7.564  0.00  0.00     0.039 A 
ATOM      4  C11 ZIN A   1      18.816  -1.520   6.683  0.00  0.00     0.118 A 
ATOM      5  C15 ZIN A   1      18.800  -0.221   7.158  0.00  0.00     0.083 A 
ATOM      6  C20 ZIN A   1      18.895   0.020   8.515  0.00  0.00     0.049 A 
ENDROOT
BRANCH   1   7
ATOM      7  N7  ZIN A   1      19.118  -0.799  10.778  0.00  0.00    -0.232 N 
ATOM      8  C5  ZIN A   1      20.267  -0.549  11.415  0.00  0.00     0.331 A 
ATOM      9  N4  ZIN A   1      20.091  -0.352  12.735  0.00  0.00    -0.325 N 
ATOM     10  O6  ZIN A   1      21.350  -0.506  10.866  0.00  0.00    -0.246 OA
ATOM     11  C2  ZIN A   1      18.647  -0.488  12.992  0.00  0.00     0.109 A 
ATOM     12  H29 ZIN A   1      20.779  -0.156  13.389  0.00  0.00     0.165 HD
ATOM     13  C1  ZIN A   1      18.379  -1.646  13.956  0.00  0.00     0.049 C 
ATOM     14  C21 ZIN A   1      18.068  -0.788  11.623  0.00  0.00     0.260 A 
ATOM     15  C3  ZIN A   1      18.069   0.816  13.546  0.00  0.00     0.049 C 
ATOM     16  O22 ZIN A   1      16.903  -0.980  11.347  0.00  0.00    -0.270 OA
ENDBRANCH   1   7
BRANCH   5  17
ATOM     17  C16 ZIN A   1      18.673   0.931   6.195  0.00  0.00     0.419 C 
ATOM     18  F17 ZIN A   1      17.412   0.894   5.589  0.00  0.00    -0.166 F 
ATOM     19  F18 ZIN A   1      18.823   2.137   6.887  0.00  0.00    -0.166 F 
ATOM     20  F19 ZIN A   1      19.665   0.829   5.214  0.00  0.00    -0.166 F 
ENDBRANCH   5  17
BRANCH   4  21
ATOM     21  N12 ZIN A   1      18.708  -1.776   5.230  0.00  0.00    -0.115 N 
ATOM     22  O13 ZIN A   1      17.612  -1.885   4.711  0.00  0.00    -0.532 OA
ATOM     23  O14 ZIN A   1      19.716  -1.877   4.553  0.00  0.00    -0.532 OA
ENDBRANCH   4  21
TORSDOF 3
ENDMDL
MODEL 3
REMARK VINA RESULT:      -7.8      1.094      2.029
REMARK  3 active torsions:
REMARK  status: ('A' for Active; 'I' for Inactive)
REMARK    1  A    between atoms: N7_7  and  C8_8 
REMARK    2  A    between atoms: C11_11  and  N12_12 
REMARK    3  A    between atoms: C15_15  and  C16_16 
ROOT
ATOM      1  C8  ZIN A   1      18.508   0.820  13.481  0.00  0.00     0.048 A 
ATOM      2  C9  ZIN A   1      18.690   2.104  13.977  0.00  0.00     0.032 A 
ATOM      3  C10 ZIN A   1      18.763   2.312  15.340  0.00  0.00     0.039 A 
ATOM      4  C11 ZIN A   1      18.655   1.244  16.211  0.00  0.00     0.118 A 
ATOM      5  C15 ZIN A   1      18.473  -0.037  15.720  0.00  0.00     0.083 A 
ATOM      6  C20 ZIN A   1      18.394  -0.250  14.357  0.00  0.00     0.049 A 
ENDROOT
BRANCH   1   7
ATOM      7  N7  ZIN A   1      18.432   0.606  12.097  0.00  0.00    -0.232 N 
ATOM      8  C5  ZIN A   1      17.296   0.363  11.436  0.00  0.00     0.331 A 
ATOM      9  N4  ZIN A   1      17.495   0.193  10.116  0.00  0.00    -0.325 N 
ATOM     10  O6  ZIN A   1      16.204   0.300  11.967  0.00  0.00    -0.246 OA
ATOM     11  C2  ZIN A   1      18.942   0.346   9.885  0.00  0.00     0.109 A 
ATOM     12  H29 ZIN A   1      16.819   0.009   9.446  0.00  0.00     0.165 HD
ATOM     13  C1  ZIN A   1      19.535  -0.944   9.315  0.00  0.00     0.049 C 
ATOM     14  C21 ZIN A   1      19.496   0.622  11.270  0.00  0.00     0.260 A 
ATOM     15  C3  ZIN A   1      19.221   1.524   8.950  0.00  0.00     0.049 C 
ATOM     16  O22 ZIN A   1      20.655   0.814  11.570  0.00  0.00    -0.270 OA
ENDBRANCH   1   7
BRANCH   5  17
ATOM     17  C16 ZIN A   1      18.355  -1.198  16.673  0.00  0.00     0.419 C 
ATOM     18  F17 ZIN A   1      18.089  -2.367  15.951  0.00  0.00    -0.166 F 
ATOM     19  F18 ZIN A   1      19.553  -1.348  17.377  0.00  0.00    -0.166 F 
ATOM     20  F19 ZIN A   1      17.310  -0.959  17.573  0.00  0.00    -0.166 F 
ENDBRANCH   5  17
BRANCH   4  21
ATOM     21  N12 ZIN A   1      18.733   1.470  17.671  0.00  0.00    -0.115 N 
ATOM     22  O13 ZIN A   1      17.731   1.768  18.296  0.00  0.00    -0.532 OA
ATOM     23  O14 ZIN A   1      19.801   1.358  18.249  0.00  0.00    -0.532 OA
ENDBRANCH   4  21
TORSDOF 3
ENDMDL
MODEL 4
REMARK VINA RESULT:      -7.5      4.744      8.281
REMARK  3 active torsions:
REMARK  status: ('A' for Active; 'I' for Inactive)
REMARK    1  A    between atoms: N7_7  and  C8_8 
REMARK    2  A    between atoms: C11_11  and  N12_12 
REMARK    3  A    between atoms: C15_15  and  C16_16 
ROOT
ATOM      1  C8  ZIN A   1      18.574  -0.297   9.449  0.00  0.00     0.048 A 
ATOM      2  C9  ZIN A   1      18.649   0.857   8.681  0.00  0.00     0.032 A 
ATOM      3  C10 ZIN A   1      18.770   0.765   7.309  0.00  0.00     0.039 A 
ATOM      4  C11 ZIN A   1      18.818  -0.475   6.699  0.00  0.00     0.118 A 
ATOM      5  C15 ZIN A   1      18.745  -1.628   7.462  0.00  0.00     0.083 A 
ATOM      6  C20 ZIN A   1      18.629  -1.541   8.835  0.00  0.00     0.049 A 
ENDROOT
BRANCH   1   7
ATOM      7  N7  ZIN A   1      18.453  -0.206  10.843  0.00  0.00    -0.232 N 
ATOM      8  C5  ZIN A   1      17.289  -0.078  11.489  0.00  0.00     0.331 A 
ATOM      9  N4  ZIN A   1      17.446  -0.012  12.824  0.00  0.00    -0.325 N 
ATOM     10  O6  ZIN A   1      16.209  -0.026  10.933  0.00  0.00    -0.246 OA
ATOM     11  C2  ZIN A   1      18.892  -0.111  13.083  0.00  0.00     0.109 A 
ATOM     12  H29 ZIN A   1      16.744   0.081  13.486  0.00  0.00     0.165 HD
ATOM     13  C1  ZIN A   1      19.402   1.154  13.777  0.00  0.00     0.049 C 
ATOM     14  C21 ZIN A   1      19.495  -0.239  11.697  0.00  0.00     0.260 A 
ATOM     15  C3  ZIN A   1      19.210  -1.349  13.924  0.00  0.00     0.049 C 
ATOM     16  O22 ZIN A   1      20.670  -0.346  11.417  0.00  0.00    -0.270 OA
ENDBRANCH   1   7
BRANCH   5  17
ATOM     17  C16 ZIN A   1      18.799  -2.977   6.794  0.00  0.00     0.419 C 
ATOM     18  F17 ZIN A   1      18.463  -3.969   7.721  0.00  0.00    -0.166 F 
ATOM     19  F18 ZIN A   1      17.892  -3.007   5.729  0.00  0.00    -0.166 F 
ATOM     20  F19 ZIN A   1      20.092  -3.208   6.311  0.00  0.00    -0.166 F 
ENDBRANCH   5  17
BRANCH   4  21
ATOM     21  N12 ZIN A   1      18.948  -0.571   5.228  0.00  0.00    -0.115 N 
ATOM     22  O13 ZIN A   1      20.044  -0.741   4.724  0.00  0.00    -0.532 OA
ATOM     23  O14 ZIN A   1      17.960  -0.480   4.522  0.00  0.00    -0.532 OA
ENDBRANCH   4  21
TORSDOF 3
ENDMDL
MODEL 5
REMARK VINA RESULT:      -7.4      2.050      2.959
REMARK  3 active torsions:
REMARK  status: ('A' for Active; 'I' for Inactive)
REMARK    1  A    between atoms: N7_7  and  C8_8 
REMARK    2  A    between atoms: C11_11  and  N12_12 
REMARK    3  A    between atoms: C15_15  and  C16_16 
ROOT
ATOM      1  C8  ZIN A   1      18.346  -0.002  13.776  0.00  0.00     0.048 A 
ATOM      2  C9  ZIN A   1      19.179   1.109  13.821  0.00  0.00     0.032 A 
ATOM      3  C10 ZIN A   1      19.398   1.758  15.020  0.00  0.00     0.039 A 
ATOM      4  C11 ZIN A   1      18.790   1.303  16.176  0.00  0.00     0.118 A 
ATOM      5  C15 ZIN A   1      17.959   0.197  16.134  0.00  0.00     0.083 A 
ATOM      6  C20 ZIN A   1      17.733  -0.453  14.936  0.00  0.00     0.049 A 
ENDROOT
BRANCH   1   7
ATOM      7  N7  ZIN A   1      18.121  -0.661  12.560  0.00  0.00    -0.232 N 
ATOM      8  C5  ZIN A   1      17.239  -0.258  11.639  0.00  0.00     0.331 A 
ATOM      9  N4  ZIN A   1      17.215  -1.065  10.562  0.00  0.00    -0.325 N 
ATOM     10  O6  ZIN A   1      16.537   0.727  11.759  0.00  0.00    -0.246 OA
ATOM     11  C2  ZIN A   1      18.204  -2.128  10.810  0.00  0.00     0.109 A 
ATOM     12  H29 ZIN A   1      16.657  -0.966   9.776  0.00  0.00     0.165 HD
ATOM     13  C1  ZIN A   1      17.526  -3.499  10.841  0.00  0.00     0.049 C 
ATOM     14  C21 ZIN A   1      18.767  -1.780  12.175  0.00  0.00     0.260 A 
ATOM     15  C3  ZIN A   1      19.308  -2.099   9.751  0.00  0.00     0.049 C 
ATOM     16  O22 ZIN A   1      19.619  -2.384  12.791  0.00  0.00    -0.270 OA
ENDBRANCH   1   7
BRANCH   5  17
ATOM     17  C16 ZIN A   1      17.298  -0.295  17.396  0.00  0.00     0.419 C 
ATOM     18  F17 ZIN A   1      16.467   0.708  17.907  0.00  0.00    -0.166 F 
ATOM     19  F18 ZIN A   1      16.535  -1.432  17.110  0.00  0.00    -0.166 F 
ATOM     20  F19 ZIN A   1      18.278  -0.615  18.341  0.00  0.00    -0.166 F 
ENDBRANCH   5  17
BRANCH   4  21
ATOM     21  N12 ZIN A   1      19.027   2.000  17.459  0.00  0.00    -0.115 N 
ATOM     22  O13 ZIN A   1      19.869   1.583  18.233  0.00  0.00    -0.532 OA
ATOM     23  O14 ZIN A   1      18.379   2.992  17.741  0.00  0.00    -0.532 OA
ENDBRANCH   4  21
TORSDOF 3
ENDMDL
MODEL 6
REMARK VINA RESULT:      -7.0      5.063      7.632
REMARK  3 active torsions:
REMARK  status: ('A' for Active; 'I' for Inactive)
REMARK    1  A    between atoms: N7_7  and  C8_8 
REMARK    2  A    between atoms: C11_11  and  N12_12 
REMARK    3  A    between atoms: C15_15  and  C16_16 
ROOT
ATOM      1  C8  ZIN A   1      18.565  -2.223   9.097  0.00  0.00     0.048 A 
ATOM      2  C9  ZIN A   1      19.157  -2.721   7.945  0.00  0.00     0.032 A 
ATOM      3  C10 ZIN A   1      18.924  -4.026   7.558  0.00  0.00     0.039 A 
ATOM      4  C11 ZIN A   1      18.102  -4.838   8.319  0.00  0.00     0.118 A 
ATOM      5  C15 ZIN A   1      17.511  -4.345   9.469  0.00  0.00     0.083 A 
ATOM      6  C20 ZIN A   1      17.745  -3.041   9.862  0.00  0.00     0.049 A 
ENDROOT
BRANCH   1   7
ATOM      7  N7  ZIN A   1      18.801  -0.899   9.492  0.00  0.00    -0.232 N 
ATOM      8  C5  ZIN A   1      19.775  -0.527  10.330  0.00  0.00     0.331 A 
ATOM      9  N4  ZIN A   1      19.787   0.801  10.546  0.00  0.00    -0.325 N 
ATOM     10  O6  ZIN A   1      20.562  -1.301  10.839  0.00  0.00    -0.246 OA
ATOM     11  C2  ZIN A   1      18.685   1.368   9.751  0.00  0.00     0.109 A 
ATOM     12  H29 ZIN A   1      20.403   1.290  11.114  0.00  0.00     0.165 HD
ATOM     13  C1  ZIN A   1      17.660   2.050  10.661  0.00  0.00     0.049 C 
ATOM     14  C21 ZIN A   1      18.074   0.156   9.074  0.00  0.00     0.260 A 
ATOM     15  C3  ZIN A   1      19.218   2.354   8.710  0.00  0.00     0.049 C 
ATOM     16  O22 ZIN A   1      17.128   0.141   8.316  0.00  0.00    -0.270 OA
ENDBRANCH   1   7
BRANCH   5  17
ATOM     17  C16 ZIN A   1      16.617  -5.233  10.295  0.00  0.00     0.419 C 
ATOM     18  F17 ZIN A   1      15.461  -5.536   9.567  0.00  0.00    -0.166 F 
ATOM     19  F18 ZIN A   1      17.294  -6.415  10.609  0.00  0.00    -0.166 F 
ATOM     20  F19 ZIN A   1      16.264  -4.570  11.476  0.00  0.00    -0.166 F 
ENDBRANCH   5  17
BRANCH   4  21
ATOM     21  N12 ZIN A   1      17.854  -6.236   7.903  0.00  0.00    -0.115 N 
ATOM     22  O13 ZIN A   1      18.651  -7.109   8.196  0.00  0.00    -0.532 OA
ATOM     23  O14 ZIN A   1      16.853  -6.514   7.267  0.00  0.00    -0.532 OA
ENDBRANCH   4  21
TORSDOF 3
ENDMDL
MODEL 7
REMARK VINA RESULT:      -6.9      5.246      7.888
REMARK  3 active torsions:
REMARK  status: ('A' for Active; 'I' for Inactive)
REMARK    1  A    between atoms: N7_7  and  C8_8 
REMARK    2  A    between atoms: C11_11  and  N12_12 
REMARK    3  A    between atoms: C15_15  and  C16_16 
ROOT
ATOM      1  C8  ZIN A   1      19.115  -2.289  10.795  0.00  0.00     0.048 A 
ATOM      2  C9  ZIN A   1      19.557  -3.419  11.469  0.00  0.00     0.032 A 
ATOM      3  C10 ZIN A   1      19.814  -4.582  10.770  0.00  0.00     0.039 A 
ATOM      4  C11 ZIN A   1      19.630  -4.622   9.400  0.00  0.00     0.118 A 
ATOM      5  C15 ZIN A   1      19.188  -3.497   8.725  0.00  0.00     0.083 A 
ATOM      6  C20 ZIN A   1      18.926  -2.333   9.421  0.00  0.00     0.049 A 
ENDROOT
BRANCH   1   7
ATOM      7  N7  ZIN A   1      18.852  -1.107  11.503  0.00  0.00    -0.232 N 
ATOM      8  C5  ZIN A   1      17.654  -0.777  11.996  0.00  0.00     0.331 A 
ATOM      9  N4  ZIN A   1      17.668   0.408  12.632  0.00  0.00    -0.325 N 
ATOM     10  O6  ZIN A   1      16.661  -1.469  11.881  0.00  0.00    -0.246 OA
ATOM     11  C2  ZIN A   1      19.048   0.916  12.546  0.00  0.00     0.109 A 
ATOM     12  H29 ZIN A   1      16.918   0.843  13.066  0.00  0.00     0.165 HD
ATOM     13  C1  ZIN A   1      19.087   2.243  11.786  0.00  0.00     0.049 C 
ATOM     14  C21 ZIN A   1      19.777  -0.165  11.771  0.00  0.00     0.260 A 
ATOM     15  C3  ZIN A   1      19.655   1.079  13.941  0.00  0.00     0.049 C 
ATOM     16  O22 ZIN A   1      20.949  -0.176  11.457  0.00  0.00    -0.270 OA
ENDBRANCH   1   7
BRANCH   5  17
ATOM     17  C16 ZIN A   1      18.989  -3.545   7.233  0.00  0.00     0.419 C 
ATOM     18  F17 ZIN A   1      20.201  -3.868   6.611  0.00  0.00    -0.166 F 
ATOM     19  F18 ZIN A   1      18.031  -4.515   6.920  0.00  0.00    -0.166 F 
ATOM     20  F19 ZIN A   1      18.553  -2.295   6.780  0.00  0.00    -0.166 F 
ENDBRANCH   5  17
BRANCH   4  21
ATOM     21  N12 ZIN A   1      19.905  -5.869   8.653  0.00  0.00    -0.115 N 
ATOM     22  O13 ZIN A   1      21.016  -6.074   8.197  0.00  0.00    -0.532 OA
ATOM     23  O14 ZIN A   1      19.021  -6.692   8.495  0.00  0.00    -0.532 OA
ENDBRANCH   4  21
TORSDOF 3
ENDMDL
MODEL 8
REMARK VINA RESULT:      -6.8      3.679      6.344
REMARK  3 active torsions:
REMARK  status: ('A' for Active; 'I' for Inactive)
REMARK    1  A    between atoms: N7_7  and  C8_8 
REMARK    2  A    between atoms: C11_11  and  N12_12 
REMARK    3  A    between atoms: C15_15  and  C16_16 
ROOT
ATOM      1  C8  ZIN A   1      18.108   3.233  12.247  0.00  0.00     0.048 A 
ATOM      2  C9  ZIN A   1      19.294   3.537  11.593  0.00  0.00     0.032 A 
ATOM      3  C10 ZIN A   1      19.792   2.680  10.632  0.00  0.00     0.039 A 
ATOM      4  C11 ZIN A   1      19.110   1.518  10.321  0.00  0.00     0.118 A 
ATOM      5  C15 ZIN A   1      17.928   1.210  10.971  0.00  0.00     0.083 A 
ATOM      6  C20 ZIN A   1      17.429   2.063  11.936  0.00  0.00     0.049 A 
ENDROOT
BRANCH   1   7
ATOM      7  N7  ZIN A   1      17.601   4.101  13.224  0.00  0.00    -0.232 N 
ATOM      8  C5  ZIN A   1      17.775   3.936  14.539  0.00  0.00     0.331 A 
ATOM      9  N4  ZIN A   1      17.188   4.908  15.262  0.00  0.00    -0.325 N 
ATOM     10  O6  ZIN A   1      18.392   3.011  15.029  0.00  0.00    -0.246 OA
ATOM     11  C2  ZIN A   1      16.553   5.824  14.299  0.00  0.00     0.109 A 
ATOM     12  H29 ZIN A   1      17.185   4.991  16.228  0.00  0.00     0.165 HD
ATOM     13  C1  ZIN A   1      15.039   5.869  14.517  0.00  0.00     0.049 C 
ATOM     14  C21 ZIN A   1      16.880   5.206  12.952  0.00  0.00     0.260 A 
ATOM     15  C3  ZIN A   1      17.153   7.227  14.407  0.00  0.00     0.049 C 
ATOM     16  O22 ZIN A   1      16.557   5.622  11.859  0.00  0.00    -0.270 OA
ENDBRANCH   1   7
BRANCH   5  17
ATOM     17  C16 ZIN A   1      17.189  -0.058  10.630  0.00  0.00     0.419 C 
ATOM     18  F17 ZIN A   1      16.001  -0.116  11.366  0.00  0.00    -0.166 F 
ATOM     19  F18 ZIN A   1      16.893  -0.071   9.263  0.00  0.00    -0.166 F 
ATOM     20  F19 ZIN A   1      17.988  -1.162  10.945  0.00  0.00    -0.166 F 
ENDBRANCH   5  17
BRANCH   4  21
ATOM     21  N12 ZIN A   1      19.646   0.600   9.291  0.00  0.00    -0.115 N 
ATOM     22  O13 ZIN A   1      20.370  -0.324   9.616  0.00  0.00    -0.532 OA
ATOM     23  O14 ZIN A   1      19.364   0.769   8.118  0.00  0.00    -0.532 OA
ENDBRANCH   4  21
TORSDOF 3
ENDMDL
MODEL 9
REMARK VINA RESULT:      -6.8      3.641      6.531
REMARK  3 active torsions:
REMARK  status: ('A' for Active; 'I' for Inactive)
REMARK    1  A    between atoms: N7_7  and  C8_8 
REMARK    2  A    between atoms: C11_11  and  N12_12 
REMARK    3  A    between atoms: C15_15  and  C16_16 
ROOT
ATOM      1  C8  ZIN A   1      18.309  -0.968  13.549  0.00  0.00     0.048 A 
ATOM      2  C9  ZIN A   1      17.304  -0.532  12.697  0.00  0.00     0.032 A 
ATOM      3  C10 ZIN A   1      17.098  -1.171  11.490  0.00  0.00     0.039 A 
ATOM      4  C11 ZIN A   1      17.893  -2.245  11.130  0.00  0.00     0.118 A 
ATOM      5  C15 ZIN A   1      18.896  -2.680  11.977  0.00  0.00     0.083 A 
ATOM      6  C20 ZIN A   1      19.109  -2.041  13.183  0.00  0.00     0.049 A 
ENDROOT
BRANCH   1   7
ATOM      7  N7  ZIN A   1      18.521  -0.319  14.774  0.00  0.00    -0.232 N 
ATOM      8  C5  ZIN A   1      19.121   0.869  14.902  0.00  0.00     0.331 A 
ATOM      9  N4  ZIN A   1      19.200   1.270  16.183  0.00  0.00    -0.325 N 
ATOM     10  O6  ZIN A   1      19.548   1.515  13.965  0.00  0.00    -0.246 OA
ATOM     11  C2  ZIN A   1      18.573   0.214  16.995  0.00  0.00     0.109 A 
ATOM     12  H29 ZIN A   1      19.592   2.095  16.510  0.00  0.00     0.165 HD
ATOM     13  C1  ZIN A   1      19.586  -0.388  17.971  0.00  0.00     0.049 C 
ATOM     14  C21 ZIN A   1      18.144  -0.817  15.968  0.00  0.00     0.260 A 
ATOM     15  C3  ZIN A   1      17.359   0.758  17.750  0.00  0.00     0.049 C 
ATOM     16  O22 ZIN A   1      17.580  -1.870  16.179  0.00  0.00    -0.270 OA
ENDBRANCH   1   7
BRANCH   5  17
ATOM     17  C16 ZIN A   1      19.760  -3.850  11.581  0.00  0.00     0.419 C 
ATOM     18  F17 ZIN A   1      20.089  -3.747  10.225  0.00  0.00    -0.166 F 
ATOM     19  F18 ZIN A   1      20.930  -3.846  12.347  0.00  0.00    -0.166 F 
ATOM     20  F19 ZIN A   1      19.061  -5.042  11.802  0.00  0.00    -0.166 F 
ENDBRANCH   5  17
BRANCH   4  21
ATOM     21  N12 ZIN A   1      17.670  -2.927   9.837  0.00  0.00    -0.115 N 
ATOM     22  O13 ZIN A   1      17.091  -3.998   9.805  0.00  0.00    -0.532 OA
ATOM     23  O14 ZIN A   1      18.067  -2.418   8.803  0.00  0.00    -0.532 OA
ENDBRANCH   4  21
TORSDOF 3
ENDMDL
