MODEL 1
REMARK VINA RESULT:      -7.1      0.000      0.000
REMARK  10 active torsions:
REMARK  status: ('A' for Active; 'I' for Inactive)
REMARK    1  A    between atoms: O2_2  and  C3_3 
REMARK    2  A    between atoms: C5_5  and  C6_6 
REMARK    3  A    between atoms: C6_6  and  N7_7 
REMARK       I    between atoms: N7_7  and  C8_8 
REMARK    4  A    between atoms: C8_8  and  C10_10 
REMARK    5  A    between atoms: C10_10  and  C11_11 
REMARK    6  A    between atoms: C11_11  and  C12_12 
REMARK    7  A    between atoms: C12_12  and  C13_13 
REMARK    8  A    between atoms: C13_13  and  C14_14 
REMARK    9  A    between atoms: C15_15  and  C16_16 
REMARK   10  A    between atoms: C21_21  and  O22_22 
ROOT
ATOM      1  N7  ZIN A   1      17.954   0.217  12.515  0.00  0.00    -0.357 N 
ATOM      2  C8  ZIN A   1      17.156  -0.196  11.510  0.00  0.00     0.217 C 
ATOM      3  O9  ZIN A   1      15.987   0.129  11.491  0.00  0.00    -0.274 OA
ATOM      4  H29 ZIN A   1      18.888  -0.042  12.530  0.00  0.00     0.162 HD
ENDROOT
BRANCH   1   5
ATOM      5  C6  ZIN A   1      17.410   1.058  13.583  0.00  0.00     0.161 C 
BRANCH   5   6
ATOM      6  C5  ZIN A   1      18.025   0.658  14.900  0.00  0.00    -0.038 A 
ATOM      7  C4  ZIN A   1      18.567   1.624  15.729  0.00  0.00     0.048 A 
ATOM      8  C3  ZIN A   1      19.133   1.258  16.940  0.00  0.00     0.101 A 
ATOM      9  C21 ZIN A   1      19.159  -0.081  17.315  0.00  0.00     0.099 A 
ATOM     10  C20 ZIN A   1      18.608  -1.042  16.483  0.00  0.00     0.040 A 
ATOM     11  C19 ZIN A   1      18.046  -0.671  15.276  0.00  0.00     0.012 A 
BRANCH   8  12
ATOM     12  O2  ZIN A   1      19.667   2.206  17.756  0.00  0.00    -0.353 OA
ATOM     13  C1  ZIN A   1      18.756   3.115  18.377  0.00  0.00     0.210 C 
ENDBRANCH   8  12
BRANCH   9  14
ATOM     14  O22 ZIN A   1      19.712  -0.446  18.503  0.00  0.00    -0.358 OA
ATOM     15  H49 ZIN A   1      19.261  -0.081  19.277  0.00  0.00     0.217 HD
ENDBRANCH   9  14
ENDBRANCH   5   6
ENDBRANCH   1   5
BRANCH   2  16
ATOM     16  C10 ZIN A   1      17.715  -1.061  10.410  0.00  0.00     0.103 C 
BRANCH  16  17
ATOM     17  C11 ZIN A   1      17.852  -0.235   9.130  0.00  0.00     0.010 C 
BRANCH  17  18
ATOM     18  C12 ZIN A   1      19.315   0.168   8.937  0.00  0.00     0.004 C 
BRANCH  18  19
ATOM     19  C13 ZIN A   1      19.387   1.624   8.473  0.00  0.00     0.027 C 
BRANCH  19  20
ATOM     20  C14 ZIN A   1      18.484   2.469   9.333  0.00  0.00    -0.030 C 
ATOM     21  C15 ZIN A   1      18.956   3.041  10.414  0.00  0.00    -0.027 C 
BRANCH  21  22
ATOM     22  C16 ZIN A   1      18.051   3.887  11.274  0.00  0.00    -0.001 C 
ATOM     23  C17 ZIN A   1      18.850   4.450  12.452  0.00  0.00     0.013 C 
ATOM     24  C18 ZIN A   1      17.490   5.041  10.441  0.00  0.00     0.013 C 
ENDBRANCH  21  22
ENDBRANCH  19  20
ENDBRANCH  18  19
ENDBRANCH  17  18
ENDBRANCH  16  17
ENDBRANCH   2  16
TORSDOF 10
ENDMDL
MODEL 2
REMARK VINA RESULT:      -6.8      3.553      8.421
REMARK  10 active torsions:
REMARK  status: ('A' for Active; 'I' for Inactive)
REMARK    1  A    between atoms: O2_2  and  C3_3 
REMARK    2  A    between atoms: C5_5  and  C6_6 
REMARK    3  A    between atoms: C6_6  and  N7_7 
REMARK       I    between atoms: N7_7  and  C8_8 
REMARK    4  A    between atoms: C8_8  and  C10_10 
REMARK    5  A    between atoms: C10_10  and  C11_11 
REMARK    6  A    between atoms: C11_11  and  C12_12 
REMARK    7  A    between atoms: C12_12  and  C13_13 
REMARK    8  A    between atoms: C13_13  and  C14_14 
REMARK    9  A    between atoms: C15_15  and  C16_16 
REMARK   10  A    between atoms: C21_21  and  O22_22 
ROOT
ATOM      1  N7  ZIN A   1      18.571   0.316  10.002  0.00  0.00    -0.357 N 
ATOM      2  C8  ZIN A   1      18.214   1.112  11.030  0.00  0.00     0.217 C 
ATOM      3  O9  ZIN A   1      17.040   1.311  11.263  0.00  0.00    -0.274 OA
ATOM      4  H29 ZIN A   1      19.509   0.157   9.816  0.00  0.00     0.162 HD
ENDROOT
BRANCH   1   5
ATOM      5  C6  ZIN A   1      17.542  -0.309   9.169  0.00  0.00     0.161 C 
BRANCH   5   6
ATOM      6  C5  ZIN A   1      18.123  -0.641   7.818  0.00  0.00    -0.038 A 
ATOM      7  C4  ZIN A   1      18.796  -1.835   7.632  0.00  0.00     0.048 A 
ATOM      8  C3  ZIN A   1      19.331  -2.141   6.390  0.00  0.00     0.101 A 
ATOM      9  C21 ZIN A   1      19.194  -1.244   5.337  0.00  0.00     0.099 A 
ATOM     10  C20 ZIN A   1      18.514  -0.052   5.529  0.00  0.00     0.040 A 
ATOM     11  C19 ZIN A   1      17.983   0.249   6.769  0.00  0.00     0.012 A 
BRANCH   8  12
ATOM     12  O2  ZIN A   1      19.993  -3.315   6.206  0.00  0.00    -0.353 OA
ATOM     13  C1  ZIN A   1      19.818  -4.323   7.203  0.00  0.00     0.210 C 
ENDBRANCH   8  12
BRANCH   9  14
ATOM     14  O22 ZIN A   1      19.717  -1.540   4.117  0.00  0.00    -0.358 OA
ATOM     15  H49 ZIN A   1      20.424  -0.943   3.835  0.00  0.00     0.217 HD
ENDBRANCH   9  14
ENDBRANCH   5   6
ENDBRANCH   1   5
BRANCH   2  16
ATOM     16  C10 ZIN A   1      19.272   1.755  11.889  0.00  0.00     0.103 C 
BRANCH  16  17
ATOM     17  C11 ZIN A   1      19.087   1.315  13.342  0.00  0.00     0.010 C 
BRANCH  17  18
ATOM     18  C12 ZIN A   1      20.054   0.172  13.657  0.00  0.00     0.004 C 
BRANCH  18  19
ATOM     19  C13 ZIN A   1      19.259  -1.083  14.021  0.00  0.00     0.027 C 
BRANCH  19  20
ATOM     20  C14 ZIN A   1      19.256  -2.033  12.853  0.00  0.00    -0.030 C 
ATOM     21  C15 ZIN A   1      18.121  -2.433  12.336  0.00  0.00    -0.027 C 
BRANCH  21  22
ATOM     22  C16 ZIN A   1      18.119  -3.384  11.166  0.00  0.00    -0.001 C 
ATOM     23  C17 ZIN A   1      19.490  -4.057  11.055  0.00  0.00     0.013 C 
ATOM     24  C18 ZIN A   1      17.043  -4.450  11.377  0.00  0.00     0.013 C 
ENDBRANCH  21  22
ENDBRANCH  19  20
ENDBRANCH  18  19
ENDBRANCH  17  18
ENDBRANCH  16  17
ENDBRANCH   2  16
TORSDOF 10
ENDMDL
MODEL 3
REMARK VINA RESULT:      -6.8      3.310      7.676
REMARK  10 active torsions:
REMARK  status: ('A' for Active; 'I' for Inactive)
REMARK    1  A    between atoms: O2_2  and  C3_3 
REMARK    2  A    between atoms: C5_5  and  C6_6 
REMARK    3  A    between atoms: C6_6  and  N7_7 
REMARK       I    between atoms: N7_7  and  C8_8 
REMARK    4  A    between atoms: C8_8  and  C10_10 
REMARK    5  A    between atoms: C10_10  and  C11_11 
REMARK    6  A    between atoms: C11_11  and  C12_12 
REMARK    7  A    between atoms: C12_12  and  C13_13 
REMARK    8  A    between atoms: C13_13  and  C14_14 
REMARK    9  A    between atoms: C15_15  and  C16_16 
REMARK   10  A    between atoms: C21_21  and  O22_22 
ROOT
ATOM      1  N7  ZIN A   1      18.418  -1.261  10.294  0.00  0.00    -0.357 N 
ATOM      2  C8  ZIN A   1      17.963  -1.542  11.531  0.00  0.00     0.217 C 
ATOM      3  O9  ZIN A   1      16.806  -1.317  11.817  0.00  0.00    -0.274 OA
ATOM      4  H29 ZIN A   1      19.343  -1.442  10.066  0.00  0.00     0.162 HD
ENDROOT
BRANCH   1   5
ATOM      5  C6  ZIN A   1      17.515  -0.685   9.296  0.00  0.00     0.161 C 
BRANCH   5   6
ATOM      6  C5  ZIN A   1      18.087  -0.902   7.917  0.00  0.00    -0.038 A 
ATOM      7  C4  ZIN A   1      18.837  -2.033   7.653  0.00  0.00     0.048 A 
ATOM      8  C3  ZIN A   1      19.363  -2.234   6.386  0.00  0.00     0.101 A 
ATOM      9  C21 ZIN A   1      19.138  -1.294   5.386  0.00  0.00     0.099 A 
ATOM     10  C20 ZIN A   1      18.381  -0.165   5.657  0.00  0.00     0.040 A 
ATOM     11  C19 ZIN A   1      17.859   0.030   6.922  0.00  0.00     0.012 A 
BRANCH   8  12
ATOM     12  O2  ZIN A   1      20.101  -3.346   6.125  0.00  0.00    -0.353 OA
ATOM     13  C1  ZIN A   1      19.911  -4.469   6.987  0.00  0.00     0.210 C 
ENDBRANCH   8  12
BRANCH   9  14
ATOM     14  O22 ZIN A   1      19.652  -1.486   4.142  0.00  0.00    -0.358 OA
ATOM     15  H49 ZIN A   1      19.386  -2.320   3.730  0.00  0.00     0.217 HD
ENDBRANCH   9  14
ENDBRANCH   5   6
ENDBRANCH   1   5
BRANCH   2  16
ATOM     16  C10 ZIN A   1      18.892  -2.136  12.560  0.00  0.00     0.103 C 
BRANCH  16  17
ATOM     17  C11 ZIN A   1      18.751  -1.372  13.877  0.00  0.00     0.010 C 
BRANCH  17  18
ATOM     18  C12 ZIN A   1      19.534  -0.060  13.792  0.00  0.00     0.004 C 
BRANCH  18  19
ATOM     19  C13 ZIN A   1      18.562   1.120  13.843  0.00  0.00     0.027 C 
BRANCH  19  20
ATOM     20  C14 ZIN A   1      18.949   2.134  12.800  0.00  0.00    -0.030 C 
ATOM     21  C15 ZIN A   1      18.174   2.335  11.762  0.00  0.00    -0.027 C 
BRANCH  21  22
ATOM     22  C16 ZIN A   1      18.562   3.351  10.718  0.00  0.00    -0.001 C 
ATOM     23  C17 ZIN A   1      18.818   2.641   9.387  0.00  0.00     0.013 C 
ATOM     24  C18 ZIN A   1      17.427   4.363  10.547  0.00  0.00     0.013 C 
ENDBRANCH  21  22
ENDBRANCH  19  20
ENDBRANCH  18  19
ENDBRANCH  17  18
ENDBRANCH  16  17
ENDBRANCH   2  16
TORSDOF 10
ENDMDL
MODEL 4
REMARK VINA RESULT:      -6.7      1.854      3.596
REMARK  10 active torsions:
REMARK  status: ('A' for Active; 'I' for Inactive)
REMARK    1  A    between atoms: O2_2  and  C3_3 
REMARK    2  A    between atoms: C5_5  and  C6_6 
REMARK    3  A    between atoms: C6_6  and  N7_7 
REMARK       I    between atoms: N7_7  and  C8_8 
REMARK    4  A    between atoms: C8_8  and  C10_10 
REMARK    5  A    between atoms: C10_10  and  C11_11 
REMARK    6  A    between atoms: C11_11  and  C12_12 
REMARK    7  A    between atoms: C12_12  and  C13_13 
REMARK    8  A    between atoms: C13_13  and  C14_14 
REMARK    9  A    between atoms: C15_15  and  C16_16 
REMARK   10  A    between atoms: C21_21  and  O22_22 
ROOT
ATOM      1  N7  ZIN A   1      18.062   0.817  12.863  0.00  0.00    -0.357 N 
ATOM      2  C8  ZIN A   1      17.236   0.927  11.803  0.00  0.00     0.217 C 
ATOM      3  O9  ZIN A   1      16.270   0.200  11.709  0.00  0.00    -0.274 OA
ATOM      4  H29 ZIN A   1      18.834   1.399  12.938  0.00  0.00     0.162 HD
ENDROOT
BRANCH   1   5
ATOM      5  C6  ZIN A   1      17.792  -0.181  13.900  0.00  0.00     0.161 C 
BRANCH   5   6
ATOM      6  C5  ZIN A   1      18.275   0.336  15.232  0.00  0.00    -0.038 A 
ATOM      7  C4  ZIN A   1      18.903   1.565  15.307  0.00  0.00     0.048 A 
ATOM      8  C3  ZIN A   1      19.347   2.042  16.530  0.00  0.00     0.101 A 
ATOM      9  C21 ZIN A   1      19.164   1.278  17.678  0.00  0.00     0.099 A 
ATOM     10  C20 ZIN A   1      18.529   0.050  17.596  0.00  0.00     0.040 A 
ATOM     11  C19 ZIN A   1      18.088  -0.421  16.373  0.00  0.00     0.012 A 
BRANCH   8  12
ATOM     12  O2  ZIN A   1      19.966   3.250  16.606  0.00  0.00    -0.353 OA
ATOM     13  C1  ZIN A   1      19.135   4.411  16.530  0.00  0.00     0.210 C 
ENDBRANCH   8  12
BRANCH   9  14
ATOM     14  O22 ZIN A   1      19.598   1.742  18.881  0.00  0.00    -0.358 OA
ATOM     15  H49 ZIN A   1      20.105   1.096  19.392  0.00  0.00     0.217 HD
ENDBRANCH   9  14
ENDBRANCH   5   6
ENDBRANCH   1   5
BRANCH   2  16
ATOM     16  C10 ZIN A   1      17.513   1.955  10.735  0.00  0.00     0.103 C 
BRANCH  16  17
ATOM     17  C11 ZIN A   1      19.017   2.225  10.664  0.00  0.00     0.010 C 
BRANCH  17  18
ATOM     18  C12 ZIN A   1      19.602   1.532   9.431  0.00  0.00     0.004 C 
BRANCH  18  19
ATOM     19  C13 ZIN A   1      18.855   1.998   8.181  0.00  0.00     0.027 C 
BRANCH  19  20
ATOM     20  C14 ZIN A   1      19.025   0.979   7.085  0.00  0.00    -0.030 C 
ATOM     21  C15 ZIN A   1      18.000   0.264   6.690  0.00  0.00    -0.027 C 
BRANCH  21  22
ATOM     22  C16 ZIN A   1      18.171  -0.755   5.593  0.00  0.00    -0.001 C 
ATOM     23  C17 ZIN A   1      18.779  -0.081   4.360  0.00  0.00     0.013 C 
ATOM     24  C18 ZIN A   1      19.102  -1.870   6.074  0.00  0.00     0.013 C 
ENDBRANCH  21  22
ENDBRANCH  19  20
ENDBRANCH  18  19
ENDBRANCH  17  18
ENDBRANCH  16  17
ENDBRANCH   2  16
TORSDOF 10
ENDMDL
MODEL 5
REMARK VINA RESULT:      -6.7      3.170      8.457
REMARK  10 active torsions:
REMARK  status: ('A' for Active; 'I' for Inactive)
REMARK    1  A    between atoms: O2_2  and  C3_3 
REMARK    2  A    between atoms: C5_5  and  C6_6 
REMARK    3  A    between atoms: C6_6  and  N7_7 
REMARK       I    between atoms: N7_7  and  C8_8 
REMARK    4  A    between atoms: C8_8  and  C10_10 
REMARK    5  A    between atoms: C10_10  and  C11_11 
REMARK    6  A    between atoms: C11_11  and  C12_12 
REMARK    7  A    between atoms: C12_12  and  C13_13 
REMARK    8  A    between atoms: C13_13  and  C14_14 
REMARK    9  A    between atoms: C15_15  and  C16_16 
REMARK   10  A    between atoms: C21_21  and  O22_22 
ROOT
ATOM      1  N7  ZIN A   1      18.108   0.248   9.843  0.00  0.00    -0.357 N 
ATOM      2  C8  ZIN A   1      17.456   0.724  10.922  0.00  0.00     0.217 C 
ATOM      3  O9  ZIN A   1      17.208   1.909  11.007  0.00  0.00    -0.274 OA
ATOM      4  H29 ZIN A   1      18.305  -0.699   9.775  0.00  0.00     0.162 HD
ENDROOT
BRANCH   1   5
ATOM      5  C6  ZIN A   1      18.516   1.160   8.773  0.00  0.00     0.161 C 
BRANCH   5   6
ATOM      6  C5  ZIN A   1      18.804   0.370   7.521  0.00  0.00    -0.038 A 
ATOM      7  C4  ZIN A   1      19.195  -0.953   7.617  0.00  0.00     0.048 A 
ATOM      8  C3  ZIN A   1      19.460  -1.681   6.468  0.00  0.00     0.101 A 
ATOM      9  C21 ZIN A   1      19.336  -1.076   5.221  0.00  0.00     0.099 A 
ATOM     10  C20 ZIN A   1      18.938   0.248   5.133  0.00  0.00     0.040 A 
ATOM     11  C19 ZIN A   1      18.676   0.969   6.283  0.00  0.00     0.012 A 
BRANCH   8  12
ATOM     12  O2  ZIN A   1      19.846  -2.982   6.560  0.00  0.00    -0.353 OA
ATOM     13  C1  ZIN A   1      19.199  -3.782   7.552  0.00  0.00     0.210 C 
ENDBRANCH   8  12
BRANCH   9  14
ATOM     14  O22 ZIN A   1      19.595  -1.787   4.091  0.00  0.00    -0.358 OA
ATOM     15  H49 ZIN A   1      18.833  -2.277   3.751  0.00  0.00     0.217 HD
ENDBRANCH   9  14
ENDBRANCH   5   6
ENDBRANCH   1   5
BRANCH   2  16
ATOM     16  C10 ZIN A   1      17.034  -0.214  12.024  0.00  0.00     0.103 C 
BRANCH  16  17
ATOM     17  C11 ZIN A   1      18.210  -1.116  12.404  0.00  0.00     0.010 C 
BRANCH  17  18
ATOM     18  C12 ZIN A   1      18.819  -0.632  13.722  0.00  0.00     0.004 C 
BRANCH  18  19
ATOM     19  C13 ZIN A   1      18.248  -1.452  14.880  0.00  0.00     0.027 C 
BRANCH  19  20
ATOM     20  C14 ZIN A   1      18.648  -0.822  16.188  0.00  0.00    -0.030 C 
ATOM     21  C15 ZIN A   1      17.729  -0.467  17.052  0.00  0.00    -0.027 C 
BRANCH  21  22
ATOM     22  C16 ZIN A   1      18.131   0.164  18.361  0.00  0.00    -0.001 C 
ATOM     23  C17 ZIN A   1      19.599   0.592  18.291  0.00  0.00     0.013 C 
ATOM     24  C18 ZIN A   1      17.255   1.391  18.626  0.00  0.00     0.013 C 
ENDBRANCH  21  22
ENDBRANCH  19  20
ENDBRANCH  18  19
ENDBRANCH  17  18
ENDBRANCH  16  17
ENDBRANCH   2  16
TORSDOF 10
ENDMDL
MODEL 6
REMARK VINA RESULT:      -6.7      1.978      2.996
REMARK  10 active torsions:
REMARK  status: ('A' for Active; 'I' for Inactive)
REMARK    1  A    between atoms: O2_2  and  C3_3 
REMARK    2  A    between atoms: C5_5  and  C6_6 
REMARK    3  A    between atoms: C6_6  and  N7_7 
REMARK       I    between atoms: N7_7  and  C8_8 
REMARK    4  A    between atoms: C8_8  and  C10_10 
REMARK    5  A    between atoms: C10_10  and  C11_11 
REMARK    6  A    between atoms: C11_11  and  C12_12 
REMARK    7  A    between atoms: C12_12  and  C13_13 
REMARK    8  A    between atoms: C13_13  and  C14_14 
REMARK    9  A    between atoms: C15_15  and  C16_16 
REMARK   10  A    between atoms: C21_21  and  O22_22 
ROOT
ATOM      1  N7  ZIN A   1      19.651  -2.023  10.401  0.00  0.00    -0.357 N 
ATOM      2  C8  ZIN A   1      18.902  -2.242   9.301  0.00  0.00     0.217 C 
ATOM      3  O9  ZIN A   1      17.893  -2.910   9.379  0.00  0.00    -0.274 OA
ATOM      4  H29 ZIN A   1      20.458  -1.489  10.339  0.00  0.00     0.162 HD
ENDROOT
BRANCH   1   5
ATOM      5  C6  ZIN A   1      19.244  -2.591  11.688  0.00  0.00     0.161 C 
BRANCH   5   6
ATOM      6  C5  ZIN A   1      18.740  -1.489  12.586  0.00  0.00    -0.038 A 
ATOM      7  C4  ZIN A   1      19.221  -1.379  13.878  0.00  0.00     0.048 A 
ATOM      8  C3  ZIN A   1      18.759  -0.367  14.704  0.00  0.00     0.101 A 
ATOM      9  C21 ZIN A   1      17.808   0.532  14.233  0.00  0.00     0.099 A 
ATOM     10  C20 ZIN A   1      17.335   0.419  12.935  0.00  0.00     0.040 A 
ATOM     11  C19 ZIN A   1      17.799  -0.593  12.116  0.00  0.00     0.012 A 
BRANCH   8  12
ATOM     12  O2  ZIN A   1      19.230  -0.258  15.975  0.00  0.00    -0.353 OA
ATOM     13  C1  ZIN A   1      18.514  -0.955  16.996  0.00  0.00     0.210 C 
ENDBRANCH   8  12
BRANCH   9  14
ATOM     14  O22 ZIN A   1      17.351   1.527  15.040  0.00  0.00    -0.358 OA
ATOM     15  H49 ZIN A   1      16.805   1.218  15.776  0.00  0.00     0.217 HD
ENDBRANCH   9  14
ENDBRANCH   5   6
ENDBRANCH   1   5
BRANCH   2  16
ATOM     16  C10 ZIN A   1      19.320  -1.659   7.976  0.00  0.00     0.103 C 
BRANCH  16  17
ATOM     17  C11 ZIN A   1      18.246  -0.686   7.485  0.00  0.00     0.010 C 
BRANCH  17  18
ATOM     18  C12 ZIN A   1      18.030   0.407   8.534  0.00  0.00     0.004 C 
BRANCH  18  19
ATOM     19  C13 ZIN A   1      19.149   1.444   8.429  0.00  0.00     0.027 C 
BRANCH  19  20
ATOM     20  C14 ZIN A   1      19.063   2.396   9.593  0.00  0.00    -0.030 C 
ATOM     21  C15 ZIN A   1      17.897   2.694  10.111  0.00  0.00    -0.027 C 
BRANCH  21  22
ATOM     22  C16 ZIN A   1      17.811   3.646  11.276  0.00  0.00    -0.001 C 
ATOM     23  C17 ZIN A   1      19.217   3.907  11.824  0.00  0.00     0.013 C 
ATOM     24  C18 ZIN A   1      17.192   4.966  10.812  0.00  0.00     0.013 C 
ENDBRANCH  21  22
ENDBRANCH  19  20
ENDBRANCH  18  19
ENDBRANCH  17  18
ENDBRANCH  16  17
ENDBRANCH   2  16
TORSDOF 10
ENDMDL
MODEL 7
REMARK VINA RESULT:      -6.5      4.256      9.047
REMARK  10 active torsions:
REMARK  status: ('A' for Active; 'I' for Inactive)
REMARK    1  A    between atoms: O2_2  and  C3_3 
REMARK    2  A    between atoms: C5_5  and  C6_6 
REMARK    3  A    between atoms: C6_6  and  N7_7 
REMARK       I    between atoms: N7_7  and  C8_8 
REMARK    4  A    between atoms: C8_8  and  C10_10 
REMARK    5  A    between atoms: C10_10  and  C11_11 
REMARK    6  A    between atoms: C11_11  and  C12_12 
REMARK    7  A    between atoms: C12_12  and  C13_13 
REMARK    8  A    between atoms: C13_13  and  C14_14 
REMARK    9  A    between atoms: C15_15  and  C16_16 
REMARK   10  A    between atoms: C21_21  and  O22_22 
ROOT
ATOM      1  N7  ZIN A   1      18.059  -0.341   9.973  0.00  0.00    -0.357 N 
ATOM      2  C8  ZIN A   1      17.479  -0.435  11.186  0.00  0.00     0.217 C 
ATOM      3  O9  ZIN A   1      16.304  -0.164  11.319  0.00  0.00    -0.274 OA
ATOM      4  H29 ZIN A   1      18.998  -0.557   9.867  0.00  0.00     0.162 HD
ENDROOT
BRANCH   1   5
ATOM      5  C6  ZIN A   1      17.270   0.088   8.816  0.00  0.00     0.161 C 
BRANCH   5   6
ATOM      6  C5  ZIN A   1      17.916  -0.420   7.552  0.00  0.00    -0.038 A 
ATOM      7  C4  ZIN A   1      18.701  -1.558   7.589  0.00  0.00     0.048 A 
ATOM      8  C3  ZIN A   1      19.296  -2.027   6.428  0.00  0.00     0.101 A 
ATOM      9  C21 ZIN A   1      19.105  -1.347   5.229  0.00  0.00     0.099 A 
ATOM     10  C20 ZIN A   1      18.313  -0.211   5.199  0.00  0.00     0.040 A 
ATOM     11  C19 ZIN A   1      17.722   0.252   6.360  0.00  0.00     0.012 A 
BRANCH   8  12
ATOM     12  O2  ZIN A   1      20.068  -3.145   6.462  0.00  0.00    -0.353 OA
ATOM     13  C1  ZIN A   1      19.390  -4.402   6.502  0.00  0.00     0.210 C 
ENDBRANCH   8  12
BRANCH   9  14
ATOM     14  O22 ZIN A   1      19.686  -1.802   4.087  0.00  0.00    -0.358 OA
ATOM     15  H49 ZIN A   1      20.579  -1.463   3.936  0.00  0.00     0.217 HD
ENDBRANCH   9  14
ENDBRANCH   5   6
ENDBRANCH   1   5
BRANCH   2  16
ATOM     16  C10 ZIN A   1      18.290  -0.876  12.378  0.00  0.00     0.103 C 
BRANCH  16  17
ATOM     17  C11 ZIN A   1      19.325  -1.912  11.935  0.00  0.00     0.010 C 
BRANCH  17  18
ATOM     18  C12 ZIN A   1      18.639  -3.263  11.727  0.00  0.00     0.004 C 
BRANCH  18  19
ATOM     19  C13 ZIN A   1      19.429  -4.086  10.708  0.00  0.00     0.027 C 
BRANCH  19  20
ATOM     20  C14 ZIN A   1      18.606  -5.269  10.272  0.00  0.00    -0.030 C 
ATOM     21  C15 ZIN A   1      17.458  -5.083   9.668  0.00  0.00    -0.027 C 
BRANCH  21  22
ATOM     22  C16 ZIN A   1      16.636  -6.269   9.232  0.00  0.00    -0.001 C 
ATOM     23  C17 ZIN A   1      15.303  -5.781   8.658  0.00  0.00     0.013 C 
ATOM     24  C18 ZIN A   1      17.397  -7.050   8.159  0.00  0.00     0.013 C 
ENDBRANCH  21  22
ENDBRANCH  19  20
ENDBRANCH  18  19
ENDBRANCH  17  18
ENDBRANCH  16  17
ENDBRANCH   2  16
TORSDOF 10
ENDMDL
MODEL 8
REMARK VINA RESULT:      -6.5      2.122      4.677
REMARK  10 active torsions:
REMARK  status: ('A' for Active; 'I' for Inactive)
REMARK    1  A    between atoms: O2_2  and  C3_3 
REMARK    2  A    between atoms: C5_5  and  C6_6 
REMARK    3  A    between atoms: C6_6  and  N7_7 
REMARK       I    between atoms: N7_7  and  C8_8 
REMARK    4  A    between atoms: C8_8  and  C10_10 
REMARK    5  A    between atoms: C10_10  and  C11_11 
REMARK    6  A    between atoms: C11_11  and  C12_12 
REMARK    7  A    between atoms: C12_12  and  C13_13 
REMARK    8  A    between atoms: C13_13  and  C14_14 
REMARK    9  A    between atoms: C15_15  and  C16_16 
REMARK   10  A    between atoms: C21_21  and  O22_22 
ROOT
ATOM      1  N7  ZIN A   1      17.519   2.339  11.811  0.00  0.00    -0.357 N 
ATOM      2  C8  ZIN A   1      17.903   1.656  10.715  0.00  0.00     0.217 C 
ATOM      3  O9  ZIN A   1      18.776   2.100   9.999  0.00  0.00    -0.274 OA
ATOM      4  H29 ZIN A   1      16.822   1.984  12.383  0.00  0.00     0.162 HD
ENDROOT
BRANCH   1   5
ATOM      5  C6  ZIN A   1      18.156   3.617  12.138  0.00  0.00     0.161 C 
BRANCH   5   6
ATOM      6  C5  ZIN A   1      18.577   3.612  13.586  0.00  0.00    -0.038 A 
ATOM      7  C4  ZIN A   1      19.280   4.685  14.102  0.00  0.00     0.048 A 
ATOM      8  C3  ZIN A   1      19.668   4.682  15.433  0.00  0.00     0.101 A 
ATOM      9  C21 ZIN A   1      19.354   3.596  16.244  0.00  0.00     0.099 A 
ATOM     10  C20 ZIN A   1      18.645   2.527  15.720  0.00  0.00     0.040 A 
ATOM     11  C19 ZIN A   1      18.261   2.535  14.392  0.00  0.00     0.012 A 
BRANCH   8  12
ATOM     12  O2  ZIN A   1      20.359   5.737  15.943  0.00  0.00    -0.353 OA
ATOM     13  C1  ZIN A   1      21.656   5.988  15.397  0.00  0.00     0.210 C 
ENDBRANCH   8  12
BRANCH   9  14
ATOM     14  O22 ZIN A   1      19.731   3.589  17.550  0.00  0.00    -0.358 OA
ATOM     15  H49 ZIN A   1      20.271   4.349  17.809  0.00  0.00     0.217 HD
ENDBRANCH   9  14
ENDBRANCH   5   6
ENDBRANCH   1   5
BRANCH   2  16
ATOM     16  C10 ZIN A   1      17.248   0.341  10.377  0.00  0.00     0.103 C 
BRANCH  16  17
ATOM     17  C11 ZIN A   1      16.957  -0.430  11.666  0.00  0.00     0.010 C 
BRANCH  17  18
ATOM     18  C12 ZIN A   1      17.992  -1.543  11.840  0.00  0.00     0.004 C 
BRANCH  18  19
ATOM     19  C13 ZIN A   1      19.009  -1.133  12.907  0.00  0.00     0.027 C 
BRANCH  19  20
ATOM     20  C14 ZIN A   1      18.418  -1.355  14.275  0.00  0.00    -0.030 C 
ATOM     21  C15 ZIN A   1      19.109  -1.047  15.344  0.00  0.00    -0.027 C 
BRANCH  21  22
ATOM     22  C16 ZIN A   1      18.517  -1.269  16.713  0.00  0.00    -0.001 C 
ATOM     23  C17 ZIN A   1      19.326  -0.487  17.751  0.00  0.00     0.013 C 
ATOM     24  C18 ZIN A   1      17.066  -0.783  16.725  0.00  0.00     0.013 C 
ENDBRANCH  21  22
ENDBRANCH  19  20
ENDBRANCH  18  19
ENDBRANCH  17  18
ENDBRANCH  16  17
ENDBRANCH   2  16
TORSDOF 10
ENDMDL
MODEL 9
REMARK VINA RESULT:      -6.5      2.527      5.400
REMARK  10 active torsions:
REMARK  status: ('A' for Active; 'I' for Inactive)
REMARK    1  A    between atoms: O2_2  and  C3_3 
REMARK    2  A    between atoms: C5_5  and  C6_6 
REMARK    3  A    between atoms: C6_6  and  N7_7 
REMARK       I    between atoms: N7_7  and  C8_8 
REMARK    4  A    between atoms: C8_8  and  C10_10 
REMARK    5  A    between atoms: C10_10  and  C11_11 
REMARK    6  A    between atoms: C11_11  and  C12_12 
REMARK    7  A    between atoms: C12_12  and  C13_13 
REMARK    8  A    between atoms: C13_13  and  C14_14 
REMARK    9  A    between atoms: C15_15  and  C16_16 
REMARK   10  A    between atoms: C21_21  and  O22_22 
ROOT
ATOM      1  N7  ZIN A   1      18.004   0.342  10.596  0.00  0.00    -0.357 N 
ATOM      2  C8  ZIN A   1      17.112  -0.400  11.282  0.00  0.00     0.217 C 
ATOM      3  O9  ZIN A   1      16.021   0.058  11.550  0.00  0.00    -0.274 OA
ATOM      4  H29 ZIN A   1      18.876  -0.024  10.382  0.00  0.00     0.162 HD
ENDROOT
BRANCH   1   5
ATOM      5  C6  ZIN A   1      17.656   1.700  10.173  0.00  0.00     0.161 C 
BRANCH   5   6
ATOM      6  C5  ZIN A   1      18.267   2.696  11.126  0.00  0.00    -0.038 A 
ATOM      7  C4  ZIN A   1      17.468   3.342  12.052  0.00  0.00     0.048 A 
ATOM      8  C3  ZIN A   1      18.028   4.258  12.929  0.00  0.00     0.101 A 
ATOM      9  C21 ZIN A   1      19.392   4.527  12.871  0.00  0.00     0.099 A 
ATOM     10  C20 ZIN A   1      20.186   3.871  11.945  0.00  0.00     0.040 A 
ATOM     11  C19 ZIN A   1      19.622   2.959  11.073  0.00  0.00     0.012 A 
BRANCH   8  12
ATOM     12  O2  ZIN A   1      17.245   4.895  13.840  0.00  0.00    -0.353 OA
ATOM     13  C1  ZIN A   1      16.237   5.770  13.330  0.00  0.00     0.210 C 
ENDBRANCH   8  12
BRANCH   9  14
ATOM     14  O22 ZIN A   1      19.946   5.424  13.730  0.00  0.00    -0.358 OA
ATOM     15  H49 ZIN A   1      19.444   6.246  13.820  0.00  0.00     0.217 HD
ENDBRANCH   9  14
ENDBRANCH   5   6
ENDBRANCH   1   5
BRANCH   2  16
ATOM     16  C10 ZIN A   1      17.470  -1.798  11.718  0.00  0.00     0.103 C 
BRANCH  16  17
ATOM     17  C11 ZIN A   1      18.988  -1.913  11.867  0.00  0.00     0.010 C 
BRANCH  17  18
ATOM     18  C12 ZIN A   1      19.380  -1.646  13.322  0.00  0.00     0.004 C 
BRANCH  18  19
ATOM     19  C13 ZIN A   1      19.889  -0.210  13.457  0.00  0.00     0.027 C 
BRANCH  19  20
ATOM     20  C14 ZIN A   1      19.291   0.421  14.687  0.00  0.00    -0.030 C 
ATOM     21  C15 ZIN A   1      18.861  -0.334  15.668  0.00  0.00    -0.027 C 
BRANCH  21  22
ATOM     22  C16 ZIN A   1      18.263   0.299  16.899  0.00  0.00    -0.001 C 
ATOM     23  C17 ZIN A   1      16.843  -0.233  17.105  0.00  0.00     0.013 C 
ATOM     24  C18 ZIN A   1      19.120  -0.049  18.118  0.00  0.00     0.013 C 
ENDBRANCH  21  22
ENDBRANCH  19  20
ENDBRANCH  18  19
ENDBRANCH  17  18
ENDBRANCH  16  17
ENDBRANCH   2  16
TORSDOF 10
ENDMDL
