MODEL 1
REMARK VINA RESULT:      -6.0      0.000      0.000
REMARK  13 active torsions:
REMARK  status: ('A' for Active; 'I' for Inactive)
REMARK    1  A    between atoms: C2_2  and  C3_3 
REMARK    2  A    between atoms: C3_3  and  C4_4 
REMARK    3  A    between atoms: C4_4  and  O5_5 
REMARK    4  A    between atoms: O5_5  and  C6_6 
REMARK    5  A    between atoms: C6_6  and  C7_7 
REMARK    6  A    between atoms: C7_7  and  O8_8 
REMARK    7  A    between atoms: O8_8  and  C9_9 
REMARK    8  A    between atoms: C9_9  and  C10_10 
REMARK    9  A    between atoms: C10_10  and  O11_11 
REMARK   10  A    between atoms: O11_11  and  C12_12 
REMARK   11  A    between atoms: C12_12  and  C13_13 
REMARK   12  A    between atoms: C18_18  and  C19_19 
REMARK   13  A    between atoms: C19_19  and  C20_20 
ROOT
ATOM      1  C13 <0> d   1      17.677   0.949   9.947  0.00  0.00    -0.025 A 
ATOM      2  C14 <0> d   1      17.453  -0.106   9.081  0.00  0.00     0.049 A 
ATOM      3  C15 <0> d   1      18.014  -0.095   7.815  0.00  0.00     0.105 A 
ATOM      4  C16 <0> d   1      18.804   0.980   7.417  0.00  0.00     0.105 A 
ATOM      5  C17 <0> d   1      19.024   2.034   8.289  0.00  0.00     0.047 A 
ATOM      6  C18 <0> d   1      18.457   2.019   9.550  0.00  0.00    -0.047 A 
ATOM      7  O22 <0> d   1      19.236   0.756   6.142  0.00  0.00    -0.323 OA
ATOM      8  C23 <0> d   1      19.041  -0.652   5.911  0.00  0.00     0.352 C 
ATOM      9  O24 <0> d   1      17.951  -0.993   6.790  0.00  0.00    -0.323 OA
ENDROOT
BRANCH   1  10
ATOM     10  C12 <0> d   1      17.065   0.934  11.324  0.00  0.00     0.207 C 
BRANCH  10  11
ATOM     11  O11 <0> d   1      17.256  -0.352  11.917  0.00  0.00    -0.385 OA
BRANCH  11  12
ATOM     12  C10 <0> d   1      17.647  -0.306  13.291  0.00  0.00     0.194 C 
BRANCH  12  13
ATOM     13  C9  <0> d   1      18.828   0.653  13.452  0.00  0.00     0.193 C 
BRANCH  13  14
ATOM     14  O8  <0> d   1      20.048  -0.045  13.199  0.00  0.00    -0.387 OA
BRANCH  14  15
ATOM     15  C7  <0> d   1      20.744   0.404  12.034  0.00  0.00     0.193 C 
BRANCH  15  16
ATOM     16  C6  <0> d   1      20.664  -0.669  10.946  0.00  0.00     0.193 C 
BRANCH  16  17
ATOM     17  O5  <0> d   1      20.223  -1.900  11.522  0.00  0.00    -0.389 OA
BRANCH  17  18
ATOM     18  C4  <0> d   1      19.518  -2.747  10.612  0.00  0.00     0.167 C 
BRANCH  18  19
ATOM     19  C3  <0> d   1      19.617  -4.198  11.087  0.00  0.00     0.026 C 
BRANCH  19  20
ATOM     20  C2  <0> d   1      18.951  -5.117  10.060  0.00  0.00    -0.002 C 
ATOM     21  C1  <0> d   1      20.016  -5.697   9.127  0.00  0.00     0.005 C 
ENDBRANCH  19  20
ENDBRANCH  18  19
ENDBRANCH  17  18
ENDBRANCH  16  17
ENDBRANCH  15  16
ENDBRANCH  14  15
ENDBRANCH  13  14
ENDBRANCH  12  13
ENDBRANCH  11  12
ENDBRANCH  10  11
ENDBRANCH   1  10
BRANCH   6  22
ATOM     22  C19 <0> d   1      18.697   3.166  10.496  0.00  0.00     0.039 C 
BRANCH  22  23
ATOM     23  C20 <0> d   1      17.857   4.369  10.062  0.00  0.00     0.000 C 
ATOM     24  C21 <0> d   1      16.903   4.759  11.195  0.00  0.00     0.005 C 
ENDBRANCH  22  23
ENDBRANCH   6  22
TORSDOF 13
ENDMDL
MODEL 2
REMARK VINA RESULT:      -6.0      1.960      4.377
REMARK  13 active torsions:
REMARK  status: ('A' for Active; 'I' for Inactive)
REMARK    1  A    between atoms: C2_2  and  C3_3 
REMARK    2  A    between atoms: C3_3  and  C4_4 
REMARK    3  A    between atoms: C4_4  and  O5_5 
REMARK    4  A    between atoms: O5_5  and  C6_6 
REMARK    5  A    between atoms: C6_6  and  C7_7 
REMARK    6  A    between atoms: C7_7  and  O8_8 
REMARK    7  A    between atoms: O8_8  and  C9_9 
REMARK    8  A    between atoms: C9_9  and  C10_10 
REMARK    9  A    between atoms: C10_10  and  O11_11 
REMARK   10  A    between atoms: O11_11  and  C12_12 
REMARK   11  A    between atoms: C12_12  and  C13_13 
REMARK   12  A    between atoms: C18_18  and  C19_19 
REMARK   13  A    between atoms: C19_19  and  C20_20 
ROOT
ATOM      1  C13 <0> d   1      17.743   0.670   9.678  0.00  0.00    -0.025 A 
ATOM      2  C14 <0> d   1      17.553  -0.318   8.730  0.00  0.00     0.049 A 
ATOM      3  C15 <0> d   1      18.096  -0.177   7.463  0.00  0.00     0.105 A 
ATOM      4  C16 <0> d   1      18.832   0.961   7.148  0.00  0.00     0.105 A 
ATOM      5  C17 <0> d   1      19.018   1.949   8.103  0.00  0.00     0.047 A 
ATOM      6  C18 <0> d   1      18.469   1.804   9.363  0.00  0.00    -0.047 A 
ATOM      7  O22 <0> d   1      19.256   0.863   5.854  0.00  0.00    -0.323 OA
ATOM      8  C23 <0> d   1      19.119  -0.528   5.510  0.00  0.00     0.352 C 
ATOM      9  O24 <0> d   1      18.058  -0.990   6.367  0.00  0.00    -0.323 OA
ENDROOT
BRANCH   1  10
ATOM     10  C12 <0> d   1      17.151   0.515  11.055  0.00  0.00     0.207 C 
BRANCH  10  11
ATOM     11  O11 <0> d   1      16.711  -0.833  11.235  0.00  0.00    -0.385 OA
BRANCH  11  12
ATOM     12  C10 <0> d   1      17.603  -1.637  12.010  0.00  0.00     0.194 C 
BRANCH  12  13
ATOM     13  C9  <0> d   1      17.968  -0.896  13.297  0.00  0.00     0.193 C 
BRANCH  13  14
ATOM     14  O8  <0> d   1      19.389  -0.791  13.401  0.00  0.00    -0.387 OA
BRANCH  14  15
ATOM     15  C7  <0> d   1      19.846   0.481  13.865  0.00  0.00     0.193 C 
BRANCH  15  16
ATOM     16  C6  <0> d   1      19.118   0.842  15.162  0.00  0.00     0.193 C 
BRANCH  16  17
ATOM     17  O5  <0> d   1      18.971   2.261  15.247  0.00  0.00    -0.389 OA
BRANCH  17  18
ATOM     18  C4  <0> d   1      18.362   2.852  14.097  0.00  0.00     0.167 C 
BRANCH  18  19
ATOM     19  C3  <0> d   1      17.903   4.271  14.436  0.00  0.00     0.026 C 
BRANCH  19  20
ATOM     20  C2  <0> d   1      19.114   5.207  14.461  0.00  0.00    -0.002 C 
ATOM     21  C1  <0> d   1      19.834   5.146  13.113  0.00  0.00     0.005 C 
ENDBRANCH  19  20
ENDBRANCH  18  19
ENDBRANCH  17  18
ENDBRANCH  16  17
ENDBRANCH  15  16
ENDBRANCH  14  15
ENDBRANCH  13  14
ENDBRANCH  12  13
ENDBRANCH  11  12
ENDBRANCH  10  11
ENDBRANCH   1  10
BRANCH   6  22
ATOM     22  C19 <0> d   1      18.672   2.878  10.399  0.00  0.00     0.039 C 
BRANCH  22  23
ATOM     23  C20 <0> d   1      18.048   4.186   9.906  0.00  0.00     0.000 C 
ATOM     24  C21 <0> d   1      16.930   4.609  10.862  0.00  0.00     0.005 C 
ENDBRANCH  22  23
ENDBRANCH   6  22
TORSDOF 13
ENDMDL
MODEL 3
REMARK VINA RESULT:      -5.9      1.725      2.479
REMARK  13 active torsions:
REMARK  status: ('A' for Active; 'I' for Inactive)
REMARK    1  A    between atoms: C2_2  and  C3_3 
REMARK    2  A    between atoms: C3_3  and  C4_4 
REMARK    3  A    between atoms: C4_4  and  O5_5 
REMARK    4  A    between atoms: O5_5  and  C6_6 
REMARK    5  A    between atoms: C6_6  and  C7_7 
REMARK    6  A    between atoms: C7_7  and  O8_8 
REMARK    7  A    between atoms: O8_8  and  C9_9 
REMARK    8  A    between atoms: C9_9  and  C10_10 
REMARK    9  A    between atoms: C10_10  and  O11_11 
REMARK   10  A    between atoms: O11_11  and  C12_12 
REMARK   11  A    between atoms: C12_12  and  C13_13 
REMARK   12  A    between atoms: C18_18  and  C19_19 
REMARK   13  A    between atoms: C19_19  and  C20_20 
ROOT
ATOM      1  C13 <0> d   1      17.671   0.483   9.259  0.00  0.00    -0.025 A 
ATOM      2  C14 <0> d   1      17.402  -0.329   8.173  0.00  0.00     0.049 A 
ATOM      3  C15 <0> d   1      18.032  -0.098   6.961  0.00  0.00     0.105 A 
ATOM      4  C16 <0> d   1      18.935   0.954   6.840  0.00  0.00     0.105 A 
ATOM      5  C17 <0> d   1      19.199   1.766   7.932  0.00  0.00     0.047 A 
ATOM      6  C18 <0> d   1      18.563   1.532   9.137  0.00  0.00    -0.047 A 
ATOM      7  O22 <0> d   1      19.416   0.972   5.562  0.00  0.00    -0.323 OA
ATOM      8  C23 <0> d   1      19.109  -0.325   5.018  0.00  0.00     0.352 C 
ATOM      9  O24 <0> d   1      17.947  -0.741   5.760  0.00  0.00    -0.323 OA
ENDROOT
BRANCH   1  10
ATOM     10  C12 <0> d   1      16.984   0.229  10.576  0.00  0.00     0.207 C 
BRANCH  10  11
ATOM     11  O11 <0> d   1      17.341  -1.068  11.057  0.00  0.00    -0.385 OA
BRANCH  11  12
ATOM     12  C10 <0> d   1      17.953  -1.060  12.349  0.00  0.00     0.194 C 
BRANCH  12  13
ATOM     13  C9  <0> d   1      18.668  -2.392  12.582  0.00  0.00     0.193 C 
BRANCH  13  14
ATOM     14  O8  <0> d   1      19.274  -2.828  11.364  0.00  0.00    -0.387 OA
BRANCH  14  15
ATOM     15  C7  <0> d   1      19.619  -4.215  11.350  0.00  0.00     0.193 C 
BRANCH  15  16
ATOM     16  C6  <0> d   1      19.555  -4.741   9.915  0.00  0.00     0.193 C 
BRANCH  16  17
ATOM     17  O5  <0> d   1      18.198  -4.746   9.468  0.00  0.00    -0.389 OA
BRANCH  17  18
ATOM     18  C4  <0> d   1      18.017  -4.209   8.156  0.00  0.00     0.167 C 
BRANCH  18  19
ATOM     19  C3  <0> d   1      19.276  -3.446   7.740  0.00  0.00     0.026 C 
BRANCH  19  20
ATOM     20  C2  <0> d   1      19.699  -3.887   6.337  0.00  0.00    -0.002 C 
ATOM     21  C1  <0> d   1      18.455  -4.210   5.506  0.00  0.00     0.005 C 
ENDBRANCH  19  20
ENDBRANCH  18  19
ENDBRANCH  17  18
ENDBRANCH  16  17
ENDBRANCH  15  16
ENDBRANCH  14  15
ENDBRANCH  13  14
ENDBRANCH  12  13
ENDBRANCH  11  12
ENDBRANCH  10  11
ENDBRANCH   1  10
BRANCH   6  22
ATOM     22  C19 <0> d   1      18.852   2.415  10.322  0.00  0.00     0.039 C 
BRANCH  22  23
ATOM     23  C20 <0> d   1      18.168   3.770  10.127  0.00  0.00     0.000 C 
ATOM     24  C21 <0> d   1      17.302   4.085  11.349  0.00  0.00     0.005 C 
ENDBRANCH  22  23
ENDBRANCH   6  22
TORSDOF 13
ENDMDL
MODEL 4
REMARK VINA RESULT:      -5.8      2.233      4.367
REMARK  13 active torsions:
REMARK  status: ('A' for Active; 'I' for Inactive)
REMARK    1  A    between atoms: C2_2  and  C3_3 
REMARK    2  A    between atoms: C3_3  and  C4_4 
REMARK    3  A    between atoms: C4_4  and  O5_5 
REMARK    4  A    between atoms: O5_5  and  C6_6 
REMARK    5  A    between atoms: C6_6  and  C7_7 
REMARK    6  A    between atoms: C7_7  and  O8_8 
REMARK    7  A    between atoms: O8_8  and  C9_9 
REMARK    8  A    between atoms: C9_9  and  C10_10 
REMARK    9  A    between atoms: C10_10  and  O11_11 
REMARK   10  A    between atoms: O11_11  and  C12_12 
REMARK   11  A    between atoms: C12_12  and  C13_13 
REMARK   12  A    between atoms: C18_18  and  C19_19 
REMARK   13  A    between atoms: C19_19  and  C20_20 
ROOT
ATOM      1  C13 <0> d   1      17.765   0.367   9.236  0.00  0.00    -0.025 A 
ATOM      2  C14 <0> d   1      17.524  -0.482   8.171  0.00  0.00     0.049 A 
ATOM      3  C15 <0> d   1      18.104  -0.229   6.938  0.00  0.00     0.105 A 
ATOM      4  C16 <0> d   1      18.928   0.880   6.775  0.00  0.00     0.105 A 
ATOM      5  C17 <0> d   1      19.165   1.727   7.846  0.00  0.00     0.047 A 
ATOM      6  C18 <0> d   1      18.579   1.472   9.072  0.00  0.00    -0.047 A 
ATOM      7  O22 <0> d   1      19.372   0.908   5.484  0.00  0.00    -0.323 OA
ATOM      8  C23 <0> d   1      19.141  -0.416   4.969  0.00  0.00     0.352 C 
ATOM      9  O24 <0> d   1      18.031  -0.897   5.750  0.00  0.00    -0.323 OA
ENDROOT
BRANCH   1  10
ATOM     10  C12 <0> d   1      17.134   0.090  10.575  0.00  0.00     0.207 C 
BRANCH  10  11
ATOM     11  O11 <0> d   1      17.388  -1.266  10.951  0.00  0.00    -0.385 OA
BRANCH  11  12
ATOM     12  C10 <0> d   1      18.776  -1.581  11.083  0.00  0.00     0.194 C 
BRANCH  12  13
ATOM     13  C9  <0> d   1      18.978  -2.491  12.296  0.00  0.00     0.193 C 
BRANCH  13  14
ATOM     14  O8  <0> d   1      18.494  -1.837  13.470  0.00  0.00    -0.387 OA
BRANCH  14  15
ATOM     15  C7  <0> d   1      19.511  -1.183  14.232  0.00  0.00     0.193 C 
BRANCH  15  16
ATOM     16  C6  <0> d   1      19.275   0.328  14.208  0.00  0.00     0.193 C 
BRANCH  16  17
ATOM     17  O5  <0> d   1      19.168   0.816  15.547  0.00  0.00    -0.389 OA
BRANCH  17  18
ATOM     18  C4  <0> d   1      18.534  -0.094  16.448  0.00  0.00     0.167 C 
BRANCH  18  19
ATOM     19  C3  <0> d   1      19.152   0.053  17.840  0.00  0.00     0.026 C 
BRANCH  19  20
ATOM     20  C2  <0> d   1      18.359   1.087  18.643  0.00  0.00    -0.002 C 
ATOM     21  C1  <0> d   1      19.060   2.444  18.560  0.00  0.00     0.005 C 
ENDBRANCH  19  20
ENDBRANCH  18  19
ENDBRANCH  17  18
ENDBRANCH  16  17
ENDBRANCH  15  16
ENDBRANCH  14  15
ENDBRANCH  13  14
ENDBRANCH  12  13
ENDBRANCH  11  12
ENDBRANCH  10  11
ENDBRANCH   1  10
BRANCH   6  22
ATOM     22  C19 <0> d   1      18.838   2.394  10.234  0.00  0.00     0.039 C 
BRANCH  22  23
ATOM     23  C20 <0> d   1      18.179   3.749   9.967  0.00  0.00     0.000 C 
ATOM     24  C21 <0> d   1      17.288   4.126  11.154  0.00  0.00     0.005 C 
ENDBRANCH  22  23
ENDBRANCH   6  22
TORSDOF 13
ENDMDL
MODEL 5
REMARK VINA RESULT:      -5.8      2.832      5.845
REMARK  13 active torsions:
REMARK  status: ('A' for Active; 'I' for Inactive)
REMARK    1  A    between atoms: C2_2  and  C3_3 
REMARK    2  A    between atoms: C3_3  and  C4_4 
REMARK    3  A    between atoms: C4_4  and  O5_5 
REMARK    4  A    between atoms: O5_5  and  C6_6 
REMARK    5  A    between atoms: C6_6  and  C7_7 
REMARK    6  A    between atoms: C7_7  and  O8_8 
REMARK    7  A    between atoms: O8_8  and  C9_9 
REMARK    8  A    between atoms: C9_9  and  C10_10 
REMARK    9  A    between atoms: C10_10  and  O11_11 
REMARK   10  A    between atoms: O11_11  and  C12_12 
REMARK   11  A    between atoms: C12_12  and  C13_13 
REMARK   12  A    between atoms: C18_18  and  C19_19 
REMARK   13  A    between atoms: C19_19  and  C20_20 
ROOT
ATOM      1  C13 <0> d   1      17.519   1.158  11.233  0.00  0.00    -0.025 A 
ATOM      2  C14 <0> d   1      17.646   1.740  12.481  0.00  0.00     0.049 A 
ATOM      3  C15 <0> d   1      18.535   2.785  12.672  0.00  0.00     0.105 A 
ATOM      4  C16 <0> d   1      19.299   3.248  11.605  0.00  0.00     0.105 A 
ATOM      5  C17 <0> d   1      19.168   2.660  10.356  0.00  0.00     0.047 A 
ATOM      6  C18 <0> d   1      18.283   1.614  10.174  0.00  0.00    -0.047 A 
ATOM      7  O22 <0> d   1      20.088   4.272  12.044  0.00  0.00    -0.323 OA
ATOM      8  C23 <0> d   1      19.503   4.701  13.287  0.00  0.00     0.352 C 
ATOM      9  O24 <0> d   1      18.843   3.519  13.780  0.00  0.00    -0.323 OA
ENDROOT
BRANCH   1  10
ATOM     10  C12 <0> d   1      16.552   0.021  11.028  0.00  0.00     0.207 C 
BRANCH  10  11
ATOM     11  O11 <0> d   1      16.944  -1.090  11.837  0.00  0.00    -0.385 OA
BRANCH  11  12
ATOM     12  C10 <0> d   1      17.877  -1.968  11.203  0.00  0.00     0.194 C 
BRANCH  12  13
ATOM     13  C9  <0> d   1      18.942  -2.396  12.215  0.00  0.00     0.193 C 
BRANCH  13  14
ATOM     14  O8  <0> d   1      18.558  -1.966  13.522  0.00  0.00    -0.387 OA
BRANCH  14  15
ATOM     15  C7  <0> d   1      19.587  -1.272  14.231  0.00  0.00     0.193 C 
BRANCH  15  16
ATOM     16  C6  <0> d   1      18.953  -0.314  15.242  0.00  0.00     0.193 C 
BRANCH  16  17
ATOM     17  O5  <0> d   1      18.282  -1.065  16.255  0.00  0.00    -0.389 OA
BRANCH  17  18
ATOM     18  C4  <0> d   1      17.794  -0.271  17.339  0.00  0.00     0.167 C 
BRANCH  18  19
ATOM     19  C3  <0> d   1      18.928  -0.014  18.333  0.00  0.00     0.026 C 
BRANCH  19  20
ATOM     20  C2  <0> d   1      19.130   1.494  18.498  0.00  0.00    -0.002 C 
ATOM     21  C1  <0> d   1      17.768   2.180  18.621  0.00  0.00     0.005 C 
ENDBRANCH  19  20
ENDBRANCH  18  19
ENDBRANCH  17  18
ENDBRANCH  16  17
ENDBRANCH  15  16
ENDBRANCH  14  15
ENDBRANCH  13  14
ENDBRANCH  12  13
ENDBRANCH  11  12
ENDBRANCH  10  11
ENDBRANCH   1  10
BRANCH   6  22
ATOM     22  C19 <0> d   1      18.142   0.976   8.817  0.00  0.00     0.039 C 
BRANCH  22  23
ATOM     23  C20 <0> d   1      19.126   1.628   7.843  0.00  0.00     0.000 C 
ATOM     24  C21 <0> d   1      18.830   1.146   6.421  0.00  0.00     0.005 C 
ENDBRANCH  22  23
ENDBRANCH   6  22
TORSDOF 13
ENDMDL
MODEL 6
REMARK VINA RESULT:      -5.8      1.894      5.038
REMARK  13 active torsions:
REMARK  status: ('A' for Active; 'I' for Inactive)
REMARK    1  A    between atoms: C2_2  and  C3_3 
REMARK    2  A    between atoms: C3_3  and  C4_4 
REMARK    3  A    between atoms: C4_4  and  O5_5 
REMARK    4  A    between atoms: O5_5  and  C6_6 
REMARK    5  A    between atoms: C6_6  and  C7_7 
REMARK    6  A    between atoms: C7_7  and  O8_8 
REMARK    7  A    between atoms: O8_8  and  C9_9 
REMARK    8  A    between atoms: C9_9  and  C10_10 
REMARK    9  A    between atoms: C10_10  and  O11_11 
REMARK   10  A    between atoms: O11_11  and  C12_12 
REMARK   11  A    between atoms: C12_12  and  C13_13 
REMARK   12  A    between atoms: C18_18  and  C19_19 
REMARK   13  A    between atoms: C19_19  and  C20_20 
ROOT
ATOM      1  C13 <0> d   1      17.673  -0.896  12.113  0.00  0.00    -0.025 A 
ATOM      2  C14 <0> d   1      17.749  -1.654  10.959  0.00  0.00     0.049 A 
ATOM      3  C15 <0> d   1      18.680  -2.675  10.860  0.00  0.00     0.105 A 
ATOM      4  C16 <0> d   1      19.537  -2.936  11.926  0.00  0.00     0.105 A 
ATOM      5  C17 <0> d   1      19.456  -2.171  13.079  0.00  0.00     0.047 A 
ATOM      6  C18 <0> d   1      18.529  -1.150  13.169  0.00  0.00    -0.047 A 
ATOM      7  O22 <0> d   1      20.350  -3.978  11.587  0.00  0.00    -0.323 OA
ATOM      8  C23 <0> d   1      19.709  -4.617  10.467  0.00  0.00     0.352 C 
ATOM      9  O24 <0> d   1      18.954  -3.555   9.854  0.00  0.00    -0.323 OA
ENDROOT
BRANCH   1  10
ATOM     10  C12 <0> d   1      16.660   0.215  12.217  0.00  0.00     0.207 C 
BRANCH  10  11
ATOM     11  O11 <0> d   1      16.957   1.223  11.249  0.00  0.00    -0.385 OA
BRANCH  11  12
ATOM     12  C10 <0> d   1      17.872   2.219  11.710  0.00  0.00     0.194 C 
BRANCH  12  13
ATOM     13  C9  <0> d   1      18.579   2.855  10.511  0.00  0.00     0.193 C 
BRANCH  13  14
ATOM     14  O8  <0> d   1      19.335   1.860   9.820  0.00  0.00    -0.387 OA
BRANCH  14  15
ATOM     15  C7  <0> d   1      19.185   1.897   8.399  0.00  0.00     0.193 C 
BRANCH  15  16
ATOM     16  C6  <0> d   1      18.454   0.637   7.930  0.00  0.00     0.193 C 
BRANCH  16  17
ATOM     17  O5  <0> d   1      19.323  -0.491   8.053  0.00  0.00    -0.389 OA
BRANCH  17  18
ATOM     18  C4  <0> d   1      19.178  -1.453   7.006  0.00  0.00     0.167 C 
BRANCH  18  19
ATOM     19  C3  <0> d   1      18.578  -0.775   5.772  0.00  0.00     0.026 C 
BRANCH  19  20
ATOM     20  C2  <0> d   1      19.023  -1.523   4.513  0.00  0.00    -0.002 C 
ATOM     21  C1  <0> d   1      18.946  -3.031   4.760  0.00  0.00     0.005 C 
ENDBRANCH  19  20
ENDBRANCH  18  19
ENDBRANCH  17  18
ENDBRANCH  16  17
ENDBRANCH  15  16
ENDBRANCH  14  15
ENDBRANCH  13  14
ENDBRANCH  12  13
ENDBRANCH  11  12
ENDBRANCH  10  11
ENDBRANCH   1  10
BRANCH   6  22
ATOM     22  C19 <0> d   1      18.443  -0.321  14.423  0.00  0.00     0.039 C 
BRANCH  22  23
ATOM     23  C20 <0> d   1      18.601  -1.228  15.645  0.00  0.00     0.000 C 
ATOM     24  C21 <0> d   1      17.399  -1.045  16.575  0.00  0.00     0.005 C 
ENDBRANCH  22  23
ENDBRANCH   6  22
TORSDOF 13
ENDMDL
MODEL 7
REMARK VINA RESULT:      -5.8      2.087      5.025
REMARK  13 active torsions:
REMARK  status: ('A' for Active; 'I' for Inactive)
REMARK    1  A    between atoms: C2_2  and  C3_3 
REMARK    2  A    between atoms: C3_3  and  C4_4 
REMARK    3  A    between atoms: C4_4  and  O5_5 
REMARK    4  A    between atoms: O5_5  and  C6_6 
REMARK    5  A    between atoms: C6_6  and  C7_7 
REMARK    6  A    between atoms: C7_7  and  O8_8 
REMARK    7  A    between atoms: O8_8  and  C9_9 
REMARK    8  A    between atoms: C9_9  and  C10_10 
REMARK    9  A    between atoms: C10_10  and  O11_11 
REMARK   10  A    between atoms: O11_11  and  C12_12 
REMARK   11  A    between atoms: C12_12  and  C13_13 
REMARK   12  A    between atoms: C18_18  and  C19_19 
REMARK   13  A    between atoms: C19_19  and  C20_20 
ROOT
ATOM      1  C13 <0> d   1      17.987   0.020   9.108  0.00  0.00    -0.025 A 
ATOM      2  C14 <0> d   1      17.456   0.532  10.277  0.00  0.00     0.049 A 
ATOM      3  C15 <0> d   1      17.637   1.868  10.595  0.00  0.00     0.105 A 
ATOM      4  C16 <0> d   1      18.356   2.693   9.734  0.00  0.00     0.105 A 
ATOM      5  C17 <0> d   1      18.887   2.173   8.564  0.00  0.00     0.047 A 
ATOM      6  C18 <0> d   1      18.706   0.837   8.256  0.00  0.00    -0.047 A 
ATOM      7  O22 <0> d   1      18.393   3.950  10.264  0.00  0.00    -0.323 OA
ATOM      8  C23 <0> d   1      17.346   3.983  11.250  0.00  0.00     0.352 C 
ATOM      9  O24 <0> d   1      17.223   2.609  11.664  0.00  0.00    -0.323 OA
ENDROOT
BRANCH   1  10
ATOM     10  C12 <0> d   1      17.788  -1.434   8.766  0.00  0.00     0.207 C 
BRANCH  10  11
ATOM     11  O11 <0> d   1      18.480  -2.247   9.716  0.00  0.00    -0.385 OA
BRANCH  11  12
ATOM     12  C10 <0> d   1      17.640  -3.169  10.413  0.00  0.00     0.194 C 
BRANCH  12  13
ATOM     13  C9  <0> d   1      18.165  -3.361  11.837  0.00  0.00     0.193 C 
BRANCH  13  14
ATOM     14  O8  <0> d   1      18.126  -2.114  12.532  0.00  0.00    -0.387 OA
BRANCH  14  15
ATOM     15  C7  <0> d   1      19.334  -1.796  13.226  0.00  0.00     0.193 C 
BRANCH  15  16
ATOM     16  C6  <0> d   1      19.630  -0.302  13.079  0.00  0.00     0.193 C 
BRANCH  16  17
ATOM     17  O5  <0> d   1      19.576   0.323  14.362  0.00  0.00    -0.389 OA
BRANCH  17  18
ATOM     18  C4  <0> d   1      18.265   0.738  14.751  0.00  0.00     0.167 C 
BRANCH  18  19
ATOM     19  C3  <0> d   1      18.242   1.009  16.257  0.00  0.00     0.026 C 
BRANCH  19  20
ATOM     20  C2  <0> d   1      17.298   0.018  16.940  0.00  0.00    -0.002 C 
ATOM     21  C1  <0> d   1      17.685  -1.410  16.548  0.00  0.00     0.005 C 
ENDBRANCH  19  20
ENDBRANCH  18  19
ENDBRANCH  17  18
ENDBRANCH  16  17
ENDBRANCH  15  16
ENDBRANCH  14  15
ENDBRANCH  13  14
ENDBRANCH  12  13
ENDBRANCH  11  12
ENDBRANCH  10  11
ENDBRANCH   1  10
BRANCH   6  22
ATOM     22  C19 <0> d   1      19.284   0.275   6.985  0.00  0.00     0.039 C 
BRANCH  22  23
ATOM     23  C20 <0> d   1      18.362   0.612   5.812  0.00  0.00     0.000 C 
ATOM     24  C21 <0> d   1      18.847  -0.115   4.555  0.00  0.00     0.005 C 
ENDBRANCH  22  23
ENDBRANCH   6  22
TORSDOF 13
ENDMDL
MODEL 8
REMARK VINA RESULT:      -5.8      1.753      2.320
REMARK  13 active torsions:
REMARK  status: ('A' for Active; 'I' for Inactive)
REMARK    1  A    between atoms: C2_2  and  C3_3 
REMARK    2  A    between atoms: C3_3  and  C4_4 
REMARK    3  A    between atoms: C4_4  and  O5_5 
REMARK    4  A    between atoms: O5_5  and  C6_6 
REMARK    5  A    between atoms: C6_6  and  C7_7 
REMARK    6  A    between atoms: C7_7  and  O8_8 
REMARK    7  A    between atoms: O8_8  and  C9_9 
REMARK    8  A    between atoms: C9_9  and  C10_10 
REMARK    9  A    between atoms: C10_10  and  O11_11 
REMARK   10  A    between atoms: O11_11  and  C12_12 
REMARK   11  A    between atoms: C12_12  and  C13_13 
REMARK   12  A    between atoms: C18_18  and  C19_19 
REMARK   13  A    between atoms: C19_19  and  C20_20 
ROOT
ATOM      1  C13 <0> d   1      17.637   0.445   9.165  0.00  0.00    -0.025 A 
ATOM      2  C14 <0> d   1      17.371  -0.355   8.069  0.00  0.00     0.049 A 
ATOM      3  C15 <0> d   1      18.037  -0.138   6.874  0.00  0.00     0.105 A 
ATOM      4  C16 <0> d   1      18.974   0.887   6.780  0.00  0.00     0.105 A 
ATOM      5  C17 <0> d   1      19.236   1.686   7.881  0.00  0.00     0.047 A 
ATOM      6  C18 <0> d   1      18.564   1.468   9.069  0.00  0.00    -0.047 A 
ATOM      7  O22 <0> d   1      19.486   0.895   5.514  0.00  0.00    -0.323 OA
ATOM      8  C23 <0> d   1      19.154  -0.390   4.957  0.00  0.00     0.352 C 
ATOM      9  O24 <0> d   1      17.962  -0.773   5.668  0.00  0.00    -0.323 OA
ENDROOT
BRANCH   1  10
ATOM     10  C12 <0> d   1      16.911   0.208  10.464  0.00  0.00     0.207 C 
BRANCH  10  11
ATOM     11  O11 <0> d   1      17.400  -0.991  11.070  0.00  0.00    -0.385 OA
BRANCH  11  12
ATOM     12  C10 <0> d   1      17.721  -0.852  12.456  0.00  0.00     0.194 C 
BRANCH  12  13
ATOM     13  C9  <0> d   1      19.188  -1.226  12.678  0.00  0.00     0.193 C 
BRANCH  13  14
ATOM     14  O8  <0> d   1      19.328  -2.648  12.641  0.00  0.00    -0.387 OA
BRANCH  14  15
ATOM     15  C7  <0> d   1      20.058  -3.130  11.511  0.00  0.00     0.193 C 
BRANCH  15  16
ATOM     16  C6  <0> d   1      19.612  -4.558  11.187  0.00  0.00     0.193 C 
BRANCH  16  17
ATOM     17  O5  <0> d   1      18.625  -4.526  10.155  0.00  0.00    -0.389 OA
BRANCH  17  18
ATOM     18  C4  <0> d   1      17.381  -5.126  10.522  0.00  0.00     0.167 C 
BRANCH  18  19
ATOM     19  C3  <0> d   1      16.942  -6.101   9.428  0.00  0.00     0.026 C 
BRANCH  19  20
ATOM     20  C2  <0> d   1      15.607  -5.639   8.839  0.00  0.00    -0.002 C 
ATOM     21  C1  <0> d   1      15.031  -6.744   7.951  0.00  0.00     0.005 C 
ENDBRANCH  19  20
ENDBRANCH  18  19
ENDBRANCH  17  18
ENDBRANCH  16  17
ENDBRANCH  15  16
ENDBRANCH  14  15
ENDBRANCH  13  14
ENDBRANCH  12  13
ENDBRANCH  11  12
ENDBRANCH  10  11
ENDBRANCH   1  10
BRANCH   6  22
ATOM     22  C19 <0> d   1      18.849   2.337  10.265  0.00  0.00     0.039 C 
BRANCH  22  23
ATOM     23  C20 <0> d   1      18.222   3.717  10.054  0.00  0.00     0.000 C 
ATOM     24  C21 <0> d   1      17.310   4.048  11.239  0.00  0.00     0.005 C 
ENDBRANCH  22  23
ENDBRANCH   6  22
TORSDOF 13
ENDMDL
MODEL 9
REMARK VINA RESULT:      -5.7      2.704      6.145
REMARK  13 active torsions:
REMARK  status: ('A' for Active; 'I' for Inactive)
REMARK    1  A    between atoms: C2_2  and  C3_3 
REMARK    2  A    between atoms: C3_3  and  C4_4 
REMARK    3  A    between atoms: C4_4  and  O5_5 
REMARK    4  A    between atoms: O5_5  and  C6_6 
REMARK    5  A    between atoms: C6_6  and  C7_7 
REMARK    6  A    between atoms: C7_7  and  O8_8 
REMARK    7  A    between atoms: O8_8  and  C9_9 
REMARK    8  A    between atoms: C9_9  and  C10_10 
REMARK    9  A    between atoms: C10_10  and  O11_11 
REMARK   10  A    between atoms: O11_11  and  C12_12 
REMARK   11  A    between atoms: C12_12  and  C13_13 
REMARK   12  A    between atoms: C18_18  and  C19_19 
REMARK   13  A    between atoms: C19_19  and  C20_20 
ROOT
ATOM      1  C13 <0> d   1      19.046   0.727  14.197  0.00  0.00    -0.025 A 
ATOM      2  C14 <0> d   1      19.610   0.632  12.938  0.00  0.00     0.049 A 
ATOM      3  C15 <0> d   1      19.689  -0.598  12.304  0.00  0.00     0.105 A 
ATOM      4  C16 <0> d   1      19.199  -1.736  12.938  0.00  0.00     0.105 A 
ATOM      5  C17 <0> d   1      18.637  -1.634  14.201  0.00  0.00     0.047 A 
ATOM      6  C18 <0> d   1      18.566  -0.405  14.830  0.00  0.00    -0.047 A 
ATOM      7  O22 <0> d   1      19.391  -2.809  12.117  0.00  0.00    -0.323 OA
ATOM      8  C23 <0> d   1      19.628  -2.256  10.810  0.00  0.00     0.352 C 
ATOM      9  O24 <0> d   1      20.186  -0.957  11.085  0.00  0.00    -0.323 OA
ENDROOT
BRANCH   1  10
ATOM     10  C12 <0> d   1      18.962   2.065  14.884  0.00  0.00     0.207 C 
BRANCH  10  11
ATOM     11  O11 <0> d   1      18.093   2.926  14.144  0.00  0.00    -0.385 OA
BRANCH  11  12
ATOM     12  C10 <0> d   1      17.848   4.186  14.775  0.00  0.00     0.194 C 
BRANCH  12  13
ATOM     13  C9  <0> d   1      18.199   5.317  13.807  0.00  0.00     0.193 C 
BRANCH  13  14
ATOM     14  O8  <0> d   1      16.999   5.864  13.257  0.00  0.00    -0.387 OA
BRANCH  14  15
ATOM     15  C7  <0> d   1      16.522   5.174  12.100  0.00  0.00     0.193 C 
BRANCH  15  16
ATOM     16  C6  <0> d   1      17.602   5.186  11.017  0.00  0.00     0.193 C 
BRANCH  16  17
ATOM     17  O5  <0> d   1      17.356   4.130  10.087  0.00  0.00    -0.389 OA
BRANCH  17  18
ATOM     18  C4  <0> d   1      17.796   2.847  10.536  0.00  0.00     0.167 C 
BRANCH  18  19
ATOM     19  C3  <0> d   1      19.120   2.495   9.854  0.00  0.00     0.026 C 
BRANCH  19  20
ATOM     20  C2  <0> d   1      18.867   1.464   8.751  0.00  0.00    -0.002 C 
ATOM     21  C1  <0> d   1      17.694   0.567   9.150  0.00  0.00     0.005 C 
ENDBRANCH  19  20
ENDBRANCH  18  19
ENDBRANCH  17  18
ENDBRANCH  16  17
ENDBRANCH  15  16
ENDBRANCH  14  15
ENDBRANCH  13  14
ENDBRANCH  12  13
ENDBRANCH  11  12
ENDBRANCH  10  11
ENDBRANCH   1  10
BRANCH   6  22
ATOM     22  C19 <0> d   1      17.954  -0.297  16.201  0.00  0.00     0.039 C 
BRANCH  22  23
ATOM     23  C20 <0> d   1      18.945  -0.818  17.244  0.00  0.00     0.000 C 
ATOM     24  C21 <0> d   1      19.286   0.304  18.228  0.00  0.00     0.005 C 
ENDBRANCH  22  23
ENDBRANCH   6  22
TORSDOF 13
ENDMDL
