MODEL 1
REMARK VINA RESULT:     -10.7      0.000      0.000
REMARK  14 active torsions:
REMARK  status: ('A' for Active; 'I' for Inactive)
REMARK    1  A    between atoms: C2_2  and  N5_5 
REMARK       I    between atoms: N5_5  and  C6_6 
REMARK    2  A    between atoms: C6_6  and  C8_8 
REMARK    3  A    between atoms: N20_17  and  C21_18 
REMARK    4  A    between atoms: C21_18  and  C22_19 
REMARK    5  A    between atoms: C22_19  and  O24_20 
REMARK    6  A    between atoms: C22_19  and  C25_21 
REMARK    7  A    between atoms: C25_21  and  C27_22 
REMARK    8  A    between atoms: C25_21  and  N34_29 
REMARK    9  A    between atoms: C27_22  and  C28_23 
REMARK       I    between atoms: N34_29  and  C35_30 
REMARK   10  A    between atoms: C35_30  and  C37_32 
REMARK   11  A    between atoms: C37_32  and  C39_33 
REMARK   12  A    between atoms: C37_32  and  N43_37 
REMARK   13  A    between atoms: C39_33  and  C40_34 
REMARK       I    between atoms: C40_34  and  N41_35 
REMARK       I    between atoms: N43_37  and  C44_38 
REMARK   14  A    between atoms: C44_38  and  C46_40 
ROOT
ATOM      1  C25 ZIN A   1      18.412  -2.001  12.818  0.00  0.00     0.119 C 
ENDROOT
BRANCH   1   2
ATOM      2  C22 ZIN A   1      18.161  -0.689  12.072  0.00  0.00     0.169 C 
BRANCH   2   3
ATOM      3  C21 ZIN A   1      19.336  -0.404  11.133  0.00  0.00     0.307 C 
BRANCH   3   4
ATOM      4  N20 ZIN A   1      18.831  -0.181   9.772  0.00  0.00     0.105 N 
ATOM      5  C8  ZIN A   1      19.109   1.191   9.327  0.00  0.00     0.314 C 
ATOM      6  C10 ZIN A   1      18.451   1.434   7.967  0.00  0.00     0.050 C 
ATOM      7  C11 ZIN A   1      19.000   0.424   6.957  0.00  0.00    -0.006 C 
ATOM      8  C17 ZIN A   1      18.727  -0.993   7.467  0.00  0.00     0.018 C 
ATOM      9  C13 ZIN A   1      18.317   0.615   5.603  0.00  0.00     0.005 C 
ATOM     10  C16 ZIN A   1      19.299  -2.006   6.475  0.00  0.00     0.007 C 
ATOM     11  C19 ZIN A   1      19.385  -1.171   8.836  0.00  0.00     0.278 C 
ATOM     12  C15 ZIN A   1      18.625  -1.818   5.113  0.00  0.00     0.000 C 
ATOM     13  C14 ZIN A   1      18.880  -0.399   4.605  0.00  0.00     0.000 C 
BRANCH   5  14
ATOM     14  C6  ZIN A   1      18.555   2.166  10.335  0.00  0.00     0.252 C 
ATOM     15  N5  ZIN A   1      19.389   2.972  11.020  0.00  0.00    -0.351 N 
ATOM     16  H65 ZIN A   1      20.346   2.924  10.866  0.00  0.00     0.163 HD
ATOM     17  O7  ZIN A   1      17.360   2.225  10.526  0.00  0.00    -0.271 OA
BRANCH  15  18
ATOM     18  C2  ZIN A   1      18.852   3.920  11.999  0.00  0.00     0.022 C 
ATOM     19  C1  ZIN A   1      17.856   4.856  11.309  0.00  0.00     0.037 C 
ATOM     20  C3  ZIN A   1      19.996   4.742  12.594  0.00  0.00     0.037 C 
ATOM     21  C4  ZIN A   1      18.140   3.152  13.114  0.00  0.00     0.037 C 
ENDBRANCH  15  18
ENDBRANCH   5  14
ENDBRANCH   3   4
ENDBRANCH   2   3
BRANCH   2  22
ATOM     22  O24 ZIN A   1      16.958  -0.796  11.309  0.00  0.00    -0.392 OA
ATOM     23  H80 ZIN A   1      17.037  -1.355  10.525  0.00  0.00     0.210 HD
ENDBRANCH   2  22
ENDBRANCH   1   2
BRANCH   1  24
ATOM     24  C27 ZIN A   1      19.486  -1.784  13.885  0.00  0.00     0.066 C 
BRANCH  24  25
ATOM     25  C28 ZIN A   1      18.897  -1.018  15.042  0.00  0.00    -0.056 A 
ATOM     26  C33 ZIN A   1      19.247   0.304  15.246  0.00  0.00     0.007 A 
ATOM     27  C32 ZIN A   1      18.703   1.008  16.303  0.00  0.00     0.001 A 
ATOM     28  C31 ZIN A   1      17.815   0.387  17.163  0.00  0.00     0.000 A 
ATOM     29  C30 ZIN A   1      17.470  -0.936  16.963  0.00  0.00     0.001 A 
ATOM     30  C29 ZIN A   1      18.010  -1.639  15.902  0.00  0.00     0.007 A 
ENDBRANCH  24  25
ENDBRANCH   1  24
BRANCH   1  31
ATOM     31  N34 ZIN A   1      18.866  -3.022  11.869  0.00  0.00    -0.352 N 
ATOM     32  C35 ZIN A   1      17.974  -3.861  11.304  0.00  0.00     0.241 C 
ATOM     33  O36 ZIN A   1      16.797  -3.770  11.580  0.00  0.00    -0.271 OA
ATOM     34  H88 ZIN A   1      19.807  -3.094  11.649  0.00  0.00     0.163 HD
BRANCH  32  35
ATOM     35  C37 ZIN A   1      18.442  -4.910  10.329  0.00  0.00     0.185 C 
BRANCH  35  36
ATOM     36  C39 ZIN A   1      19.871  -4.593   9.884  0.00  0.00     0.137 C 
BRANCH  36  37
ATOM     37  C40 ZIN A   1      20.262  -5.513   8.757  0.00  0.00     0.217 C 
ATOM     38  N41 ZIN A   1      20.810  -5.009   7.634  0.00  0.00    -0.370 N 
ATOM     39  H91 ZIN A   1      20.952  -4.053   7.551  0.00  0.00     0.159 HD
ATOM     40  H92 ZIN A   1      21.061  -5.601   6.908  0.00  0.00     0.159 HD
ATOM     41  O42 ZIN A   1      20.084  -6.709   8.861  0.00  0.00    -0.274 OA
ENDBRANCH  36  37
ENDBRANCH  35  36
BRANCH  35  42
ATOM     42  N43 ZIN A   1      17.557  -4.918   9.161  0.00  0.00    -0.342 N 
ATOM     43  C44 ZIN A   1      16.807  -6.005   8.892  0.00  0.00     0.271 C 
ATOM     44  O45 ZIN A   1      16.794  -6.941   9.666  0.00  0.00    -0.266 OA
ATOM     45  H93 ZIN A   1      17.512  -4.142   8.582  0.00  0.00     0.163 HD
BRANCH  43  46
ATOM     46  C46 ZIN A   1      15.997  -6.057   7.650  0.00  0.00     0.125 A 
ATOM     47  N55 ZIN A   1      16.553  -5.722   6.503  0.00  0.00    -0.243 NA
ATOM     48  C54 ZIN A   1      15.865  -5.759   5.363  0.00  0.00     0.068 A 
ATOM     49  C49 ZIN A   1      14.502  -6.154   5.370  0.00  0.00    -0.007 A 
ATOM     50  C53 ZIN A   1      16.467  -5.404   4.140  0.00  0.00     0.032 A 
ATOM     51  C48 ZIN A   1      13.898  -6.508   6.591  0.00  0.00     0.016 A 
ATOM     52  C50 ZIN A   1      13.782  -6.184   4.164  0.00  0.00     0.014 A 
ATOM     53  C47 ZIN A   1      14.654  -6.456   7.725  0.00  0.00     0.038 A 
ATOM     54  C51 ZIN A   1      14.400  -5.834   3.003  0.00  0.00     0.001 A 
ATOM     55  C52 ZIN A   1      15.739  -5.446   2.992  0.00  0.00     0.002 A 
ENDBRANCH  43  46
ENDBRANCH  35  42
ENDBRANCH  32  35
ENDBRANCH   1  31
TORSDOF 14
ENDMDL
MODEL 2
REMARK VINA RESULT:     -10.3      3.521     11.483
REMARK  14 active torsions:
REMARK  status: ('A' for Active; 'I' for Inactive)
REMARK    1  A    between atoms: C2_2  and  N5_5 
REMARK       I    between atoms: N5_5  and  C6_6 
REMARK    2  A    between atoms: C6_6  and  C8_8 
REMARK    3  A    between atoms: N20_17  and  C21_18 
REMARK    4  A    between atoms: C21_18  and  C22_19 
REMARK    5  A    between atoms: C22_19  and  O24_20 
REMARK    6  A    between atoms: C22_19  and  C25_21 
REMARK    7  A    between atoms: C25_21  and  C27_22 
REMARK    8  A    between atoms: C25_21  and  N34_29 
REMARK    9  A    between atoms: C27_22  and  C28_23 
REMARK       I    between atoms: N34_29  and  C35_30 
REMARK   10  A    between atoms: C35_30  and  C37_32 
REMARK   11  A    between atoms: C37_32  and  C39_33 
REMARK   12  A    between atoms: C37_32  and  N43_37 
REMARK   13  A    between atoms: C39_33  and  C40_34 
REMARK       I    between atoms: C40_34  and  N41_35 
REMARK       I    between atoms: N43_37  and  C44_38 
REMARK   14  A    between atoms: C44_38  and  C46_40 
ROOT
ATOM      1  C25 ZIN A   1      18.244   2.318  10.426  0.00  0.00     0.119 C 
ENDROOT
BRANCH   1   2
ATOM      2  C22 ZIN A   1      17.995   0.989  11.143  0.00  0.00     0.169 C 
BRANCH   2   3
ATOM      3  C21 ZIN A   1      19.172   0.683  12.073  0.00  0.00     0.307 C 
BRANCH   3   4
ATOM      4  N20 ZIN A   1      18.667   0.411  13.425  0.00  0.00     0.105 N 
ATOM      5  C8  ZIN A   1      18.961  -0.971  13.827  0.00  0.00     0.314 C 
ATOM      6  C10 ZIN A   1      18.304  -1.266  15.177  0.00  0.00     0.050 C 
ATOM      7  C11 ZIN A   1      18.840  -0.282  16.220  0.00  0.00    -0.006 C 
ATOM      8  C17 ZIN A   1      18.551   1.147  15.755  0.00  0.00     0.018 C 
ATOM      9  C13 ZIN A   1      18.157  -0.525  17.566  0.00  0.00     0.005 C 
ATOM     10  C16 ZIN A   1      19.110   2.134  16.780  0.00  0.00     0.007 C 
ATOM     11  C19 ZIN A   1      19.208   1.377  14.393  0.00  0.00     0.278 C 
ATOM     12  C15 ZIN A   1      18.436   1.895  18.134  0.00  0.00     0.000 C 
ATOM     13  C14 ZIN A   1      18.707   0.464  18.597  0.00  0.00     0.000 C 
BRANCH   5  14
ATOM     14  C6  ZIN A   1      18.420  -1.920  12.787  0.00  0.00     0.252 C 
ATOM     15  N5  ZIN A   1      19.239  -2.815  12.201  0.00  0.00    -0.351 N 
ATOM     16  H65 ZIN A   1      20.177  -2.847  12.447  0.00  0.00     0.163 HD
ATOM     17  O7  ZIN A   1      17.247  -1.878  12.481  0.00  0.00    -0.271 OA
BRANCH  15  18
ATOM     18  C2  ZIN A   1      18.713  -3.737  11.191  0.00  0.00     0.022 C 
ATOM     19  C1  ZIN A   1      19.848  -4.621  10.668  0.00  0.00     0.037 C 
ATOM     20  C3  ZIN A   1      18.114  -2.938  10.034  0.00  0.00     0.037 C 
ATOM     21  C4  ZIN A   1      17.631  -4.617  11.819  0.00  0.00     0.037 C 
ENDBRANCH  15  18
ENDBRANCH   5  14
ENDBRANCH   3   4
ENDBRANCH   2   3
BRANCH   2  22
ATOM     22  O24 ZIN A   1      16.793   1.080  11.910  0.00  0.00    -0.392 OA
ATOM     23  H80 ZIN A   1      16.700   0.389  12.580  0.00  0.00     0.210 HD
ENDBRANCH   2  22
ENDBRANCH   1   2
BRANCH   1  24
ATOM     24  C27 ZIN A   1      19.285   2.115   9.323  0.00  0.00     0.066 C 
BRANCH  24  25
ATOM     25  C28 ZIN A   1      18.676   1.316   8.200  0.00  0.00    -0.056 A 
ATOM     26  C33 ZIN A   1      19.116   1.502   6.902  0.00  0.00     0.007 A 
ATOM     27  C32 ZIN A   1      18.561   0.767   5.872  0.00  0.00     0.001 A 
ATOM     28  C31 ZIN A   1      17.559  -0.149   6.138  0.00  0.00     0.000 A 
ATOM     29  C30 ZIN A   1      17.115  -0.330   7.434  0.00  0.00     0.001 A 
ATOM     30  C29 ZIN A   1      17.673   0.402   8.465  0.00  0.00     0.007 A 
ENDBRANCH  24  25
ENDBRANCH   1  24
BRANCH   1  31
ATOM     31  N34 ZIN A   1      18.740   3.305  11.389  0.00  0.00    -0.352 N 
ATOM     32  C35 ZIN A   1      17.886   4.180  11.957  0.00  0.00     0.241 C 
ATOM     33  O36 ZIN A   1      16.708   4.148  11.673  0.00  0.00    -0.271 OA
ATOM     34  H88 ZIN A   1      19.683   3.330  11.616  0.00  0.00     0.163 HD
BRANCH  32  35
ATOM     35  C37 ZIN A   1      18.396   5.195  12.947  0.00  0.00     0.185 C 
BRANCH  35  36
ATOM     36  C39 ZIN A   1      19.876   4.931  13.232  0.00  0.00     0.137 C 
BRANCH  36  37
ATOM     37  C40 ZIN A   1      20.301   5.713  14.448  0.00  0.00     0.217 C 
ATOM     38  N41 ZIN A   1      20.802   5.071  15.522  0.00  0.00    -0.370 N 
ATOM     39  H91 ZIN A   1      20.890   4.105  15.511  0.00  0.00     0.159 HD
ATOM     40  H92 ZIN A   1      21.075   5.575  16.304  0.00  0.00     0.159 HD
ATOM     41  O42 ZIN A   1      20.193   6.922  14.460  0.00  0.00    -0.274 OA
ENDBRANCH  36  37
ENDBRANCH  35  36
BRANCH  35  42
ATOM     42  N43 ZIN A   1      17.632   5.088  14.193  0.00  0.00    -0.342 N 
ATOM     43  C44 ZIN A   1      16.844   6.107  14.589  0.00  0.00     0.271 C 
ATOM     44  O45 ZIN A   1      16.694   7.075  13.870  0.00  0.00    -0.266 OA
ATOM     45  H93 ZIN A   1      17.694   4.285  14.732  0.00  0.00     0.163 HD
BRANCH  43  46
ATOM     46  C46 ZIN A   1      16.158   6.046  15.903  0.00  0.00     0.125 A 
ATOM     47  N55 ZIN A   1      16.809   5.575  16.948  0.00  0.00    -0.243 NA
ATOM     48  C54 ZIN A   1      16.235   5.506  18.148  0.00  0.00     0.068 A 
ATOM     49  C49 ZIN A   1      14.892   5.934  18.317  0.00  0.00    -0.007 A 
ATOM     50  C53 ZIN A   1      16.937   5.006  19.261  0.00  0.00     0.032 A 
ATOM     51  C48 ZIN A   1      14.187   6.433  17.206  0.00  0.00     0.016 A 
ATOM     52  C50 ZIN A   1      14.292   5.852  19.584  0.00  0.00     0.014 A 
ATOM     53  C47 ZIN A   1      14.830   6.485  16.003  0.00  0.00     0.038 A 
ATOM     54  C51 ZIN A   1      15.005   5.363  20.635  0.00  0.00     0.001 A 
ATOM     55  C52 ZIN A   1      16.324   4.942  20.474  0.00  0.00     0.002 A 
ENDBRANCH  43  46
ENDBRANCH  35  42
ENDBRANCH  32  35
ENDBRANCH   1  31
TORSDOF 14
ENDMDL
MODEL 3
REMARK VINA RESULT:     -10.3      2.498      5.589
REMARK  14 active torsions:
REMARK  status: ('A' for Active; 'I' for Inactive)
REMARK    1  A    between atoms: C2_2  and  N5_5 
REMARK       I    between atoms: N5_5  and  C6_6 
REMARK    2  A    between atoms: C6_6  and  C8_8 
REMARK    3  A    between atoms: N20_17  and  C21_18 
REMARK    4  A    between atoms: C21_18  and  C22_19 
REMARK    5  A    between atoms: C22_19  and  O24_20 
REMARK    6  A    between atoms: C22_19  and  C25_21 
REMARK    7  A    between atoms: C25_21  and  C27_22 
REMARK    8  A    between atoms: C25_21  and  N34_29 
REMARK    9  A    between atoms: C27_22  and  C28_23 
REMARK       I    between atoms: N34_29  and  C35_30 
REMARK   10  A    between atoms: C35_30  and  C37_32 
REMARK   11  A    between atoms: C37_32  and  C39_33 
REMARK   12  A    between atoms: C37_32  and  N43_37 
REMARK   13  A    between atoms: C39_33  and  C40_34 
REMARK       I    between atoms: C40_34  and  N41_35 
REMARK       I    between atoms: N43_37  and  C44_38 
REMARK   14  A    between atoms: C44_38  and  C46_40 
ROOT
ATOM      1  C25 ZIN A   1      19.454  -1.467  10.678  0.00  0.00     0.119 C 
ENDROOT
BRANCH   1   2
ATOM      2  C22 ZIN A   1      20.345  -0.291  11.080  0.00  0.00     0.169 C 
BRANCH   2   3
ATOM      3  C21 ZIN A   1      19.986   0.160  12.498  0.00  0.00     0.307 C 
BRANCH   3   4
ATOM      4  N20 ZIN A   1      18.948   1.197  12.433  0.00  0.00     0.105 N 
ATOM      5  C8  ZIN A   1      18.738   1.812  13.750  0.00  0.00     0.314 C 
ATOM      6  C10 ZIN A   1      17.559   2.786  13.681  0.00  0.00     0.050 C 
ATOM      7  C11 ZIN A   1      17.857   3.860  12.633  0.00  0.00    -0.006 C 
ATOM      8  C17 ZIN A   1      18.107   3.185  11.282  0.00  0.00     0.018 C 
ATOM      9  C13 ZIN A   1      16.669   4.814  12.509  0.00  0.00     0.005 C 
ATOM     10  C16 ZIN A   1      18.433   4.251  10.237  0.00  0.00     0.007 C 
ATOM     11  C19 ZIN A   1      19.276   2.207  11.415  0.00  0.00     0.278 C 
ATOM     12  C15 ZIN A   1      17.252   5.216  10.111  0.00  0.00     0.000 C 
ATOM     13  C14 ZIN A   1      16.986   5.883  11.460  0.00  0.00     0.000 C 
BRANCH   5  14
ATOM     14  C6  ZIN A   1      18.442   0.736  14.764  0.00  0.00     0.252 C 
ATOM     15  N5  ZIN A   1      18.971   0.812  16.000  0.00  0.00    -0.351 N 
ATOM     16  H65 ZIN A   1      19.544   1.558  16.238  0.00  0.00     0.163 HD
ATOM     17  O7  ZIN A   1      17.726  -0.196  14.466  0.00  0.00    -0.271 OA
BRANCH  15  18
ATOM     18  C2  ZIN A   1      18.683  -0.233  16.986  0.00  0.00     0.022 C 
ATOM     19  C1  ZIN A   1      19.184  -1.581  16.461  0.00  0.00     0.037 C 
ATOM     20  C3  ZIN A   1      17.174  -0.308  17.224  0.00  0.00     0.037 C 
ATOM     21  C4  ZIN A   1      19.391   0.097  18.301  0.00  0.00     0.037 C 
ENDBRANCH  15  18
ENDBRANCH   5  14
ENDBRANCH   3   4
ENDBRANCH   2   3
BRANCH   2  22
ATOM     22  O24 ZIN A   1      21.716  -0.696  11.043  0.00  0.00    -0.392 OA
ATOM     23  H80 ZIN A   1      22.338   0.031  10.907  0.00  0.00     0.210 HD
ENDBRANCH   2  22
ENDBRANCH   1   2
BRANCH   1  24
ATOM     24  C27 ZIN A   1      19.817  -2.693  11.519  0.00  0.00     0.066 C 
BRANCH  24  25
ATOM     25  C28 ZIN A   1      18.886  -3.828  11.180  0.00  0.00    -0.056 A 
ATOM     26  C33 ZIN A   1      19.320  -4.860  10.368  0.00  0.00     0.007 A 
ATOM     27  C32 ZIN A   1      18.468  -5.903  10.061  0.00  0.00     0.001 A 
ATOM     28  C31 ZIN A   1      17.178  -5.912  10.558  0.00  0.00     0.000 A 
ATOM     29  C30 ZIN A   1      16.742  -4.877  11.364  0.00  0.00     0.001 A 
ATOM     30  C29 ZIN A   1      17.596  -3.836  11.675  0.00  0.00     0.007 A 
ENDBRANCH  24  25
ENDBRANCH   1  24
BRANCH   1  31
ATOM     31  N34 ZIN A   1      19.658  -1.772   9.259  0.00  0.00    -0.352 N 
ATOM     32  C35 ZIN A   1      18.685  -1.505   8.366  0.00  0.00     0.241 C 
ATOM     33  O36 ZIN A   1      17.641  -1.013   8.737  0.00  0.00    -0.271 OA
ATOM     34  H88 ZIN A   1      20.494  -2.165   8.963  0.00  0.00     0.163 HD
BRANCH  32  35
ATOM     35  C37 ZIN A   1      18.895  -1.817   6.907  0.00  0.00     0.185 C 
BRANCH  35  36
ATOM     36  C39 ZIN A   1      18.322  -0.684   6.054  0.00  0.00     0.137 C 
BRANCH  36  37
ATOM     37  C40 ZIN A   1      19.248  -0.406   4.898  0.00  0.00     0.217 C 
ATOM     38  N41 ZIN A   1      19.406   0.854   4.449  0.00  0.00    -0.370 N 
ATOM     39  H91 ZIN A   1      18.924   1.583   4.870  0.00  0.00     0.159 HD
ATOM     40  H92 ZIN A   1      20.002   1.033   3.705  0.00  0.00     0.159 HD
ATOM     41  O42 ZIN A   1      19.852  -1.318   4.373  0.00  0.00    -0.274 OA
ENDBRANCH  36  37
ENDBRANCH  35  36
BRANCH  35  42
ATOM     42  N43 ZIN A   1      18.215  -3.072   6.574  0.00  0.00    -0.342 N 
ATOM     43  C44 ZIN A   1      18.937  -4.165   6.256  0.00  0.00     0.271 C 
ATOM     44  O45 ZIN A   1      20.149  -4.138   6.335  0.00  0.00    -0.266 OA
ATOM     45  H93 ZIN A   1      17.247  -3.115   6.581  0.00  0.00     0.163 HD
BRANCH  43  46
ATOM     46  C46 ZIN A   1      18.250  -5.402   5.810  0.00  0.00     0.125 A 
ATOM     47  N55 ZIN A   1      18.134  -6.413   6.649  0.00  0.00    -0.243 NA
ATOM     48  C54 ZIN A   1      17.521  -7.541   6.293  0.00  0.00     0.068 A 
ATOM     49  C49 ZIN A   1      16.987  -7.675   4.985  0.00  0.00    -0.007 A 
ATOM     50  C53 ZIN A   1      17.397  -8.615   7.195  0.00  0.00     0.032 A 
ATOM     51  C48 ZIN A   1      17.111  -6.604   4.081  0.00  0.00     0.016 A 
ATOM     52  C50 ZIN A   1      16.348  -8.870   4.616  0.00  0.00     0.014 A 
ATOM     53  C47 ZIN A   1      17.745  -5.472   4.504  0.00  0.00     0.038 A 
ATOM     54  C51 ZIN A   1      16.248  -9.885   5.517  0.00  0.00     0.001 A 
ATOM     55  C52 ZIN A   1      16.771  -9.757   6.803  0.00  0.00     0.002 A 
ENDBRANCH  43  46
ENDBRANCH  35  42
ENDBRANCH  32  35
ENDBRANCH   1  31
TORSDOF 14
ENDMDL
MODEL 4
REMARK VINA RESULT:     -10.0      0.952      3.962
REMARK  14 active torsions:
REMARK  status: ('A' for Active; 'I' for Inactive)
REMARK    1  A    between atoms: C2_2  and  N5_5 
REMARK       I    between atoms: N5_5  and  C6_6 
REMARK    2  A    between atoms: C6_6  and  C8_8 
REMARK    3  A    between atoms: N20_17  and  C21_18 
REMARK    4  A    between atoms: C21_18  and  C22_19 
REMARK    5  A    between atoms: C22_19  and  O24_20 
REMARK    6  A    between atoms: C22_19  and  C25_21 
REMARK    7  A    between atoms: C25_21  and  C27_22 
REMARK    8  A    between atoms: C25_21  and  N34_29 
REMARK    9  A    between atoms: C27_22  and  C28_23 
REMARK       I    between atoms: N34_29  and  C35_30 
REMARK   10  A    between atoms: C35_30  and  C37_32 
REMARK   11  A    between atoms: C37_32  and  C39_33 
REMARK   12  A    between atoms: C37_32  and  N43_37 
REMARK   13  A    between atoms: C39_33  and  C40_34 
REMARK       I    between atoms: C40_34  and  N41_35 
REMARK       I    between atoms: N43_37  and  C44_38 
REMARK   14  A    between atoms: C44_38  and  C46_40 
ROOT
ATOM      1  C25 ZIN A   1      18.219  -1.944  12.873  0.00  0.00     0.119 C 
ENDROOT
BRANCH   1   2
ATOM      2  C22 ZIN A   1      17.717  -0.660  12.210  0.00  0.00     0.169 C 
BRANCH   2   3
ATOM      3  C21 ZIN A   1      18.837  -0.051  11.364  0.00  0.00     0.307 C 
BRANCH   3   4
ATOM      4  N20 ZIN A   1      18.700   1.411  11.349  0.00  0.00     0.105 N 
ATOM      5  C8  ZIN A   1      17.894   1.851  10.202  0.00  0.00     0.314 C 
ATOM      6  C10 ZIN A   1      17.886   3.380  10.135  0.00  0.00     0.050 C 
ATOM      7  C11 ZIN A   1      17.307   3.935  11.438  0.00  0.00    -0.006 C 
ATOM      8  C17 ZIN A   1      18.145   3.430  12.615  0.00  0.00     0.018 C 
ATOM      9  C13 ZIN A   1      17.337   5.464  11.415  0.00  0.00     0.005 C 
ATOM     10  C16 ZIN A   1      17.554   3.959  13.921  0.00  0.00     0.007 C 
ATOM     11  C19 ZIN A   1      18.139   1.901  12.618  0.00  0.00     0.278 C 
ATOM     12  C15 ZIN A   1      17.575   5.490  13.904  0.00  0.00     0.000 C 
ATOM     13  C14 ZIN A   1      16.751   6.002  12.722  0.00  0.00     0.000 C 
BRANCH   5  14
ATOM     14  C6  ZIN A   1      18.486   1.296   8.932  0.00  0.00     0.252 C 
ATOM     15  N5  ZIN A   1      17.743   0.507   8.131  0.00  0.00    -0.351 N 
ATOM     16  H65 ZIN A   1      16.828   0.296   8.374  0.00  0.00     0.163 HD
ATOM     17  O7  ZIN A   1      19.630   1.561   8.631  0.00  0.00    -0.271 OA
BRANCH  15  18
ATOM     18  C2  ZIN A   1      18.318  -0.032   6.896  0.00  0.00     0.022 C 
ATOM     19  C1  ZIN A   1      19.232  -1.212   7.233  0.00  0.00     0.037 C 
ATOM     20  C3  ZIN A   1      19.129   1.057   6.193  0.00  0.00     0.037 C 
ATOM     21  C4  ZIN A   1      17.193  -0.506   5.975  0.00  0.00     0.037 C 
ENDBRANCH  15  18
ENDBRANCH   5  14
ENDBRANCH   3   4
ENDBRANCH   2   3
BRANCH   2  22
ATOM     22  O24 ZIN A   1      16.598  -0.961  11.373  0.00  0.00    -0.392 OA
ATOM     23  H80 ZIN A   1      15.833  -1.311  11.849  0.00  0.00     0.210 HD
ENDBRANCH   2  22
ENDBRANCH   1   2
BRANCH   1  24
ATOM     24  C27 ZIN A   1      19.366  -1.609  13.829  0.00  0.00     0.066 C 
BRANCH  24  25
ATOM     25  C28 ZIN A   1      18.822  -0.886  15.033  0.00  0.00    -0.056 A 
ATOM     26  C33 ZIN A   1      19.221   0.411  15.300  0.00  0.00     0.007 A 
ATOM     27  C32 ZIN A   1      18.718   1.077  16.401  0.00  0.00     0.001 A 
ATOM     28  C31 ZIN A   1      17.822   0.442  17.243  0.00  0.00     0.000 A 
ATOM     29  C30 ZIN A   1      17.428  -0.856  16.980  0.00  0.00     0.001 A 
ATOM     30  C29 ZIN A   1      17.927  -1.520  15.875  0.00  0.00     0.007 A 
ENDBRANCH  24  25
ENDBRANCH   1  24
BRANCH   1  31
ATOM     31  N34 ZIN A   1      18.696  -2.870  11.843  0.00  0.00    -0.352 N 
ATOM     32  C35 ZIN A   1      17.877  -3.827  11.366  0.00  0.00     0.241 C 
ATOM     33  O36 ZIN A   1      16.744  -3.922  11.788  0.00  0.00    -0.271 OA
ATOM     34  H88 ZIN A   1      19.602  -2.794  11.505  0.00  0.00     0.163 HD
BRANCH  32  35
ATOM     35  C37 ZIN A   1      18.368  -4.779  10.306  0.00  0.00     0.185 C 
BRANCH  35  36
ATOM     36  C39 ZIN A   1      19.713  -4.291   9.765  0.00  0.00     0.137 C 
BRANCH  36  37
ATOM     37  C40 ZIN A   1      20.227  -5.268   8.739  0.00  0.00     0.217 C 
ATOM     38  N41 ZIN A   1      20.728  -4.819   7.572  0.00  0.00    -0.370 N 
ATOM     39  H91 ZIN A   1      20.757  -3.866   7.392  0.00  0.00     0.159 HD
ATOM     40  H92 ZIN A   1      21.058  -5.447   6.911  0.00  0.00     0.159 HD
ATOM     41  O42 ZIN A   1      20.190  -6.460   8.965  0.00  0.00    -0.274 OA
ENDBRANCH  36  37
ENDBRANCH  35  36
BRANCH  35  42
ATOM     42  N43 ZIN A   1      17.393  -4.837   9.213  0.00  0.00    -0.342 N 
ATOM     43  C44 ZIN A   1      16.786  -6.003   8.913  0.00  0.00     0.271 C 
ATOM     44  O45 ZIN A   1      16.975  -6.983   9.606  0.00  0.00    -0.266 OA
ATOM     45  H93 ZIN A   1      17.187  -4.038   8.705  0.00  0.00     0.163 HD
BRANCH  43  46
ATOM     46  C46 ZIN A   1      15.885  -6.088   7.738  0.00  0.00     0.125 A 
ATOM     47  N55 ZIN A   1      16.387  -5.931   6.529  0.00  0.00    -0.243 NA
ATOM     48  C54 ZIN A   1      15.616  -6.004   5.445  0.00  0.00     0.068 A 
ATOM     49  C49 ZIN A   1      14.223  -6.243   5.580  0.00  0.00    -0.007 A 
ATOM     50  C53 ZIN A   1      16.159  -5.840   4.156  0.00  0.00     0.032 A 
ATOM     51  C48 ZIN A   1      13.678  -6.406   6.867  0.00  0.00     0.016 A 
ATOM     52  C50 ZIN A   1      13.417  -6.313   4.432  0.00  0.00     0.014 A 
ATOM     53  C47 ZIN A   1      14.518  -6.326   7.939  0.00  0.00     0.038 A 
ATOM     54  C51 ZIN A   1      13.980  -6.149   3.204  0.00  0.00     0.001 A 
ATOM     55  C52 ZIN A   1      15.347  -5.914   3.067  0.00  0.00     0.002 A 
ENDBRANCH  43  46
ENDBRANCH  35  42
ENDBRANCH  32  35
ENDBRANCH   1  31
TORSDOF 14
ENDMDL
MODEL 5
REMARK VINA RESULT:      -9.6      1.605      5.301
REMARK  14 active torsions:
REMARK  status: ('A' for Active; 'I' for Inactive)
REMARK    1  A    between atoms: C2_2  and  N5_5 
REMARK       I    between atoms: N5_5  and  C6_6 
REMARK    2  A    between atoms: C6_6  and  C8_8 
REMARK    3  A    between atoms: N20_17  and  C21_18 
REMARK    4  A    between atoms: C21_18  and  C22_19 
REMARK    5  A    between atoms: C22_19  and  O24_20 
REMARK    6  A    between atoms: C22_19  and  C25_21 
REMARK    7  A    between atoms: C25_21  and  C27_22 
REMARK    8  A    between atoms: C25_21  and  N34_29 
REMARK    9  A    between atoms: C27_22  and  C28_23 
REMARK       I    between atoms: N34_29  and  C35_30 
REMARK   10  A    between atoms: C35_30  and  C37_32 
REMARK   11  A    between atoms: C37_32  and  C39_33 
REMARK   12  A    between atoms: C37_32  and  N43_37 
REMARK   13  A    between atoms: C39_33  and  C40_34 
REMARK       I    between atoms: C40_34  and  N41_35 
REMARK       I    between atoms: N43_37  and  C44_38 
REMARK   14  A    between atoms: C44_38  and  C46_40 
ROOT
ATOM      1  C25 ZIN A   1      18.155  -1.355  10.106  0.00  0.00     0.119 C 
ENDROOT
BRANCH   1   2
ATOM      2  C22 ZIN A   1      17.957  -1.287  11.622  0.00  0.00     0.169 C 
BRANCH   2   3
ATOM      3  C21 ZIN A   1      18.896  -0.231  12.211  0.00  0.00     0.307 C 
BRANCH   3   4
ATOM      4  N20 ZIN A   1      18.168   1.033  12.377  0.00  0.00     0.105 N 
ATOM      5  C8  ZIN A   1      18.465   1.643  13.680  0.00  0.00     0.314 C 
ATOM      6  C10 ZIN A   1      17.589   2.882  13.881  0.00  0.00     0.050 C 
ATOM      7  C11 ZIN A   1      17.862   3.877  12.751  0.00  0.00    -0.006 C 
ATOM      8  C17 ZIN A   1      17.577   3.200  11.408  0.00  0.00     0.018 C 
ATOM      9  C13 ZIN A   1      16.957   5.100  12.903  0.00  0.00     0.005 C 
ATOM     10  C16 ZIN A   1      17.875   4.182  10.275  0.00  0.00     0.007 C 
ATOM     11  C19 ZIN A   1      18.460   1.959  11.272  0.00  0.00     0.278 C 
ATOM     12  C15 ZIN A   1      16.979   5.414  10.422  0.00  0.00     0.000 C 
ATOM     13  C14 ZIN A   1      17.246   6.086  11.769  0.00  0.00     0.000 C 
BRANCH   5  14
ATOM     14  C6  ZIN A   1      18.185   0.646  14.775  0.00  0.00     0.252 C 
ATOM     15  N5  ZIN A   1      18.949   0.632  15.885  0.00  0.00    -0.351 N 
ATOM     16  H65 ZIN A   1      19.681   1.263  15.978  0.00  0.00     0.163 HD
ATOM     17  O7  ZIN A   1      17.271  -0.142  14.658  0.00  0.00    -0.271 OA
BRANCH  15  18
ATOM     18  C2  ZIN A   1      18.677  -0.336  16.950  0.00  0.00     0.022 C 
ATOM     19  C1  ZIN A   1      19.358   0.121  18.242  0.00  0.00     0.037 C 
ATOM     20  C3  ZIN A   1      19.221  -1.707  16.544  0.00  0.00     0.037 C 
ATOM     21  C4  ZIN A   1      17.167  -0.433  17.177  0.00  0.00     0.037 C 
ENDBRANCH  15  18
ENDBRANCH   5  14
ENDBRANCH   3   4
ENDBRANCH   2   3
BRANCH   2  22
ATOM     22  O24 ZIN A   1      16.603  -0.933  11.910  0.00  0.00    -0.392 OA
ATOM     23  H80 ZIN A   1      16.069  -1.663  12.251  0.00  0.00     0.210 HD
ENDBRANCH   2  22
ENDBRANCH   1   2
BRANCH   1  24
ATOM     24  C27 ZIN A   1      17.161  -0.416   9.419  0.00  0.00     0.066 C 
BRANCH  24  25
ATOM     25  C28 ZIN A   1      17.735   0.047   8.105  0.00  0.00    -0.056 A 
ATOM     26  C33 ZIN A   1      17.234  -0.452   6.917  0.00  0.00     0.007 A 
ATOM     27  C32 ZIN A   1      17.757  -0.024   5.712  0.00  0.00     0.001 A 
ATOM     28  C31 ZIN A   1      18.787   0.898   5.694  0.00  0.00     0.000 A 
ATOM     29  C30 ZIN A   1      19.292   1.393   6.882  0.00  0.00     0.001 A 
ATOM     30  C29 ZIN A   1      18.766   0.968   8.087  0.00  0.00     0.007 A 
ENDBRANCH  24  25
ENDBRANCH   1  24
BRANCH   1  31
ATOM     31  N34 ZIN A   1      17.927  -2.727   9.646  0.00  0.00    -0.352 N 
ATOM     32  C35 ZIN A   1      18.873  -3.668   9.836  0.00  0.00     0.241 C 
ATOM     33  O36 ZIN A   1      19.913  -3.378  10.388  0.00  0.00    -0.271 OA
ATOM     34  H88 ZIN A   1      17.095  -2.959   9.205  0.00  0.00     0.163 HD
BRANCH  32  35
ATOM     35  C37 ZIN A   1      18.638  -5.079   9.363  0.00  0.00     0.185 C 
BRANCH  35  36
ATOM     36  C39 ZIN A   1      19.962  -5.690   8.901  0.00  0.00     0.137 C 
BRANCH  36  37
ATOM     37  C40 ZIN A   1      20.158  -5.416   7.432  0.00  0.00     0.217 C 
ATOM     38  N41 ZIN A   1      20.866  -4.340   7.036  0.00  0.00    -0.370 N 
ATOM     39  H91 ZIN A   1      21.250  -3.743   7.697  0.00  0.00     0.159 HD
ATOM     40  H92 ZIN A   1      20.991  -4.163   6.091  0.00  0.00     0.159 HD
ATOM     41  O42 ZIN A   1      19.678  -6.164   6.606  0.00  0.00    -0.274 OA
ENDBRANCH  36  37
ENDBRANCH  35  36
BRANCH  35  42
ATOM     42  N43 ZIN A   1      17.689  -5.068   8.246  0.00  0.00    -0.342 N 
ATOM     43  C44 ZIN A   1      16.698  -5.979   8.195  0.00  0.00     0.271 C 
ATOM     44  O45 ZIN A   1      16.534  -6.751   9.119  0.00  0.00    -0.266 OA
ATOM     45  H93 ZIN A   1      17.776  -4.405   7.544  0.00  0.00     0.163 HD
BRANCH  43  46
ATOM     46  C46 ZIN A   1      15.807  -6.039   7.011  0.00  0.00     0.125 A 
ATOM     47  N55 ZIN A   1      16.239  -5.577   5.855  0.00  0.00    -0.243 NA
ATOM     48  C54 ZIN A   1      15.475  -5.615   4.764  0.00  0.00     0.068 A 
ATOM     49  C49 ZIN A   1      14.163  -6.150   4.837  0.00  0.00    -0.007 A 
ATOM     50  C53 ZIN A   1      15.945  -5.124   3.531  0.00  0.00     0.032 A 
ATOM     51  C48 ZIN A   1      13.690  -6.641   6.068  0.00  0.00     0.016 A 
ATOM     52  C50 ZIN A   1      13.361  -6.181   3.683  0.00  0.00     0.014 A 
ATOM     53  C47 ZIN A   1      14.520  -6.580   7.149  0.00  0.00     0.038 A 
ATOM     54  C51 ZIN A   1      13.853  -5.696   2.510  0.00  0.00     0.001 A 
ATOM     55  C52 ZIN A   1      15.141  -5.170   2.435  0.00  0.00     0.002 A 
ENDBRANCH  43  46
ENDBRANCH  35  42
ENDBRANCH  32  35
ENDBRANCH   1  31
TORSDOF 14
ENDMDL
MODEL 6
REMARK VINA RESULT:      -9.4      2.119      6.648
REMARK  14 active torsions:
REMARK  status: ('A' for Active; 'I' for Inactive)
REMARK    1  A    between atoms: C2_2  and  N5_5 
REMARK       I    between atoms: N5_5  and  C6_6 
REMARK    2  A    between atoms: C6_6  and  C8_8 
REMARK    3  A    between atoms: N20_17  and  C21_18 
REMARK    4  A    between atoms: C21_18  and  C22_19 
REMARK    5  A    between atoms: C22_19  and  O24_20 
REMARK    6  A    between atoms: C22_19  and  C25_21 
REMARK    7  A    between atoms: C25_21  and  C27_22 
REMARK    8  A    between atoms: C25_21  and  N34_29 
REMARK    9  A    between atoms: C27_22  and  C28_23 
REMARK       I    between atoms: N34_29  and  C35_30 
REMARK   10  A    between atoms: C35_30  and  C37_32 
REMARK   11  A    between atoms: C37_32  and  C39_33 
REMARK   12  A    between atoms: C37_32  and  N43_37 
REMARK   13  A    between atoms: C39_33  and  C40_34 
REMARK       I    between atoms: C40_34  and  N41_35 
REMARK       I    between atoms: N43_37  and  C44_38 
REMARK   14  A    between atoms: C44_38  and  C46_40 
ROOT
ATOM      1  C25 ZIN A   1      19.175   1.642  10.170  0.00  0.00     0.119 C 
ENDROOT
BRANCH   1   2
ATOM      2  C22 ZIN A   1      18.611   0.589  11.125  0.00  0.00     0.169 C 
BRANCH   2   3
ATOM      3  C21 ZIN A   1      19.629   0.307  12.233  0.00  0.00     0.307 C 
BRANCH   3   4
ATOM      4  N20 ZIN A   1      18.931   0.188  13.520  0.00  0.00     0.105 N 
ATOM      5  C8  ZIN A   1      18.942  -1.202  13.995  0.00  0.00     0.314 C 
ATOM      6  C10 ZIN A   1      18.090  -1.320  15.261  0.00  0.00     0.050 C 
ATOM      7  C11 ZIN A   1      18.654  -0.385  16.333  0.00  0.00    -0.006 C 
ATOM      8  C17 ZIN A   1      18.663   1.047  15.794  0.00  0.00     0.018 C 
ATOM      9  C13 ZIN A   1      17.787  -0.447  17.590  0.00  0.00     0.005 C 
ATOM     10  C16 ZIN A   1      19.253   1.981  16.851  0.00  0.00     0.007 C 
ATOM     11  C19 ZIN A   1      19.506   1.101  14.519  0.00  0.00     0.278 C 
ATOM     12  C15 ZIN A   1      18.394   1.921  18.117  0.00  0.00     0.000 C 
ATOM     13  C14 ZIN A   1      18.367   0.490  18.652  0.00  0.00     0.000 C 
BRANCH   5  14
ATOM     14  C6  ZIN A   1      18.378  -2.102  12.925  0.00  0.00     0.252 C 
ATOM     15  N5  ZIN A   1      19.145  -3.068  12.384  0.00  0.00    -0.351 N 
ATOM     16  H65 ZIN A   1      20.061  -3.184  12.682  0.00  0.00     0.163 HD
ATOM     17  O7  ZIN A   1      17.233  -1.957  12.553  0.00  0.00    -0.271 OA
BRANCH  15  18
ATOM     18  C2  ZIN A   1      18.597  -3.943  11.344  0.00  0.00     0.022 C 
ATOM     19  C1  ZIN A   1      17.855  -3.098  10.306  0.00  0.00     0.037 C 
ATOM     20  C3  ZIN A   1      17.627  -4.941  11.977  0.00  0.00     0.037 C 
ATOM     21  C4  ZIN A   1      19.738  -4.701  10.664  0.00  0.00     0.037 C 
ENDBRANCH  15  18
ENDBRANCH   5  14
ENDBRANCH   3   4
ENDBRANCH   2   3
BRANCH   2  22
ATOM     22  O24 ZIN A   1      17.398   1.072  11.705  0.00  0.00    -0.392 OA
ATOM     23  H80 ZIN A   1      17.056   1.876  11.291  0.00  0.00     0.210 HD
ENDBRANCH   2  22
ENDBRANCH   1   2
BRANCH   1  24
ATOM     24  C27 ZIN A   1      18.137   2.745   9.956  0.00  0.00     0.066 C 
BRANCH  24  25
ATOM     25  C28 ZIN A   1      18.193   3.718  11.105  0.00  0.00    -0.056 A 
ATOM     26  C33 ZIN A   1      19.376   3.902  11.799  0.00  0.00     0.007 A 
ATOM     27  C32 ZIN A   1      19.429   4.797  12.849  0.00  0.00     0.001 A 
ATOM     28  C31 ZIN A   1      18.297   5.503  13.214  0.00  0.00     0.000 A 
ATOM     29  C30 ZIN A   1      17.114   5.315  12.526  0.00  0.00     0.001 A 
ATOM     30  C29 ZIN A   1      17.062   4.423  11.471  0.00  0.00     0.007 A 
ENDBRANCH  24  25
ENDBRANCH   1  24
BRANCH   1  31
ATOM     31  N34 ZIN A   1      19.493   1.015   8.884  0.00  0.00    -0.352 N 
ATOM     32  C35 ZIN A   1      18.627   0.146   8.326  0.00  0.00     0.241 C 
ATOM     33  O36 ZIN A   1      17.584  -0.115   8.888  0.00  0.00    -0.271 OA
ATOM     34  H88 ZIN A   1      20.327   1.224   8.435  0.00  0.00     0.163 HD
BRANCH  32  35
ATOM     35  C37 ZIN A   1      18.953  -0.498   7.004  0.00  0.00     0.185 C 
BRANCH  35  36
ATOM     36  C39 ZIN A   1      18.546   0.439   5.865  0.00  0.00     0.137 C 
BRANCH  36  37
ATOM     37  C40 ZIN A   1      18.863  -0.210   4.543  0.00  0.00     0.217 C 
ATOM     38  N41 ZIN A   1      17.949  -0.204   3.553  0.00  0.00    -0.370 N 
ATOM     39  H91 ZIN A   1      17.086   0.218   3.692  0.00  0.00     0.159 HD
ATOM     40  H92 ZIN A   1      18.152  -0.622   2.702  0.00  0.00     0.159 HD
ATOM     41  O42 ZIN A   1      19.942  -0.737   4.369  0.00  0.00    -0.274 OA
ENDBRANCH  36  37
ENDBRANCH  35  36
BRANCH  35  42
ATOM     42  N43 ZIN A   1      18.221  -1.762   6.883  0.00  0.00    -0.342 N 
ATOM     43  C44 ZIN A   1      18.892  -2.911   6.673  0.00  0.00     0.271 C 
ATOM     44  O45 ZIN A   1      20.107  -2.916   6.676  0.00  0.00    -0.266 OA
ATOM     45  H93 ZIN A   1      17.254  -1.770   6.953  0.00  0.00     0.163 HD
BRANCH  43  46
ATOM     46  C46 ZIN A   1      18.146  -4.172   6.439  0.00  0.00     0.125 A 
ATOM     47  N55 ZIN A   1      17.949  -5.001   7.445  0.00  0.00    -0.243 NA
ATOM     48  C54 ZIN A   1      17.281  -6.142   7.282  0.00  0.00     0.068 A 
ATOM     49  C49 ZIN A   1      16.775  -6.490   6.002  0.00  0.00    -0.007 A 
ATOM     50  C53 ZIN A   1      17.070  -7.020   8.362  0.00  0.00     0.032 A 
ATOM     51  C48 ZIN A   1      16.985  -5.614   4.921  0.00  0.00     0.016 A 
ATOM     52  C50 ZIN A   1      16.077  -7.698   5.838  0.00  0.00     0.014 A 
ATOM     53  C47 ZIN A   1      17.672  -4.458   5.150  0.00  0.00     0.038 A 
ATOM     54  C51 ZIN A   1      15.894  -8.519   6.907  0.00  0.00     0.001 A 
ATOM     55  C52 ZIN A   1      16.389  -8.181   8.166  0.00  0.00     0.002 A 
ENDBRANCH  43  46
ENDBRANCH  35  42
ENDBRANCH  32  35
ENDBRANCH   1  31
TORSDOF 14
ENDMDL
MODEL 7
REMARK VINA RESULT:      -9.3      2.121      8.928
REMARK  14 active torsions:
REMARK  status: ('A' for Active; 'I' for Inactive)
REMARK    1  A    between atoms: C2_2  and  N5_5 
REMARK       I    between atoms: N5_5  and  C6_6 
REMARK    2  A    between atoms: C6_6  and  C8_8 
REMARK    3  A    between atoms: N20_17  and  C21_18 
REMARK    4  A    between atoms: C21_18  and  C22_19 
REMARK    5  A    between atoms: C22_19  and  O24_20 
REMARK    6  A    between atoms: C22_19  and  C25_21 
REMARK    7  A    between atoms: C25_21  and  C27_22 
REMARK    8  A    between atoms: C25_21  and  N34_29 
REMARK    9  A    between atoms: C27_22  and  C28_23 
REMARK       I    between atoms: N34_29  and  C35_30 
REMARK   10  A    between atoms: C35_30  and  C37_32 
REMARK   11  A    between atoms: C37_32  and  C39_33 
REMARK   12  A    between atoms: C37_32  and  N43_37 
REMARK   13  A    between atoms: C39_33  and  C40_34 
REMARK       I    between atoms: C40_34  and  N41_35 
REMARK       I    between atoms: N43_37  and  C44_38 
REMARK   14  A    between atoms: C44_38  and  C46_40 
ROOT
ATOM      1  C25 ZIN A   1      18.637  -5.405   8.855  0.00  0.00     0.119 C 
ENDROOT
BRANCH   1   2
ATOM      2  C22 ZIN A   1      18.390  -5.656   7.366  0.00  0.00     0.169 C 
BRANCH   2   3
ATOM      3  C21 ZIN A   1      18.447  -4.327   6.609  0.00  0.00     0.307 C 
BRANCH   3   4
ATOM      4  N20 ZIN A   1      17.384  -4.295   5.596  0.00  0.00     0.105 N 
ATOM      5  C8  ZIN A   1      17.862  -3.678   4.352  0.00  0.00     0.314 C 
ATOM      6  C10 ZIN A   1      16.698  -3.533   3.368  0.00  0.00     0.050 C 
ATOM      7  C11 ZIN A   1      16.107  -4.915   3.085  0.00  0.00    -0.006 C 
ATOM      8  C17 ZIN A   1      15.652  -5.545   4.403  0.00  0.00     0.018 C 
ATOM      9  C13 ZIN A   1      14.908  -4.788   2.144  0.00  0.00     0.005 C 
ATOM     10  C16 ZIN A   1      15.086  -6.939   4.129  0.00  0.00     0.007 C 
ATOM     11  C19 ZIN A   1      16.846  -5.643   5.354  0.00  0.00     0.278 C 
ATOM     12  C15 ZIN A   1      13.888  -6.822   3.183  0.00  0.00     0.000 C 
ATOM     13  C14 ZIN A   1      14.332  -6.179   1.869  0.00  0.00     0.000 C 
BRANCH   5  14
ATOM     14  C6  ZIN A   1      18.436  -2.317   4.656  0.00  0.00     0.252 C 
ATOM     15  N5  ZIN A   1      17.684  -1.397   5.291  0.00  0.00    -0.351 N 
ATOM     16  H65 ZIN A   1      16.773  -1.609   5.550  0.00  0.00     0.163 HD
ATOM     17  O7  ZIN A   1      19.574  -2.053   4.332  0.00  0.00    -0.271 OA
BRANCH  15  18
ATOM     18  C2  ZIN A   1      18.241  -0.074   5.588  0.00  0.00     0.022 C 
ATOM     19  C1  ZIN A   1      17.140   0.829   6.149  0.00  0.00     0.037 C 
ATOM     20  C3  ZIN A   1      18.802   0.541   4.305  0.00  0.00     0.037 C 
ATOM     21  C4  ZIN A   1      19.361  -0.214   6.620  0.00  0.00     0.037 C 
ENDBRANCH  15  18
ENDBRANCH   5  14
ENDBRANCH   3   4
ENDBRANCH   2   3
BRANCH   2  22
ATOM     22  O24 ZIN A   1      19.395  -6.536   6.858  0.00  0.00    -0.392 OA
ATOM     23  H80 ZIN A   1      19.667  -6.341   5.951  0.00  0.00     0.210 HD
ENDBRANCH   2  22
ENDBRANCH   1   2
BRANCH   1  24
ATOM     24  C27 ZIN A   1      17.754  -6.342   9.683  0.00  0.00     0.066 C 
BRANCH  24  25
ATOM     25  C28 ZIN A   1      16.498  -6.658   8.913  0.00  0.00    -0.056 A 
ATOM     26  C33 ZIN A   1      16.373  -7.872   8.263  0.00  0.00     0.007 A 
ATOM     27  C32 ZIN A   1      15.219  -8.165   7.561  0.00  0.00     0.001 A 
ATOM     28  C31 ZIN A   1      14.193  -7.240   7.501  0.00  0.00     0.000 A 
ATOM     29  C30 ZIN A   1      14.321  -6.024   8.146  0.00  0.00     0.001 A 
ATOM     30  C29 ZIN A   1      15.472  -5.733   8.852  0.00  0.00     0.007 A 
ENDBRANCH  24  25
ENDBRANCH   1  24
BRANCH   1  31
ATOM     31  N34 ZIN A   1      18.308  -4.014   9.176  0.00  0.00    -0.352 N 
ATOM     32  C35 ZIN A   1      18.930  -3.394  10.199  0.00  0.00     0.241 C 
ATOM     33  O36 ZIN A   1      19.761  -3.987  10.852  0.00  0.00    -0.271 OA
ATOM     34  H88 ZIN A   1      17.643  -3.540   8.654  0.00  0.00     0.163 HD
BRANCH  32  35
ATOM     35  C37 ZIN A   1      18.592  -1.963  10.529  0.00  0.00     0.185 C 
BRANCH  35  36
ATOM     36  C39 ZIN A   1      19.450  -1.026   9.677  0.00  0.00     0.137 C 
BRANCH  36  37
ATOM     37  C40 ZIN A   1      20.369  -0.234  10.571  0.00  0.00     0.217 C 
ATOM     38  N41 ZIN A   1      21.610  -0.689  10.834  0.00  0.00    -0.370 N 
ATOM     39  H91 ZIN A   1      21.912  -1.526  10.448  0.00  0.00     0.159 HD
ATOM     40  H92 ZIN A   1      22.201  -0.179  11.410  0.00  0.00     0.159 HD
ATOM     41  O42 ZIN A   1      19.992   0.813  11.053  0.00  0.00    -0.274 OA
ENDBRANCH  36  37
ENDBRANCH  35  36
BRANCH  35  42
ATOM     42  N43 ZIN A   1      18.858  -1.714  11.949  0.00  0.00    -0.342 N 
ATOM     43  C44 ZIN A   1      17.914  -1.139  12.720  0.00  0.00     0.271 C 
ATOM     44  O45 ZIN A   1      16.811  -0.912  12.263  0.00  0.00    -0.266 OA
ATOM     45  H93 ZIN A   1      19.713  -1.962  12.332  0.00  0.00     0.163 HD
BRANCH  43  46
ATOM     46  C46 ZIN A   1      18.222  -0.785  14.127  0.00  0.00     0.125 A 
ATOM     47  N55 ZIN A   1      18.400   0.481  14.449  0.00  0.00    -0.243 NA
ATOM     48  C54 ZIN A   1      18.674   0.845  15.701  0.00  0.00     0.068 A 
ATOM     49  C49 ZIN A   1      18.790  -0.140  16.716  0.00  0.00    -0.007 A 
ATOM     50  C53 ZIN A   1      18.858   2.199  16.039  0.00  0.00     0.032 A 
ATOM     51  C48 ZIN A   1      18.607  -1.494  16.381  0.00  0.00     0.016 A 
ATOM     52  C50 ZIN A   1      19.085   0.253  18.033  0.00  0.00     0.014 A 
ATOM     53  C47 ZIN A   1      18.323  -1.806  15.083  0.00  0.00     0.038 A 
ATOM     54  C51 ZIN A   1      19.255   1.572  18.319  0.00  0.00     0.001 A 
ATOM     55  C52 ZIN A   1      19.142   2.542  17.324  0.00  0.00     0.002 A 
ENDBRANCH  43  46
ENDBRANCH  35  42
ENDBRANCH  32  35
ENDBRANCH   1  31
TORSDOF 14
ENDMDL
MODEL 8
REMARK VINA RESULT:      -9.3      1.619      5.791
REMARK  14 active torsions:
REMARK  status: ('A' for Active; 'I' for Inactive)
REMARK    1  A    between atoms: C2_2  and  N5_5 
REMARK       I    between atoms: N5_5  and  C6_6 
REMARK    2  A    between atoms: C6_6  and  C8_8 
REMARK    3  A    between atoms: N20_17  and  C21_18 
REMARK    4  A    between atoms: C21_18  and  C22_19 
REMARK    5  A    between atoms: C22_19  and  O24_20 
REMARK    6  A    between atoms: C22_19  and  C25_21 
REMARK    7  A    between atoms: C25_21  and  C27_22 
REMARK    8  A    between atoms: C25_21  and  N34_29 
REMARK    9  A    between atoms: C27_22  and  C28_23 
REMARK       I    between atoms: N34_29  and  C35_30 
REMARK   10  A    between atoms: C35_30  and  C37_32 
REMARK   11  A    between atoms: C37_32  and  C39_33 
REMARK   12  A    between atoms: C37_32  and  N43_37 
REMARK   13  A    between atoms: C39_33  and  C40_34 
REMARK       I    between atoms: C40_34  and  N41_35 
REMARK       I    between atoms: N43_37  and  C44_38 
REMARK   14  A    between atoms: C44_38  and  C46_40 
ROOT
ATOM      1  C25 ZIN A   1      18.948  -1.180  10.041  0.00  0.00     0.119 C 
ENDROOT
BRANCH   1   2
ATOM      2  C22 ZIN A   1      19.391  -0.833  11.463  0.00  0.00     0.169 C 
BRANCH   2   3
ATOM      3  C21 ZIN A   1      18.195  -0.294  12.253  0.00  0.00     0.307 C 
BRANCH   3   4
ATOM      4  N20 ZIN A   1      18.646   0.161  13.574  0.00  0.00     0.105 N 
ATOM      5  C8  ZIN A   1      18.106   1.491  13.884  0.00  0.00     0.314 C 
ATOM      6  C10 ZIN A   1      18.703   1.997  15.199  0.00  0.00     0.050 C 
ATOM      7  C11 ZIN A   1      18.362   1.008  16.316  0.00  0.00    -0.006 C 
ATOM      8  C17 ZIN A   1      18.907  -0.374  15.947  0.00  0.00     0.018 C 
ATOM      9  C13 ZIN A   1      18.994   1.467  17.631  0.00  0.00     0.005 C 
ATOM     10  C16 ZIN A   1      18.544  -1.371  17.047  0.00  0.00     0.007 C 
ATOM     11  C19 ZIN A   1      18.297  -0.816  14.616  0.00  0.00     0.278 C 
ATOM     12  C15 ZIN A   1      19.167  -0.917  18.369  0.00  0.00     0.000 C 
ATOM     13  C14 ZIN A   1      18.640   0.470  18.737  0.00  0.00     0.000 C 
BRANCH   5  14
ATOM     14  C6  ZIN A   1      18.458   2.446  12.772  0.00  0.00     0.252 C 
ATOM     15  N5  ZIN A   1      17.512   3.251  12.250  0.00  0.00    -0.351 N 
ATOM     16  H65 ZIN A   1      16.604   3.214  12.589  0.00  0.00     0.163 HD
ATOM     17  O7  ZIN A   1      19.594   2.491  12.350  0.00  0.00    -0.271 OA
BRANCH  15  18
ATOM     18  C2  ZIN A   1      17.855   4.180  11.170  0.00  0.00     0.022 C 
ATOM     19  C1  ZIN A   1      19.000   5.088  11.623  0.00  0.00     0.037 C 
ATOM     20  C3  ZIN A   1      16.633   5.033  10.825  0.00  0.00     0.037 C 
ATOM     21  C4  ZIN A   1      18.289   3.388   9.936  0.00  0.00     0.037 C 
ENDBRANCH  15  18
ENDBRANCH   5  14
ENDBRANCH   3   4
ENDBRANCH   2   3
BRANCH   2  22
ATOM     22  O24 ZIN A   1      19.895  -2.006  12.105  0.00  0.00    -0.392 OA
ATOM     23  H80 ZIN A   1      19.212  -2.557  12.511  0.00  0.00     0.210 HD
ENDBRANCH   2  22
ENDBRANCH   1   2
BRANCH   1  24
ATOM     24  C27 ZIN A   1      17.817  -0.241   9.616  0.00  0.00     0.066 C 
BRANCH  24  25
ATOM     25  C28 ZIN A   1      17.950   0.073   8.148  0.00  0.00    -0.056 A 
ATOM     26  C33 ZIN A   1      16.977  -0.348   7.260  0.00  0.00     0.007 A 
ATOM     27  C32 ZIN A   1      17.096  -0.057   5.915  0.00  0.00     0.001 A 
ATOM     28  C31 ZIN A   1      18.193   0.649   5.454  0.00  0.00     0.000 A 
ATOM     29  C30 ZIN A   1      19.169   1.064   6.341  0.00  0.00     0.001 A 
ATOM     30  C29 ZIN A   1      19.047   0.777   7.688  0.00  0.00     0.007 A 
ENDBRANCH  24  25
ENDBRANCH   1  24
BRANCH   1  31
ATOM     31  N34 ZIN A   1      18.472  -2.565  10.002  0.00  0.00    -0.352 N 
ATOM     32  C35 ZIN A   1      18.706  -3.327   8.915  0.00  0.00     0.241 C 
ATOM     33  O36 ZIN A   1      19.310  -2.866   7.970  0.00  0.00    -0.271 OA
ATOM     34  H88 ZIN A   1      17.989  -2.933  10.758  0.00  0.00     0.163 HD
BRANCH  32  35
ATOM     35  C37 ZIN A   1      18.217  -4.752   8.875  0.00  0.00     0.185 C 
BRANCH  35  36
ATOM     36  C39 ZIN A   1      19.413  -5.699   8.761  0.00  0.00     0.137 C 
BRANCH  36  37
ATOM     37  C40 ZIN A   1      19.964  -5.645   7.359  0.00  0.00     0.217 C 
ATOM     38  N41 ZIN A   1      21.057  -4.903   7.092  0.00  0.00    -0.370 N 
ATOM     39  H91 ZIN A   1      21.488  -4.403   7.803  0.00  0.00     0.159 HD
ATOM     40  H92 ZIN A   1      21.411  -4.867   6.191  0.00  0.00     0.159 HD
ATOM     41  O42 ZIN A   1      19.424  -6.271   6.471  0.00  0.00    -0.274 OA
ENDBRANCH  36  37
ENDBRANCH  35  36
BRANCH  35  42
ATOM     42  N43 ZIN A   1      17.337  -4.934   7.718  0.00  0.00    -0.342 N 
ATOM     43  C44 ZIN A   1      16.281  -5.768   7.799  0.00  0.00     0.271 C 
ATOM     44  O45 ZIN A   1      16.004  -6.297   8.857  0.00  0.00    -0.266 OA
ATOM     45  H93 ZIN A   1      17.515  -4.455   6.894  0.00  0.00     0.163 HD
BRANCH  43  46
ATOM     46  C46 ZIN A   1      15.456  -6.038   6.596  0.00  0.00     0.125 A 
ATOM     47  N55 ZIN A   1      15.803  -5.502   5.443  0.00  0.00    -0.243 NA
ATOM     48  C54 ZIN A   1      15.095  -5.721   4.336  0.00  0.00     0.068 A 
ATOM     49  C49 ZIN A   1      13.935  -6.537   4.388  0.00  0.00    -0.007 A 
ATOM     50  C53 ZIN A   1      15.474  -5.149   3.107  0.00  0.00     0.032 A 
ATOM     51  C48 ZIN A   1      13.553  -7.109   5.615  0.00  0.00     0.016 A 
ATOM     52  C50 ZIN A   1      13.190  -6.758   3.217  0.00  0.00     0.014 A 
ATOM     53  C47 ZIN A   1      14.321  -6.853   6.714  0.00  0.00     0.038 A 
ATOM     54  C51 ZIN A   1      13.590  -6.187   2.048  0.00  0.00     0.001 A 
ATOM     55  C52 ZIN A   1      14.729  -5.385   1.994  0.00  0.00     0.002 A 
ENDBRANCH  43  46
ENDBRANCH  35  42
ENDBRANCH  32  35
ENDBRANCH   1  31
TORSDOF 14
ENDMDL
MODEL 9
REMARK VINA RESULT:      -8.8      1.774      5.984
REMARK  14 active torsions:
REMARK  status: ('A' for Active; 'I' for Inactive)
REMARK    1  A    between atoms: C2_2  and  N5_5 
REMARK       I    between atoms: N5_5  and  C6_6 
REMARK    2  A    between atoms: C6_6  and  C8_8 
REMARK    3  A    between atoms: N20_17  and  C21_18 
REMARK    4  A    between atoms: C21_18  and  C22_19 
REMARK    5  A    between atoms: C22_19  and  O24_20 
REMARK    6  A    between atoms: C22_19  and  C25_21 
REMARK    7  A    between atoms: C25_21  and  C27_22 
REMARK    8  A    between atoms: C25_21  and  N34_29 
REMARK    9  A    between atoms: C27_22  and  C28_23 
REMARK       I    between atoms: N34_29  and  C35_30 
REMARK   10  A    between atoms: C35_30  and  C37_32 
REMARK   11  A    between atoms: C37_32  and  C39_33 
REMARK   12  A    between atoms: C37_32  and  N43_37 
REMARK   13  A    between atoms: C39_33  and  C40_34 
REMARK       I    between atoms: C40_34  and  N41_35 
REMARK       I    between atoms: N43_37  and  C44_38 
REMARK   14  A    between atoms: C44_38  and  C46_40 
ROOT
ATOM      1  C25 ZIN A   1      18.644  -0.955   9.763  0.00  0.00     0.119 C 
ENDROOT
BRANCH   1   2
ATOM      2  C22 ZIN A   1      19.208  -0.466  11.098  0.00  0.00     0.169 C 
BRANCH   2   3
ATOM      3  C21 ZIN A   1      18.054  -0.116  12.042  0.00  0.00     0.307 C 
BRANCH   3   4
ATOM      4  N20 ZIN A   1      18.592   0.222  13.366  0.00  0.00     0.105 N 
ATOM      5  C8  ZIN A   1      18.115   1.540  13.805  0.00  0.00     0.314 C 
ATOM      6  C10 ZIN A   1      18.800   1.925  15.119  0.00  0.00     0.050 C 
ATOM      7  C11 ZIN A   1      18.484   0.865  16.176  0.00  0.00    -0.006 C 
ATOM      8  C17 ZIN A   1      18.960  -0.501  15.674  0.00  0.00     0.018 C 
ATOM      9  C13 ZIN A   1      19.202   1.201  17.484  0.00  0.00     0.005 C 
ATOM     10  C16 ZIN A   1      18.621  -1.568  16.715  0.00  0.00     0.007 C 
ATOM     11  C19 ZIN A   1      18.264  -0.821  14.350  0.00  0.00     0.278 C 
ATOM     12  C15 ZIN A   1      19.331  -1.236  18.030  0.00  0.00     0.000 C 
ATOM     13  C14 ZIN A   1      18.872   0.134  18.530  0.00  0.00     0.000 C 
BRANCH   5  14
ATOM     14  C6  ZIN A   1      18.441   2.567  12.749  0.00  0.00     0.252 C 
ATOM     15  N5  ZIN A   1      17.454   3.292  12.188  0.00  0.00    -0.351 N 
ATOM     16  H65 ZIN A   1      16.533   3.151  12.461  0.00  0.00     0.163 HD
ATOM     17  O7  ZIN A   1      19.592   2.741  12.409  0.00  0.00    -0.271 OA
BRANCH  15  18
ATOM     18  C2  ZIN A   1      17.770   4.290  11.163  0.00  0.00     0.022 C 
ATOM     19  C1  ZIN A   1      18.856   5.232  11.686  0.00  0.00     0.037 C 
ATOM     20  C3  ZIN A   1      16.513   5.095  10.830  0.00  0.00     0.037 C 
ATOM     21  C4  ZIN A   1      18.272   3.584   9.902  0.00  0.00     0.037 C 
ENDBRANCH  15  18
ENDBRANCH   5  14
ENDBRANCH   3   4
ENDBRANCH   2   3
BRANCH   2  22
ATOM     22  O24 ZIN A   1      20.007  -1.496  11.685  0.00  0.00    -0.392 OA
ATOM     23  H80 ZIN A   1      19.897  -1.583  12.641  0.00  0.00     0.210 HD
ENDBRANCH   2  22
ENDBRANCH   1   2
BRANCH   1  24
ATOM     24  C27 ZIN A   1      17.765   0.137   9.150  0.00  0.00     0.066 C 
BRANCH  24  25
ATOM     25  C28 ZIN A   1      17.998   0.193   7.663  0.00  0.00    -0.056 A 
ATOM     26  C33 ZIN A   1      17.136  -0.463   6.802  0.00  0.00     0.007 A 
ATOM     27  C32 ZIN A   1      17.347  -0.408   5.438  0.00  0.00     0.001 A 
ATOM     28  C31 ZIN A   1      18.425   0.296   4.933  0.00  0.00     0.000 A 
ATOM     29  C30 ZIN A   1      19.290   0.946   5.793  0.00  0.00     0.001 A 
ATOM     30  C29 ZIN A   1      19.076   0.896   7.157  0.00  0.00     0.007 A 
ENDBRANCH  24  25
ENDBRANCH   1  24
BRANCH   1  31
ATOM     31  N34 ZIN A   1      17.841  -2.160   9.985  0.00  0.00    -0.352 N 
ATOM     32  C35 ZIN A   1      18.012  -3.239   9.195  0.00  0.00     0.241 C 
ATOM     33  O36 ZIN A   1      18.831  -3.212   8.302  0.00  0.00    -0.271 OA
ATOM     34  H88 ZIN A   1      17.185  -2.182  10.700  0.00  0.00     0.163 HD
BRANCH  32  35
ATOM     35  C37 ZIN A   1      17.186  -4.478   9.424  0.00  0.00     0.185 C 
BRANCH  35  36
ATOM     36  C39 ZIN A   1      17.945  -5.435  10.345  0.00  0.00     0.137 C 
BRANCH  36  37
ATOM     37  C40 ZIN A   1      18.657  -4.646  11.413  0.00  0.00     0.217 C 
ATOM     38  N41 ZIN A   1      20.003  -4.607  11.439  0.00  0.00    -0.370 N 
ATOM     39  H91 ZIN A   1      20.515  -5.088  10.770  0.00  0.00     0.159 HD
ATOM     40  H92 ZIN A   1      20.461  -4.100  12.127  0.00  0.00     0.159 HD
ATOM     41  O42 ZIN A   1      18.016  -4.043  12.250  0.00  0.00    -0.274 OA
ENDBRANCH  36  37
ENDBRANCH  35  36
BRANCH  35  42
ATOM     42  N43 ZIN A   1      16.929  -5.137   8.140  0.00  0.00    -0.342 N 
ATOM     43  C44 ZIN A   1      15.754  -5.763   7.928  0.00  0.00     0.271 C 
ATOM     44  O45 ZIN A   1      14.873  -5.703   8.763  0.00  0.00    -0.266 OA
ATOM     45  H93 ZIN A   1      17.604  -5.123   7.445  0.00  0.00     0.163 HD
BRANCH  43  46
ATOM     46  C46 ZIN A   1      15.537  -6.524   6.673  0.00  0.00     0.125 A 
ATOM     47  N55 ZIN A   1      14.705  -6.050   5.767  0.00  0.00    -0.243 NA
ATOM     48  C54 ZIN A   1      14.482  -6.697   4.624  0.00  0.00     0.068 A 
ATOM     49  C49 ZIN A   1      15.140  -7.929   4.369  0.00  0.00    -0.007 A 
ATOM     50  C53 ZIN A   1      13.596  -6.183   3.659  0.00  0.00     0.032 A 
ATOM     51  C48 ZIN A   1      16.026  -8.446   5.332  0.00  0.00     0.016 A 
ATOM     52  C50 ZIN A   1      14.895  -8.608   3.164  0.00  0.00     0.014 A 
ATOM     53  C47 ZIN A   1      16.217  -7.735   6.481  0.00  0.00     0.038 A 
ATOM     54  C51 ZIN A   1      14.031  -8.077   2.256  0.00  0.00     0.001 A 
ATOM     55  C52 ZIN A   1      13.384  -6.868   2.504  0.00  0.00     0.002 A 
ENDBRANCH  43  46
ENDBRANCH  35  42
ENDBRANCH  32  35
ENDBRANCH   1  31
TORSDOF 14
ENDMDL
