MODEL 1
REMARK VINA RESULT:      -8.8      0.000      0.000
REMARK  5 active torsions:
REMARK  status: ('A' for Active; 'I' for Inactive)
REMARK       I    between atoms: N2_2  and  C4_4 
REMARK    1  A    between atoms: C4_4  and  C6_6 
REMARK    2  A    between atoms: C11_11  and  N12_12 
REMARK    3  A    between atoms: N12_12  and  C13_13 
REMARK    4  A    between atoms: C16_16  and  N17_17 
REMARK    5  A    between atoms: N27_27  and  C28_28 
ROOT
ATOM      1  C6  ZIN A   1      18.863   4.585  15.515  0.00  0.00     0.106 A 
ATOM      2  C7  ZIN A   1      19.035   3.780  16.598  0.00  0.00     0.052 A 
ATOM      3  C8  ZIN A   1      18.965   2.442  16.150  0.00  0.00     0.031 A 
ATOM      4  C9  ZIN A   1      19.066   1.194  16.775  0.00  0.00     0.151 A 
ATOM      5  N10 ZIN A   1      18.949   0.105  16.037  0.00  0.00    -0.074 NA
ATOM      6  C11 ZIN A   1      18.742   0.180  14.727  0.00  0.00     0.729 A 
ATOM      7  N25 ZIN A   1      18.639   1.336  14.091  0.00  0.00    -0.044 NA
ATOM      8  C26 ZIN A   1      18.743   2.483  14.754  0.00  0.00     0.162 A 
ATOM      9  N27 ZIN A   1      18.679   3.798  14.390  0.00  0.00    -0.321 N 
ENDROOT
BRANCH   6  10
ATOM     10  N12 ZIN A   1      18.628  -0.993  14.001  0.00  0.00    -0.171 N 
ATOM     11  H41 ZIN A   1      18.573  -1.845  14.462  0.00  0.00     0.186 HD
BRANCH  10  12
ATOM     12  C13 ZIN A   1      18.591  -0.948  12.608  0.00  0.00     0.142 A 
ATOM     13  N24 ZIN A   1      19.720  -1.028  11.921  0.00  0.00    -0.241 NA
ATOM     14  C23 ZIN A   1      19.732  -0.997  10.602  0.00  0.00     0.142 A 
ATOM     15  C16 ZIN A   1      18.552  -0.864   9.885  0.00  0.00     0.028 A 
ATOM     16  C15 ZIN A   1      17.345  -0.769  10.574  0.00  0.00     0.029 A 
ATOM     17  C14 ZIN A   1      17.371  -0.813  11.957  0.00  0.00     0.053 A 
BRANCH  15  18
ATOM     18  N17 ZIN A   1      18.574  -0.824   8.486  0.00  0.00    -0.279 NA
ATOM     19  C22 ZIN A   1      17.311  -0.288   7.955  0.00  0.00     0.125 C 
ATOM     20  C21 ZIN A   1      17.405  -0.187   6.431  0.00  0.00     0.284 C 
ATOM     21  N20 ZIN A   1      17.686  -1.516   5.871  0.00  0.00     0.085 N 
ATOM     22  C19 ZIN A   1      18.947  -2.052   6.401  0.00  0.00     0.284 C 
ATOM     23  H48 ZIN A   1      17.701  -1.488   4.862  0.00  0.00     0.315 HD
ATOM     24  C18 ZIN A   1      18.854  -2.154   7.925  0.00  0.00     0.125 C 
ENDBRANCH  15  18
ENDBRANCH  10  12
ENDBRANCH   6  10
BRANCH   9  25
ATOM     25  C28 ZIN A   1      18.454   4.296  13.030  0.00  0.00     0.092 C 
ATOM     26  C32 ZIN A   1      17.581   3.302  12.243  0.00  0.00     0.026 C 
ATOM     27  C31 ZIN A   1      18.424   2.835  11.038  0.00  0.00     0.002 C 
ATOM     28  C30 ZIN A   1      19.889   3.069  11.485  0.00  0.00     0.002 C 
ATOM     29  C29 ZIN A   1      19.796   4.397  12.276  0.00  0.00     0.026 C 
ENDBRANCH   9  25
BRANCH   1  30
ATOM     30  C4  ZIN A   1      18.864   6.054  15.537  0.00  0.00     0.269 C 
ATOM     31  N2  ZIN A   1      17.701   6.727  15.651  0.00  0.00    -0.355 N 
ATOM     32  C1  ZIN A   1      17.688   8.188  15.546  0.00  0.00     0.152 C 
ATOM     33  C3  ZIN A   1      16.452   5.997  15.882  0.00  0.00     0.152 C 
ATOM     34  O5  ZIN A   1      19.913   6.663  15.453  0.00  0.00    -0.266 OA
ENDBRANCH   1  30
TORSDOF 5
ENDMDL
MODEL 2
REMARK VINA RESULT:      -8.7      3.846      9.546
REMARK  5 active torsions:
REMARK  status: ('A' for Active; 'I' for Inactive)
REMARK       I    between atoms: N2_2  and  C4_4 
REMARK    1  A    between atoms: C4_4  and  C6_6 
REMARK    2  A    between atoms: C11_11  and  N12_12 
REMARK    3  A    between atoms: N12_12  and  C13_13 
REMARK    4  A    between atoms: C16_16  and  N17_17 
REMARK    5  A    between atoms: N27_27  and  C28_28 
ROOT
ATOM      1  C6  ZIN A   1      18.336  -4.674   7.876  0.00  0.00     0.106 A 
ATOM      2  C7  ZIN A   1      18.496  -3.865   6.794  0.00  0.00     0.052 A 
ATOM      3  C8  ZIN A   1      18.785  -2.567   7.272  0.00  0.00     0.031 A 
ATOM      4  C9  ZIN A   1      19.044  -1.334   6.661  0.00  0.00     0.151 A 
ATOM      5  N10 ZIN A   1      19.282  -0.286   7.428  0.00  0.00    -0.074 NA
ATOM      6  C11 ZIN A   1      19.278  -0.387   8.752  0.00  0.00     0.729 A 
ATOM      7  N25 ZIN A   1      19.039  -1.530   9.376  0.00  0.00    -0.044 NA
ATOM      8  C26 ZIN A   1      18.789  -2.636   8.684  0.00  0.00     0.162 A 
ATOM      9  N27 ZIN A   1      18.508  -3.927   9.030  0.00  0.00    -0.321 N 
ENDROOT
BRANCH   6  10
ATOM     10  N12 ZIN A   1      19.535   0.744   9.509  0.00  0.00    -0.171 N 
ATOM     11  H41 ZIN A   1      19.843   1.556   9.077  0.00  0.00     0.186 HD
BRANCH  10  12
ATOM     12  C13 ZIN A   1      19.349   0.714  10.890  0.00  0.00     0.142 A 
ATOM     13  N24 ZIN A   1      20.359   0.386  11.680  0.00  0.00    -0.241 NA
ATOM     14  C23 ZIN A   1      20.231   0.351  12.992  0.00  0.00     0.142 A 
ATOM     15  C16 ZIN A   1      19.017   0.647  13.594  0.00  0.00     0.028 A 
ATOM     16  C15 ZIN A   1      17.928   0.990  12.795  0.00  0.00     0.029 A 
ATOM     17  C14 ZIN A   1      18.103   1.023  11.422  0.00  0.00     0.053 A 
BRANCH  15  18
ATOM     18  N17 ZIN A   1      18.886   0.601  14.987  0.00  0.00    -0.279 NA
ATOM     19  C22 ZIN A   1      17.653  -0.098  15.377  0.00  0.00     0.125 C 
ATOM     20  C21 ZIN A   1      17.587  -0.196  16.903  0.00  0.00     0.284 C 
ATOM     21  N20 ZIN A   1      17.628   1.154  17.480  0.00  0.00     0.085 N 
ATOM     22  C19 ZIN A   1      18.860   1.854  17.091  0.00  0.00     0.284 C 
ATOM     23  H48 ZIN A   1      17.534   1.121  18.484  0.00  0.00     0.315 HD
ATOM     24  C18 ZIN A   1      18.926   1.953  15.564  0.00  0.00     0.125 C 
ENDBRANCH  15  18
ENDBRANCH  10  12
ENDBRANCH   6  10
BRANCH   9  25
ATOM     25  C28 ZIN A   1      18.406  -4.441  10.399  0.00  0.00     0.092 C 
ATOM     26  C32 ZIN A   1      17.635  -3.441  11.280  0.00  0.00     0.026 C 
ATOM     27  C31 ZIN A   1      18.600  -3.008  12.402  0.00  0.00     0.002 C 
ATOM     28  C30 ZIN A   1      20.009  -3.264  11.812  0.00  0.00     0.002 C 
ATOM     29  C29 ZIN A   1      19.813  -4.579  11.017  0.00  0.00     0.026 C 
ENDBRANCH   9  25
BRANCH   1  30
ATOM     30  C4  ZIN A   1      18.022  -6.109   7.827  0.00  0.00     0.269 C 
ATOM     31  N2  ZIN A   1      16.773  -6.535   8.100  0.00  0.00    -0.355 N 
ATOM     32  C1  ZIN A   1      16.490  -7.970   8.176  0.00  0.00     0.152 C 
ATOM     33  C3  ZIN A   1      15.699  -5.563   8.319  0.00  0.00     0.152 C 
ATOM     34  O5  ZIN A   1      18.890  -6.911   7.540  0.00  0.00    -0.266 OA
ENDBRANCH   1  30
TORSDOF 5
ENDMDL
MODEL 3
REMARK VINA RESULT:      -8.6      3.002      8.683
REMARK  5 active torsions:
REMARK  status: ('A' for Active; 'I' for Inactive)
REMARK       I    between atoms: N2_2  and  C4_4 
REMARK    1  A    between atoms: C4_4  and  C6_6 
REMARK    2  A    between atoms: C11_11  and  N12_12 
REMARK    3  A    between atoms: N12_12  and  C13_13 
REMARK    4  A    between atoms: C16_16  and  N17_17 
REMARK    5  A    between atoms: N27_27  and  C28_28 
ROOT
ATOM      1  C6  ZIN A   1      18.665  -2.752  10.146  0.00  0.00     0.106 A 
ATOM      2  C7  ZIN A   1      19.087  -2.404   8.901  0.00  0.00     0.052 A 
ATOM      3  C8  ZIN A   1      19.002  -0.998   8.800  0.00  0.00     0.031 A 
ATOM      4  C9  ZIN A   1      19.288  -0.069   7.791  0.00  0.00     0.151 A 
ATOM      5  N10 ZIN A   1      19.089   1.213   8.037  0.00  0.00    -0.074 NA
ATOM      6  C11 ZIN A   1      18.627   1.625   9.212  0.00  0.00     0.729 A 
ATOM      7  N25 ZIN A   1      18.343   0.787  10.196  0.00  0.00    -0.044 NA
ATOM      8  C26 ZIN A   1      18.512  -0.521  10.037  0.00  0.00     0.162 A 
ATOM      9  N27 ZIN A   1      18.309  -1.607  10.840  0.00  0.00    -0.321 N 
ENDROOT
BRANCH   6  10
ATOM     10  N12 ZIN A   1      18.437   2.981   9.415  0.00  0.00    -0.171 N 
ATOM     11  H41 ZIN A   1      18.356   3.579   8.656  0.00  0.00     0.186 HD
BRANCH  10  12
ATOM     12  C13 ZIN A   1      18.363   3.487  10.713  0.00  0.00     0.142 A 
ATOM     13  N24 ZIN A   1      17.191   3.853  11.207  0.00  0.00    -0.241 NA
ATOM     14  C23 ZIN A   1      17.072   4.330  12.431  0.00  0.00     0.142 A 
ATOM     15  C16 ZIN A   1      18.186   4.478  13.245  0.00  0.00     0.028 A 
ATOM     16  C15 ZIN A   1      19.438   4.110  12.757  0.00  0.00     0.029 A 
ATOM     17  C14 ZIN A   1      19.522   3.606  11.470  0.00  0.00     0.053 A 
BRANCH  15  18
ATOM     18  N17 ZIN A   1      18.054   4.991  14.541  0.00  0.00    -0.279 NA
ATOM     19  C22 ZIN A   1      18.723   6.296  14.660  0.00  0.00     0.125 C 
ATOM     20  C21 ZIN A   1      18.488   6.858  16.064  0.00  0.00     0.284 C 
ATOM     21  N20 ZIN A   1      19.005   5.910  17.061  0.00  0.00     0.085 N 
ATOM     22  C19 ZIN A   1      18.337   4.607  16.942  0.00  0.00     0.284 C 
ATOM     23  H48 ZIN A   1      18.910   6.281  17.995  0.00  0.00     0.315 HD
ATOM     24  C18 ZIN A   1      18.572   4.044  15.538  0.00  0.00     0.125 C 
ENDBRANCH  15  18
ENDBRANCH  10  12
ENDBRANCH   6  10
BRANCH   9  25
ATOM     25  C28 ZIN A   1      17.798  -1.569  12.214  0.00  0.00     0.092 C 
ATOM     26  C32 ZIN A   1      16.966  -0.292  12.431  0.00  0.00     0.026 C 
ATOM     27  C31 ZIN A   1      17.665   0.502  13.553  0.00  0.00     0.002 C 
ATOM     28  C30 ZIN A   1      19.132   0.005  13.516  0.00  0.00     0.002 C 
ATOM     29  C29 ZIN A   1      18.973  -1.505  13.212  0.00  0.00     0.026 C 
ENDBRANCH   9  25
BRANCH   1  30
ATOM     30  C4  ZIN A   1      18.592  -4.123  10.668  0.00  0.00     0.269 C 
ATOM     31  N2  ZIN A   1      17.609  -4.949  10.259  0.00  0.00    -0.355 N 
ATOM     32  C1  ZIN A   1      17.460  -6.271  10.872  0.00  0.00     0.152 C 
ATOM     33  C3  ZIN A   1      16.690  -4.524   9.200  0.00  0.00     0.152 C 
ATOM     34  O5  ZIN A   1      19.420  -4.514  11.470  0.00  0.00    -0.266 OA
ENDBRANCH   1  30
TORSDOF 5
ENDMDL
MODEL 4
REMARK VINA RESULT:      -8.4      3.353      9.328
REMARK  5 active torsions:
REMARK  status: ('A' for Active; 'I' for Inactive)
REMARK       I    between atoms: N2_2  and  C4_4 
REMARK    1  A    between atoms: C4_4  and  C6_6 
REMARK    2  A    between atoms: C11_11  and  N12_12 
REMARK    3  A    between atoms: N12_12  and  C13_13 
REMARK    4  A    between atoms: C16_16  and  N17_17 
REMARK    5  A    between atoms: N27_27  and  C28_28 
ROOT
ATOM      1  C6  ZIN A   1      18.448  -3.296   8.320  0.00  0.00     0.106 A 
ATOM      2  C7  ZIN A   1      18.875  -3.237   9.610  0.00  0.00     0.052 A 
ATOM      3  C8  ZIN A   1      19.174  -1.887   9.899  0.00  0.00     0.031 A 
ATOM      4  C9  ZIN A   1      19.644  -1.209  11.031  0.00  0.00     0.151 A 
ATOM      5  N10 ZIN A   1      19.820   0.098  10.957  0.00  0.00    -0.074 NA
ATOM      6  C11 ZIN A   1      19.560   0.766   9.839  0.00  0.00     0.729 A 
ATOM      7  N25 ZIN A   1      19.115   0.170   8.744  0.00  0.00    -0.044 NA
ATOM      8  C26 ZIN A   1      18.909  -1.143   8.727  0.00  0.00     0.162 A 
ATOM      9  N27 ZIN A   1      18.473  -2.022   7.776  0.00  0.00    -0.321 N 
ENDROOT
BRANCH   6  10
ATOM     10  N12 ZIN A   1      19.761   2.135   9.817  0.00  0.00    -0.171 N 
ATOM     11  H41 ZIN A   1      20.313   2.533   9.126  0.00  0.00     0.186 HD
BRANCH  10  12
ATOM     12  C13 ZIN A   1      19.170   2.942  10.789  0.00  0.00     0.142 A 
ATOM     13  N24 ZIN A   1      19.909   3.428  11.774  0.00  0.00    -0.241 NA
ATOM     14  C23 ZIN A   1      19.394   4.200  12.711  0.00  0.00     0.142 A 
ATOM     15  C16 ZIN A   1      18.044   4.520  12.703  0.00  0.00     0.028 A 
ATOM     16  C15 ZIN A   1      17.233   4.020  11.686  0.00  0.00     0.029 A 
ATOM     17  C14 ZIN A   1      17.810   3.219  10.716  0.00  0.00     0.053 A 
BRANCH  15  18
ATOM     18  N17 ZIN A   1      17.502   5.334  13.705  0.00  0.00    -0.279 NA
ATOM     19  C22 ZIN A   1      17.758   4.769  15.038  0.00  0.00     0.125 C 
ATOM     20  C21 ZIN A   1      17.221   5.725  16.105  0.00  0.00     0.284 C 
ATOM     21  N20 ZIN A   1      15.783   5.935  15.893  0.00  0.00     0.085 N 
ATOM     22  C19 ZIN A   1      15.527   6.501  14.561  0.00  0.00     0.284 C 
ATOM     23  H48 ZIN A   1      15.392   6.522  16.615  0.00  0.00     0.315 HD
ATOM     24  C18 ZIN A   1      16.063   5.544  13.492  0.00  0.00     0.125 C 
ENDBRANCH  15  18
ENDBRANCH  10  12
ENDBRANCH   6  10
BRANCH   9  25
ATOM     25  C28 ZIN A   1      18.092  -1.674   6.405  0.00  0.00     0.092 C 
ATOM     26  C32 ZIN A   1      19.351  -1.441   5.551  0.00  0.00     0.026 C 
ATOM     27  C31 ZIN A   1      19.281   0.017   5.054  0.00  0.00     0.002 C 
ATOM     28  C30 ZIN A   1      18.369   0.728   6.085  0.00  0.00     0.002 C 
ATOM     29  C29 ZIN A   1      17.301  -0.349   6.395  0.00  0.00     0.026 C 
ENDBRANCH   9  25
BRANCH   1  30
ATOM     30  C4  ZIN A   1      18.035  -4.516   7.614  0.00  0.00     0.269 C 
ATOM     31  N2  ZIN A   1      18.929  -5.202   6.874  0.00  0.00    -0.355 N 
ATOM     32  C1  ZIN A   1      18.489  -6.344   6.069  0.00  0.00     0.152 C 
ATOM     33  C3  ZIN A   1      20.339  -4.804   6.875  0.00  0.00     0.152 C 
ATOM     34  O5  ZIN A   1      16.887  -4.908   7.699  0.00  0.00    -0.266 OA
ENDBRANCH   1  30
TORSDOF 5
ENDMDL
MODEL 5
REMARK VINA RESULT:      -8.4      2.135      4.256
REMARK  5 active torsions:
REMARK  status: ('A' for Active; 'I' for Inactive)
REMARK       I    between atoms: N2_2  and  C4_4 
REMARK    1  A    between atoms: C4_4  and  C6_6 
REMARK    2  A    between atoms: C11_11  and  N12_12 
REMARK    3  A    between atoms: N12_12  and  C13_13 
REMARK    4  A    between atoms: C16_16  and  N17_17 
REMARK    5  A    between atoms: N27_27  and  C28_28 
ROOT
ATOM      1  C6  ZIN A   1      18.694   2.042  15.880  0.00  0.00     0.106 A 
ATOM      2  C7  ZIN A   1      18.117   3.267  15.750  0.00  0.00     0.052 A 
ATOM      3  C8  ZIN A   1      18.034   3.555  14.370  0.00  0.00     0.031 A 
ATOM      4  C9  ZIN A   1      17.548   4.635  13.623  0.00  0.00     0.151 A 
ATOM      5  N10 ZIN A   1      17.626   4.579  12.306  0.00  0.00    -0.074 NA
ATOM      6  C11 ZIN A   1      18.150   3.525  11.691  0.00  0.00     0.729 A 
ATOM      7  N25 ZIN A   1      18.622   2.480  12.353  0.00  0.00    -0.044 NA
ATOM      8  C26 ZIN A   1      18.585   2.451  13.682  0.00  0.00     0.162 A 
ATOM      9  N27 ZIN A   1      18.986   1.544  14.621  0.00  0.00    -0.321 N 
ENDROOT
BRANCH   6  10
ATOM     10  N12 ZIN A   1      18.206   3.518  10.308  0.00  0.00    -0.171 N 
ATOM     11  H41 ZIN A   1      18.203   4.355   9.818  0.00  0.00     0.186 HD
BRANCH  10  12
ATOM     12  C13 ZIN A   1      18.267   2.306   9.620  0.00  0.00     0.142 A 
ATOM     13  N24 ZIN A   1      17.405   1.345   9.909  0.00  0.00    -0.241 NA
ATOM     14  C23 ZIN A   1      17.421   0.186   9.279  0.00  0.00     0.142 A 
ATOM     15  C16 ZIN A   1      18.362  -0.071   8.292  0.00  0.00     0.028 A 
ATOM     16  C15 ZIN A   1      19.292   0.915   7.966  0.00  0.00     0.029 A 
ATOM     17  C14 ZIN A   1      19.239   2.120   8.643  0.00  0.00     0.053 A 
BRANCH  15  18
ATOM     18  N17 ZIN A   1      18.378  -1.306   7.633  0.00  0.00    -0.279 NA
ATOM     19  C22 ZIN A   1      18.785  -2.385   8.546  0.00  0.00     0.125 C 
ATOM     20  C21 ZIN A   1      18.714  -3.724   7.810  0.00  0.00     0.284 C 
ATOM     21  N20 ZIN A   1      19.588  -3.680   6.630  0.00  0.00     0.085 N 
ATOM     22  C19 ZIN A   1      19.182  -2.602   5.717  0.00  0.00     0.284 C 
ATOM     23  H48 ZIN A   1      19.600  -4.570   6.154  0.00  0.00     0.315 HD
ATOM     24  C18 ZIN A   1      19.253  -1.261   6.452  0.00  0.00     0.125 C 
ENDBRANCH  15  18
ENDBRANCH  10  12
ENDBRANCH   6  10
BRANCH   9  25
ATOM     25  C28 ZIN A   1      19.621   0.252  14.343  0.00  0.00     0.092 C 
ATOM     26  C32 ZIN A   1      20.380   0.315  13.005  0.00  0.00     0.026 C 
ATOM     27  C31 ZIN A   1      19.738  -0.744  12.086  0.00  0.00     0.002 C 
ATOM     28  C30 ZIN A   1      18.311  -0.933  12.660  0.00  0.00     0.002 C 
ATOM     29  C29 ZIN A   1      18.545  -0.843  14.188  0.00  0.00     0.026 C 
ENDBRANCH   9  25
BRANCH   1  30
ATOM     30  C4  ZIN A   1      18.971   1.361  17.152  0.00  0.00     0.269 C 
ATOM     31  N2  ZIN A   1      18.083   0.478  17.651  0.00  0.00    -0.355 N 
ATOM     32  C1  ZIN A   1      18.297  -0.105  18.978  0.00  0.00     0.152 C 
ATOM     33  C3  ZIN A   1      16.905   0.102  16.865  0.00  0.00     0.152 C 
ATOM     34  O5  ZIN A   1      20.002   1.594  17.754  0.00  0.00    -0.266 OA
ENDBRANCH   1  30
TORSDOF 5
ENDMDL
MODEL 6
REMARK VINA RESULT:      -8.3      4.345     10.382
REMARK  5 active torsions:
REMARK  status: ('A' for Active; 'I' for Inactive)
REMARK       I    between atoms: N2_2  and  C4_4 
REMARK    1  A    between atoms: C4_4  and  C6_6 
REMARK    2  A    between atoms: C11_11  and  N12_12 
REMARK    3  A    between atoms: N12_12  and  C13_13 
REMARK    4  A    between atoms: C16_16  and  N17_17 
REMARK    5  A    between atoms: N27_27  and  C28_28 
ROOT
ATOM      1  C6  ZIN A   1      17.755  -5.880   6.456  0.00  0.00     0.106 A 
ATOM      2  C7  ZIN A   1      18.124  -5.384   5.244  0.00  0.00     0.052 A 
ATOM      3  C8  ZIN A   1      18.504  -4.037   5.432  0.00  0.00     0.031 A 
ATOM      4  C9  ZIN A   1      18.968  -3.023   4.585  0.00  0.00     0.151 A 
ATOM      5  N10 ZIN A   1      19.238  -1.840   5.104  0.00  0.00    -0.074 NA
ATOM      6  C11 ZIN A   1      19.079  -1.604   6.402  0.00  0.00     0.729 A 
ATOM      7  N25 ZIN A   1      18.644  -2.530   7.242  0.00  0.00    -0.044 NA
ATOM      8  C26 ZIN A   1      18.346  -3.750   6.807  0.00  0.00     0.162 A 
ATOM      9  N27 ZIN A   1      17.884  -4.884   7.411  0.00  0.00    -0.321 N 
ENDROOT
BRANCH   6  10
ATOM     10  N12 ZIN A   1      19.378  -0.345   6.893  0.00  0.00    -0.171 N 
ATOM     11  H41 ZIN A   1      19.732   0.336   6.300  0.00  0.00     0.186 HD
BRANCH  10  12
ATOM     12  C13 ZIN A   1      19.171  -0.057   8.242  0.00  0.00     0.142 A 
ATOM     13  N24 ZIN A   1      20.099  -0.376   9.130  0.00  0.00    -0.241 NA
ATOM     14  C23 ZIN A   1      19.948  -0.117  10.415  0.00  0.00     0.142 A 
ATOM     15  C16 ZIN A   1      18.794   0.493  10.883  0.00  0.00     0.028 A 
ATOM     16  C15 ZIN A   1      17.791   0.837   9.979  0.00  0.00     0.029 A 
ATOM     17  C14 ZIN A   1      17.988   0.556   8.638  0.00  0.00     0.053 A 
BRANCH  15  18
ATOM     18  N17 ZIN A   1      18.637   0.759  12.249  0.00  0.00    -0.279 NA
ATOM     19  C22 ZIN A   1      18.482   2.202  12.490  0.00  0.00     0.125 C 
ATOM     20  C21 ZIN A   1      18.235   2.443  13.980  0.00  0.00     0.284 C 
ATOM     21  N20 ZIN A   1      19.360   1.901  14.755  0.00  0.00     0.085 N 
ATOM     22  C19 ZIN A   1      19.515   0.459  14.515  0.00  0.00     0.284 C 
ATOM     23  H48 ZIN A   1      19.247   2.093  15.739  0.00  0.00     0.315 HD
ATOM     24  C18 ZIN A   1      19.763   0.218  13.023  0.00  0.00     0.125 C 
ENDBRANCH  15  18
ENDBRANCH  10  12
ENDBRANCH   6  10
BRANCH   9  25
ATOM     25  C28 ZIN A   1      17.576  -5.027   8.836  0.00  0.00     0.092 C 
ATOM     26  C32 ZIN A   1      17.513  -3.641   9.503  0.00  0.00     0.026 C 
ATOM     27  C31 ZIN A   1      18.604  -3.628  10.593  0.00  0.00     0.002 C 
ATOM     28  C30 ZIN A   1      19.619  -4.703  10.129  0.00  0.00     0.002 C 
ATOM     29  C29 ZIN A   1      18.703  -5.807   9.545  0.00  0.00     0.026 C 
ENDBRANCH   9  25
BRANCH   1  30
ATOM     30  C4  ZIN A   1      17.287  -7.249   6.710  0.00  0.00     0.269 C 
ATOM     31  N2  ZIN A   1      15.966  -7.505   6.794  0.00  0.00    -0.355 N 
ATOM     32  C1  ZIN A   1      15.503  -8.843   7.172  0.00  0.00     0.152 C 
ATOM     33  C3  ZIN A   1      14.995  -6.447   6.506  0.00  0.00     0.152 C 
ATOM     34  O5  ZIN A   1      18.091  -8.152   6.843  0.00  0.00    -0.266 OA
ENDBRANCH   1  30
TORSDOF 5
ENDMDL
MODEL 7
REMARK VINA RESULT:      -8.2      2.647      4.135
REMARK  5 active torsions:
REMARK  status: ('A' for Active; 'I' for Inactive)
REMARK       I    between atoms: N2_2  and  C4_4 
REMARK    1  A    between atoms: C4_4  and  C6_6 
REMARK    2  A    between atoms: C11_11  and  N12_12 
REMARK    3  A    between atoms: N12_12  and  C13_13 
REMARK    4  A    between atoms: C16_16  and  N17_17 
REMARK    5  A    between atoms: N27_27  and  C28_28 
ROOT
ATOM      1  C6  ZIN A   1      18.507   3.199  14.473  0.00  0.00     0.106 A 
ATOM      2  C7  ZIN A   1      18.996   3.151  13.204  0.00  0.00     0.052 A 
ATOM      3  C8  ZIN A   1      19.295   1.802  12.913  0.00  0.00     0.031 A 
ATOM      4  C9  ZIN A   1      19.812   1.133  11.797  0.00  0.00     0.151 A 
ATOM      5  N10 ZIN A   1      19.971  -0.177  11.862  0.00  0.00    -0.074 NA
ATOM      6  C11 ZIN A   1      19.650  -0.856  12.957  0.00  0.00     0.729 A 
ATOM      7  N25 ZIN A   1      19.158  -0.268  14.037  0.00  0.00    -0.044 NA
ATOM      8  C26 ZIN A   1      18.965   1.046  14.061  0.00  0.00     0.162 A 
ATOM      9  N27 ZIN A   1      18.493   1.918  15.000  0.00  0.00    -0.321 N 
ENDROOT
BRANCH   6  10
ATOM     10  N12 ZIN A   1      19.836  -2.227  12.971  0.00  0.00    -0.171 N 
ATOM     11  H41 ZIN A   1      20.369  -2.637  13.670  0.00  0.00     0.186 HD
BRANCH  10  12
ATOM     12  C13 ZIN A   1      19.257  -3.018  11.980  0.00  0.00     0.142 A 
ATOM     13  N24 ZIN A   1      17.970  -2.881  11.701  0.00  0.00    -0.241 NA
ATOM     14  C23 ZIN A   1      17.382  -3.604  10.767  0.00  0.00     0.142 A 
ATOM     15  C16 ZIN A   1      18.097  -4.551  10.048  0.00  0.00     0.028 A 
ATOM     16  C15 ZIN A   1      19.453  -4.729  10.319  0.00  0.00     0.029 A 
ATOM     17  C14 ZIN A   1      20.037  -3.947  11.300  0.00  0.00     0.053 A 
BRANCH  15  18
ATOM     18  N17 ZIN A   1      17.465  -5.319   9.063  0.00  0.00    -0.279 NA
ATOM     19  C22 ZIN A   1      17.784  -4.816   7.718  0.00  0.00     0.125 C 
ATOM     20  C21 ZIN A   1      17.141  -5.728   6.671  0.00  0.00     0.284 C 
ATOM     21  N20 ZIN A   1      15.687  -5.766   6.885  0.00  0.00     0.085 N 
ATOM     22  C19 ZIN A   1      15.368  -6.268   8.229  0.00  0.00     0.284 C 
ATOM     23  H48 ZIN A   1      15.232  -6.319   6.175  0.00  0.00     0.315 HD
ATOM     24  C18 ZIN A   1      16.011  -5.356   9.277  0.00  0.00     0.125 C 
ENDBRANCH  15  18
ENDBRANCH  10  12
ENDBRANCH   6  10
BRANCH   9  25
ATOM     25  C28 ZIN A   1      18.041   1.558  16.347  0.00  0.00     0.092 C 
ATOM     26  C32 ZIN A   1      19.252   1.418  17.288  0.00  0.00     0.026 C 
ATOM     27  C31 ZIN A   1      19.245  -0.037  17.799  0.00  0.00     0.002 C 
ATOM     28  C30 ZIN A   1      18.457  -0.817  16.718  0.00  0.00     0.002 C 
ATOM     29  C29 ZIN A   1      17.343   0.182  16.321  0.00  0.00     0.026 C 
ENDBRANCH   9  25
BRANCH   1  30
ATOM     30  C4  ZIN A   1      18.073   4.415  15.173  0.00  0.00     0.269 C 
ATOM     31  N2  ZIN A   1      18.944   5.095  15.945  0.00  0.00    -0.355 N 
ATOM     32  C1  ZIN A   1      18.480   6.233  16.743  0.00  0.00     0.152 C 
ATOM     33  C3  ZIN A   1      20.353   4.697  15.985  0.00  0.00     0.152 C 
ATOM     34  O5  ZIN A   1      16.928   4.808  15.056  0.00  0.00    -0.266 OA
ENDBRANCH   1  30
TORSDOF 5
ENDMDL
MODEL 8
REMARK VINA RESULT:      -8.0      3.264      8.769
REMARK  5 active torsions:
REMARK  status: ('A' for Active; 'I' for Inactive)
REMARK       I    between atoms: N2_2  and  C4_4 
REMARK    1  A    between atoms: C4_4  and  C6_6 
REMARK    2  A    between atoms: C11_11  and  N12_12 
REMARK    3  A    between atoms: N12_12  and  C13_13 
REMARK    4  A    between atoms: C16_16  and  N17_17 
REMARK    5  A    between atoms: N27_27  and  C28_28 
ROOT
ATOM      1  C6  ZIN A   1      19.101  -3.437   7.054  0.00  0.00     0.106 A 
ATOM      2  C7  ZIN A   1      19.353  -4.539   7.810  0.00  0.00     0.052 A 
ATOM      3  C8  ZIN A   1      19.449  -4.120   9.156  0.00  0.00     0.031 A 
ATOM      4  C9  ZIN A   1      19.688  -4.774  10.371  0.00  0.00     0.151 A 
ATOM      5  N10 ZIN A   1      19.712  -4.058  11.480  0.00  0.00    -0.074 NA
ATOM      6  C11 ZIN A   1      19.514  -2.745  11.457  0.00  0.00     0.729 A 
ATOM      7  N25 ZIN A   1      19.285  -2.082  10.335  0.00  0.00    -0.044 NA
ATOM      8  C26 ZIN A   1      19.243  -2.721   9.170  0.00  0.00     0.162 A 
ATOM      9  N27 ZIN A   1      19.038  -2.326   7.879  0.00  0.00    -0.321 N 
ENDROOT
BRANCH   6  10
ATOM     10  N12 ZIN A   1      19.550  -2.044  12.650  0.00  0.00    -0.171 N 
ATOM     11  H41 ZIN A   1      19.778  -2.501  13.475  0.00  0.00     0.186 HD
BRANCH  10  12
ATOM     12  C13 ZIN A   1      19.258  -0.681  12.665  0.00  0.00     0.142 A 
ATOM     13  N24 ZIN A   1      18.014  -0.280  12.869  0.00  0.00    -0.241 NA
ATOM     14  C23 ZIN A   1      17.693   1.000  12.898  0.00  0.00     0.142 A 
ATOM     15  C16 ZIN A   1      18.658   1.977  12.700  0.00  0.00     0.028 A 
ATOM     16  C15 ZIN A   1      19.979   1.592  12.475  0.00  0.00     0.029 A 
ATOM     17  C14 ZIN A   1      20.278   0.241  12.459  0.00  0.00     0.053 A 
BRANCH  15  18
ATOM     18  N17 ZIN A   1      18.309   3.332  12.725  0.00  0.00    -0.279 NA
ATOM     19  C22 ZIN A   1      17.750   3.708  14.032  0.00  0.00     0.125 C 
ATOM     20  C21 ZIN A   1      17.456   5.210  14.044  0.00  0.00     0.284 C 
ATOM     21  N20 ZIN A   1      16.518   5.532  12.961  0.00  0.00     0.085 N 
ATOM     22  C19 ZIN A   1      17.077   5.157  11.654  0.00  0.00     0.284 C 
ATOM     23  H48 ZIN A   1      16.267   6.510  12.979  0.00  0.00     0.315 HD
ATOM     24  C18 ZIN A   1      17.370   3.655  11.641  0.00  0.00     0.125 C 
ENDBRANCH  15  18
ENDBRANCH  10  12
ENDBRANCH   6  10
BRANCH   9  25
ATOM     25  C28 ZIN A   1      18.792  -0.950   7.438  0.00  0.00     0.092 C 
ATOM     26  C32 ZIN A   1      19.663   0.027   8.246  0.00  0.00     0.026 C 
ATOM     27  C31 ZIN A   1      18.694   0.974   8.984  0.00  0.00     0.002 C 
ATOM     28  C30 ZIN A   1      17.373   0.170   9.076  0.00  0.00     0.002 C 
ATOM     29  C29 ZIN A   1      17.324  -0.562   7.713  0.00  0.00     0.026 C 
ENDBRANCH   9  25
BRANCH   1  30
ATOM     30  C4  ZIN A   1      18.930  -3.426   5.595  0.00  0.00     0.269 C 
ATOM     31  N2  ZIN A   1      18.001  -4.216   5.019  0.00  0.00    -0.355 N 
ATOM     32  C1  ZIN A   1      17.916  -4.300   3.559  0.00  0.00     0.152 C 
ATOM     33  C3  ZIN A   1      17.078  -4.988   5.854  0.00  0.00     0.152 C 
ATOM     34  O5  ZIN A   1      19.625  -2.704   4.907  0.00  0.00    -0.266 OA
ENDBRANCH   1  30
TORSDOF 5
ENDMDL
MODEL 9
REMARK VINA RESULT:      -7.8      2.594      3.185
REMARK  5 active torsions:
REMARK  status: ('A' for Active; 'I' for Inactive)
REMARK       I    between atoms: N2_2  and  C4_4 
REMARK    1  A    between atoms: C4_4  and  C6_6 
REMARK    2  A    between atoms: C11_11  and  N12_12 
REMARK    3  A    between atoms: N12_12  and  C13_13 
REMARK    4  A    between atoms: C16_16  and  N17_17 
REMARK    5  A    between atoms: N27_27  and  C28_28 
ROOT
ATOM      1  C6  ZIN A   1      18.251   3.135  14.529  0.00  0.00     0.106 A 
ATOM      2  C7  ZIN A   1      18.089   2.023  15.294  0.00  0.00     0.052 A 
ATOM      3  C8  ZIN A   1      18.629   0.931  14.579  0.00  0.00     0.031 A 
ATOM      4  C9  ZIN A   1      18.757  -0.440  14.836  0.00  0.00     0.151 A 
ATOM      5  N10 ZIN A   1      19.331  -1.203  13.923  0.00  0.00    -0.074 NA
ATOM      6  C11 ZIN A   1      19.782  -0.692  12.783  0.00  0.00     0.729 A 
ATOM      7  N25 ZIN A   1      19.684   0.597  12.495  0.00  0.00    -0.044 NA
ATOM      8  C26 ZIN A   1      19.119   1.439  13.355  0.00  0.00     0.162 A 
ATOM      9  N27 ZIN A   1      18.874   2.782  13.343  0.00  0.00    -0.321 N 
ENDROOT
BRANCH   6  10
ATOM     10  N12 ZIN A   1      20.376  -1.537  11.862  0.00  0.00    -0.171 N 
ATOM     11  H41 ZIN A   1      21.342  -1.560  11.777  0.00  0.00     0.186 HD
BRANCH  10  12
ATOM     12  C13 ZIN A   1      19.585  -2.355  11.055  0.00  0.00     0.142 A 
ATOM     13  N24 ZIN A   1      18.619  -1.818  10.327  0.00  0.00    -0.241 NA
ATOM     14  C23 ZIN A   1      17.850  -2.552   9.545  0.00  0.00     0.142 A 
ATOM     15  C16 ZIN A   1      18.022  -3.927   9.471  0.00  0.00     0.028 A 
ATOM     16  C15 ZIN A   1      19.025  -4.529  10.230  0.00  0.00     0.029 A 
ATOM     17  C14 ZIN A   1      19.815  -3.725  11.032  0.00  0.00     0.053 A 
BRANCH  15  18
ATOM     18  N17 ZIN A   1      17.198  -4.701   8.645  0.00  0.00    -0.279 NA
ATOM     19  C22 ZIN A   1      16.140  -5.359   9.425  0.00  0.00     0.125 C 
ATOM     20  C21 ZIN A   1      15.217  -6.128   8.478  0.00  0.00     0.284 C 
ATOM     21  N20 ZIN A   1      16.003  -7.115   7.726  0.00  0.00     0.085 N 
ATOM     22  C19 ZIN A   1      17.061  -6.458   6.946  0.00  0.00     0.284 C 
ATOM     23  H48 ZIN A   1      15.409  -7.673   7.130  0.00  0.00     0.315 HD
ATOM     24  C18 ZIN A   1      17.985  -5.688   7.893  0.00  0.00     0.125 C 
ENDBRANCH  15  18
ENDBRANCH  10  12
ENDBRANCH   6  10
BRANCH   9  25
ATOM     25  C28 ZIN A   1      19.215   3.702  12.254  0.00  0.00     0.092 C 
ATOM     26  C32 ZIN A   1      17.945   4.405  11.742  0.00  0.00     0.026 C 
ATOM     27  C31 ZIN A   1      17.800   4.020  10.255  0.00  0.00     0.002 C 
ATOM     28  C30 ZIN A   1      18.581   2.689  10.128  0.00  0.00     0.002 C 
ATOM     29  C29 ZIN A   1      19.796   2.915  11.061  0.00  0.00     0.026 C 
ENDBRANCH   9  25
BRANCH   1  30
ATOM     30  C4  ZIN A   1      17.826   4.492  14.898  0.00  0.00     0.269 C 
ATOM     31  N2  ZIN A   1      18.660   5.296  15.586  0.00  0.00    -0.355 N 
ATOM     32  C1  ZIN A   1      18.192   6.600  16.064  0.00  0.00     0.152 C 
ATOM     33  C3  ZIN A   1      20.034   4.866  15.856  0.00  0.00     0.152 C 
ATOM     34  O5  ZIN A   1      16.721   4.891  14.580  0.00  0.00    -0.266 OA
ENDBRANCH   1  30
TORSDOF 5
ENDMDL
