MODEL 1
REMARK VINA RESULT:      -7.5      0.000      0.000
REMARK  9 active torsions:
REMARK  status: ('A' for Active; 'I' for Inactive)
REMARK    1  A    between atoms: C2_2  and  C3_3 
REMARK    2  A    between atoms: C3_3  and  C4_4 
REMARK    3  A    between atoms: C4_4  and  C5_5 
REMARK    4  A    between atoms: C9_9  and  C10_10 
REMARK    5  A    between atoms: C10_10  and  O11_11 
REMARK    6  A    between atoms: N12_12  and  C13_13 
REMARK    7  A    between atoms: C13_13  and  C14_14 
REMARK    8  A    between atoms: C17_17  and  C18_18 
REMARK    9  A    between atoms: C23_23  and  C24_24 
ROOT
ATOM      1  C14 ZIN A   1      19.102   1.339  11.692  0.00  0.00    -0.040 A 
ATOM      2  C15 ZIN A   1      20.022   0.309  11.605  0.00  0.00     0.010 A 
ATOM      3  C16 ZIN A   1      19.604  -0.969  11.291  0.00  0.00     0.013 A 
ATOM      4  C17 ZIN A   1      18.252  -1.220  11.059  0.00  0.00    -0.025 A 
ATOM      5  C29 ZIN A   1      17.331  -0.176  11.143  0.00  0.00     0.013 A 
ATOM      6  C30 ZIN A   1      17.760   1.096  11.464  0.00  0.00     0.010 A 
ENDROOT
BRANCH   1   7
ATOM      7  C13 ZIN A   1      19.566   2.731  12.036  0.00  0.00     0.169 C 
BRANCH   7   8
ATOM      8  N12 ZIN A   1      18.678   3.304  13.050  0.00  0.00    -0.330 N 
ATOM      9  C5  ZIN A   1      18.581   2.920  14.340  0.00  0.00     0.108 A 
ATOM     10  N6  ZIN A   1      17.686   3.663  14.934  0.00  0.00    -0.221 NA
ATOM     11  C7  ZIN A   1      17.179   4.536  14.049  0.00  0.00     0.152 A 
ATOM     12 Cl8  ZIN A   1      15.956   5.724  14.375  0.00  0.00    -0.060 Cl
ATOM     13  C9  ZIN A   1      17.786   4.328  12.864  0.00  0.00     0.077 A 
BRANCH   9  14
ATOM     14  C4  ZIN A   1      19.375   1.816  14.989  0.00  0.00     0.079 C 
BRANCH  14  15
ATOM     15  C3  ZIN A   1      18.439   0.930  15.813  0.00  0.00     0.007 C 
BRANCH  15  16
ATOM     16  C2  ZIN A   1      17.871  -0.177  14.924  0.00  0.00    -0.004 C 
ATOM     17  C1  ZIN A   1      18.874  -1.330  14.841  0.00  0.00     0.005 C 
ENDBRANCH  15  16
ENDBRANCH  14  15
ENDBRANCH   9  14
BRANCH  13  18
ATOM     18  C10 ZIN A   1      17.532   5.077  11.581  0.00  0.00     0.224 C 
BRANCH  18  19
ATOM     19  O11 ZIN A   1      16.561   4.373  10.803  0.00  0.00    -0.395 OA
ATOM     20  H42 ZIN A   1      16.615   3.411  10.884  0.00  0.00     0.209 HD
ENDBRANCH  18  19
ENDBRANCH  13  18
ENDBRANCH   7   8
ENDBRANCH   1   7
BRANCH   4  21
ATOM     21  C18 ZIN A   1      17.796  -2.588  10.720  0.00  0.00    -0.012 A 
ATOM     22  C23 ZIN A   1      17.756  -3.007   9.381  0.00  0.00     0.026 A 
ATOM     23  C22 ZIN A   1      17.320  -4.293   9.075  0.00  0.00     0.016 A 
ATOM     24  C21 ZIN A   1      16.930  -5.148  10.086  0.00  0.00     0.001 A 
ATOM     25  C20 ZIN A   1      16.969  -4.735  11.407  0.00  0.00     0.001 A 
ATOM     26  C19 ZIN A   1      17.400  -3.464  11.727  0.00  0.00     0.013 A 
BRANCH  22  27
ATOM     27  C24 ZIN A   1      18.175  -2.084   8.298  0.00  0.00     0.207 A 
ATOM     28  N28 ZIN A   1      19.333  -2.101   7.645  0.00  0.00    -0.106 NA
ATOM     29  N27 ZIN A   1      19.308  -1.140   6.786  0.00  0.00    -0.021 NA
ATOM     30  N26 ZIN A   1      18.182  -0.524   6.874  0.00  0.00    -0.021 NA
ATOM     31  N25 ZIN A   1      17.465  -1.084   7.789  0.00  0.00    -0.106 NA
ENDBRANCH  22  27
ENDBRANCH   4  21
TORSDOF 9
ENDMDL
MODEL 2
REMARK VINA RESULT:      -7.4      3.300      7.924
REMARK  9 active torsions:
REMARK  status: ('A' for Active; 'I' for Inactive)
REMARK    1  A    between atoms: C2_2  and  C3_3 
REMARK    2  A    between atoms: C3_3  and  C4_4 
REMARK    3  A    between atoms: C4_4  and  C5_5 
REMARK    4  A    between atoms: C9_9  and  C10_10 
REMARK    5  A    between atoms: C10_10  and  O11_11 
REMARK    6  A    between atoms: N12_12  and  C13_13 
REMARK    7  A    between atoms: C13_13  and  C14_14 
REMARK    8  A    between atoms: C17_17  and  C18_18 
REMARK    9  A    between atoms: C23_23  and  C24_24 
ROOT
ATOM      1  C14 ZIN A   1      19.076  -0.985  11.246  0.00  0.00    -0.040 A 
ATOM      2  C15 ZIN A   1      17.722  -0.729  11.363  0.00  0.00     0.010 A 
ATOM      3  C16 ZIN A   1      17.275   0.561  11.564  0.00  0.00     0.013 A 
ATOM      4  C17 ZIN A   1      18.192   1.608  11.648  0.00  0.00    -0.025 A 
ATOM      5  C29 ZIN A   1      19.556   1.344  11.524  0.00  0.00     0.013 A 
ATOM      6  C30 ZIN A   1      19.991   0.049  11.330  0.00  0.00     0.010 A 
ENDROOT
BRANCH   1   7
ATOM      7  C13 ZIN A   1      19.557  -2.397  11.028  0.00  0.00     0.169 C 
BRANCH   7   8
ATOM      8  N12 ZIN A   1      18.771  -3.020   9.960  0.00  0.00    -0.330 N 
ATOM      9  C5  ZIN A   1      18.751  -2.653   8.661  0.00  0.00     0.108 A 
ATOM     10  N6  ZIN A   1      17.936  -3.442   8.014  0.00  0.00    -0.221 NA
ATOM     11  C7  ZIN A   1      17.406  -4.328   8.871  0.00  0.00     0.152 A 
ATOM     12 Cl8  ZIN A   1      16.264  -5.574   8.473  0.00  0.00    -0.060 Cl
ATOM     13  C9  ZIN A   1      17.915  -4.082  10.094  0.00  0.00     0.077 A 
BRANCH   9  14
ATOM     14  C4  ZIN A   1      19.540  -1.521   8.056  0.00  0.00     0.079 C 
BRANCH  14  15
ATOM     15  C3  ZIN A   1      18.625  -0.680   7.165  0.00  0.00     0.007 C 
BRANCH  15  16
ATOM     16  C2  ZIN A   1      18.105   0.522   7.956  0.00  0.00    -0.004 C 
ATOM     17  C1  ZIN A   1      19.161   1.629   7.955  0.00  0.00     0.005 C 
ENDBRANCH  15  16
ENDBRANCH  14  15
ENDBRANCH   9  14
BRANCH  13  18
ATOM     18  C10 ZIN A   1      17.603  -4.828  11.365  0.00  0.00     0.224 C 
BRANCH  18  19
ATOM     19  O11 ZIN A   1      16.238  -4.605  11.726  0.00  0.00    -0.395 OA
ATOM     20  H42 ZIN A   1      16.039  -3.688  11.964  0.00  0.00     0.209 HD
ENDBRANCH  18  19
ENDBRANCH  13  18
ENDBRANCH   7   8
ENDBRANCH   1   7
BRANCH   4  21
ATOM     21  C18 ZIN A   1      17.721   2.996  11.862  0.00  0.00    -0.012 A 
ATOM     22  C23 ZIN A   1      17.709   3.547  13.153  0.00  0.00     0.026 A 
ATOM     23  C22 ZIN A   1      17.258   4.850  13.341  0.00  0.00     0.016 A 
ATOM     24  C21 ZIN A   1      16.824   5.593  12.261  0.00  0.00     0.001 A 
ATOM     25  C20 ZIN A   1      16.835   5.050  10.988  0.00  0.00     0.001 A 
ATOM     26  C19 ZIN A   1      17.280   3.760  10.784  0.00  0.00     0.013 A 
BRANCH  22  27
ATOM     27  C24 ZIN A   1      18.176   2.745  14.310  0.00  0.00     0.207 A 
ATOM     28  N28 ZIN A   1      19.193   3.032  15.116  0.00  0.00    -0.106 NA
ATOM     29  N27 ZIN A   1      19.273   2.089  15.991  0.00  0.00    -0.021 NA
ATOM     30  N26 ZIN A   1      18.346   1.225  15.767  0.00  0.00    -0.021 NA
ATOM     31  N25 ZIN A   1      17.654   1.603  14.746  0.00  0.00    -0.106 NA
ENDBRANCH  22  27
ENDBRANCH   4  21
TORSDOF 9
ENDMDL
MODEL 3
REMARK VINA RESULT:      -7.4      2.919      4.030
REMARK  9 active torsions:
REMARK  status: ('A' for Active; 'I' for Inactive)
REMARK    1  A    between atoms: C2_2  and  C3_3 
REMARK    2  A    between atoms: C3_3  and  C4_4 
REMARK    3  A    between atoms: C4_4  and  C5_5 
REMARK    4  A    between atoms: C9_9  and  C10_10 
REMARK    5  A    between atoms: C10_10  and  O11_11 
REMARK    6  A    between atoms: N12_12  and  C13_13 
REMARK    7  A    between atoms: C13_13  and  C14_14 
REMARK    8  A    between atoms: C17_17  and  C18_18 
REMARK    9  A    between atoms: C23_23  and  C24_24 
ROOT
ATOM      1  C14 ZIN A   1      19.376   4.246  12.221  0.00  0.00    -0.040 A 
ATOM      2  C15 ZIN A   1      18.201   4.407  11.508  0.00  0.00     0.010 A 
ATOM      3  C16 ZIN A   1      17.915   3.573  10.446  0.00  0.00     0.013 A 
ATOM      4  C17 ZIN A   1      18.813   2.567  10.092  0.00  0.00    -0.025 A 
ATOM      5  C29 ZIN A   1      19.994   2.407  10.818  0.00  0.00     0.013 A 
ATOM      6  C30 ZIN A   1      20.270   3.250  11.874  0.00  0.00     0.010 A 
ENDROOT
BRANCH   1   7
ATOM      7  C13 ZIN A   1      19.681   5.160  13.379  0.00  0.00     0.169 C 
BRANCH   7   8
ATOM      8  N12 ZIN A   1      18.627   5.036  14.389  0.00  0.00    -0.330 N 
ATOM      9  C5  ZIN A   1      18.394   3.966  15.178  0.00  0.00     0.108 A 
ATOM     10  N6  ZIN A   1      17.375   4.229  15.951  0.00  0.00    -0.221 NA
ATOM     11  C7  ZIN A   1      16.920   5.462  15.680  0.00  0.00     0.152 A 
ATOM     12 Cl8  ZIN A   1      15.577   6.245  16.452  0.00  0.00    -0.060 Cl
ATOM     13  C9  ZIN A   1      17.690   5.985  14.706  0.00  0.00     0.077 A 
BRANCH   9  14
ATOM     14  C4  ZIN A   1      19.181   2.681  15.170  0.00  0.00     0.079 C 
BRANCH  14  15
ATOM     15  C3  ZIN A   1      18.224   1.498  15.021  0.00  0.00     0.007 C 
BRANCH  15  16
ATOM     16  C2  ZIN A   1      18.861   0.246  15.626  0.00  0.00    -0.004 C 
ATOM     17  C1  ZIN A   1      17.765  -0.690  16.137  0.00  0.00     0.005 C 
ENDBRANCH  15  16
ENDBRANCH  14  15
ENDBRANCH   9  14
BRANCH  13  18
ATOM     18  C10 ZIN A   1      17.547   7.350  14.083  0.00  0.00     0.224 C 
BRANCH  18  19
ATOM     19  O11 ZIN A   1      18.295   8.302  14.844  0.00  0.00    -0.395 OA
ATOM     20  H42 ZIN A   1      17.823   9.130  15.010  0.00  0.00     0.209 HD
ENDBRANCH  18  19
ENDBRANCH  13  18
ENDBRANCH   7   8
ENDBRANCH   1   7
BRANCH   4  21
ATOM     21  C18 ZIN A   1      18.513   1.667   8.954  0.00  0.00    -0.012 A 
ATOM     22  C23 ZIN A   1      17.829   0.460   9.169  0.00  0.00     0.026 A 
ATOM     23  C22 ZIN A   1      17.558  -0.379   8.092  0.00  0.00     0.016 A 
ATOM     24  C21 ZIN A   1      17.963  -0.023   6.821  0.00  0.00     0.001 A 
ATOM     25  C20 ZIN A   1      18.639   1.166   6.608  0.00  0.00     0.001 A 
ATOM     26  C19 ZIN A   1      18.914   2.010   7.665  0.00  0.00     0.013 A 
BRANCH  22  27
ATOM     27  C24 ZIN A   1      17.396   0.082  10.536  0.00  0.00     0.207 A 
ATOM     28  N28 ZIN A   1      18.091  -0.626  11.421  0.00  0.00    -0.106 NA
ATOM     29  N27 ZIN A   1      17.368  -0.737  12.483  0.00  0.00    -0.021 NA
ATOM     30  N26 ZIN A   1      16.250  -0.127  12.298  0.00  0.00    -0.021 NA
ATOM     31  N25 ZIN A   1      16.241   0.389  11.116  0.00  0.00    -0.106 NA
ENDBRANCH  22  27
ENDBRANCH   4  21
TORSDOF 9
ENDMDL
MODEL 4
REMARK VINA RESULT:      -7.4      2.666      3.957
REMARK  9 active torsions:
REMARK  status: ('A' for Active; 'I' for Inactive)
REMARK    1  A    between atoms: C2_2  and  C3_3 
REMARK    2  A    between atoms: C3_3  and  C4_4 
REMARK    3  A    between atoms: C4_4  and  C5_5 
REMARK    4  A    between atoms: C9_9  and  C10_10 
REMARK    5  A    between atoms: C10_10  and  O11_11 
REMARK    6  A    between atoms: N12_12  and  C13_13 
REMARK    7  A    between atoms: C13_13  and  C14_14 
REMARK    8  A    between atoms: C17_17  and  C18_18 
REMARK    9  A    between atoms: C23_23  and  C24_24 
ROOT
ATOM      1  C14 ZIN A   1      19.011  -2.922  11.862  0.00  0.00    -0.040 A 
ATOM      2  C15 ZIN A   1      19.907  -3.820  11.309  0.00  0.00     0.010 A 
ATOM      3  C16 ZIN A   1      19.481  -4.726  10.359  0.00  0.00     0.013 A 
ATOM      4  C17 ZIN A   1      18.146  -4.736   9.957  0.00  0.00    -0.025 A 
ATOM      5  C29 ZIN A   1      17.249  -3.825  10.516  0.00  0.00     0.013 A 
ATOM      6  C30 ZIN A   1      17.685  -2.928  11.468  0.00  0.00     0.010 A 
ENDROOT
BRANCH   1   7
ATOM      7  C13 ZIN A   1      19.482  -1.935  12.898  0.00  0.00     0.169 C 
BRANCH   7   8
ATOM      8  N12 ZIN A   1      19.131  -0.577  12.475  0.00  0.00    -0.330 N 
ATOM      9  C5  ZIN A   1      18.321   0.282  13.129  0.00  0.00     0.108 A 
ATOM     10  N6  ZIN A   1      18.250   1.393  12.447  0.00  0.00    -0.221 NA
ATOM     11  C7  ZIN A   1      18.998   1.281  11.339  0.00  0.00     0.152 A 
ATOM     12 Cl8  ZIN A   1      19.209   2.502  10.123  0.00  0.00    -0.060 Cl
ATOM     13  C9  ZIN A   1      19.559   0.056  11.337  0.00  0.00     0.077 A 
BRANCH   9  14
ATOM     14  C4  ZIN A   1      17.617   0.006  14.432  0.00  0.00     0.079 C 
BRANCH  14  15
ATOM     15  C3  ZIN A   1      18.587   0.230  15.593  0.00  0.00     0.007 C 
BRANCH  15  16
ATOM     16  C2  ZIN A   1      18.528  -0.964  16.547  0.00  0.00    -0.004 C 
ATOM     17  C1  ZIN A   1      17.071  -1.254  16.913  0.00  0.00     0.005 C 
ENDBRANCH  15  16
ENDBRANCH  14  15
ENDBRANCH   9  14
BRANCH  13  18
ATOM     18  C10 ZIN A   1      20.478  -0.510  10.286  0.00  0.00     0.224 C 
BRANCH  18  19
ATOM     19  O11 ZIN A   1      21.797  -0.637  10.823  0.00  0.00    -0.395 OA
ATOM     20  H42 ZIN A   1      22.500  -0.535  10.167  0.00  0.00     0.209 HD
ENDBRANCH  18  19
ENDBRANCH  13  18
ENDBRANCH   7   8
ENDBRANCH   1   7
BRANCH   4  21
ATOM     21  C18 ZIN A   1      17.682  -5.706   8.937  0.00  0.00    -0.012 A 
ATOM     22  C23 ZIN A   1      17.942  -5.478   7.577  0.00  0.00     0.026 A 
ATOM     23  C22 ZIN A   1      17.496  -6.394   6.628  0.00  0.00     0.016 A 
ATOM     24  C21 ZIN A   1      16.801  -7.518   7.027  0.00  0.00     0.001 A 
ATOM     25  C20 ZIN A   1      16.544  -7.743   8.369  0.00  0.00     0.001 A 
ATOM     26  C19 ZIN A   1      16.980  -6.845   9.323  0.00  0.00     0.013 A 
BRANCH  22  27
ATOM     27  C24 ZIN A   1      18.689  -4.268   7.152  0.00  0.00     0.207 A 
ATOM     28  N28 ZIN A   1      18.257  -3.012   7.200  0.00  0.00    -0.106 NA
ATOM     29  N27 ZIN A   1      19.198  -2.261   6.742  0.00  0.00    -0.021 NA
ATOM     30  N26 ZIN A   1      20.202  -2.995   6.411  0.00  0.00    -0.021 NA
ATOM     31  N25 ZIN A   1      19.920  -4.230   6.656  0.00  0.00    -0.106 NA
ENDBRANCH  22  27
ENDBRANCH   4  21
TORSDOF 9
ENDMDL
MODEL 5
REMARK VINA RESULT:      -7.1      2.892      7.817
REMARK  9 active torsions:
REMARK  status: ('A' for Active; 'I' for Inactive)
REMARK    1  A    between atoms: C2_2  and  C3_3 
REMARK    2  A    between atoms: C3_3  and  C4_4 
REMARK    3  A    between atoms: C4_4  and  C5_5 
REMARK    4  A    between atoms: C9_9  and  C10_10 
REMARK    5  A    between atoms: C10_10  and  O11_11 
REMARK    6  A    between atoms: N12_12  and  C13_13 
REMARK    7  A    between atoms: C13_13  and  C14_14 
REMARK    8  A    between atoms: C17_17  and  C18_18 
REMARK    9  A    between atoms: C23_23  and  C24_24 
ROOT
ATOM      1  C14 ZIN A   1      19.409   0.632  10.285  0.00  0.00    -0.040 A 
ATOM      2  C15 ZIN A   1      18.086   0.993  10.103  0.00  0.00     0.010 A 
ATOM      3  C16 ZIN A   1      17.547   2.038  10.827  0.00  0.00     0.013 A 
ATOM      4  C17 ZIN A   1      18.340   2.729  11.742  0.00  0.00    -0.025 A 
ATOM      5  C29 ZIN A   1      19.674   2.363  11.916  0.00  0.00     0.013 A 
ATOM      6  C30 ZIN A   1      20.200   1.314  11.191  0.00  0.00     0.010 A 
ENDROOT
BRANCH   1   7
ATOM      7  C13 ZIN A   1      19.991  -0.510   9.491  0.00  0.00     0.169 C 
BRANCH   7   8
ATOM      8  N12 ZIN A   1      19.065  -1.645   9.519  0.00  0.00    -0.330 N 
ATOM      9  C5  ZIN A   1      18.424  -2.183   8.460  0.00  0.00     0.108 A 
ATOM     10  N6  ZIN A   1      17.689  -3.179   8.876  0.00  0.00    -0.221 NA
ATOM     11  C7  ZIN A   1      17.828  -3.306  10.204  0.00  0.00     0.152 A 
ATOM     12 Cl8  ZIN A   1      17.041  -4.489  11.203  0.00  0.00    -0.060 Cl
ATOM     13  C9  ZIN A   1      18.685  -2.356  10.627  0.00  0.00     0.077 A 
BRANCH   9  14
ATOM     14  C4  ZIN A   1      18.539  -1.713   7.033  0.00  0.00     0.079 C 
BRANCH  14  15
ATOM     15  C3  ZIN A   1      17.602  -0.525   6.810  0.00  0.00     0.007 C 
BRANCH  15  16
ATOM     16  C2  ZIN A   1      18.406   0.669   6.293  0.00  0.00    -0.004 C 
ATOM     17  C1  ZIN A   1      19.234   0.241   5.080  0.00  0.00     0.005 C 
ENDBRANCH  15  16
ENDBRANCH  14  15
ENDBRANCH   9  14
BRANCH  13  18
ATOM     18  C10 ZIN A   1      19.137  -2.120  12.045  0.00  0.00     0.224 C 
BRANCH  18  19
ATOM     19  O11 ZIN A   1      18.150  -1.352  12.738  0.00  0.00    -0.395 OA
ATOM     20  H42 ZIN A   1      17.307  -1.811  12.859  0.00  0.00     0.209 HD
ENDBRANCH  18  19
ENDBRANCH  13  18
ENDBRANCH   7   8
ENDBRANCH   1   7
BRANCH   4  21
ATOM     21  C18 ZIN A   1      17.769   3.853  12.522  0.00  0.00    -0.012 A 
ATOM     22  C23 ZIN A   1      17.652   3.757  13.917  0.00  0.00     0.026 A 
ATOM     23  C22 ZIN A   1      17.109   4.816  14.637  0.00  0.00     0.016 A 
ATOM     24  C21 ZIN A   1      16.687   5.954  13.979  0.00  0.00     0.001 A 
ATOM     25  C20 ZIN A   1      16.801   6.049  12.602  0.00  0.00     0.001 A 
ATOM     26  C19 ZIN A   1      17.339   5.008  11.873  0.00  0.00     0.013 A 
BRANCH  22  27
ATOM     27  C24 ZIN A   1      18.106   2.532  14.621  0.00  0.00     0.207 A 
ATOM     28  N28 ZIN A   1      19.115   2.439  15.481  0.00  0.00    -0.106 NA
ATOM     29  N27 ZIN A   1      19.185   1.210  15.866  0.00  0.00    -0.021 NA
ATOM     30  N26 ZIN A   1      18.260   0.532  15.282  0.00  0.00    -0.021 NA
ATOM     31  N25 ZIN A   1      17.580   1.316  14.516  0.00  0.00    -0.106 NA
ENDBRANCH  22  27
ENDBRANCH   4  21
TORSDOF 9
ENDMDL
MODEL 6
REMARK VINA RESULT:      -7.1      1.467      1.791
REMARK  9 active torsions:
REMARK  status: ('A' for Active; 'I' for Inactive)
REMARK    1  A    between atoms: C2_2  and  C3_3 
REMARK    2  A    between atoms: C3_3  and  C4_4 
REMARK    3  A    between atoms: C4_4  and  C5_5 
REMARK    4  A    between atoms: C9_9  and  C10_10 
REMARK    5  A    between atoms: C10_10  and  O11_11 
REMARK    6  A    between atoms: N12_12  and  C13_13 
REMARK    7  A    between atoms: C13_13  and  C14_14 
REMARK    8  A    between atoms: C17_17  and  C18_18 
REMARK    9  A    between atoms: C23_23  and  C24_24 
ROOT
ATOM      1  C14 ZIN A   1      19.573  -0.422  12.421  0.00  0.00    -0.040 A 
ATOM      2  C15 ZIN A   1      20.380  -1.149  11.565  0.00  0.00     0.010 A 
ATOM      3  C16 ZIN A   1      19.884  -2.271  10.932  0.00  0.00     0.013 A 
ATOM      4  C17 ZIN A   1      18.567  -2.670  11.156  0.00  0.00    -0.025 A 
ATOM      5  C29 ZIN A   1      17.757  -1.929  12.017  0.00  0.00     0.013 A 
ATOM      6  C30 ZIN A   1      18.266  -0.813  12.648  0.00  0.00     0.010 A 
ENDROOT
BRANCH   1   7
ATOM      7  C13 ZIN A   1      20.120   0.802  13.109  0.00  0.00     0.169 C 
BRANCH   7   8
ATOM      8  N12 ZIN A   1      19.144   1.891  13.017  0.00  0.00    -0.330 N 
ATOM      9  C5  ZIN A   1      18.503   2.482  14.048  0.00  0.00     0.108 A 
ATOM     10  N6  ZIN A   1      17.715   3.410  13.575  0.00  0.00    -0.221 NA
ATOM     11  C7  ZIN A   1      17.819   3.440  12.238  0.00  0.00     0.152 A 
ATOM     12 Cl8  ZIN A   1      16.959   4.507  11.172  0.00  0.00    -0.060 Cl
ATOM     13  C9  ZIN A   1      18.709   2.498  11.868  0.00  0.00     0.077 A 
BRANCH   9  14
ATOM     14  C4  ZIN A   1      18.669   2.129  15.503  0.00  0.00     0.079 C 
BRANCH  14  15
ATOM     15  C3  ZIN A   1      17.849   0.878  15.822  0.00  0.00     0.007 C 
BRANCH  15  16
ATOM     16  C2  ZIN A   1      18.764  -0.195  16.416  0.00  0.00    -0.004 C 
ATOM     17  C1  ZIN A   1      18.104  -1.567  16.270  0.00  0.00     0.005 C 
ENDBRANCH  15  16
ENDBRANCH  14  15
ENDBRANCH   9  14
BRANCH  13  18
ATOM     18  C10 ZIN A   1      19.140   2.172  10.461  0.00  0.00     0.224 C 
BRANCH  18  19
ATOM     19  O11 ZIN A   1      18.168   1.322   9.849  0.00  0.00    -0.395 OA
ATOM     20  H42 ZIN A   1      17.528   0.946  10.469  0.00  0.00     0.209 HD
ENDBRANCH  18  19
ENDBRANCH  13  18
ENDBRANCH   7   8
ENDBRANCH   1   7
BRANCH   4  21
ATOM     21  C18 ZIN A   1      18.028  -3.873  10.479  0.00  0.00    -0.012 A 
ATOM     22  C23 ZIN A   1      17.848  -3.879   9.087  0.00  0.00     0.026 A 
ATOM     23  C22 ZIN A   1      17.335  -5.013   8.464  0.00  0.00     0.016 A 
ATOM     24  C21 ZIN A   1      17.005  -6.124   9.215  0.00  0.00     0.001 A 
ATOM     25  C20 ZIN A   1      17.182  -6.118  10.588  0.00  0.00     0.001 A 
ATOM     26  C19 ZIN A   1      17.690  -5.002  11.222  0.00  0.00     0.013 A 
BRANCH  22  27
ATOM     27  C24 ZIN A   1      18.204  -2.683   8.284  0.00  0.00     0.207 A 
ATOM     28  N28 ZIN A   1      19.169  -2.597   7.374  0.00  0.00    -0.106 NA
ATOM     29  N27 ZIN A   1      19.154  -1.396   6.906  0.00  0.00    -0.021 NA
ATOM     30  N26 ZIN A   1      18.219  -0.728   7.486  0.00  0.00    -0.021 NA
ATOM     31  N25 ZIN A   1      17.617  -1.493   8.332  0.00  0.00    -0.106 NA
ENDBRANCH  22  27
ENDBRANCH   4  21
TORSDOF 9
ENDMDL
MODEL 7
REMARK VINA RESULT:      -7.1      1.660      2.311
REMARK  9 active torsions:
REMARK  status: ('A' for Active; 'I' for Inactive)
REMARK    1  A    between atoms: C2_2  and  C3_3 
REMARK    2  A    between atoms: C3_3  and  C4_4 
REMARK    3  A    between atoms: C4_4  and  C5_5 
REMARK    4  A    between atoms: C9_9  and  C10_10 
REMARK    5  A    between atoms: C10_10  and  O11_11 
REMARK    6  A    between atoms: N12_12  and  C13_13 
REMARK    7  A    between atoms: C13_13  and  C14_14 
REMARK    8  A    between atoms: C17_17  and  C18_18 
REMARK    9  A    between atoms: C23_23  and  C24_24 
ROOT
ATOM      1  C14 ZIN A   1      19.072   1.094   9.650  0.00  0.00    -0.040 A 
ATOM      2  C15 ZIN A   1      17.745   0.723   9.530  0.00  0.00     0.010 A 
ATOM      3  C16 ZIN A   1      17.418  -0.558   9.132  0.00  0.00     0.013 A 
ATOM      4  C17 ZIN A   1      18.427  -1.477   8.851  0.00  0.00    -0.025 A 
ATOM      5  C29 ZIN A   1      19.763  -1.097   8.979  0.00  0.00     0.013 A 
ATOM      6  C30 ZIN A   1      20.078   0.187   9.372  0.00  0.00     0.010 A 
ENDROOT
BRANCH   1   7
ATOM      7  C13 ZIN A   1      19.423   2.494  10.085  0.00  0.00     0.169 C 
BRANCH   7   8
ATOM      8  N12 ZIN A   1      18.951   2.712  11.455  0.00  0.00    -0.330 N 
ATOM      9  C5  ZIN A   1      19.212   1.933  12.526  0.00  0.00     0.108 A 
ATOM     10  N6  ZIN A   1      18.624   2.447  13.572  0.00  0.00    -0.221 NA
ATOM     11  C7  ZIN A   1      17.966   3.558  13.208  0.00  0.00     0.152 A 
ATOM     12 Cl8  ZIN A   1      17.032   4.580  14.256  0.00  0.00    -0.060 Cl
ATOM     13  C9  ZIN A   1      18.158   3.742  11.887  0.00  0.00     0.077 A 
BRANCH   9  14
ATOM     14  C4  ZIN A   1      20.046   0.678  12.516  0.00  0.00     0.079 C 
BRANCH  14  15
ATOM     15  C3  ZIN A   1      19.784  -0.119  13.796  0.00  0.00     0.007 C 
BRANCH  15  16
ATOM     16  C2  ZIN A   1      19.381  -1.549  13.433  0.00  0.00    -0.004 C 
ATOM     17  C1  ZIN A   1      18.096  -1.522  12.603  0.00  0.00     0.005 C 
ENDBRANCH  15  16
ENDBRANCH  14  15
ENDBRANCH   9  14
BRANCH  13  18
ATOM     18  C10 ZIN A   1      17.605   4.864  11.046  0.00  0.00     0.224 C 
BRANCH  18  19
ATOM     19  O11 ZIN A   1      16.193   4.698  10.898  0.00  0.00    -0.395 OA
ATOM     20  H42 ZIN A   1      15.863   3.843  11.206  0.00  0.00     0.209 HD
ENDBRANCH  18  19
ENDBRANCH  13  18
ENDBRANCH   7   8
ENDBRANCH   1   7
BRANCH   4  21
ATOM     21  C18 ZIN A   1      18.083  -2.854   8.424  0.00  0.00    -0.012 A 
ATOM     22  C23 ZIN A   1      18.156  -3.212   7.068  0.00  0.00     0.026 A 
ATOM     23  C22 ZIN A   1      17.824  -4.506   6.679  0.00  0.00     0.016 A 
ATOM     24  C21 ZIN A   1      17.426  -5.430   7.625  0.00  0.00     0.001 A 
ATOM     25  C20 ZIN A   1      17.354  -5.077   8.962  0.00  0.00     0.001 A 
ATOM     26  C19 ZIN A   1      17.680  -3.798   9.364  0.00  0.00     0.013 A 
BRANCH  22  27
ATOM     27  C24 ZIN A   1      18.584  -2.215   6.056  0.00  0.00     0.207 A 
ATOM     28  N28 ZIN A   1      19.775  -2.140   5.470  0.00  0.00    -0.106 NA
ATOM     29  N27 ZIN A   1      19.745  -1.141   4.658  0.00  0.00    -0.021 NA
ATOM     30  N26 ZIN A   1      18.585  -0.588   4.710  0.00  0.00    -0.021 NA
ATOM     31  N25 ZIN A   1      17.850  -1.228   5.555  0.00  0.00    -0.106 NA
ENDBRANCH  22  27
ENDBRANCH   4  21
TORSDOF 9
ENDMDL
MODEL 8
REMARK VINA RESULT:      -6.9      2.723      4.149
REMARK  9 active torsions:
REMARK  status: ('A' for Active; 'I' for Inactive)
REMARK    1  A    between atoms: C2_2  and  C3_3 
REMARK    2  A    between atoms: C3_3  and  C4_4 
REMARK    3  A    between atoms: C4_4  and  C5_5 
REMARK    4  A    between atoms: C9_9  and  C10_10 
REMARK    5  A    between atoms: C10_10  and  O11_11 
REMARK    6  A    between atoms: N12_12  and  C13_13 
REMARK    7  A    between atoms: C13_13  and  C14_14 
REMARK    8  A    between atoms: C17_17  and  C18_18 
REMARK    9  A    between atoms: C23_23  and  C24_24 
ROOT
ATOM      1  C14 ZIN A   1      17.699   0.342  12.280  0.00  0.00    -0.040 A 
ATOM      2  C15 ZIN A   1      18.999  -0.116  12.159  0.00  0.00     0.010 A 
ATOM      3  C16 ZIN A   1      19.363  -0.886  11.073  0.00  0.00     0.013 A 
ATOM      4  C17 ZIN A   1      18.419  -1.201  10.097  0.00  0.00    -0.025 A 
ATOM      5  C29 ZIN A   1      17.111  -0.732  10.223  0.00  0.00     0.013 A 
ATOM      6  C30 ZIN A   1      16.757   0.031  11.315  0.00  0.00     0.010 A 
ENDROOT
BRANCH   1   7
ATOM      7  C13 ZIN A   1      17.307   1.182  13.468  0.00  0.00     0.169 C 
BRANCH   7   8
ATOM      8  N12 ZIN A   1      18.012   2.465  13.412  0.00  0.00    -0.330 N 
ATOM      9  C5  ZIN A   1      18.030   3.325  12.372  0.00  0.00     0.108 A 
ATOM     10  N6  ZIN A   1      18.761   4.358  12.694  0.00  0.00    -0.221 NA
ATOM     11  C7  ZIN A   1      19.237   4.193  13.937  0.00  0.00     0.152 A 
ATOM     12 Cl8  ZIN A   1      20.261   5.303  14.793  0.00  0.00    -0.060 Cl
ATOM     13  C9  ZIN A   1      18.780   3.015  14.405  0.00  0.00     0.077 A 
BRANCH   9  14
ATOM     14  C4  ZIN A   1      17.323   3.126  11.056  0.00  0.00     0.079 C 
BRANCH  14  15
ATOM     15  C3  ZIN A   1      18.236   3.572   9.913  0.00  0.00     0.007 C 
BRANCH  15  16
ATOM     16  C2  ZIN A   1      19.195   2.436   9.553  0.00  0.00    -0.004 C 
ATOM     17  C1  ZIN A   1      18.978   2.027   8.096  0.00  0.00     0.005 C 
ENDBRANCH  15  16
ENDBRANCH  14  15
ENDBRANCH   9  14
BRANCH  13  18
ATOM     18  C10 ZIN A   1      19.061   2.416  15.759  0.00  0.00     0.224 C 
BRANCH  18  19
ATOM     19  O11 ZIN A   1      17.975   2.706  16.643  0.00  0.00    -0.395 OA
ATOM     20  H42 ZIN A   1      17.112   2.738  16.209  0.00  0.00     0.209 HD
ENDBRANCH  18  19
ENDBRANCH  13  18
ENDBRANCH   7   8
ENDBRANCH   1   7
BRANCH   4  21
ATOM     21  C18 ZIN A   1      18.804  -2.027   8.928  0.00  0.00    -0.012 A 
ATOM     22  C23 ZIN A   1      18.686  -3.424   8.980  0.00  0.00     0.026 A 
ATOM     23  C22 ZIN A   1      19.056  -4.188   7.878  0.00  0.00     0.016 A 
ATOM     24  C21 ZIN A   1      19.537  -3.571   6.740  0.00  0.00     0.001 A 
ATOM     25  C20 ZIN A   1      19.653  -2.192   6.688  0.00  0.00     0.001 A 
ATOM     26  C19 ZIN A   1      19.290  -1.420   7.772  0.00  0.00     0.013 A 
BRANCH  22  27
ATOM     27  C24 ZIN A   1      18.170  -4.084  10.205  0.00  0.00     0.207 A 
ATOM     28  N28 ZIN A   1      16.902  -4.377  10.474  0.00  0.00    -0.106 NA
ATOM     29  N27 ZIN A   1      16.871  -4.940  11.633  0.00  0.00    -0.021 NA
ATOM     30  N26 ZIN A   1      18.068  -5.013  12.099  0.00  0.00    -0.021 NA
ATOM     31  N25 ZIN A   1      18.886  -4.500  11.243  0.00  0.00    -0.106 NA
ENDBRANCH  22  27
ENDBRANCH   4  21
TORSDOF 9
ENDMDL
MODEL 9
REMARK VINA RESULT:      -6.7      3.581      7.321
REMARK  9 active torsions:
REMARK  status: ('A' for Active; 'I' for Inactive)
REMARK    1  A    between atoms: C2_2  and  C3_3 
REMARK    2  A    between atoms: C3_3  and  C4_4 
REMARK    3  A    between atoms: C4_4  and  C5_5 
REMARK    4  A    between atoms: C9_9  and  C10_10 
REMARK    5  A    between atoms: C10_10  and  O11_11 
REMARK    6  A    between atoms: N12_12  and  C13_13 
REMARK    7  A    between atoms: C13_13  and  C14_14 
REMARK    8  A    between atoms: C17_17  and  C18_18 
REMARK    9  A    between atoms: C23_23  and  C24_24 
ROOT
ATOM      1  C14 ZIN A   1      19.274  -1.259   8.578  0.00  0.00    -0.040 A 
ATOM      2  C15 ZIN A   1      17.973  -1.407   9.023  0.00  0.00     0.010 A 
ATOM      3  C16 ZIN A   1      17.661  -1.162  10.345  0.00  0.00     0.013 A 
ATOM      4  C17 ZIN A   1      18.660  -0.764  11.232  0.00  0.00    -0.025 A 
ATOM      5  C29 ZIN A   1      19.969  -0.612  10.775  0.00  0.00     0.013 A 
ATOM      6  C30 ZIN A   1      20.270  -0.865   9.453  0.00  0.00     0.010 A 
ENDROOT
BRANCH   1   7
ATOM      7  C13 ZIN A   1      19.608  -1.529   7.133  0.00  0.00     0.169 C 
BRANCH   7   8
ATOM      8  N12 ZIN A   1      18.954  -2.767   6.704  0.00  0.00    -0.330 N 
ATOM      9  C5  ZIN A   1      19.120  -3.992   7.247  0.00  0.00     0.108 A 
ATOM     10  N6  ZIN A   1      18.371  -4.843   6.600  0.00  0.00    -0.221 NA
ATOM     11  C7  ZIN A   1      17.712  -4.200   5.625  0.00  0.00     0.152 A 
ATOM     12 Cl8  ZIN A   1      16.602  -4.918   4.499  0.00  0.00    -0.060 Cl
ATOM     13  C9  ZIN A   1      18.062  -2.900   5.672  0.00  0.00     0.077 A 
BRANCH   9  14
ATOM     14  C4  ZIN A   1      20.020  -4.321   8.410  0.00  0.00     0.079 C 
BRANCH  14  15
ATOM     15  C3  ZIN A   1      19.394  -5.446   9.236  0.00  0.00     0.007 C 
BRANCH  15  16
ATOM     16  C2  ZIN A   1      18.630  -4.848  10.418  0.00  0.00    -0.004 C 
ATOM     17  C1  ZIN A   1      19.623  -4.326  11.458  0.00  0.00     0.005 C 
ENDBRANCH  15  16
ENDBRANCH  14  15
ENDBRANCH   9  14
BRANCH  13  18
ATOM     18  C10 ZIN A   1      17.569  -1.803   4.764  0.00  0.00     0.224 C 
BRANCH  18  19
ATOM     19  O11 ZIN A   1      16.592  -1.018   5.452  0.00  0.00    -0.395 OA
ATOM     20  H42 ZIN A   1      16.008  -0.515   4.866  0.00  0.00     0.209 HD
ENDBRANCH  18  19
ENDBRANCH  13  18
ENDBRANCH   7   8
ENDBRANCH   1   7
BRANCH   4  21
ATOM     21  C18 ZIN A   1      18.332  -0.498  12.652  0.00  0.00    -0.012 A 
ATOM     22  C23 ZIN A   1      18.034   0.807  13.076  0.00  0.00     0.026 A 
ATOM     23  C22 ZIN A   1      17.734   1.045  14.414  0.00  0.00     0.016 A 
ATOM     24  C21 ZIN A   1      17.731   0.000  15.317  0.00  0.00     0.001 A 
ATOM     25  C20 ZIN A   1      18.026  -1.286  14.900  0.00  0.00     0.001 A 
ATOM     26  C19 ZIN A   1      18.326  -1.540  13.576  0.00  0.00     0.013 A 
BRANCH  22  27
ATOM     27  C24 ZIN A   1      18.038   1.926  12.102  0.00  0.00     0.207 A 
ATOM     28  N28 ZIN A   1      19.028   2.787  11.887  0.00  0.00    -0.106 NA
ATOM     29  N27 ZIN A   1      18.640   3.602  10.967  0.00  0.00    -0.021 NA
ATOM     30  N26 ZIN A   1      17.448   3.286  10.597  0.00  0.00    -0.021 NA
ATOM     31  N25 ZIN A   1      17.056   2.259  11.272  0.00  0.00    -0.106 NA
ENDBRANCH  22  27
ENDBRANCH   4  21
TORSDOF 9
ENDMDL
