MODEL 1
REMARK VINA RESULT:      -6.5      0.000      0.000
REMARK  9 active torsions:
REMARK  status: ('A' for Active; 'I' for Inactive)
REMARK    1  A    between atoms: C2_2  and  C3_3 
REMARK    2  A    between atoms: C3_3  and  C4_4 
REMARK    3  A    between atoms: C4_4  and  O5_5 
REMARK    4  A    between atoms: O5_5  and  C6_6 
REMARK    5  A    between atoms: C9_9  and  O10_10 
REMARK    6  A    between atoms: O10_10  and  C11_11 
REMARK    7  A    between atoms: C11_11  and  C12_12 
REMARK    8  A    between atoms: C12_12  and  C13_13 
REMARK    9  A    between atoms: C13_13  and  N14_14 
ROOT
ATOM      1  C6  ZIN A   1      18.621   1.169   7.941  0.00  0.00     0.068 A 
ATOM      2  C7  ZIN A   1      17.744   0.237   8.476  0.00  0.00     0.039 A 
ATOM      3  C8  ZIN A   1      17.419   0.287   9.819  0.00  0.00     0.039 A 
ATOM      4  C9  ZIN A   1      17.972   1.267  10.630  0.00  0.00     0.068 A 
ATOM      5  C20 ZIN A   1      18.849   2.197  10.094  0.00  0.00     0.039 A 
ATOM      6  C21 ZIN A   1      19.177   2.146   8.753  0.00  0.00     0.039 A 
ENDROOT
BRANCH   4   7
ATOM      7  O10 ZIN A   1      17.652   1.316  11.951  0.00  0.00    -0.351 OA
BRANCH   7   8
ATOM      8  C11 ZIN A   1      17.289   0.083  12.576  0.00  0.00     0.177 C 
BRANCH   8   9
ATOM      9  C12 ZIN A   1      17.947  -0.002  13.955  0.00  0.00     0.057 C 
BRANCH   9  10
ATOM     10  C13 ZIN A   1      17.974   1.389  14.593  0.00  0.00     0.274 C 
BRANCH  10  11
ATOM     11  N14 ZIN A   1      18.219   1.262  16.036  0.00  0.00     0.092 N 
ATOM     12  C19 ZIN A   1      18.959   0.028  16.338  0.00  0.00     0.298 C 
ATOM     13  C18 ZIN A   1      19.139  -0.094  17.853  0.00  0.00     0.198 C 
ATOM     14  O17 ZIN A   1      19.808   1.072  18.343  0.00  0.00    -0.388 OA
ATOM     15  C16 ZIN A   1      19.114   2.292  18.066  0.00  0.00     0.198 C 
ATOM     16  C15 ZIN A   1      18.933   2.437  16.554  0.00  0.00     0.298 C 
ENDBRANCH  10  11
ENDBRANCH   9  10
ENDBRANCH   8   9
ENDBRANCH   7   8
ENDBRANCH   4   7
BRANCH   1  17
ATOM     17  O5  ZIN A   1      18.941   1.120   6.620  0.00  0.00    -0.351 OA
BRANCH  17  18
ATOM     18  C4  ZIN A   1      18.209   0.198   5.809  0.00  0.00     0.175 C 
BRANCH  18  19
ATOM     19  C3  ZIN A   1      19.094  -0.281   4.656  0.00  0.00     0.026 C 
BRANCH  19  20
ATOM     20  C2  ZIN A   1      19.121  -1.811   4.638  0.00  0.00    -0.002 C 
ATOM     21  C1  ZIN A   1      19.259  -2.336   6.068  0.00  0.00     0.005 C 
ENDBRANCH  19  20
ENDBRANCH  18  19
ENDBRANCH  17  18
ENDBRANCH   1  17
TORSDOF 9
ENDMDL
MODEL 2
REMARK VINA RESULT:      -6.4      2.910      4.557
REMARK  9 active torsions:
REMARK  status: ('A' for Active; 'I' for Inactive)
REMARK    1  A    between atoms: C2_2  and  C3_3 
REMARK    2  A    between atoms: C3_3  and  C4_4 
REMARK    3  A    between atoms: C4_4  and  O5_5 
REMARK    4  A    between atoms: O5_5  and  C6_6 
REMARK    5  A    between atoms: C9_9  and  O10_10 
REMARK    6  A    between atoms: O10_10  and  C11_11 
REMARK    7  A    between atoms: C11_11  and  C12_12 
REMARK    8  A    between atoms: C12_12  and  C13_13 
REMARK    9  A    between atoms: C13_13  and  N14_14 
ROOT
ATOM      1  C6  ZIN A   1      18.695   1.096   8.028  0.00  0.00     0.068 A 
ATOM      2  C7  ZIN A   1      19.096   2.069   8.931  0.00  0.00     0.039 A 
ATOM      3  C8  ZIN A   1      18.555   2.096  10.203  0.00  0.00     0.039 A 
ATOM      4  C9  ZIN A   1      17.609   1.150  10.574  0.00  0.00     0.068 A 
ATOM      5  C20 ZIN A   1      17.208   0.179   9.671  0.00  0.00     0.039 A 
ATOM      6  C21 ZIN A   1      17.746   0.154   8.398  0.00  0.00     0.039 A 
ENDROOT
BRANCH   4   7
ATOM      7  O10 ZIN A   1      17.077   1.177  11.825  0.00  0.00    -0.351 OA
BRANCH   7   8
ATOM      8  C11 ZIN A   1      17.923   0.758  12.899  0.00  0.00     0.177 C 
BRANCH   8   9
ATOM      9  C12 ZIN A   1      17.812  -0.758  13.072  0.00  0.00     0.057 C 
BRANCH   9  10
ATOM     10  C13 ZIN A   1      19.159  -1.407  12.745  0.00  0.00     0.274 C 
BRANCH  10  11
ATOM     11  N14 ZIN A   1      18.983  -2.378  11.656  0.00  0.00     0.092 N 
ATOM     12  C19 ZIN A   1      19.942  -3.484  11.776  0.00  0.00     0.298 C 
ATOM     13  C18 ZIN A   1      19.764  -4.438  10.592  0.00  0.00     0.198 C 
ATOM     14  O17 ZIN A   1      18.410  -4.899  10.557  0.00  0.00    -0.388 OA
ATOM     15  C16 ZIN A   1      17.448  -3.846  10.441  0.00  0.00     0.198 C 
ATOM     16  C15 ZIN A   1      17.603  -2.887  11.622  0.00  0.00     0.298 C 
ENDBRANCH  10  11
ENDBRANCH   9  10
ENDBRANCH   8   9
ENDBRANCH   7   8
ENDBRANCH   4   7
BRANCH   1  17
ATOM     17  O5  ZIN A   1      19.227   1.069   6.777  0.00  0.00    -0.351 OA
BRANCH  17  18
ATOM     18  C4  ZIN A   1      18.366   0.653   5.715  0.00  0.00     0.175 C 
BRANCH  18  19
ATOM     19  C3  ZIN A   1      19.193  -0.032   4.626  0.00  0.00     0.026 C 
BRANCH  19  20
ATOM     20  C2  ZIN A   1      18.958  -1.543   4.682  0.00  0.00    -0.002 C 
ATOM     21  C1  ZIN A   1      17.513  -1.849   4.283  0.00  0.00     0.005 C 
ENDBRANCH  19  20
ENDBRANCH  18  19
ENDBRANCH  17  18
ENDBRANCH   1  17
TORSDOF 9
ENDMDL
MODEL 3
REMARK VINA RESULT:      -6.1      2.698      9.081
REMARK  9 active torsions:
REMARK  status: ('A' for Active; 'I' for Inactive)
REMARK    1  A    between atoms: C2_2  and  C3_3 
REMARK    2  A    between atoms: C3_3  and  C4_4 
REMARK    3  A    between atoms: C4_4  and  O5_5 
REMARK    4  A    between atoms: O5_5  and  C6_6 
REMARK    5  A    between atoms: C9_9  and  O10_10 
REMARK    6  A    between atoms: O10_10  and  C11_11 
REMARK    7  A    between atoms: C11_11  and  C12_12 
REMARK    8  A    between atoms: C12_12  and  C13_13 
REMARK    9  A    between atoms: C13_13  and  N14_14 
ROOT
ATOM      1  C6  ZIN A   1      18.722   2.198  14.541  0.00  0.00     0.068 A 
ATOM      2  C7  ZIN A   1      18.488   3.310  13.747  0.00  0.00     0.039 A 
ATOM      3  C8  ZIN A   1      18.806   3.278  12.402  0.00  0.00     0.039 A 
ATOM      4  C9  ZIN A   1      19.361   2.133  11.849  0.00  0.00     0.068 A 
ATOM      5  C20 ZIN A   1      19.596   1.022  12.643  0.00  0.00     0.039 A 
ATOM      6  C21 ZIN A   1      19.281   1.056  13.989  0.00  0.00     0.039 A 
ENDROOT
BRANCH   4   7
ATOM      7  O10 ZIN A   1      19.674   2.102  10.526  0.00  0.00    -0.351 OA
BRANCH   7   8
ATOM      8  C11 ZIN A   1      19.478   0.862   9.842  0.00  0.00     0.177 C 
BRANCH   8   9
ATOM      9  C12 ZIN A   1      18.687   1.110   8.556  0.00  0.00     0.057 C 
BRANCH   9  10
ATOM     10  C13 ZIN A   1      17.890  -0.147   8.198  0.00  0.00     0.274 C 
BRANCH  10  11
ATOM     11  N14 ZIN A   1      18.185  -0.536   6.812  0.00  0.00     0.092 N 
ATOM     12  C19 ZIN A   1      18.953   0.511   6.123  0.00  0.00     0.298 C 
ATOM     13  C18 ZIN A   1      19.186   0.093   4.669  0.00  0.00     0.198 C 
ATOM     14  O17 ZIN A   1      19.854  -1.172   4.644  0.00  0.00    -0.388 OA
ATOM     15  C16 ZIN A   1      19.134  -2.216   5.307  0.00  0.00     0.198 C 
ATOM     16  C15 ZIN A   1      18.900  -1.820   6.766  0.00  0.00     0.298 C 
ENDBRANCH  10  11
ENDBRANCH   9  10
ENDBRANCH   8   9
ENDBRANCH   7   8
ENDBRANCH   4   7
BRANCH   1  17
ATOM     17  O5  ZIN A   1      18.408   2.229  15.864  0.00  0.00    -0.351 OA
BRANCH  17  18
ATOM     18  C4  ZIN A   1      19.066   1.282  16.709  0.00  0.00     0.175 C 
BRANCH  18  19
ATOM     19  C3  ZIN A   1      18.040   0.633  17.641  0.00  0.00     0.026 C 
BRANCH  19  20
ATOM     20  C2  ZIN A   1      17.187  -0.359  16.848  0.00  0.00    -0.002 C 
ATOM     21  C1  ZIN A   1      18.077  -1.483  16.314  0.00  0.00     0.005 C 
ENDBRANCH  19  20
ENDBRANCH  18  19
ENDBRANCH  17  18
ENDBRANCH   1  17
TORSDOF 9
ENDMDL
MODEL 4
REMARK VINA RESULT:      -6.1      4.361      8.757
REMARK  9 active torsions:
REMARK  status: ('A' for Active; 'I' for Inactive)
REMARK    1  A    between atoms: C2_2  and  C3_3 
REMARK    2  A    between atoms: C3_3  and  C4_4 
REMARK    3  A    between atoms: C4_4  and  O5_5 
REMARK    4  A    between atoms: O5_5  and  C6_6 
REMARK    5  A    between atoms: C9_9  and  O10_10 
REMARK    6  A    between atoms: O10_10  and  C11_11 
REMARK    7  A    between atoms: C11_11  and  C12_12 
REMARK    8  A    between atoms: C12_12  and  C13_13 
REMARK    9  A    between atoms: C13_13  and  N14_14 
ROOT
ATOM      1  C6  ZIN A   1      18.710   1.000   9.290  0.00  0.00     0.068 A 
ATOM      2  C7  ZIN A   1      19.320   1.584   8.190  0.00  0.00     0.039 A 
ATOM      3  C8  ZIN A   1      18.966   1.189   6.914  0.00  0.00     0.039 A 
ATOM      4  C9  ZIN A   1      18.002   0.208   6.734  0.00  0.00     0.068 A 
ATOM      5  C20 ZIN A   1      17.394  -0.376   7.833  0.00  0.00     0.039 A 
ATOM      6  C21 ZIN A   1      17.750   0.015   9.110  0.00  0.00     0.039 A 
ENDROOT
BRANCH   4   7
ATOM      7  O10 ZIN A   1      17.654  -0.180   5.478  0.00  0.00    -0.351 OA
BRANCH   7   8
ATOM      8  C11 ZIN A   1      18.716  -0.365   4.539  0.00  0.00     0.177 C 
BRANCH   8   9
ATOM      9  C12 ZIN A   1      19.129  -1.839   4.522  0.00  0.00     0.057 C 
BRANCH   9  10
ATOM     10  C13 ZIN A   1      17.897  -2.716   4.756  0.00  0.00     0.274 C 
BRANCH  10  11
ATOM     11  N14 ZIN A   1      18.224  -3.771   5.724  0.00  0.00     0.092 N 
ATOM     12  C19 ZIN A   1      18.050  -5.104   5.129  0.00  0.00     0.298 C 
ATOM     13  C18 ZIN A   1      18.344  -6.171   6.187  0.00  0.00     0.198 C 
ATOM     14  O17 ZIN A   1      19.665  -5.977   6.698  0.00  0.00    -0.388 OA
ATOM     15  C16 ZIN A   1      19.870  -4.688   7.286  0.00  0.00     0.198 C 
ATOM     16  C15 ZIN A   1      19.591  -3.607   6.239  0.00  0.00     0.298 C 
ENDBRANCH  10  11
ENDBRANCH   9  10
ENDBRANCH   8   9
ENDBRANCH   7   8
ENDBRANCH   4   7
BRANCH   1  17
ATOM     17  O5  ZIN A   1      19.058   1.388  10.546  0.00  0.00    -0.351 OA
BRANCH  17  18
ATOM     18  C4  ZIN A   1      18.175   2.292  11.214  0.00  0.00     0.175 C 
BRANCH  18  19
ATOM     19  C3  ZIN A   1      18.880   3.635  11.420  0.00  0.00     0.026 C 
BRANCH  19  20
ATOM     20  C2  ZIN A   1      17.842   4.713  11.735  0.00  0.00    -0.002 C 
ATOM     21  C1  ZIN A   1      17.199   5.198  10.434  0.00  0.00     0.005 C 
ENDBRANCH  19  20
ENDBRANCH  18  19
ENDBRANCH  17  18
ENDBRANCH   1  17
TORSDOF 9
ENDMDL
MODEL 5
REMARK VINA RESULT:      -6.1      3.204      7.633
REMARK  9 active torsions:
REMARK  status: ('A' for Active; 'I' for Inactive)
REMARK    1  A    between atoms: C2_2  and  C3_3 
REMARK    2  A    between atoms: C3_3  and  C4_4 
REMARK    3  A    between atoms: C4_4  and  O5_5 
REMARK    4  A    between atoms: O5_5  and  C6_6 
REMARK    5  A    between atoms: C9_9  and  O10_10 
REMARK    6  A    between atoms: O10_10  and  C11_11 
REMARK    7  A    between atoms: C11_11  and  C12_12 
REMARK    8  A    between atoms: C12_12  and  C13_13 
REMARK    9  A    between atoms: C13_13  and  N14_14 
ROOT
ATOM      1  C6  ZIN A   1      18.545  -0.989  14.832  0.00  0.00     0.068 A 
ATOM      2  C7  ZIN A   1      17.750   0.124  14.605  0.00  0.00     0.039 A 
ATOM      3  C8  ZIN A   1      17.572   0.595  13.317  0.00  0.00     0.039 A 
ATOM      4  C9  ZIN A   1      18.191  -0.046  12.254  0.00  0.00     0.068 A 
ATOM      5  C20 ZIN A   1      18.987  -1.157  12.482  0.00  0.00     0.039 A 
ATOM      6  C21 ZIN A   1      19.168  -1.626  13.770  0.00  0.00     0.039 A 
ENDROOT
BRANCH   4   7
ATOM      7  O10 ZIN A   1      18.016   0.417  10.987  0.00  0.00    -0.351 OA
BRANCH   7   8
ATOM      8  C11 ZIN A   1      19.170   0.933  10.320  0.00  0.00     0.177 C 
BRANCH   8   9
ATOM      9  C12 ZIN A   1      19.032   2.449  10.164  0.00  0.00     0.057 C 
BRANCH   9  10
ATOM     10  C13 ZIN A   1      19.725   3.147  11.337  0.00  0.00     0.274 C 
BRANCH  10  11
ATOM     11  N14 ZIN A   1      18.839   4.185  11.881  0.00  0.00     0.092 N 
ATOM     12  C19 ZIN A   1      17.456   3.992  11.423  0.00  0.00     0.298 C 
ATOM     13  C18 ZIN A   1      16.582   5.126  11.963  0.00  0.00     0.198 C 
ATOM     14  O17 ZIN A   1      16.679   5.158  13.390  0.00  0.00    -0.388 OA
ATOM     15  C16 ZIN A   1      18.014   5.346  13.871  0.00  0.00     0.198 C 
ATOM     16  C15 ZIN A   1      18.902   4.214  13.350  0.00  0.00     0.298 C 
ENDBRANCH  10  11
ENDBRANCH   9  10
ENDBRANCH   8   9
ENDBRANCH   7   8
ENDBRANCH   4   7
BRANCH   1  17
ATOM     17  O5  ZIN A   1      18.720  -1.452  16.099  0.00  0.00    -0.351 OA
BRANCH  17  18
ATOM     18  C4  ZIN A   1      18.207  -0.645  17.161  0.00  0.00     0.175 C 
BRANCH  18  19
ATOM     19  C3  ZIN A   1      19.369  -0.099  17.994  0.00  0.00     0.026 C 
BRANCH  19  20
ATOM     20  C2  ZIN A   1      19.023   1.305  18.493  0.00  0.00    -0.002 C 
ATOM     21  C1  ZIN A   1      17.507   1.425  18.665  0.00  0.00     0.005 C 
ENDBRANCH  19  20
ENDBRANCH  18  19
ENDBRANCH  17  18
ENDBRANCH   1  17
TORSDOF 9
ENDMDL
MODEL 6
REMARK VINA RESULT:      -6.0      2.696      9.443
REMARK  9 active torsions:
REMARK  status: ('A' for Active; 'I' for Inactive)
REMARK    1  A    between atoms: C2_2  and  C3_3 
REMARK    2  A    between atoms: C3_3  and  C4_4 
REMARK    3  A    between atoms: C4_4  and  O5_5 
REMARK    4  A    between atoms: O5_5  and  C6_6 
REMARK    5  A    between atoms: C9_9  and  O10_10 
REMARK    6  A    between atoms: O10_10  and  C11_11 
REMARK    7  A    between atoms: C11_11  and  C12_12 
REMARK    8  A    between atoms: C12_12  and  C13_13 
REMARK    9  A    between atoms: C13_13  and  N14_14 
ROOT
ATOM      1  C6  ZIN A   1      18.186  -0.639  14.936  0.00  0.00     0.068 A 
ATOM      2  C7  ZIN A   1      17.497   0.456  14.437  0.00  0.00     0.039 A 
ATOM      3  C8  ZIN A   1      17.680   0.848  13.124  0.00  0.00     0.039 A 
ATOM      4  C9  ZIN A   1      18.555   0.147  12.307  0.00  0.00     0.068 A 
ATOM      5  C20 ZIN A   1      19.245  -0.946  12.807  0.00  0.00     0.039 A 
ATOM      6  C21 ZIN A   1      19.064  -1.336  14.120  0.00  0.00     0.039 A 
ENDROOT
BRANCH   4   7
ATOM      7  O10 ZIN A   1      18.734   0.533  11.016  0.00  0.00    -0.351 OA
BRANCH   7   8
ATOM      8  C11 ZIN A   1      19.607  -0.267  10.215  0.00  0.00     0.177 C 
BRANCH   8   9
ATOM      9  C12 ZIN A   1      18.777  -1.111   9.245  0.00  0.00     0.057 C 
BRANCH   9  10
ATOM     10  C13 ZIN A   1      18.000  -0.188   8.304  0.00  0.00     0.274 C 
BRANCH  10  11
ATOM     11  N14 ZIN A   1      18.251  -0.584   6.912  0.00  0.00     0.092 N 
ATOM     12  C19 ZIN A   1      19.006   0.454   6.197  0.00  0.00     0.298 C 
ATOM     13  C18 ZIN A   1      19.194   0.028   4.738  0.00  0.00     0.198 C 
ATOM     14  O17 ZIN A   1      19.852  -1.241   4.700  0.00  0.00    -0.388 OA
ATOM     15  C16 ZIN A   1      19.144  -2.277   5.387  0.00  0.00     0.198 C 
ATOM     16  C15 ZIN A   1      18.955  -1.874   6.851  0.00  0.00     0.298 C 
ENDBRANCH  10  11
ENDBRANCH   9  10
ENDBRANCH   8   9
ENDBRANCH   7   8
ENDBRANCH   4   7
BRANCH   1  17
ATOM     17  O5  ZIN A   1      18.006  -1.025  16.227  0.00  0.00    -0.351 OA
BRANCH  17  18
ATOM     18  C4  ZIN A   1      19.182  -1.216  17.017  0.00  0.00     0.175 C 
BRANCH  18  19
ATOM     19  C3  ZIN A   1      19.444   0.038  17.854  0.00  0.00     0.026 C 
BRANCH  19  20
ATOM     20  C2  ZIN A   1      18.326   0.205  18.885  0.00  0.00    -0.002 C 
ATOM     21  C1  ZIN A   1      17.565   1.503  18.605  0.00  0.00     0.005 C 
ENDBRANCH  19  20
ENDBRANCH  18  19
ENDBRANCH  17  18
ENDBRANCH   1  17
TORSDOF 9
ENDMDL
MODEL 7
REMARK VINA RESULT:      -6.0      2.704      8.920
REMARK  9 active torsions:
REMARK  status: ('A' for Active; 'I' for Inactive)
REMARK    1  A    between atoms: C2_2  and  C3_3 
REMARK    2  A    between atoms: C3_3  and  C4_4 
REMARK    3  A    between atoms: C4_4  and  O5_5 
REMARK    4  A    between atoms: O5_5  and  C6_6 
REMARK    5  A    between atoms: C9_9  and  O10_10 
REMARK    6  A    between atoms: O10_10  and  C11_11 
REMARK    7  A    between atoms: C11_11  and  C12_12 
REMARK    8  A    between atoms: C12_12  and  C13_13 
REMARK    9  A    between atoms: C13_13  and  N14_14 
ROOT
ATOM      1  C6  ZIN A   1      17.578   0.074  13.356  0.00  0.00     0.068 A 
ATOM      2  C7  ZIN A   1      17.273  -0.704  12.249  0.00  0.00     0.039 A 
ATOM      3  C8  ZIN A   1      17.324  -0.154  10.982  0.00  0.00     0.039 A 
ATOM      4  C9  ZIN A   1      17.677   1.178  10.818  0.00  0.00     0.068 A 
ATOM      5  C20 ZIN A   1      17.979   1.956  11.925  0.00  0.00     0.039 A 
ATOM      6  C21 ZIN A   1      17.926   1.407  13.192  0.00  0.00     0.039 A 
ENDROOT
BRANCH   4   7
ATOM      7  O10 ZIN A   1      17.726   1.719   9.572  0.00  0.00    -0.351 OA
BRANCH   7   8
ATOM      8  C11 ZIN A   1      18.983   2.249   9.144  0.00  0.00     0.177 C 
BRANCH   8   9
ATOM      9  C12 ZIN A   1      19.591   1.326   8.086  0.00  0.00     0.057 C 
BRANCH   9  10
ATOM     10  C13 ZIN A   1      18.612   1.174   6.919  0.00  0.00     0.274 C 
BRANCH  10  11
ATOM     11  N14 ZIN A   1      18.604  -0.223   6.466  0.00  0.00     0.092 N 
ATOM     12  C19 ZIN A   1      19.267  -0.358   5.161  0.00  0.00     0.298 C 
ATOM     13  C18 ZIN A   1      19.183  -1.816   4.701  0.00  0.00     0.198 C 
ATOM     14  O17 ZIN A   1      19.771  -2.659   5.695  0.00  0.00    -0.388 OA
ATOM     15  C16 ZIN A   1      19.149  -2.553   6.979  0.00  0.00     0.198 C 
ATOM     16  C15 ZIN A   1      19.232  -1.104   7.462  0.00  0.00     0.298 C 
ENDBRANCH  10  11
ENDBRANCH   9  10
ENDBRANCH   8   9
ENDBRANCH   7   8
ENDBRANCH   4   7
BRANCH   1  17
ATOM     17  O5  ZIN A   1      17.528  -0.467  14.602  0.00  0.00    -0.351 OA
BRANCH  17  18
ATOM     18  C4  ZIN A   1      18.051   0.323  15.673  0.00  0.00     0.175 C 
BRANCH  18  19
ATOM     19  C3  ZIN A   1      17.430  -0.135  16.994  0.00  0.00     0.026 C 
BRANCH  19  20
ATOM     20  C2  ZIN A   1      18.519  -0.218  18.067  0.00  0.00    -0.002 C 
ATOM     21  C1  ZIN A   1      19.239   1.128  18.166  0.00  0.00     0.005 C 
ENDBRANCH  19  20
ENDBRANCH  18  19
ENDBRANCH  17  18
ENDBRANCH   1  17
TORSDOF 9
ENDMDL
MODEL 8
REMARK VINA RESULT:      -5.9      3.740      8.552
REMARK  9 active torsions:
REMARK  status: ('A' for Active; 'I' for Inactive)
REMARK    1  A    between atoms: C2_2  and  C3_3 
REMARK    2  A    between atoms: C3_3  and  C4_4 
REMARK    3  A    between atoms: C4_4  and  O5_5 
REMARK    4  A    between atoms: O5_5  and  C6_6 
REMARK    5  A    between atoms: C9_9  and  O10_10 
REMARK    6  A    between atoms: O10_10  and  C11_11 
REMARK    7  A    between atoms: C11_11  and  C12_12 
REMARK    8  A    between atoms: C12_12  and  C13_13 
REMARK    9  A    between atoms: C13_13  and  N14_14 
ROOT
ATOM      1  C6  ZIN A   1      18.529   1.066   9.565  0.00  0.00     0.068 A 
ATOM      2  C7  ZIN A   1      17.536   0.171   9.197  0.00  0.00     0.039 A 
ATOM      3  C8  ZIN A   1      17.318  -0.107   7.861  0.00  0.00     0.039 A 
ATOM      4  C9  ZIN A   1      18.092   0.510   6.889  0.00  0.00     0.068 A 
ATOM      5  C20 ZIN A   1      19.083   1.406   7.257  0.00  0.00     0.039 A 
ATOM      6  C21 ZIN A   1      19.299   1.687   8.593  0.00  0.00     0.039 A 
ENDROOT
BRANCH   4   7
ATOM      7  O10 ZIN A   1      17.877   0.236   5.574  0.00  0.00    -0.351 OA
BRANCH   7   8
ATOM      8  C11 ZIN A   1      19.016  -0.131   4.793  0.00  0.00     0.177 C 
BRANCH   8   9
ATOM      9  C12 ZIN A   1      19.415  -1.571   5.121  0.00  0.00     0.057 C 
BRANCH   9  10
ATOM     10  C13 ZIN A   1      18.196  -2.484   4.972  0.00  0.00     0.274 C 
BRANCH  10  11
ATOM     11  N14 ZIN A   1      18.378  -3.684   5.800  0.00  0.00     0.092 N 
ATOM     12  C19 ZIN A   1      17.920  -4.887   5.091  0.00  0.00     0.298 C 
ATOM     13  C18 ZIN A   1      18.073  -6.103   6.010  0.00  0.00     0.198 C 
ATOM     14  O17 ZIN A   1      19.436  -6.209   6.429  0.00  0.00    -0.388 OA
ATOM     15  C16 ZIN A   1      19.916  -5.053   7.122  0.00  0.00     0.198 C 
ATOM     16  C15 ZIN A   1      19.781  -3.828   6.215  0.00  0.00     0.298 C 
ENDBRANCH  10  11
ENDBRANCH   9  10
ENDBRANCH   8   9
ENDBRANCH   7   8
ENDBRANCH   4   7
BRANCH   1  17
ATOM     17  O5  ZIN A   1      18.744   1.340  10.880  0.00  0.00    -0.351 OA
BRANCH  17  18
ATOM     18  C4  ZIN A   1      19.772   0.596  11.538  0.00  0.00     0.175 C 
BRANCH  18  19
ATOM     19  C3  ZIN A   1      19.292   0.185  12.931  0.00  0.00     0.026 C 
BRANCH  19  20
ATOM     20  C2  ZIN A   1      17.997  -0.621  12.807  0.00  0.00    -0.002 C 
ATOM     21  C1  ZIN A   1      18.336  -2.090  12.541  0.00  0.00     0.005 C 
ENDBRANCH  19  20
ENDBRANCH  18  19
ENDBRANCH  17  18
ENDBRANCH   1  17
TORSDOF 9
ENDMDL
MODEL 9
REMARK VINA RESULT:      -5.9      3.028      6.783
REMARK  9 active torsions:
REMARK  status: ('A' for Active; 'I' for Inactive)
REMARK    1  A    between atoms: C2_2  and  C3_3 
REMARK    2  A    between atoms: C3_3  and  C4_4 
REMARK    3  A    between atoms: C4_4  and  O5_5 
REMARK    4  A    between atoms: O5_5  and  C6_6 
REMARK    5  A    between atoms: C9_9  and  O10_10 
REMARK    6  A    between atoms: O10_10  and  C11_11 
REMARK    7  A    between atoms: C11_11  and  C12_12 
REMARK    8  A    between atoms: C12_12  and  C13_13 
REMARK    9  A    between atoms: C13_13  and  N14_14 
ROOT
ATOM      1  C6  ZIN A   1      18.159  -1.242  12.746  0.00  0.00     0.068 A 
ATOM      2  C7  ZIN A   1      17.131  -0.331  12.551  0.00  0.00     0.039 A 
ATOM      3  C8  ZIN A   1      16.930   0.226  11.302  0.00  0.00     0.039 A 
ATOM      4  C9  ZIN A   1      17.758  -0.124  10.246  0.00  0.00     0.068 A 
ATOM      5  C20 ZIN A   1      18.786  -1.033  10.442  0.00  0.00     0.039 A 
ATOM      6  C21 ZIN A   1      18.990  -1.588  11.691  0.00  0.00     0.039 A 
ENDROOT
BRANCH   4   7
ATOM      7  O10 ZIN A   1      17.560   0.424   9.017  0.00  0.00    -0.351 OA
BRANCH   7   8
ATOM      8  C11 ZIN A   1      18.652   1.148   8.446  0.00  0.00     0.177 C 
BRANCH   8   9
ATOM      9  C12 ZIN A   1      19.170   2.171   9.458  0.00  0.00     0.057 C 
BRANCH   9  10
ATOM     10  C13 ZIN A   1      18.320   3.441   9.378  0.00  0.00     0.274 C 
BRANCH  10  11
ATOM     11  N14 ZIN A   1      17.688   3.690  10.681  0.00  0.00     0.092 N 
ATOM     12  C19 ZIN A   1      18.632   3.443  11.780  0.00  0.00     0.298 C 
ATOM     13  C18 ZIN A   1      17.917   3.656  13.117  0.00  0.00     0.198 C 
ATOM     14  O17 ZIN A   1      17.376   4.980  13.157  0.00  0.00    -0.388 OA
ATOM     15  C16 ZIN A   1      16.452   5.256  12.100  0.00  0.00     0.198 C 
ATOM     16  C15 ZIN A   1      17.153   5.058  10.753  0.00  0.00     0.298 C 
ENDBRANCH  10  11
ENDBRANCH   9  10
ENDBRANCH   8   9
ENDBRANCH   7   8
ENDBRANCH   4   7
BRANCH   1  17
ATOM     17  O5  ZIN A   1      18.358  -1.790  13.975  0.00  0.00    -0.351 OA
BRANCH  17  18
ATOM     18  C4  ZIN A   1      19.525  -1.377  14.689  0.00  0.00     0.175 C 
BRANCH  18  19
ATOM     19  C3  ZIN A   1      19.206  -1.293  16.183  0.00  0.00     0.026 C 
BRANCH  19  20
ATOM     20  C2  ZIN A   1      17.708  -1.521  16.397  0.00  0.00    -0.002 C 
ATOM     21  C1  ZIN A   1      17.056  -0.217  16.862  0.00  0.00     0.005 C 
ENDBRANCH  19  20
ENDBRANCH  18  19
ENDBRANCH  17  18
ENDBRANCH   1  17
TORSDOF 9
ENDMDL
