MODEL 1
REMARK VINA RESULT:      -6.2      0.000      0.000
REMARK  1 active torsions:
REMARK  status: ('A' for Active; 'I' for Inactive)
REMARK    1  A    between atoms: C4_3  and  C6_4 
ROOT
ATOM      1  C1  ZIN A   1      20.276   3.386  11.826  0.00  0.00     0.046 C 
ATOM      2  C2  ZIN A   1      18.783   3.605  12.078  0.00  0.00     0.251 C 
ATOM      3  C4  ZIN A   1      18.058   3.775  10.741  0.00  0.00     0.187 C 
ATOM      4  O12 ZIN A   1      16.677   4.053  10.985  0.00  0.00    -0.377 OA
ATOM      5  C13 ZIN A   1      16.455   5.226  11.771  0.00  0.00     0.199 C 
ATOM      6  C14 ZIN A   1      17.164   5.072  13.120  0.00  0.00     0.298 C 
ATOM      7  N15 ZIN A   1      18.594   4.816  12.890  0.00  0.00     0.093 N 
ATOM      8  C16 ZIN A   1      19.321   4.716  14.163  0.00  0.00     0.310 C 
ENDROOT
BRANCH   3   9
ATOM      9  C6  ZIN A   1      18.182   2.507   9.936  0.00  0.00    -0.027 A 
ATOM     10  C11 ZIN A   1      17.563   1.350  10.370  0.00  0.00     0.010 A 
ATOM     11  C10 ZIN A   1      17.673   0.187   9.630  0.00  0.00     0.001 A 
ATOM     12  C9  ZIN A   1      18.409   0.181   8.460  0.00  0.00     0.000 A 
ATOM     13  C8  ZIN A   1      19.032   1.337   8.028  0.00  0.00     0.001 A 
ATOM     14  C7  ZIN A   1      18.918   2.499   8.766  0.00  0.00     0.010 A 
ENDBRANCH   3   9
TORSDOF 1
ENDMDL
MODEL 2
REMARK VINA RESULT:      -6.1      2.087      2.606
REMARK  1 active torsions:
REMARK  status: ('A' for Active; 'I' for Inactive)
REMARK    1  A    between atoms: C4_3  and  C6_4 
ROOT
ATOM      1  C1  ZIN A   1      20.348   0.015  11.037  0.00  0.00     0.046 C 
ATOM      2  C2  ZIN A   1      19.049   0.685  11.489  0.00  0.00     0.251 C 
ATOM      3  C4  ZIN A   1      18.695   1.818  10.522  0.00  0.00     0.187 C 
ATOM      4  O12 ZIN A   1      17.522   2.489  10.991  0.00  0.00    -0.377 OA
ATOM      5  C13 ZIN A   1      17.659   3.041  12.302  0.00  0.00     0.199 C 
ATOM      6  C14 ZIN A   1      18.002   1.920  13.289  0.00  0.00     0.298 C 
ATOM      7  N15 ZIN A   1      19.225   1.238  12.840  0.00  0.00     0.093 N 
ATOM      8  C16 ZIN A   1      19.621   0.190  13.791  0.00  0.00     0.310 C 
ENDROOT
BRANCH   3   9
ATOM      9  C6  ZIN A   1      18.436   1.248   9.152  0.00  0.00    -0.027 A 
ATOM     10  C11 ZIN A   1      17.477   0.268   8.981  0.00  0.00     0.010 A 
ATOM     11  C10 ZIN A   1      17.237  -0.253   7.723  0.00  0.00     0.001 A 
ATOM     12  C9  ZIN A   1      17.961   0.203   6.637  0.00  0.00     0.000 A 
ATOM     13  C8  ZIN A   1      18.924   1.180   6.809  0.00  0.00     0.001 A 
ATOM     14  C7  ZIN A   1      19.161   1.703   8.066  0.00  0.00     0.010 A 
ENDBRANCH   3   9
TORSDOF 1
ENDMDL
MODEL 3
REMARK VINA RESULT:      -6.0      2.338      3.768
REMARK  1 active torsions:
REMARK  status: ('A' for Active; 'I' for Inactive)
REMARK    1  A    between atoms: C4_3  and  C6_4 
ROOT
ATOM      1  C1  ZIN A   1      17.700   2.762  10.352  0.00  0.00     0.046 C 
ATOM      2  C2  ZIN A   1      18.916   1.862  10.583  0.00  0.00     0.251 C 
ATOM      3  C4  ZIN A   1      18.610   0.449  10.079  0.00  0.00     0.187 C 
ATOM      4  O12 ZIN A   1      19.721  -0.404  10.365  0.00  0.00    -0.377 OA
ATOM      5  C13 ZIN A   1      20.046  -0.481  11.755  0.00  0.00     0.199 C 
ATOM      6  C14 ZIN A   1      20.368   0.923  12.277  0.00  0.00     0.298 C 
ATOM      7  N15 ZIN A   1      19.223   1.809  12.020  0.00  0.00     0.093 N 
ATOM      8  C16 ZIN A   1      19.469   3.155  12.556  0.00  0.00     0.310 C 
ENDROOT
BRANCH   3   9
ATOM      9  C6  ZIN A   1      18.371   0.486   8.592  0.00  0.00    -0.027 A 
ATOM     10  C11 ZIN A   1      19.238   1.181   7.770  0.00  0.00     0.010 A 
ATOM     11  C10 ZIN A   1      19.022   1.211   6.405  0.00  0.00     0.001 A 
ATOM     12  C9  ZIN A   1      17.935   0.552   5.863  0.00  0.00     0.000 A 
ATOM     13  C8  ZIN A   1      17.065  -0.139   6.685  0.00  0.00     0.001 A 
ATOM     14  C7  ZIN A   1      17.284  -0.172   8.049  0.00  0.00     0.010 A 
ENDBRANCH   3   9
TORSDOF 1
ENDMDL
MODEL 4
REMARK VINA RESULT:      -5.9      4.772      6.577
REMARK  1 active torsions:
REMARK  status: ('A' for Active; 'I' for Inactive)
REMARK    1  A    between atoms: C4_3  and  C6_4 
ROOT
ATOM      1  C1  ZIN A   1      17.310  -1.438  12.082  0.00  0.00     0.046 C 
ATOM      2  C2  ZIN A   1      18.807  -1.142  12.190  0.00  0.00     0.251 C 
ATOM      3  C4  ZIN A   1      19.026   0.057  13.117  0.00  0.00     0.187 C 
ATOM      4  O12 ZIN A   1      20.419   0.375  13.155  0.00  0.00    -0.377 OA
ATOM      5  C13 ZIN A   1      20.975   0.687  11.875  0.00  0.00     0.199 C 
ATOM      6  C14 ZIN A   1      20.777  -0.506  10.935  0.00  0.00     0.298 C 
ATOM      7  N15 ZIN A   1      19.344  -0.829  10.857  0.00  0.00     0.093 N 
ATOM      8  C16 ZIN A   1      19.105  -1.934   9.919  0.00  0.00     0.310 C 
ENDROOT
BRANCH   3   9
ATOM      9  C6  ZIN A   1      18.549  -0.286  14.505  0.00  0.00    -0.027 A 
ATOM     10  C11 ZIN A   1      17.540   0.454  15.091  0.00  0.00     0.010 A 
ATOM     11  C10 ZIN A   1      17.099   0.137  16.362  0.00  0.00     0.001 A 
ATOM     12  C9  ZIN A   1      17.673  -0.917  17.049  0.00  0.00     0.000 A 
ATOM     13  C8  ZIN A   1      18.685  -1.654  16.465  0.00  0.00     0.001 A 
ATOM     14  C7  ZIN A   1      19.123  -1.339  15.192  0.00  0.00     0.010 A 
ENDBRANCH   3   9
TORSDOF 1
ENDMDL
MODEL 5
REMARK VINA RESULT:      -5.8      2.398      5.200
REMARK  1 active torsions:
REMARK  status: ('A' for Active; 'I' for Inactive)
REMARK    1  A    between atoms: C4_3  and  C6_4 
ROOT
ATOM      1  C1  ZIN A   1      17.073   0.228  11.028  0.00  0.00     0.046 C 
ATOM      2  C2  ZIN A   1      18.207   0.340  10.006  0.00  0.00     0.251 C 
ATOM      3  C4  ZIN A   1      18.163   1.720   9.344  0.00  0.00     0.187 C 
ATOM      4  O12 ZIN A   1      19.177   1.793   8.338  0.00  0.00    -0.377 OA
ATOM      5  C13 ZIN A   1      19.050   0.798   7.319  0.00  0.00     0.199 C 
ATOM      6  C14 ZIN A   1      19.103  -0.592   7.960  0.00  0.00     0.298 C 
ATOM      7  N15 ZIN A   1      18.046  -0.697   8.977  0.00  0.00     0.093 N 
ATOM      8  C16 ZIN A   1      18.026  -2.038   9.578  0.00  0.00     0.310 C 
ENDROOT
BRANCH   3   9
ATOM      9  C6  ZIN A   1      18.405   2.785  10.382  0.00  0.00    -0.027 A 
ATOM     10  C11 ZIN A   1      17.450   3.756  10.612  0.00  0.00     0.010 A 
ATOM     11  C10 ZIN A   1      17.670   4.731  11.568  0.00  0.00     0.001 A 
ATOM     12  C9  ZIN A   1      18.850   4.738  12.287  0.00  0.00     0.000 A 
ATOM     13  C8  ZIN A   1      19.808   3.769  12.054  0.00  0.00     0.001 A 
ATOM     14  C7  ZIN A   1      19.586   2.793  11.101  0.00  0.00     0.010 A 
ENDBRANCH   3   9
TORSDOF 1
ENDMDL
MODEL 6
REMARK VINA RESULT:      -5.8      4.014      6.971
REMARK  1 active torsions:
REMARK  status: ('A' for Active; 'I' for Inactive)
REMARK    1  A    between atoms: C4_3  and  C6_4 
ROOT
ATOM      1  C1  ZIN A   1      17.839   0.558   5.646  0.00  0.00     0.046 C 
ATOM      2  C2  ZIN A   1      17.985  -0.798   6.340  0.00  0.00     0.251 C 
ATOM      3  C4  ZIN A   1      19.092  -0.716   7.394  0.00  0.00     0.187 C 
ATOM      4  O12 ZIN A   1      19.276  -2.004   7.987  0.00  0.00    -0.377 OA
ATOM      5  C13 ZIN A   1      19.620  -3.026   7.049  0.00  0.00     0.199 C 
ATOM      6  C14 ZIN A   1      18.519  -3.133   5.990  0.00  0.00     0.298 C 
ATOM      7  N15 ZIN A   1      18.337  -1.824   5.346  0.00  0.00     0.093 N 
ATOM      8  C16 ZIN A   1      17.325  -1.896   4.283  0.00  0.00     0.310 C 
ENDROOT
BRANCH   3   9
ATOM      9  C6  ZIN A   1      18.701   0.277   8.458  0.00  0.00    -0.027 A 
ATOM     10  C11 ZIN A   1      17.714  -0.041   9.371  0.00  0.00     0.010 A 
ATOM     11  C10 ZIN A   1      17.358   0.868  10.350  0.00  0.00     0.001 A 
ATOM     12  C9  ZIN A   1      17.985   2.099  10.409  0.00  0.00     0.000 A 
ATOM     13  C8  ZIN A   1      18.968   2.420   9.493  0.00  0.00     0.001 A 
ATOM     14  C7  ZIN A   1      19.327   1.508   8.517  0.00  0.00     0.010 A 
ENDBRANCH   3   9
TORSDOF 1
ENDMDL
MODEL 7
REMARK VINA RESULT:      -5.8      3.953      6.896
REMARK  1 active torsions:
REMARK  status: ('A' for Active; 'I' for Inactive)
REMARK    1  A    between atoms: C4_3  and  C6_4 
ROOT
ATOM      1  C1  ZIN A   1      18.877  -2.414   8.757  0.00  0.00     0.046 C 
ATOM      2  C2  ZIN A   1      18.974  -1.779   7.368  0.00  0.00     0.251 C 
ATOM      3  C4  ZIN A   1      17.887  -0.711   7.218  0.00  0.00     0.187 C 
ATOM      4  O12 ZIN A   1      17.934  -0.173   5.894  0.00  0.00    -0.377 OA
ATOM      5  C13 ZIN A   1      17.751  -1.152   4.868  0.00  0.00     0.199 C 
ATOM      6  C14 ZIN A   1      18.837  -2.225   4.994  0.00  0.00     0.298 C 
ATOM      7  N15 ZIN A   1      18.784  -2.813   6.341  0.00  0.00     0.093 N 
ATOM      8  C16 ZIN A   1      19.775  -3.888   6.485  0.00  0.00     0.310 C 
ENDROOT
BRANCH   3   9
ATOM      9  C6  ZIN A   1      18.122   0.392   8.218  0.00  0.00    -0.027 A 
ATOM     10  C11 ZIN A   1      19.039   1.389   7.944  0.00  0.00     0.010 A 
ATOM     11  C10 ZIN A   1      19.252   2.403   8.860  0.00  0.00     0.001 A 
ATOM     12  C9  ZIN A   1      18.553   2.414  10.052  0.00  0.00     0.000 A 
ATOM     13  C8  ZIN A   1      17.640   1.414  10.328  0.00  0.00     0.001 A 
ATOM     14  C7  ZIN A   1      17.425   0.403   9.411  0.00  0.00     0.010 A 
ENDBRANCH   3   9
TORSDOF 1
ENDMDL
MODEL 8
REMARK VINA RESULT:      -5.6      4.037      5.070
REMARK  1 active torsions:
REMARK  status: ('A' for Active; 'I' for Inactive)
REMARK    1  A    between atoms: C4_3  and  C6_4 
ROOT
ATOM      1  C1  ZIN A   1      16.748   0.239  11.264  0.00  0.00     0.046 C 
ATOM      2  C2  ZIN A   1      18.090  -0.485  11.384  0.00  0.00     0.251 C 
ATOM      3  C4  ZIN A   1      18.317  -1.351  10.142  0.00  0.00     0.187 C 
ATOM      4  O12 ZIN A   1      19.537  -2.082  10.293  0.00  0.00    -0.377 OA
ATOM      5  C13 ZIN A   1      19.562  -2.929  11.445  0.00  0.00     0.199 C 
ATOM      6  C14 ZIN A   1      19.348  -2.079  12.702  0.00  0.00     0.298 C 
ATOM      7  N15 ZIN A   1      18.081  -1.343  12.578  0.00  0.00     0.093 N 
ATOM      8  C16 ZIN A   1      17.810  -0.557  13.790  0.00  0.00     0.310 C 
ENDROOT
BRANCH   3   9
ATOM      9  C6  ZIN A   1      18.406  -0.470   8.923  0.00  0.00    -0.027 A 
ATOM     10  C11 ZIN A   1      19.282   0.599   8.905  0.00  0.00     0.010 A 
ATOM     11  C10 ZIN A   1      19.367   1.405   7.786  0.00  0.00     0.001 A 
ATOM     12  C9  ZIN A   1      18.570   1.147   6.687  0.00  0.00     0.000 A 
ATOM     13  C8  ZIN A   1      17.689   0.081   6.706  0.00  0.00     0.001 A 
ATOM     14  C7  ZIN A   1      17.608  -0.727   7.824  0.00  0.00     0.010 A 
ENDBRANCH   3   9
TORSDOF 1
ENDMDL
MODEL 9
REMARK VINA RESULT:      -5.5      2.667      5.360
REMARK  1 active torsions:
REMARK  status: ('A' for Active; 'I' for Inactive)
REMARK    1  A    between atoms: C4_3  and  C6_4 
ROOT
ATOM      1  C1  ZIN A   1      19.254   1.740   8.022  0.00  0.00     0.046 C 
ATOM      2  C2  ZIN A   1      18.847   0.684   9.052  0.00  0.00     0.251 C 
ATOM      3  C4  ZIN A   1      19.553   0.967  10.381  0.00  0.00     0.187 C 
ATOM      4  O12 ZIN A   1      19.229  -0.064  11.316  0.00  0.00    -0.377 OA
ATOM      5  C13 ZIN A   1      19.596  -1.375  10.880  0.00  0.00     0.199 C 
ATOM      6  C14 ZIN A   1      18.891  -1.683   9.556  0.00  0.00     0.298 C 
ATOM      7  N15 ZIN A   1      19.238  -0.649   8.569  0.00  0.00     0.093 N 
ATOM      8  C16 ZIN A   1      18.624  -0.939   7.266  0.00  0.00     0.310 C 
ENDROOT
BRANCH   3   9
ATOM      9  C6  ZIN A   1      19.097   2.299  10.919  0.00  0.00    -0.027 A 
ATOM     10  C11 ZIN A   1      17.773   2.677  10.795  0.00  0.00     0.010 A 
ATOM     11  C10 ZIN A   1      17.353   3.896  11.293  0.00  0.00     0.001 A 
ATOM     12  C9  ZIN A   1      18.259   4.740  11.908  0.00  0.00     0.000 A 
ATOM     13  C8  ZIN A   1      19.584   4.364  12.027  0.00  0.00     0.001 A 
ATOM     14  C7  ZIN A   1      20.002   3.143  11.533  0.00  0.00     0.010 A 
ENDBRANCH   3   9
TORSDOF 1
ENDMDL
