MODEL 1
REMARK VINA RESULT:      -9.4      0.000      0.000
REMARK  6 active torsions:
REMARK  status: ('A' for Active; 'I' for Inactive)
REMARK    1  A    between atoms: C2_2  and  C4_4 
REMARK    2  A    between atoms: C4_4  and  C5_5 
REMARK    3  A    between atoms: C15_13  and  O16_14 
REMARK    4  A    between atoms: C18_16  and  N19_17 
REMARK    5  A    between atoms: C18_16  and  C42_38 
REMARK       I    between atoms: N19_17  and  C20_18 
REMARK    6  A    between atoms: C20_18  and  C22_20 
ROOT
ATOM      1  C5  ZIN A   1      15.456   7.158  16.445  0.00  0.00     0.185 C 
ATOM      2  C7  ZIN A   1      15.389   7.842  17.786  0.00  0.00     0.243 C 
ATOM      3  O8  ZIN A   1      14.470   8.598  18.022  0.00  0.00    -0.271 OA
ATOM      4  N9  ZIN A   1      16.324   7.628  18.720  0.00  0.00    -0.338 N 
ATOM      5  C10 ZIN A   1      16.249   8.055  20.130  0.00  0.00     0.127 C 
ATOM      6  C11 ZIN A   1      17.121   7.077  20.942  0.00  0.00     0.022 C 
ATOM      7  C12 ZIN A   1      17.712   6.103  19.895  0.00  0.00     0.034 C 
ATOM      8  C13 ZIN A   1      17.595   6.904  18.580  0.00  0.00     0.173 C 
ATOM      9  C15 ZIN A   1      17.597   5.972  17.384  0.00  0.00     0.276 C 
ATOM     10  O17 ZIN A   1      18.929   5.810  16.870  0.00  0.00    -0.295 OA
ATOM     11  C18 ZIN A   1      18.741   5.615  15.455  0.00  0.00     0.227 C 
ATOM     12  C45 ZIN A   1      17.441   6.320  15.130  0.00  0.00     0.281 C 
ATOM     13  O46 ZIN A   1      17.065   6.659  14.028  0.00  0.00    -0.268 OA
ATOM     14  N47 ZIN A   1      16.761   6.507  16.298  0.00  0.00    -0.277 N 
ENDROOT
BRANCH  11  15
ATOM     15  N19 ZIN A   1      18.634   4.185  15.149  0.00  0.00    -0.320 N 
ATOM     16  C20 ZIN A   1      19.350   3.290  15.857  0.00  0.00     0.229 C 
ATOM     17  O21 ZIN A   1      19.999   3.654  16.816  0.00  0.00    -0.273 OA
ATOM     18  H64 ZIN A   1      18.050   3.885  14.437  0.00  0.00     0.166 HD
BRANCH  16  19
ATOM     19  C22 ZIN A   1      19.344   1.837  15.459  0.00  0.00     0.129 C 
ATOM     20  C41 ZIN A   1      18.207   1.107  16.182  0.00  0.00     0.290 C 
ATOM     21  N39 ZIN A   1      18.163  -0.277  15.700  0.00  0.00     0.094 N 
ATOM     22  C37 ZIN A   1      17.815  -0.376  14.288  0.00  0.00     0.260 C 
ATOM     23  C40 ZIN A   1      17.260  -1.092  16.523  0.00  0.00     0.310 C 
ATOM     24  C25 ZIN A   1      18.426   0.721  13.456  0.00  0.00    -0.017 C 
ATOM     25  C36 ZIN A   1      18.140  -1.786  13.775  0.00  0.00     0.083 C 
ATOM     26  C24 ZIN A   1      19.117   1.719  13.976  0.00  0.00    -0.001 C 
ATOM     27  C26 ZIN A   1      18.228   0.665  11.994  0.00  0.00    -0.015 A 
ATOM     28  C31 ZIN A   1      18.260   1.672  11.056  0.00  0.00     0.013 A 
ATOM     29  C27 ZIN A   1      17.963  -0.627  11.495  0.00  0.00     0.011 A 
ATOM     30  C30 ZIN A   1      18.029   1.373   9.715  0.00  0.00     0.003 A 
ATOM     31  C29 ZIN A   1      17.759   0.097   9.232  0.00  0.00     0.030 A 
ATOM     32  C28 ZIN A   1      17.722  -0.946  10.155  0.00  0.00     0.044 A 
ATOM     33  N32 ZIN A   1      17.500  -2.291  10.141  0.00  0.00    -0.349 N 
ATOM     34  C33 ZIN A   1      17.607  -2.812  11.421  0.00  0.00     0.087 A 
ATOM     35  H69 ZIN A   1      17.298  -2.810   9.347  0.00  0.00     0.166 HD
ATOM     36 Br34 ZIN A   1      17.381  -4.635  11.868  0.00  0.00    -0.031 Br
ATOM     37  C35 ZIN A   1      17.892  -1.847  12.291  0.00  0.00    -0.008 A 
ENDBRANCH  16  19
ENDBRANCH  11  15
BRANCH  11  38
ATOM     38  C42 ZIN A   1      19.897   6.240  14.674  0.00  0.00     0.043 C 
ATOM     39  C43 ZIN A   1      21.191   6.102  15.478  0.00  0.00     0.015 C 
ATOM     40  C44 ZIN A   1      20.052   5.523  13.330  0.00  0.00     0.015 C 
ENDBRANCH  11  38
BRANCH   9  41
ATOM     41  O16 ZIN A   1      17.100   4.691  17.777  0.00  0.00    -0.347 OA
ATOM     42  H63 ZIN A   1      16.666   4.686  18.641  0.00  0.00     0.215 HD
ENDBRANCH   9  41
BRANCH   1  43
ATOM     43  C4  ZIN A   1      14.348   6.108  16.351  0.00  0.00     0.039 C 
BRANCH  43  44
ATOM     44  C2  ZIN A   1      13.073   6.759  15.811  0.00  0.00    -0.020 C 
ATOM     45  C1  ZIN A   1      12.684   6.099  14.487  0.00  0.00     0.009 C 
ATOM     46  C3  ZIN A   1      11.940   6.578  16.823  0.00  0.00     0.009 C 
ENDBRANCH  43  44
ENDBRANCH   1  43
TORSDOF 6
ENDMDL
MODEL 2
REMARK VINA RESULT:      -8.9      7.118     13.355
REMARK  6 active torsions:
REMARK  status: ('A' for Active; 'I' for Inactive)
REMARK    1  A    between atoms: C2_2  and  C4_4 
REMARK    2  A    between atoms: C4_4  and  C5_5 
REMARK    3  A    between atoms: C15_13  and  O16_14 
REMARK    4  A    between atoms: C18_16  and  N19_17 
REMARK    5  A    between atoms: C18_16  and  C42_38 
REMARK       I    between atoms: N19_17  and  C20_18 
REMARK    6  A    between atoms: C20_18  and  C22_20 
ROOT
ATOM      1  C5  ZIN A   1      15.442  -7.263   7.115  0.00  0.00     0.185 C 
ATOM      2  C7  ZIN A   1      15.394  -8.089   5.856  0.00  0.00     0.243 C 
ATOM      3  O8  ZIN A   1      14.478  -8.867   5.691  0.00  0.00    -0.271 OA
ATOM      4  N9  ZIN A   1      16.343  -7.977   4.918  0.00  0.00    -0.338 N 
ATOM      5  C10 ZIN A   1      16.287  -8.556   3.562  0.00  0.00     0.127 C 
ATOM      6  C11 ZIN A   1      17.171  -7.672   2.660  0.00  0.00     0.022 C 
ATOM      7  C12 ZIN A   1      17.748  -6.588   3.603  0.00  0.00     0.034 C 
ATOM      8  C13 ZIN A   1      17.611  -7.241   4.996  0.00  0.00     0.173 C 
ATOM      9  C15 ZIN A   1      17.597  -6.183   6.082  0.00  0.00     0.276 C 
ATOM     10  O17 ZIN A   1      18.921  -5.964   6.595  0.00  0.00    -0.295 OA
ATOM     11  C18 ZIN A   1      18.712  -5.616   7.977  0.00  0.00     0.227 C 
ATOM     12  C45 ZIN A   1      17.408  -6.283   8.358  0.00  0.00     0.281 C 
ATOM     13  O46 ZIN A   1      17.016  -6.500   9.485  0.00  0.00    -0.268 OA
ATOM     14  N47 ZIN A   1      16.744  -6.598   7.208  0.00  0.00    -0.277 N 
ENDROOT
BRANCH  11  15
ATOM     15  N19 ZIN A   1      18.602  -4.162   8.123  0.00  0.00    -0.320 N 
ATOM     16  C20 ZIN A   1      19.353  -3.348   7.355  0.00  0.00     0.229 C 
ATOM     17  O21 ZIN A   1      20.040  -3.814   6.470  0.00  0.00    -0.273 OA
ATOM     18  H64 ZIN A   1      17.989  -3.786   8.773  0.00  0.00     0.166 HD
BRANCH  16  19
ATOM     19  C22 ZIN A   1      19.339  -1.861   7.595  0.00  0.00     0.129 C 
ATOM     20  C41 ZIN A   1      18.189  -1.221   6.809  0.00  0.00     0.290 C 
ATOM     21  N39 ZIN A   1      18.139   0.206   7.140  0.00  0.00     0.094 N 
ATOM     22  C37 ZIN A   1      17.803   0.455   8.537  0.00  0.00     0.260 C 
ATOM     23  C40 ZIN A   1      17.222   0.921   6.243  0.00  0.00     0.310 C 
ATOM     24  C25 ZIN A   1      18.431  -0.542   9.476  0.00  0.00    -0.017 C 
ATOM     25  C36 ZIN A   1      18.122   1.913   8.892  0.00  0.00     0.083 C 
ATOM     26  C24 ZIN A   1      19.125  -1.586   9.059  0.00  0.00    -0.001 C 
ATOM     27  C26 ZIN A   1      18.246  -0.331  10.925  0.00  0.00    -0.015 A 
ATOM     28  C31 ZIN A   1      18.295  -1.231  11.965  0.00  0.00     0.013 A 
ATOM     29  C27 ZIN A   1      17.975   1.005  11.285  0.00  0.00     0.011 A 
ATOM     30  C30 ZIN A   1      18.074  -0.791  13.268  0.00  0.00     0.003 A 
ATOM     31  C29 ZIN A   1      17.798   0.527  13.614  0.00  0.00     0.030 A 
ATOM     32  C28 ZIN A   1      17.744   1.465  12.585  0.00  0.00     0.044 A 
ATOM     33  N32 ZIN A   1      17.512   2.802  12.456  0.00  0.00    -0.349 N 
ATOM     34  C33 ZIN A   1      17.602   3.183  11.127  0.00  0.00     0.087 A 
ATOM     35  H69 ZIN A   1      17.312   3.402  13.192  0.00  0.00     0.166 HD
ATOM     36 Br34 ZIN A   1      17.357   4.946  10.489  0.00  0.00    -0.031 Br
ATOM     37  C35 ZIN A   1      17.886   2.132  10.363  0.00  0.00    -0.008 A 
ENDBRANCH  16  19
ENDBRANCH  11  15
BRANCH  11  38
ATOM     38  C42 ZIN A   1      19.857  -6.150   8.839  0.00  0.00     0.043 C 
ATOM     39  C43 ZIN A   1      21.170  -6.056   8.059  0.00  0.00     0.015 C 
ATOM     40  C44 ZIN A   1      19.963  -5.319  10.119  0.00  0.00     0.015 C 
ENDBRANCH  11  38
BRANCH   9  41
ATOM     41  O16 ZIN A   1      17.106  -4.954   5.545  0.00  0.00    -0.347 OA
ATOM     42  H63 ZIN A   1      16.240  -4.692   5.888  0.00  0.00     0.215 HD
ENDBRANCH   9  41
BRANCH   1  43
ATOM     43  C4  ZIN A   1      14.333  -6.210   7.078  0.00  0.00     0.039 C 
BRANCH  43  44
ATOM     44  C2  ZIN A   1      13.308  -6.511   8.173  0.00  0.00    -0.020 C 
ATOM     45  C1  ZIN A   1      12.088  -5.605   7.994  0.00  0.00     0.009 C 
ATOM     46  C3  ZIN A   1      12.873  -7.975   8.076  0.00  0.00     0.009 C 
ENDBRANCH  43  44
ENDBRANCH   1  43
TORSDOF 6
ENDMDL
MODEL 3
REMARK VINA RESULT:      -8.7      8.221     14.645
REMARK  6 active torsions:
REMARK  status: ('A' for Active; 'I' for Inactive)
REMARK    1  A    between atoms: C2_2  and  C4_4 
REMARK    2  A    between atoms: C4_4  and  C5_5 
REMARK    3  A    between atoms: C15_13  and  O16_14 
REMARK    4  A    between atoms: C18_16  and  N19_17 
REMARK    5  A    between atoms: C18_16  and  C42_38 
REMARK       I    between atoms: N19_17  and  C20_18 
REMARK    6  A    between atoms: C20_18  and  C22_20 
ROOT
ATOM      1  C5  ZIN A   1      14.589  -7.084   4.204  0.00  0.00     0.185 C 
ATOM      2  C7  ZIN A   1      14.908  -7.981   3.037  0.00  0.00     0.243 C 
ATOM      3  O8  ZIN A   1      14.002  -8.513   2.430  0.00  0.00    -0.271 OA
ATOM      4  N9  ZIN A   1      16.174  -8.200   2.657  0.00  0.00    -0.338 N 
ATOM      5  C10 ZIN A   1      16.598  -8.865   1.411  0.00  0.00     0.127 C 
ATOM      6  C11 ZIN A   1      17.998  -8.320   1.064  0.00  0.00     0.022 C 
ATOM      7  C12 ZIN A   1      18.340  -7.337   2.210  0.00  0.00     0.034 C 
ATOM      8  C13 ZIN A   1      17.408  -7.805   3.350  0.00  0.00     0.173 C 
ATOM      9  C15 ZIN A   1      17.177  -6.685   4.345  0.00  0.00     0.276 C 
ATOM     10  O17 ZIN A   1      18.120  -6.764   5.426  0.00  0.00    -0.295 OA
ATOM     11  C18 ZIN A   1      17.399  -6.251   6.562  0.00  0.00     0.227 C 
ATOM     12  C45 ZIN A   1      15.941  -6.527   6.262  0.00  0.00     0.281 C 
ATOM     13  O46 ZIN A   1      15.032  -6.535   7.064  0.00  0.00    -0.268 OA
ATOM     14  N47 ZIN A   1      15.826  -6.766   4.923  0.00  0.00    -0.277 N 
ENDROOT
BRANCH  11  15
ATOM     15  N19 ZIN A   1      17.626  -4.809   6.699  0.00  0.00    -0.320 N 
ATOM     16  C20 ZIN A   1      18.882  -4.329   6.783  0.00  0.00     0.229 C 
ATOM     17  O21 ZIN A   1      19.827  -5.077   6.639  0.00  0.00    -0.273 OA
ATOM     18  H64 ZIN A   1      16.871  -4.201   6.729  0.00  0.00     0.166 HD
BRANCH  16  19
ATOM     19  C22 ZIN A   1      19.113  -2.866   7.057  0.00  0.00     0.129 C 
ATOM     20  C41 ZIN A   1      18.194  -2.023   6.166  0.00  0.00     0.290 C 
ATOM     21  N39 ZIN A   1      18.367  -0.612   6.524  0.00  0.00     0.094 N 
ATOM     22  C37 ZIN A   1      17.930  -0.312   7.882  0.00  0.00     0.260 C 
ATOM     23  C40 ZIN A   1      17.702   0.264   5.552  0.00  0.00     0.310 C 
ATOM     24  C25 ZIN A   1      18.257  -1.411   8.859  0.00  0.00    -0.017 C 
ATOM     25  C36 ZIN A   1      18.467   1.062   8.306  0.00  0.00     0.083 C 
ATOM     26  C24 ZIN A   1      18.791  -2.563   8.494  0.00  0.00    -0.001 C 
ATOM     27  C26 ZIN A   1      17.954  -1.176  10.284  0.00  0.00    -0.015 A 
ATOM     28  C31 ZIN A   1      17.722  -2.073  11.302  0.00  0.00     0.013 A 
ATOM     29  C27 ZIN A   1      17.893   0.186  10.645  0.00  0.00     0.011 A 
ATOM     30  C30 ZIN A   1      17.442  -1.605  12.584  0.00  0.00     0.003 A 
ATOM     31  C29 ZIN A   1      17.374  -0.260  12.930  0.00  0.00     0.030 A 
ATOM     32  C28 ZIN A   1      17.606   0.675  11.924  0.00  0.00     0.044 A 
ATOM     33  N32 ZIN A   1      17.637   2.033  11.804  0.00  0.00    -0.349 N 
ATOM     34  C33 ZIN A   1      17.943   2.397  10.502  0.00  0.00     0.087 A 
ATOM     35  H69 ZIN A   1      17.470   2.657  12.528  0.00  0.00     0.166 HD
ATOM     36 Br34 ZIN A   1      18.095   4.177   9.884  0.00  0.00    -0.031 Br
ATOM     37  C35 ZIN A   1      18.114   1.314   9.748  0.00  0.00    -0.008 A 
ENDBRANCH  16  19
ENDBRANCH  11  15
BRANCH  11  38
ATOM     38  C42 ZIN A   1      17.828  -6.978   7.837  0.00  0.00     0.043 C 
ATOM     39  C43 ZIN A   1      17.224  -6.275   9.055  0.00  0.00     0.015 C 
ATOM     40  C44 ZIN A   1      17.337  -8.427   7.789  0.00  0.00     0.015 C 
ENDBRANCH  11  38
BRANCH   9  41
ATOM     41  O16 ZIN A   1      17.337  -5.425   3.690  0.00  0.00    -0.347 OA
ATOM     42  H63 ZIN A   1      17.580  -5.495   2.757  0.00  0.00     0.215 HD
ENDBRANCH   9  41
BRANCH   1  43
ATOM     43  C4  ZIN A   1      13.948  -5.792   3.695  0.00  0.00     0.039 C 
BRANCH  43  44
ATOM     44  C2  ZIN A   1      13.992  -5.769   2.166  0.00  0.00    -0.020 C 
ATOM     45  C1  ZIN A   1      12.587  -5.508   1.619  0.00  0.00     0.009 C 
ATOM     46  C3  ZIN A   1      14.935  -4.658   1.699  0.00  0.00     0.009 C 
ENDBRANCH  43  44
ENDBRANCH   1  43
TORSDOF 6
ENDMDL
MODEL 4
REMARK VINA RESULT:      -8.2      7.032     11.583
REMARK  6 active torsions:
REMARK  status: ('A' for Active; 'I' for Inactive)
REMARK    1  A    between atoms: C2_2  and  C4_4 
REMARK    2  A    between atoms: C4_4  and  C5_5 
REMARK    3  A    between atoms: C15_13  and  O16_14 
REMARK    4  A    between atoms: C18_16  and  N19_17 
REMARK    5  A    between atoms: C18_16  and  C42_38 
REMARK       I    between atoms: N19_17  and  C20_18 
REMARK    6  A    between atoms: C20_18  and  C22_20 
ROOT
ATOM      1  C5  ZIN A   1      18.766  -0.168   7.470  0.00  0.00     0.185 C 
ATOM      2  C7  ZIN A   1      18.658   0.922   8.503  0.00  0.00     0.243 C 
ATOM      3  O8  ZIN A   1      18.852   2.074   8.175  0.00  0.00    -0.271 OA
ATOM      4  N9  ZIN A   1      18.350   0.642   9.776  0.00  0.00    -0.338 N 
ATOM      5  C10 ZIN A   1      17.998   1.628  10.815  0.00  0.00     0.127 C 
ATOM      6  C11 ZIN A   1      17.106   0.900  11.841  0.00  0.00     0.022 C 
ATOM      7  C12 ZIN A   1      17.013  -0.557  11.328  0.00  0.00     0.034 C 
ATOM      8  C13 ZIN A   1      18.253  -0.677  10.415  0.00  0.00     0.173 C 
ATOM      9  C15 ZIN A   1      18.068  -1.793   9.406  0.00  0.00     0.276 C 
ATOM     10  O17 ZIN A   1      18.627  -3.021   9.900  0.00  0.00    -0.295 OA
ATOM     11  C18 ZIN A   1      19.082  -3.704   8.715  0.00  0.00     0.227 C 
ATOM     12  C45 ZIN A   1      19.376  -2.606   7.716  0.00  0.00     0.281 C 
ATOM     13  O46 ZIN A   1      20.053  -2.708   6.714  0.00  0.00    -0.268 OA
ATOM     14  N47 ZIN A   1      18.743  -1.472   8.138  0.00  0.00    -0.277 N 
ENDROOT
BRANCH  11  15
ATOM     15  N19 ZIN A   1      18.032  -4.589   8.204  0.00  0.00    -0.320 N 
ATOM     16  C20 ZIN A   1      17.301  -5.332   9.059  0.00  0.00     0.229 C 
ATOM     17  O21 ZIN A   1      17.439  -5.189  10.256  0.00  0.00    -0.273 OA
ATOM     18  H64 ZIN A   1      17.863  -4.641   7.251  0.00  0.00     0.166 HD
BRANCH  16  19
ATOM     19  C22 ZIN A   1      16.314  -6.338   8.528  0.00  0.00     0.129 C 
ATOM     20  C41 ZIN A   1      14.919  -5.708   8.459  0.00  0.00     0.290 C 
ATOM     21  N39 ZIN A   1      14.002  -6.674   7.847  0.00  0.00     0.094 N 
ATOM     22  C37 ZIN A   1      14.333  -6.972   6.459  0.00  0.00     0.260 C 
ATOM     23  C40 ZIN A   1      12.609  -6.229   7.972  0.00  0.00     0.310 C 
ATOM     24  C25 ZIN A   1      15.818  -7.040   6.212  0.00  0.00    -0.017 C 
ATOM     25  C36 ZIN A   1      13.580  -8.230   6.007  0.00  0.00     0.083 C 
ATOM     26  C24 ZIN A   1      16.715  -6.758   7.140  0.00  0.00    -0.001 C 
ATOM     27  C26 ZIN A   1      16.273  -7.436   4.865  0.00  0.00    -0.015 A 
ATOM     28  C31 ZIN A   1      17.460  -7.178   4.219  0.00  0.00     0.013 A 
ATOM     29  C27 ZIN A   1      15.333  -8.194   4.137  0.00  0.00     0.011 A 
ATOM     30  C30 ZIN A   1      17.660  -7.655   2.925  0.00  0.00     0.003 A 
ATOM     31  C29 ZIN A   1      16.724  -8.394   2.210  0.00  0.00     0.030 A 
ATOM     32  C28 ZIN A   1      15.511  -8.675   2.836  0.00  0.00     0.044 A 
ATOM     33  N32 ZIN A   1      14.354  -9.329   2.534  0.00  0.00    -0.349 N 
ATOM     34  C33 ZIN A   1      13.475  -9.277   3.604  0.00  0.00     0.087 A 
ATOM     35  H69 ZIN A   1      14.171  -9.769   1.689  0.00  0.00     0.166 HD
ATOM     36 Br34 ZIN A   1      11.752 -10.055   3.628  0.00  0.00    -0.031 Br
ATOM     37  C35 ZIN A   1      14.017  -8.601   4.614  0.00  0.00    -0.008 A 
ENDBRANCH  16  19
ENDBRANCH  11  15
BRANCH  11  38
ATOM     38  C42 ZIN A   1      20.350  -4.504   9.017  0.00  0.00     0.043 C 
ATOM     39  C43 ZIN A   1      20.374  -4.884  10.499  0.00  0.00     0.015 C 
ATOM     40  C44 ZIN A   1      20.366  -5.775   8.163  0.00  0.00     0.015 C 
ENDBRANCH  11  38
BRANCH   9  41
ATOM     41  O16 ZIN A   1      16.674  -1.991   9.163  0.00  0.00    -0.347 OA
ATOM     42  H63 ZIN A   1      16.477  -2.404   8.312  0.00  0.00     0.215 HD
ENDBRANCH   9  41
BRANCH   1  43
ATOM     43  C4  ZIN A   1      17.587  -0.071   6.499  0.00  0.00     0.039 C 
BRANCH  43  44
ATOM     44  C2  ZIN A   1      18.112  -0.043   5.062  0.00  0.00    -0.020 C 
ATOM     45  C1  ZIN A   1      19.619   0.219   5.074  0.00  0.00     0.009 C 
ATOM     46  C3  ZIN A   1      17.835  -1.390   4.392  0.00  0.00     0.009 C 
ENDBRANCH  43  44
ENDBRANCH   1  43
TORSDOF 6
ENDMDL
MODEL 5
REMARK VINA RESULT:      -7.7      2.094      3.143
REMARK  6 active torsions:
REMARK  status: ('A' for Active; 'I' for Inactive)
REMARK    1  A    between atoms: C2_2  and  C4_4 
REMARK    2  A    between atoms: C4_4  and  C5_5 
REMARK    3  A    between atoms: C15_13  and  O16_14 
REMARK    4  A    between atoms: C18_16  and  N19_17 
REMARK    5  A    between atoms: C18_16  and  C42_38 
REMARK       I    between atoms: N19_17  and  C20_18 
REMARK    6  A    between atoms: C20_18  and  C22_20 
ROOT
ATOM      1  C5  ZIN A   1      16.146   8.728  16.541  0.00  0.00     0.185 C 
ATOM      2  C7  ZIN A   1      15.664   8.598  17.962  0.00  0.00     0.243 C 
ATOM      3  O8  ZIN A   1      15.150   9.553  18.506  0.00  0.00    -0.271 OA
ATOM      4  N9  ZIN A   1      15.793   7.447  18.634  0.00  0.00    -0.338 N 
ATOM      5  C10 ZIN A   1      15.167   7.131  19.932  0.00  0.00     0.127 C 
ATOM      6  C11 ZIN A   1      15.007   5.598  19.992  0.00  0.00     0.022 C 
ATOM      7  C12 ZIN A   1      15.613   5.080  18.665  0.00  0.00     0.034 C 
ATOM      8  C13 ZIN A   1      16.534   6.243  18.234  0.00  0.00     0.173 C 
ATOM      9  C15 ZIN A   1      16.791   6.195  16.741  0.00  0.00     0.276 C 
ATOM     10  O17 ZIN A   1      17.999   5.469  16.458  0.00  0.00    -0.295 OA
ATOM     11  C18 ZIN A   1      18.522   6.101  15.273  0.00  0.00     0.227 C 
ATOM     12  C45 ZIN A   1      17.995   7.520  15.319  0.00  0.00     0.281 C 
ATOM     13  O46 ZIN A   1      18.425   8.466  14.693  0.00  0.00    -0.268 OA
ATOM     14  N47 ZIN A   1      16.945   7.551  16.190  0.00  0.00    -0.277 N 
ENDROOT
BRANCH  11  15
ATOM     15  N19 ZIN A   1      18.033   5.416  14.073  0.00  0.00    -0.320 N 
ATOM     16  C20 ZIN A   1      17.847   4.081  14.089  0.00  0.00     0.229 C 
ATOM     17  O21 ZIN A   1      17.981   3.463  15.124  0.00  0.00    -0.273 OA
ATOM     18  H64 ZIN A   1      17.844   5.923  13.269  0.00  0.00     0.166 HD
BRANCH  16  19
ATOM     19  C22 ZIN A   1      17.473   3.359  12.821  0.00  0.00     0.129 C 
ATOM     20  C41 ZIN A   1      18.175   4.015  11.626  0.00  0.00     0.290 C 
ATOM     21  N39 ZIN A   1      17.874   3.231  10.424  0.00  0.00     0.094 N 
ATOM     22  C37 ZIN A   1      18.425   1.883  10.471  0.00  0.00     0.260 C 
ATOM     23  C40 ZIN A   1      18.313   3.937   9.214  0.00  0.00     0.310 C 
ATOM     24  C25 ZIN A   1      18.348   1.266  11.843  0.00  0.00    -0.017 C 
ATOM     25  C36 ZIN A   1      17.777   1.022   9.378  0.00  0.00     0.083 C 
ATOM     26  C24 ZIN A   1      17.919   1.924  12.905  0.00  0.00    -0.001 C 
ATOM     27  C26 ZIN A   1      18.782  -0.137  11.991  0.00  0.00    -0.015 A 
ATOM     28  C31 ZIN A   1      19.236  -0.813  13.101  0.00  0.00     0.013 A 
ATOM     29  C27 ZIN A   1      18.719  -0.890  10.801  0.00  0.00     0.011 A 
ATOM     30  C30 ZIN A   1      19.603  -2.152  12.991  0.00  0.00     0.003 A 
ATOM     31  C29 ZIN A   1      19.546  -2.885  11.811  0.00  0.00     0.030 A 
ATOM     32  C28 ZIN A   1      19.089  -2.232  10.669  0.00  0.00     0.044 A 
ATOM     33  N32 ZIN A   1      18.880  -2.534   9.356  0.00  0.00    -0.349 N 
ATOM     34  C33 ZIN A   1      18.385  -1.431   8.679  0.00  0.00     0.087 A 
ATOM     35  H69 ZIN A   1      19.052  -3.400   8.953  0.00  0.00     0.166 HD
ATOM     36 Br34 ZIN A   1      17.948  -1.398   6.839  0.00  0.00    -0.031 Br
ATOM     37  C35 ZIN A   1      18.261  -0.398   9.507  0.00  0.00    -0.008 A 
ENDBRANCH  16  19
ENDBRANCH  11  15
BRANCH  11  38
ATOM     38  C42 ZIN A   1      20.051   6.099  15.300  0.00  0.00     0.043 C 
ATOM     39  C43 ZIN A   1      20.543   4.984  16.226  0.00  0.00     0.015 C 
ATOM     40  C44 ZIN A   1      20.585   5.861  13.886  0.00  0.00     0.015 C 
ENDBRANCH  11  38
BRANCH   9  41
ATOM     41  O16 ZIN A   1      15.701   5.540  16.090  0.00  0.00    -0.347 OA
ATOM     42  H63 ZIN A   1      15.217   6.104  15.471  0.00  0.00     0.215 HD
ENDBRANCH   9  41
BRANCH   1  43
ATOM     43  C4  ZIN A   1      14.943   8.827  15.601  0.00  0.00     0.039 C 
BRANCH  43  44
ATOM     44  C2  ZIN A   1      13.667   8.472  16.366  0.00  0.00    -0.020 C 
ATOM     45  C1  ZIN A   1      12.651   9.606  16.220  0.00  0.00     0.009 C 
ATOM     46  C3  ZIN A   1      13.075   7.180  15.798  0.00  0.00     0.009 C 
ENDBRANCH  43  44
ENDBRANCH   1  43
TORSDOF 6
ENDMDL
MODEL 6
REMARK VINA RESULT:      -7.7      6.568     12.691
REMARK  6 active torsions:
REMARK  status: ('A' for Active; 'I' for Inactive)
REMARK    1  A    between atoms: C2_2  and  C4_4 
REMARK    2  A    between atoms: C4_4  and  C5_5 
REMARK    3  A    between atoms: C15_13  and  O16_14 
REMARK    4  A    between atoms: C18_16  and  N19_17 
REMARK    5  A    between atoms: C18_16  and  C42_38 
REMARK       I    between atoms: N19_17  and  C20_18 
REMARK    6  A    between atoms: C20_18  and  C22_20 
ROOT
ATOM      1  C5  ZIN A   1      15.829  -6.825   6.570  0.00  0.00     0.185 C 
ATOM      2  C7  ZIN A   1      15.916  -7.029   5.080  0.00  0.00     0.243 C 
ATOM      3  O8  ZIN A   1      15.160  -7.810   4.541  0.00  0.00    -0.271 OA
ATOM      4  N9  ZIN A   1      16.813  -6.363   4.341  0.00  0.00    -0.338 N 
ATOM      5  C10 ZIN A   1      16.845  -6.308   2.867  0.00  0.00     0.127 C 
ATOM      6  C11 ZIN A   1      17.534  -4.983   2.483  0.00  0.00     0.022 C 
ATOM      7  C12 ZIN A   1      17.912  -4.322   3.831  0.00  0.00     0.034 C 
ATOM      8  C13 ZIN A   1      17.922  -5.520   4.806  0.00  0.00     0.173 C 
ATOM      9  C15 ZIN A   1      17.727  -5.048   6.234  0.00  0.00     0.276 C 
ATOM     10  O17 ZIN A   1      18.995  -4.840   6.876  0.00  0.00    -0.295 OA
ATOM     11  C18 ZIN A   1      18.747  -5.157   8.260  0.00  0.00     0.227 C 
ATOM     12  C45 ZIN A   1      17.596  -6.141   8.237  0.00  0.00     0.281 C 
ATOM     13  O46 ZIN A   1      17.269  -6.883   9.139  0.00  0.00    -0.268 OA
ATOM     14  N47 ZIN A   1      16.985  -6.046   7.021  0.00  0.00    -0.277 N 
ENDROOT
BRANCH  11  15
ATOM     15  N19 ZIN A   1      18.368  -3.949   8.998  0.00  0.00    -0.320 N 
ATOM     16  C20 ZIN A   1      18.355  -3.960  10.346  0.00  0.00     0.229 C 
ATOM     17  O21 ZIN A   1      18.758  -4.933  10.948  0.00  0.00    -0.273 OA
ATOM     18  H64 ZIN A   1      18.127  -3.143   8.517  0.00  0.00     0.166 HD
BRANCH  16  19
ATOM     19  C22 ZIN A   1      17.839  -2.764  11.104  0.00  0.00     0.129 C 
ATOM     20  C41 ZIN A   1      18.644  -2.585  12.396  0.00  0.00     0.290 C 
ATOM     21  N39 ZIN A   1      18.189  -1.361  13.061  0.00  0.00     0.094 N 
ATOM     22  C37 ZIN A   1      18.471  -0.156  12.290  0.00  0.00     0.260 C 
ATOM     23  C40 ZIN A   1      18.744  -1.260  14.416  0.00  0.00     0.310 C 
ATOM     24  C25 ZIN A   1      18.289  -0.354  10.808  0.00  0.00    -0.017 C 
ATOM     25  C36 ZIN A   1      17.662   1.019  12.854  0.00  0.00     0.083 C 
ATOM     26  C24 ZIN A   1      18.003  -1.525  10.267  0.00  0.00    -0.001 C 
ATOM     27  C26 ZIN A   1      18.448   0.825   9.933  0.00  0.00    -0.015 A 
ATOM     28  C31 ZIN A   1      18.773   0.901   8.598  0.00  0.00     0.013 A 
ATOM     29  C27 ZIN A   1      18.232   2.059  10.581  0.00  0.00     0.011 A 
ATOM     30  C30 ZIN A   1      18.876   2.147   7.983  0.00  0.00     0.003 A 
ATOM     31  C29 ZIN A   1      18.670   3.359   8.631  0.00  0.00     0.030 A 
ATOM     32  C28 ZIN A   1      18.337   3.319   9.983  0.00  0.00     0.044 A 
ATOM     33  N32 ZIN A   1      18.063   4.211  10.977  0.00  0.00    -0.349 N 
ATOM     34  C33 ZIN A   1      17.783   3.546  12.160  0.00  0.00     0.087 A 
ATOM     35  H69 ZIN A   1      18.063   5.175  10.871  0.00  0.00     0.166 HD
ATOM     36 Br34 ZIN A   1      17.345   4.387  13.796  0.00  0.00    -0.031 Br
ATOM     37  C35 ZIN A   1      17.866   2.230  11.982  0.00  0.00    -0.008 A 
ENDBRANCH  16  19
ENDBRANCH  11  15
BRANCH  11  38
ATOM     38  C42 ZIN A   1      19.985  -5.797   8.889  0.00  0.00     0.043 C 
ATOM     39  C43 ZIN A   1      19.843  -7.321   8.859  0.00  0.00     0.015 C 
ATOM     40  C44 ZIN A   1      21.230  -5.385   8.101  0.00  0.00     0.015 C 
ENDBRANCH  11  38
BRANCH   9  41
ATOM     41  O16 ZIN A   1      17.007  -3.814   6.234  0.00  0.00    -0.347 OA
ATOM     42  H63 ZIN A   1      17.499  -3.071   6.608  0.00  0.00     0.215 HD
ENDBRANCH   9  41
BRANCH   1  43
ATOM     43  C4  ZIN A   1      14.542  -6.070   6.907  0.00  0.00     0.039 C 
BRANCH  43  44
ATOM     44  C2  ZIN A   1      13.801  -6.803   8.027  0.00  0.00    -0.020 C 
ATOM     45  C1  ZIN A   1      12.362  -6.287   8.109  0.00  0.00     0.009 C 
ATOM     46  C3  ZIN A   1      13.787  -8.304   7.732  0.00  0.00     0.009 C 
ENDBRANCH  43  44
ENDBRANCH   1  43
TORSDOF 6
ENDMDL
MODEL 7
REMARK VINA RESULT:      -7.4      8.968     15.012
REMARK  6 active torsions:
REMARK  status: ('A' for Active; 'I' for Inactive)
REMARK    1  A    between atoms: C2_2  and  C4_4 
REMARK    2  A    between atoms: C4_4  and  C5_5 
REMARK    3  A    between atoms: C15_13  and  O16_14 
REMARK    4  A    between atoms: C18_16  and  N19_17 
REMARK    5  A    between atoms: C18_16  and  C42_38 
REMARK       I    between atoms: N19_17  and  C20_18 
REMARK    6  A    between atoms: C20_18  and  C22_20 
ROOT
ATOM      1  C5  ZIN A   1      14.245  -7.778   3.684  0.00  0.00     0.185 C 
ATOM      2  C7  ZIN A   1      14.894  -8.130   2.371  0.00  0.00     0.243 C 
ATOM      3  O8  ZIN A   1      14.196  -8.365   1.406  0.00  0.00    -0.271 OA
ATOM      4  N9  ZIN A   1      16.227  -8.186   2.250  0.00  0.00    -0.338 N 
ATOM      5  C10 ZIN A   1      16.974  -8.295   0.984  0.00  0.00     0.127 C 
ATOM      6  C11 ZIN A   1      18.361  -7.667   1.225  0.00  0.00     0.022 C 
ATOM      7  C12 ZIN A   1      18.351  -7.233   2.711  0.00  0.00     0.034 C 
ATOM      8  C13 ZIN A   1      17.236  -8.114   3.315  0.00  0.00     0.173 C 
ATOM      9  C15 ZIN A   1      16.690  -7.489   4.584  0.00  0.00     0.276 C 
ATOM     10  O17 ZIN A   1      17.373  -8.006   5.738  0.00  0.00    -0.295 OA
ATOM     11  C18 ZIN A   1      16.375  -7.989   6.777  0.00  0.00     0.227 C 
ATOM     12  C45 ZIN A   1      15.051  -8.110   6.053  0.00  0.00     0.281 C 
ATOM     13  O46 ZIN A   1      13.991  -8.434   6.544  0.00  0.00    -0.268 OA
ATOM     14  N47 ZIN A   1      15.257  -7.787   4.743  0.00  0.00    -0.277 N 
ENDROOT
BRANCH  11  15
ATOM     15  N19 ZIN A   1      16.435  -6.727   7.520  0.00  0.00    -0.320 N 
ATOM     16  C20 ZIN A   1      17.622  -6.254   7.948  0.00  0.00     0.229 C 
ATOM     17  O21 ZIN A   1      18.649  -6.814   7.628  0.00  0.00    -0.273 OA
ATOM     18  H64 ZIN A   1      15.621  -6.234   7.704  0.00  0.00     0.166 HD
BRANCH  16  19
ATOM     19  C22 ZIN A   1      17.672  -5.030   8.824  0.00  0.00     0.129 C 
ATOM     20  C41 ZIN A   1      18.917  -5.084   9.718  0.00  0.00     0.290 C 
ATOM     21  N39 ZIN A   1      18.993  -3.837  10.484  0.00  0.00     0.094 N 
ATOM     22  C37 ZIN A   1      19.203  -2.665   9.644  0.00  0.00     0.260 C 
ATOM     23  C40 ZIN A   1      20.020  -3.925  11.531  0.00  0.00     0.310 C 
ATOM     24  C25 ZIN A   1      18.449  -2.735   8.342  0.00  0.00    -0.017 C 
ATOM     25  C36 ZIN A   1      18.911  -1.392  10.452  0.00  0.00     0.083 C 
ATOM     26  C24 ZIN A   1      17.756  -3.796   7.968  0.00  0.00    -0.001 C 
ATOM     27  C26 ZIN A   1      18.502  -1.558   7.453  0.00  0.00    -0.015 A 
ATOM     28  C31 ZIN A   1      18.317  -1.465   6.092  0.00  0.00     0.013 A 
ATOM     29  C27 ZIN A   1      18.791  -0.346   8.114  0.00  0.00     0.011 A 
ATOM     30  C30 ZIN A   1      18.430  -0.227   5.464  0.00  0.00     0.003 A 
ATOM     31  C29 ZIN A   1      18.724   0.962   6.122  0.00  0.00     0.030 A 
ATOM     32  C28 ZIN A   1      18.914   0.904   7.501  0.00  0.00     0.044 A 
ATOM     33  N32 ZIN A   1      19.212   1.771   8.510  0.00  0.00    -0.349 N 
ATOM     34  C33 ZIN A   1      19.264   1.102   9.723  0.00  0.00     0.087 A 
ATOM     35  H69 ZIN A   1      19.364   2.723   8.396  0.00  0.00     0.166 HD
ATOM     36 Br34 ZIN A   1      19.640   1.912  11.389  0.00  0.00    -0.031 Br
ATOM     37  C35 ZIN A   1      19.012  -0.192   9.547  0.00  0.00    -0.008 A 
ENDBRANCH  16  19
ENDBRANCH  11  15
BRANCH  11  38
ATOM     38  C42 ZIN A   1      16.574  -9.173   7.725  0.00  0.00     0.043 C 
ATOM     39  C43 ZIN A   1      15.305 -10.027   7.748  0.00  0.00     0.015 C 
ATOM     40  C44 ZIN A   1      17.752 -10.022   7.241  0.00  0.00     0.015 C 
ENDBRANCH  11  38
BRANCH   9  41
ATOM     41  O16 ZIN A   1      16.877  -6.074   4.538  0.00  0.00    -0.347 OA
ATOM     42  H63 ZIN A   1      17.805  -5.800   4.515  0.00  0.00     0.215 HD
ENDBRANCH   9  41
BRANCH   1  43
ATOM     43  C4  ZIN A   1      13.619  -6.385   3.587  0.00  0.00     0.039 C 
BRANCH  43  44
ATOM     44  C2  ZIN A   1      13.820  -5.833   2.175  0.00  0.00    -0.020 C 
ATOM     45  C1  ZIN A   1      12.472  -5.389   1.604  0.00  0.00     0.009 C 
ATOM     46  C3  ZIN A   1      14.770  -4.635   2.226  0.00  0.00     0.009 C 
ENDBRANCH  43  44
ENDBRANCH   1  43
TORSDOF 6
ENDMDL
MODEL 8
REMARK VINA RESULT:      -7.1      2.278      3.641
REMARK  6 active torsions:
REMARK  status: ('A' for Active; 'I' for Inactive)
REMARK    1  A    between atoms: C2_2  and  C4_4 
REMARK    2  A    between atoms: C4_4  and  C5_5 
REMARK    3  A    between atoms: C15_13  and  O16_14 
REMARK    4  A    between atoms: C18_16  and  N19_17 
REMARK    5  A    between atoms: C18_16  and  C42_38 
REMARK       I    between atoms: N19_17  and  C20_18 
REMARK    6  A    between atoms: C20_18  and  C22_20 
ROOT
ATOM      1  C5  ZIN A   1      16.212   6.335  16.444  0.00  0.00     0.185 C 
ATOM      2  C7  ZIN A   1      16.408   5.949  17.886  0.00  0.00     0.243 C 
ATOM      3  O8  ZIN A   1      15.772   6.521  18.746  0.00  0.00    -0.271 OA
ATOM      4  N9  ZIN A   1      17.271   4.986  18.235  0.00  0.00    -0.338 N 
ATOM      5  C10 ZIN A   1      17.385   4.372  19.571  0.00  0.00     0.127 C 
ATOM      6  C11 ZIN A   1      17.951   2.953  19.366  0.00  0.00     0.022 C 
ATOM      7  C12 ZIN A   1      18.177   2.828  17.840  0.00  0.00     0.034 C 
ATOM      8  C13 ZIN A   1      18.256   4.302  17.386  0.00  0.00     0.173 C 
ATOM      9  C15 ZIN A   1      17.928   4.425  15.911  0.00  0.00     0.276 C 
ATOM     10  O17 ZIN A   1      19.127   4.382  15.120  0.00  0.00    -0.295 OA
ATOM     11  C18 ZIN A   1      18.832   5.220  13.985  0.00  0.00     0.227 C 
ATOM     12  C45 ZIN A   1      17.796   6.205  14.482  0.00  0.00     0.281 C 
ATOM     13  O46 ZIN A   1      17.496   7.258  13.958  0.00  0.00    -0.268 OA
ATOM     14  N47 ZIN A   1      17.251   5.701  15.627  0.00  0.00    -0.277 N 
ENDROOT
BRANCH  11  15
ATOM     15  N19 ZIN A   1      18.285   4.416  12.888  0.00  0.00    -0.320 N 
ATOM     16  C20 ZIN A   1      18.589   3.107  12.796  0.00  0.00     0.229 C 
ATOM     17  O21 ZIN A   1      19.226   2.569  13.678  0.00  0.00    -0.273 OA
ATOM     18  H64 ZIN A   1      17.706   4.827  12.229  0.00  0.00     0.166 HD
BRANCH  16  19
ATOM     19  C22 ZIN A   1      18.138   2.311  11.599  0.00  0.00     0.129 C 
ATOM     20  C41 ZIN A   1      18.875   2.800  10.347  0.00  0.00     0.290 C 
ATOM     21  N39 ZIN A   1      18.492   1.945   9.220  0.00  0.00     0.094 N 
ATOM     22  C37 ZIN A   1      18.929   0.563   9.380  0.00  0.00     0.260 C 
ATOM     23  C40 ZIN A   1      18.970   2.504   7.949  0.00  0.00     0.310 C 
ATOM     24  C25 ZIN A   1      18.822   0.076  10.801  0.00  0.00    -0.017 C 
ATOM     25  C36 ZIN A   1      18.197  -0.331   8.370  0.00  0.00     0.083 C 
ATOM     26  C24 ZIN A   1      18.464   0.857  11.805  0.00  0.00    -0.001 C 
ATOM     27  C26 ZIN A   1      19.140  -1.340  11.067  0.00  0.00    -0.015 A 
ATOM     28  C31 ZIN A   1      19.552  -1.954  12.228  0.00  0.00     0.013 A 
ATOM     29  C27 ZIN A   1      18.996  -2.186   9.948  0.00  0.00     0.011 A 
ATOM     30  C30 ZIN A   1      19.805  -3.324  12.233  0.00  0.00     0.003 A 
ATOM     31  C29 ZIN A   1      19.670  -4.149  11.122  0.00  0.00     0.030 A 
ATOM     32  C28 ZIN A   1      19.252  -3.561   9.930  0.00  0.00     0.044 A 
ATOM     33  N32 ZIN A   1      18.999  -3.956   8.650  0.00  0.00    -0.349 N 
ATOM     34  C33 ZIN A   1      18.588  -2.878   7.883  0.00  0.00     0.087 A 
ATOM     35  H69 ZIN A   1      19.093  -4.865   8.323  0.00  0.00     0.166 HD
ATOM     36 Br34 ZIN A   1      18.128  -2.967   6.051  0.00  0.00    -0.031 Br
ATOM     37  C35 ZIN A   1      18.562  -1.770   8.619  0.00  0.00    -0.008 A 
ENDBRANCH  16  19
ENDBRANCH  11  15
BRANCH  11  38
ATOM     38  C42 ZIN A   1      20.092   5.956  13.527  0.00  0.00     0.043 C 
ATOM     39  C43 ZIN A   1      21.012   6.191  14.727  0.00  0.00     0.015 C 
ATOM     40  C44 ZIN A   1      20.823   5.114  12.479  0.00  0.00     0.015 C 
ENDBRANCH  11  38
BRANCH   9  41
ATOM     41  O16 ZIN A   1      17.082   3.343  15.518  0.00  0.00    -0.347 OA
ATOM     42  H63 ZIN A   1      16.486   3.037  16.215  0.00  0.00     0.215 HD
ENDBRANCH   9  41
BRANCH   1  43
ATOM     43  C4  ZIN A   1      14.835   5.865  15.972  0.00  0.00     0.039 C 
BRANCH  43  44
ATOM     44  C2  ZIN A   1      14.172   6.973  15.151  0.00  0.00    -0.020 C 
ATOM     45  C1  ZIN A   1      12.716   6.598  14.869  0.00  0.00     0.009 C 
ATOM     46  C3  ZIN A   1      14.218   8.286  15.935  0.00  0.00     0.009 C 
ENDBRANCH  43  44
ENDBRANCH   1  43
TORSDOF 6
ENDMDL
MODEL 9
REMARK VINA RESULT:      -7.0      9.082     14.737
REMARK  6 active torsions:
REMARK  status: ('A' for Active; 'I' for Inactive)
REMARK    1  A    between atoms: C2_2  and  C4_4 
REMARK    2  A    between atoms: C4_4  and  C5_5 
REMARK    3  A    between atoms: C15_13  and  O16_14 
REMARK    4  A    between atoms: C18_16  and  N19_17 
REMARK    5  A    between atoms: C18_16  and  C42_38 
REMARK       I    between atoms: N19_17  and  C20_18 
REMARK    6  A    between atoms: C20_18  and  C22_20 
ROOT
ATOM      1  C5  ZIN A   1      15.673  -6.689   2.897  0.00  0.00     0.185 C 
ATOM      2  C7  ZIN A   1      16.259  -7.960   2.340  0.00  0.00     0.243 C 
ATOM      3  O8  ZIN A   1      16.381  -8.083   1.140  0.00  0.00    -0.271 OA
ATOM      4  N9  ZIN A   1      16.647  -8.955   3.148  0.00  0.00    -0.338 N 
ATOM      5  C10 ZIN A   1      17.431 -10.138   2.745  0.00  0.00     0.127 C 
ATOM      6  C11 ZIN A   1      18.196 -10.617   3.994  0.00  0.00     0.022 C 
ATOM      7  C12 ZIN A   1      17.764  -9.651   5.124  0.00  0.00     0.034 C 
ATOM      8  C13 ZIN A   1      16.428  -9.085   4.595  0.00  0.00     0.173 C 
ATOM      9  C15 ZIN A   1      16.114  -7.755   5.251  0.00  0.00     0.276 C 
ATOM     10  O17 ZIN A   1      15.284  -7.944   6.409  0.00  0.00    -0.295 OA
ATOM     11  C18 ZIN A   1      14.475  -6.753   6.462  0.00  0.00     0.227 C 
ATOM     12  C45 ZIN A   1      14.389  -6.271   5.030  0.00  0.00     0.281 C 
ATOM     13  O46 ZIN A   1      13.576  -5.490   4.582  0.00  0.00    -0.268 OA
ATOM     14  N47 ZIN A   1      15.393  -6.868   4.324  0.00  0.00    -0.277 N 
ENDROOT
BRANCH  11  15
ATOM     15  N19 ZIN A   1      15.118  -5.739   7.302  0.00  0.00    -0.320 N 
ATOM     16  C20 ZIN A   1      15.931  -6.115   8.309  0.00  0.00     0.229 C 
ATOM     17  O21 ZIN A   1      16.214  -7.286   8.454  0.00  0.00    -0.273 OA
ATOM     18  H64 ZIN A   1      14.959  -4.798   7.134  0.00  0.00     0.166 HD
BRANCH  16  19
ATOM     19  C22 ZIN A   1      16.486  -5.082   9.255  0.00  0.00     0.129 C 
ATOM     20  C41 ZIN A   1      17.779  -5.605   9.890  0.00  0.00     0.290 C 
ATOM     21  N39 ZIN A   1      18.348  -4.544  10.726  0.00  0.00     0.094 N 
ATOM     22  C37 ZIN A   1      18.769  -3.378   9.957  0.00  0.00     0.260 C 
ATOM     23  C40 ZIN A   1      19.451  -5.056  11.549  0.00  0.00     0.310 C 
ATOM     24  C25 ZIN A   1      17.835  -3.059   8.819  0.00  0.00    -0.017 C 
ATOM     25  C36 ZIN A   1      19.006  -2.194  10.904  0.00  0.00     0.083 C 
ATOM     26  C24 ZIN A   1      16.804  -3.821   8.499  0.00  0.00    -0.001 C 
ATOM     27  C26 ZIN A   1      18.102  -1.840   8.033  0.00  0.00    -0.015 A 
ATOM     28  C31 ZIN A   1      17.743  -1.519   6.743  0.00  0.00     0.013 A 
ATOM     29  C27 ZIN A   1      18.843  -0.858   8.722  0.00  0.00     0.011 A 
ATOM     30  C30 ZIN A   1      18.125  -0.293   6.205  0.00  0.00     0.003 A 
ATOM     31  C29 ZIN A   1      18.865   0.666   6.888  0.00  0.00     0.030 A 
ATOM     32  C28 ZIN A   1      19.242   0.376   8.198  0.00  0.00     0.044 A 
ATOM     33  N32 ZIN A   1      19.942   0.981   9.199  0.00  0.00    -0.349 N 
ATOM     34  C33 ZIN A   1      19.979   0.171  10.322  0.00  0.00     0.087 A 
ATOM     35  H69 ZIN A   1      20.355   1.857   9.134  0.00  0.00     0.166 HD
ATOM     36 Br34 ZIN A   1      20.838   0.614  11.947  0.00  0.00    -0.031 Br
ATOM     37  C35 ZIN A   1      19.323  -0.964  10.095  0.00  0.00    -0.008 A 
ENDBRANCH  16  19
ENDBRANCH  11  15
BRANCH  11  38
ATOM     38  C42 ZIN A   1      13.081  -7.080   6.999  0.00  0.00     0.043 C 
ATOM     39  C43 ZIN A   1      12.898  -8.598   7.054  0.00  0.00     0.015 C 
ATOM     40  C44 ZIN A   1      12.926  -6.496   8.405  0.00  0.00     0.015 C 
ENDBRANCH  11  38
BRANCH   9  41
ATOM     41  O16 ZIN A   1      17.330  -7.125   5.659  0.00  0.00    -0.347 OA
ATOM     42  H63 ZIN A   1      17.860  -7.653   6.272  0.00  0.00     0.215 HD
ENDBRANCH   9  41
BRANCH   1  43
ATOM     43  C4  ZIN A   1      16.671  -5.544   2.712  0.00  0.00     0.039 C 
BRANCH  43  44
ATOM     44  C2  ZIN A   1      15.910  -4.243   2.447  0.00  0.00    -0.020 C 
ATOM     45  C1  ZIN A   1      16.445  -3.143   3.367  0.00  0.00     0.009 C 
ATOM     46  C3  ZIN A   1      16.105  -3.827   0.988  0.00  0.00     0.009 C 
ENDBRANCH  43  44
ENDBRANCH   1  43
TORSDOF 6
ENDMDL
