MODEL 1
REMARK VINA RESULT:      -6.6      0.000      0.000
REMARK  4 active torsions:
REMARK  status: ('A' for Active; 'I' for Inactive)
REMARK    1  A    between atoms: C4_4  and  C5_5 
REMARK    2  A    between atoms: C9_9  and  O10_10 
REMARK    3  A    between atoms: C13_13  and  C14_14 
REMARK    4  A    between atoms: C14_14  and  C15_15 
ROOT
ATOM      1  C1  ZIN A   1      17.607   0.386   5.898  0.00  0.00     0.049 C 
ATOM      2  C2  ZIN A   1      18.118  -0.678   6.835  0.00  0.00    -0.054 A 
ATOM      3  C3  ZIN A   1      17.873  -0.579   8.192  0.00  0.00     0.018 A 
ATOM      4  C4  ZIN A   1      18.339  -1.553   9.053  0.00  0.00    -0.016 A 
ATOM      5  C9  ZIN A   1      19.054  -2.633   8.555  0.00  0.00     0.079 A 
ATOM      6  C11 ZIN A   1      19.299  -2.731   7.193  0.00  0.00    -0.021 A 
ATOM      7  C12 ZIN A   1      20.075  -3.903   6.648  0.00  0.00     0.052 C 
ATOM      8  C13 ZIN A   1      18.826  -1.757   6.336  0.00  0.00    -0.036 A 
ENDROOT
BRANCH   8   9
ATOM      9  C14 ZIN A   1      19.091  -1.862   4.855  0.00  0.00     0.115 C 
BRANCH   9  10
ATOM     10  C15 ZIN A   1      18.145  -2.866   4.247  0.00  0.00     0.077 A 
ATOM     11  N20 ZIN A   1      18.557  -3.838   3.466  0.00  0.00    -0.378 N 
ATOM     12  C19 ZIN A   1      17.399  -4.642   3.042  0.00  0.00     0.140 A 
ATOM     13  H44 ZIN A   1      19.477  -4.002   3.213  0.00  0.00     0.160 HD
ATOM     14  C18 ZIN A   1      16.210  -3.939   3.729  0.00  0.00     0.140 A 
ATOM     15  N16 ZIN A   1      16.850  -2.831   4.456  0.00  0.00    -0.378 N 
ATOM     16  H17 ZIN A   1      16.388  -2.177   5.004  0.00  0.00     0.160 HD
ENDBRANCH   9  10
ENDBRANCH   8   9
BRANCH   5  17
ATOM     17  O10 ZIN A   1      19.513  -3.593   9.400  0.00  0.00    -0.360 OA
ATOM     18  H34 ZIN A   1      20.435  -3.843   9.248  0.00  0.00     0.217 HD
ENDBRANCH   5  17
BRANCH   4  19
ATOM     19  C5  ZIN A   1      18.072  -1.443  10.532  0.00  0.00    -0.021 C 
ATOM     20  C6  ZIN A   1      19.383  -1.160  11.268  0.00  0.00     0.019 C 
ATOM     21  C7  ZIN A   1      17.086  -0.302  10.788  0.00  0.00     0.019 C 
ATOM     22  C8  ZIN A   1      17.474  -2.756  11.042  0.00  0.00     0.019 C 
ENDBRANCH   4  19
TORSDOF 4
ENDMDL
MODEL 2
REMARK VINA RESULT:      -6.4      6.084      9.177
REMARK  4 active torsions:
REMARK  status: ('A' for Active; 'I' for Inactive)
REMARK    1  A    between atoms: C4_4  and  C5_5 
REMARK    2  A    between atoms: C9_9  and  O10_10 
REMARK    3  A    between atoms: C13_13  and  C14_14 
REMARK    4  A    between atoms: C14_14  and  C15_15 
ROOT
ATOM      1  C1  ZIN A   1      17.241   5.413  10.723  0.00  0.00     0.049 C 
ATOM      2  C2  ZIN A   1      17.621   3.995  11.061  0.00  0.00    -0.054 A 
ATOM      3  C3  ZIN A   1      17.997   3.122  10.056  0.00  0.00     0.018 A 
ATOM      4  C4  ZIN A   1      18.347   1.822  10.364  0.00  0.00    -0.016 A 
ATOM      5  C9  ZIN A   1      18.321   1.392  11.682  0.00  0.00     0.079 A 
ATOM      6  C11 ZIN A   1      17.944   2.268  12.689  0.00  0.00    -0.021 A 
ATOM      7  C12 ZIN A   1      17.915   1.803  14.122  0.00  0.00     0.052 C 
ATOM      8  C13 ZIN A   1      17.600   3.569  12.376  0.00  0.00    -0.036 A 
ENDROOT
BRANCH   8   9
ATOM      9  C14 ZIN A   1      17.189   4.523  13.470  0.00  0.00     0.115 C 
BRANCH   9  10
ATOM     10  C15 ZIN A   1      18.418   5.021  14.187  0.00  0.00     0.077 A 
ATOM     11  N20 ZIN A   1      18.486   5.102  15.495  0.00  0.00    -0.378 N 
ATOM     12  C19 ZIN A   1      19.809   5.619  15.881  0.00  0.00     0.140 A 
ATOM     13  H44 ZIN A   1      17.778   4.856  16.110  0.00  0.00     0.160 HD
ATOM     14  C18 ZIN A   1      20.512   5.837  14.526  0.00  0.00     0.140 A 
ATOM     15  N16 ZIN A   1      19.497   5.411  13.549  0.00  0.00    -0.378 N 
ATOM     16  H17 ZIN A   1      19.608   5.416  12.585  0.00  0.00     0.160 HD
ENDBRANCH   9  10
ENDBRANCH   8   9
BRANCH   5  17
ATOM     17  O10 ZIN A   1      18.665   0.112  11.986  0.00  0.00    -0.360 OA
ATOM     18  H34 ZIN A   1      18.750  -0.057  12.935  0.00  0.00     0.217 HD
ENDBRANCH   5  17
BRANCH   4  19
ATOM     19  C5  ZIN A   1      18.756   0.873   9.268  0.00  0.00    -0.021 C 
ATOM     20  C6  ZIN A   1      17.587  -0.056   8.934  0.00  0.00     0.019 C 
ATOM     21  C7  ZIN A   1      19.145   1.670   8.021  0.00  0.00     0.019 C 
ATOM     22  C8  ZIN A   1      19.953   0.040   9.733  0.00  0.00     0.019 C 
ENDBRANCH   4  19
TORSDOF 4
ENDMDL
MODEL 3
REMARK VINA RESULT:      -6.4      4.753      6.700
REMARK  4 active torsions:
REMARK  status: ('A' for Active; 'I' for Inactive)
REMARK    1  A    between atoms: C4_4  and  C5_5 
REMARK    2  A    between atoms: C9_9  and  O10_10 
REMARK    3  A    between atoms: C13_13  and  C14_14 
REMARK    4  A    between atoms: C14_14  and  C15_15 
ROOT
ATOM      1  C1  ZIN A   1      19.262  -1.278  14.294  0.00  0.00     0.049 C 
ATOM      2  C2  ZIN A   1      19.260  -1.676  12.840  0.00  0.00    -0.054 A 
ATOM      3  C3  ZIN A   1      18.699  -2.880  12.455  0.00  0.00     0.018 A 
ATOM      4  C4  ZIN A   1      18.695  -3.248  11.124  0.00  0.00    -0.016 A 
ATOM      5  C9  ZIN A   1      19.254  -2.408  10.172  0.00  0.00     0.079 A 
ATOM      6  C11 ZIN A   1      19.817  -1.200  10.560  0.00  0.00    -0.021 A 
ATOM      7  C12 ZIN A   1      20.425  -0.285   9.528  0.00  0.00     0.052 C 
ATOM      8  C13 ZIN A   1      19.813  -0.835  11.892  0.00  0.00    -0.036 A 
ENDROOT
BRANCH   8   9
ATOM      9  C14 ZIN A   1      20.424   0.477  12.315  0.00  0.00     0.115 C 
BRANCH   9  10
ATOM     10  C15 ZIN A   1      19.501   1.606  11.933  0.00  0.00     0.077 A 
ATOM     11  N20 ZIN A   1      19.923   2.680  11.309  0.00  0.00    -0.378 N 
ATOM     12  C19 ZIN A   1      18.786   3.585  11.077  0.00  0.00     0.140 A 
ATOM     13  H44 ZIN A   1      20.839   2.849  11.039  0.00  0.00     0.160 HD
ATOM     14  C18 ZIN A   1      17.598   2.826  11.702  0.00  0.00     0.140 A 
ATOM     15  N16 ZIN A   1      18.217   1.588  12.202  0.00  0.00    -0.378 N 
ATOM     16  H17 ZIN A   1      17.748   0.872  12.660  0.00  0.00     0.160 HD
ENDBRANCH   9  10
ENDBRANCH   8   9
BRANCH   5  17
ATOM     17  O10 ZIN A   1      19.251  -2.767   8.862  0.00  0.00    -0.360 OA
ATOM     18  H34 ZIN A   1      19.740  -2.163   8.287  0.00  0.00     0.217 HD
ENDBRANCH   5  17
BRANCH   4  19
ATOM     19  C5  ZIN A   1      18.084  -4.560  10.706  0.00  0.00    -0.021 C 
ATOM     20  C6  ZIN A   1      17.535  -5.283  11.938  0.00  0.00     0.019 C 
ATOM     21  C7  ZIN A   1      16.944  -4.300   9.718  0.00  0.00     0.019 C 
ATOM     22  C8  ZIN A   1      19.150  -5.430  10.037  0.00  0.00     0.019 C 
ENDBRANCH   4  19
TORSDOF 4
ENDMDL
MODEL 4
REMARK VINA RESULT:      -6.4      4.508      6.254
REMARK  4 active torsions:
REMARK  status: ('A' for Active; 'I' for Inactive)
REMARK    1  A    between atoms: C4_4  and  C5_5 
REMARK    2  A    between atoms: C9_9  and  O10_10 
REMARK    3  A    between atoms: C13_13  and  C14_14 
REMARK    4  A    between atoms: C14_14  and  C15_15 
ROOT
ATOM      1  C1  ZIN A   1      18.844   1.228   7.999  0.00  0.00     0.049 C 
ATOM      2  C2  ZIN A   1      19.025   1.629   9.440  0.00  0.00    -0.054 A 
ATOM      3  C3  ZIN A   1      18.513   2.832   9.892  0.00  0.00     0.018 A 
ATOM      4  C4  ZIN A   1      18.676   3.201  11.213  0.00  0.00    -0.016 A 
ATOM      5  C9  ZIN A   1      19.354   2.364  12.087  0.00  0.00     0.079 A 
ATOM      6  C11 ZIN A   1      19.868   1.158  11.632  0.00  0.00    -0.021 A 
ATOM      7  C12 ZIN A   1      20.605   0.247  12.580  0.00  0.00     0.052 C 
ATOM      8  C13 ZIN A   1      19.697   0.791  10.312  0.00  0.00    -0.036 A 
ENDROOT
BRANCH   8   9
ATOM      9  C14 ZIN A   1      20.254  -0.520   9.816  0.00  0.00     0.115 C 
BRANCH   9  10
ATOM     10  C15 ZIN A   1      19.409  -1.653  10.339  0.00  0.00     0.077 A 
ATOM     11  N20 ZIN A   1      18.098  -1.591  10.384  0.00  0.00    -0.378 N 
ATOM     12  C19 ZIN A   1      17.573  -2.849  10.938  0.00  0.00     0.140 A 
ATOM     13  H44 ZIN A   1      17.562  -0.838  10.094  0.00  0.00     0.160 HD
ATOM     14  C18 ZIN A   1      18.847  -3.670  11.221  0.00  0.00     0.140 A 
ATOM     15  N16 ZIN A   1      19.929  -2.772  10.786  0.00  0.00    -0.378 N 
ATOM     16  H17 ZIN A   1      20.877  -2.975  10.824  0.00  0.00     0.160 HD
ENDBRANCH   9  10
ENDBRANCH   8   9
BRANCH   5  17
ATOM     17  O10 ZIN A   1      19.516   2.726  13.387  0.00  0.00    -0.360 OA
ATOM     18  H34 ZIN A   1      20.021   2.090  13.912  0.00  0.00     0.217 HD
ENDBRANCH   5  17
BRANCH   4  19
ATOM     19  C5  ZIN A   1      18.118   4.511  11.703  0.00  0.00    -0.021 C 
ATOM     20  C6  ZIN A   1      17.009   4.244  12.723  0.00  0.00     0.019 C 
ATOM     21  C7  ZIN A   1      19.233   5.326  12.363  0.00  0.00     0.019 C 
ATOM     22  C8  ZIN A   1      17.545   5.297  10.522  0.00  0.00     0.019 C 
ENDBRANCH   4  19
TORSDOF 4
ENDMDL
MODEL 5
REMARK VINA RESULT:      -6.4      4.995      7.452
REMARK  4 active torsions:
REMARK  status: ('A' for Active; 'I' for Inactive)
REMARK    1  A    between atoms: C4_4  and  C5_5 
REMARK    2  A    between atoms: C9_9  and  O10_10 
REMARK    3  A    between atoms: C13_13  and  C14_14 
REMARK    4  A    between atoms: C14_14  and  C15_15 
ROOT
ATOM      1  C1  ZIN A   1      20.812  -0.128  11.877  0.00  0.00     0.049 C 
ATOM      2  C2  ZIN A   1      19.998   0.581  12.929  0.00  0.00    -0.054 A 
ATOM      3  C3  ZIN A   1      19.705  -0.057  14.120  0.00  0.00     0.018 A 
ATOM      4  C4  ZIN A   1      18.959   0.590  15.086  0.00  0.00    -0.016 A 
ATOM      5  C9  ZIN A   1      18.505   1.881  14.861  0.00  0.00     0.079 A 
ATOM      6  C11 ZIN A   1      18.801   2.520  13.665  0.00  0.00    -0.021 A 
ATOM      7  C12 ZIN A   1      18.308   3.922  13.417  0.00  0.00     0.052 C 
ATOM      8  C13 ZIN A   1      19.551   1.869  12.704  0.00  0.00    -0.036 A 
ENDROOT
BRANCH   8   9
ATOM      9  C14 ZIN A   1      19.873   2.562  11.404  0.00  0.00     0.115 C 
BRANCH   9  10
ATOM     10  C15 ZIN A   1      19.175   1.853  10.272  0.00  0.00     0.077 A 
ATOM     11  N20 ZIN A   1      17.964   1.361  10.389  0.00  0.00    -0.378 N 
ATOM     12  C19 ZIN A   1      17.568   0.739   9.116  0.00  0.00     0.140 A 
ATOM     13  H44 ZIN A   1      17.415   1.406  11.187  0.00  0.00     0.160 HD
ATOM     14  C18 ZIN A   1      18.803   0.955   8.218  0.00  0.00     0.140 A 
ATOM     15  N16 ZIN A   1      19.735   1.677   9.099  0.00  0.00    -0.378 N 
ATOM     16  H17 ZIN A   1      20.625   1.976   8.850  0.00  0.00     0.160 HD
ENDBRANCH   9  10
ENDBRANCH   8   9
BRANCH   5  17
ATOM     17  O10 ZIN A   1      17.772   2.519  15.810  0.00  0.00    -0.360 OA
ATOM     18  H34 ZIN A   1      16.965   2.932  15.473  0.00  0.00     0.217 HD
ENDBRANCH   5  17
BRANCH   4  19
ATOM     19  C5  ZIN A   1      18.640  -0.106  16.383  0.00  0.00    -0.021 C 
ATOM     20  C6  ZIN A   1      19.250   0.678  17.547  0.00  0.00     0.019 C 
ATOM     21  C7  ZIN A   1      17.122  -0.184  16.561  0.00  0.00     0.019 C 
ATOM     22  C8  ZIN A   1      19.223  -1.521  16.361  0.00  0.00     0.019 C 
ENDBRANCH   4  19
TORSDOF 4
ENDMDL
MODEL 6
REMARK VINA RESULT:      -6.4      4.066      6.983
REMARK  4 active torsions:
REMARK  status: ('A' for Active; 'I' for Inactive)
REMARK    1  A    between atoms: C4_4  and  C5_5 
REMARK    2  A    between atoms: C9_9  and  O10_10 
REMARK    3  A    between atoms: C13_13  and  C14_14 
REMARK    4  A    between atoms: C14_14  and  C15_15 
ROOT
ATOM      1  C1  ZIN A   1      18.243   3.607   9.983  0.00  0.00     0.049 C 
ATOM      2  C2  ZIN A   1      18.713   2.222   9.617  0.00  0.00    -0.054 A 
ATOM      3  C3  ZIN A   1      18.340   1.664   8.408  0.00  0.00     0.018 A 
ATOM      4  C4  ZIN A   1      18.770   0.396   8.070  0.00  0.00    -0.016 A 
ATOM      5  C9  ZIN A   1      19.578  -0.318   8.944  0.00  0.00     0.079 A 
ATOM      6  C11 ZIN A   1      19.951   0.244  10.156  0.00  0.00    -0.021 A 
ATOM      7  C12 ZIN A   1      20.827  -0.528  11.108  0.00  0.00     0.052 C 
ATOM      8  C13 ZIN A   1      19.522   1.515  10.487  0.00  0.00    -0.036 A 
ENDROOT
BRANCH   8   9
ATOM      9  C14 ZIN A   1      19.927   2.127  11.804  0.00  0.00     0.115 C 
BRANCH   9  10
ATOM     10  C15 ZIN A   1      19.133   1.491  12.917  0.00  0.00     0.077 A 
ATOM     11  N20 ZIN A   1      19.670   1.174  14.073  0.00  0.00    -0.378 N 
ATOM     12  C19 ZIN A   1      18.640   0.580  14.939  0.00  0.00     0.140 A 
ATOM     13  H44 ZIN A   1      20.597   1.315  14.317  0.00  0.00     0.160 HD
ATOM     14  C18 ZIN A   1      17.377   0.602  14.053  0.00  0.00     0.140 A 
ATOM     15  N16 ZIN A   1      17.857   1.210  12.801  0.00  0.00    -0.378 N 
ATOM     16  H17 ZIN A   1      17.314   1.377  12.014  0.00  0.00     0.160 HD
ENDBRANCH   9  10
ENDBRANCH   8   9
BRANCH   5  17
ATOM     17  O10 ZIN A   1      20.002  -1.566   8.613  0.00  0.00    -0.360 OA
ATOM     18  H34 ZIN A   1      20.963  -1.650   8.547  0.00  0.00     0.217 HD
ENDBRANCH   5  17
BRANCH   4  19
ATOM     19  C5  ZIN A   1      18.364  -0.212   6.753  0.00  0.00    -0.021 C 
ATOM     20  C6  ZIN A   1      16.910   0.156   6.448  0.00  0.00     0.019 C 
ATOM     21  C7  ZIN A   1      19.269   0.325   5.642  0.00  0.00     0.019 C 
ATOM     22  C8  ZIN A   1      18.499  -1.734   6.828  0.00  0.00     0.019 C 
ENDBRANCH   4  19
TORSDOF 4
ENDMDL
MODEL 7
REMARK VINA RESULT:      -6.4      4.008      6.473
REMARK  4 active torsions:
REMARK  status: ('A' for Active; 'I' for Inactive)
REMARK    1  A    between atoms: C4_4  and  C5_5 
REMARK    2  A    between atoms: C9_9  and  O10_10 
REMARK    3  A    between atoms: C13_13  and  C14_14 
REMARK    4  A    between atoms: C14_14  and  C15_15 
ROOT
ATOM      1  C1  ZIN A   1      16.916  -4.312  11.842  0.00  0.00     0.049 C 
ATOM      2  C2  ZIN A   1      17.342  -4.990  10.565  0.00  0.00    -0.054 A 
ATOM      3  C3  ZIN A   1      16.389  -5.506   9.706  0.00  0.00     0.018 A 
ATOM      4  C4  ZIN A   1      16.776  -6.127   8.535  0.00  0.00    -0.016 A 
ATOM      5  C9  ZIN A   1      18.123  -6.233   8.220  0.00  0.00     0.079 A 
ATOM      6  C11 ZIN A   1      19.078  -5.714   9.083  0.00  0.00    -0.021 A 
ATOM      7  C12 ZIN A   1      20.542  -5.828   8.744  0.00  0.00     0.052 C 
ATOM      8  C13 ZIN A   1      18.684  -5.090  10.251  0.00  0.00    -0.036 A 
ENDROOT
BRANCH   8   9
ATOM      9  C14 ZIN A   1      19.721  -4.525  11.189  0.00  0.00     0.115 C 
BRANCH   9  10
ATOM     10  C15 ZIN A   1      19.753  -3.024  11.057  0.00  0.00     0.077 A 
ATOM     11  N20 ZIN A   1      19.898  -2.229  12.091  0.00  0.00    -0.378 N 
ATOM     12  C19 ZIN A   1      19.893  -0.831  11.632  0.00  0.00     0.140 A 
ATOM     13  H44 ZIN A   1      19.997  -2.518  13.011  0.00  0.00     0.160 HD
ATOM     14  C18 ZIN A   1      19.706  -0.961  10.106  0.00  0.00     0.140 A 
ATOM     15  N16 ZIN A   1      19.634  -2.416   9.900  0.00  0.00    -0.378 N 
ATOM     16  H17 ZIN A   1      19.518  -2.856   9.043  0.00  0.00     0.160 HD
ENDBRANCH   9  10
ENDBRANCH   8   9
BRANCH   5  17
ATOM     17  O10 ZIN A   1      18.507  -6.844   7.068  0.00  0.00    -0.360 OA
ATOM     18  H34 ZIN A   1      17.857  -6.780   6.355  0.00  0.00     0.217 HD
ENDBRANCH   5  17
BRANCH   4  19
ATOM     19  C5  ZIN A   1      15.737  -6.689   7.600  0.00  0.00    -0.021 C 
ATOM     20  C6  ZIN A   1      15.846  -8.215   7.575  0.00  0.00     0.019 C 
ATOM     21  C7  ZIN A   1      14.343  -6.286   8.086  0.00  0.00     0.019 C 
ATOM     22  C8  ZIN A   1      15.965  -6.138   6.192  0.00  0.00     0.019 C 
ENDBRANCH   4  19
TORSDOF 4
ENDMDL
MODEL 8
REMARK VINA RESULT:      -6.4      3.922      6.025
REMARK  4 active torsions:
REMARK  status: ('A' for Active; 'I' for Inactive)
REMARK    1  A    between atoms: C4_4  and  C5_5 
REMARK    2  A    between atoms: C9_9  and  O10_10 
REMARK    3  A    between atoms: C13_13  and  C14_14 
REMARK    4  A    between atoms: C14_14  and  C15_15 
ROOT
ATOM      1  C1  ZIN A   1      16.532   0.038  11.862  0.00  0.00     0.049 C 
ATOM      2  C2  ZIN A   1      17.363  -0.839  10.961  0.00  0.00    -0.054 A 
ATOM      3  C3  ZIN A   1      17.604  -2.156  11.311  0.00  0.00     0.018 A 
ATOM      4  C4  ZIN A   1      18.364  -2.962  10.487  0.00  0.00    -0.016 A 
ATOM      5  C9  ZIN A   1      18.886  -2.451   9.307  0.00  0.00     0.079 A 
ATOM      6  C11 ZIN A   1      18.643  -1.130   8.958  0.00  0.00    -0.021 A 
ATOM      7  C12 ZIN A   1      19.208  -0.572   7.677  0.00  0.00     0.052 C 
ATOM      8  C13 ZIN A   1      17.878  -0.330   9.783  0.00  0.00    -0.036 A 
ENDROOT
BRANCH   8   9
ATOM      9  C14 ZIN A   1      17.612   1.106   9.405  0.00  0.00     0.115 C 
BRANCH   9  10
ATOM     10  C15 ZIN A   1      18.414   2.016  10.300  0.00  0.00     0.077 A 
ATOM     11  N20 ZIN A   1      17.906   3.100  10.838  0.00  0.00    -0.378 N 
ATOM     12  C19 ZIN A   1      18.934   3.763  11.656  0.00  0.00     0.140 A 
ATOM     13  H44 ZIN A   1      16.996   3.411  10.719  0.00  0.00     0.160 HD
ATOM     14  C18 ZIN A   1      20.165   2.850  11.484  0.00  0.00     0.140 A 
ATOM     15  N16 ZIN A   1      19.671   1.785  10.595  0.00  0.00    -0.378 N 
ATOM     16  H17 ZIN A   1      20.194   1.032  10.278  0.00  0.00     0.160 HD
ENDBRANCH   9  10
ENDBRANCH   8   9
BRANCH   5  17
ATOM     17  O10 ZIN A   1      19.634  -3.243   8.495  0.00  0.00    -0.360 OA
ATOM     18  H34 ZIN A   1      19.905  -4.078   8.901  0.00  0.00     0.217 HD
ENDBRANCH   5  17
BRANCH   4  19
ATOM     19  C5  ZIN A   1      18.626  -4.396  10.869  0.00  0.00    -0.021 C 
ATOM     20  C6  ZIN A   1      20.068  -4.537  11.360  0.00  0.00     0.019 C 
ATOM     21  C7  ZIN A   1      17.665  -4.810  11.985  0.00  0.00     0.019 C 
ATOM     22  C8  ZIN A   1      18.411  -5.297   9.651  0.00  0.00     0.019 C 
ENDBRANCH   4  19
TORSDOF 4
ENDMDL
MODEL 9
REMARK VINA RESULT:      -6.4      3.978      5.827
REMARK  4 active torsions:
REMARK  status: ('A' for Active; 'I' for Inactive)
REMARK    1  A    between atoms: C4_4  and  C5_5 
REMARK    2  A    between atoms: C9_9  and  O10_10 
REMARK    3  A    between atoms: C13_13  and  C14_14 
REMARK    4  A    between atoms: C14_14  and  C15_15 
ROOT
ATOM      1  C1  ZIN A   1      17.377  -0.148   7.624  0.00  0.00     0.049 C 
ATOM      2  C2  ZIN A   1      18.163  -0.888   8.675  0.00  0.00    -0.054 A 
ATOM      3  C3  ZIN A   1      17.839  -2.196   8.986  0.00  0.00     0.018 A 
ATOM      4  C4  ZIN A   1      18.559  -2.876   9.949  0.00  0.00    -0.016 A 
ATOM      5  C9  ZIN A   1      19.608  -2.248  10.603  0.00  0.00     0.079 A 
ATOM      6  C11 ZIN A   1      19.932  -0.935  10.289  0.00  0.00    -0.021 A 
ATOM      7  C12 ZIN A   1      21.072  -0.249  10.998  0.00  0.00     0.052 C 
ATOM      8  C13 ZIN A   1      19.212  -0.261   9.322  0.00  0.00    -0.036 A 
ENDROOT
BRANCH   8   9
ATOM      9  C14 ZIN A   1      19.564   1.165   8.980  0.00  0.00     0.115 C 
BRANCH   9  10
ATOM     10  C15 ZIN A   1      19.041   2.082  10.056  0.00  0.00     0.077 A 
ATOM     11  N20 ZIN A   1      17.766   2.158  10.358  0.00  0.00    -0.378 N 
ATOM     12  C19 ZIN A   1      17.583   3.133  11.445  0.00  0.00     0.140 A 
ATOM     13  H44 ZIN A   1      17.058   1.649   9.935  0.00  0.00     0.160 HD
ATOM     14  C18 ZIN A   1      19.018   3.628  11.721  0.00  0.00     0.140 A 
ATOM     15  N16 ZIN A   1      19.827   2.865  10.757  0.00  0.00    -0.378 N 
ATOM     16  H17 ZIN A   1      20.790   2.931  10.656  0.00  0.00     0.160 HD
ENDBRANCH   9  10
ENDBRANCH   8   9
BRANCH   5  17
ATOM     17  O10 ZIN A   1      20.318  -2.916  11.550  0.00  0.00    -0.360 OA
ATOM     18  H34 ZIN A   1      19.996  -2.780  12.452  0.00  0.00     0.217 HD
ENDBRANCH   5  17
BRANCH   4  19
ATOM     19  C5  ZIN A   1      18.204  -4.301  10.287  0.00  0.00    -0.021 C 
ATOM     20  C6  ZIN A   1      17.853  -4.400  11.773  0.00  0.00     0.019 C 
ATOM     21  C7  ZIN A   1      17.002  -4.740   9.449  0.00  0.00     0.019 C 
ATOM     22  C8  ZIN A   1      19.397  -5.210   9.983  0.00  0.00     0.019 C 
ENDBRANCH   4  19
TORSDOF 4
ENDMDL
