MODEL 1
REMARK VINA RESULT:      -9.3      0.000      0.000
REMARK  8 active torsions:
REMARK  status: ('A' for Active; 'I' for Inactive)
REMARK    1  A    between atoms: C2_2  and  N4_4 
REMARK    2  A    between atoms: C2_2  and  C35_33 
REMARK       I    between atoms: N4_4  and  C5_5 
REMARK    3  A    between atoms: C5_5  and  C7_7 
REMARK    4  A    between atoms: C9_9  and  O10_10 
REMARK    5  A    between atoms: C17_16  and  O18_17 
REMARK    6  A    between atoms: N29_27  and  C31_29 
REMARK    7  A    between atoms: C31_29  and  C32_30 
REMARK    8  A    between atoms: C37_35  and  C38_36 
ROOT
ATOM      1  C7  ZIN A   1      19.034  -1.007  13.361  0.00  0.00     0.153 C 
ATOM      2  C8  ZIN A   1      17.992  -0.725  12.277  0.00  0.00     0.063 C 
ATOM      3  C9  ZIN A   1      18.649  -0.892  10.908  0.00  0.00     0.102 C 
ATOM      4  C11 ZIN A   1      17.623  -0.649   9.799  0.00  0.00     0.227 C 
ATOM      5  C13 ZIN A   1      16.957   0.715   9.849  0.00  0.00     0.075 C 
ATOM      6  C14 ZIN A   1      17.845   1.792  10.380  0.00  0.00    -0.046 A 
ATOM      7  C15 ZIN A   1      19.120   1.474  10.788  0.00  0.00    -0.001 A 
ATOM      8  C16 ZIN A   1      20.007   2.336  11.416  0.00  0.00     0.110 A 
ATOM      9  C17 ZIN A   1      19.626   3.673  11.564  0.00  0.00     0.099 A 
ATOM     10  C19 ZIN A   1      18.365   4.028  11.088  0.00  0.00     0.040 A 
ATOM     11  C20 ZIN A   1      17.486   3.123  10.516  0.00  0.00     0.011 A 
ATOM     12  O21 ZIN A   1      21.107   1.662  11.817  0.00  0.00    -0.334 OA
ATOM     13  C22 ZIN A   1      20.807   0.233  11.830  0.00  0.00     0.215 C 
ATOM     14  C24 ZIN A   1      20.212  -0.096  13.189  0.00  0.00     0.170 C 
ATOM     15  O25 ZIN A   1      20.721   0.387  14.171  0.00  0.00    -0.294 OA
ATOM     16  C26 ZIN A   1      19.762   0.129  10.734  0.00  0.00     0.058 C 
ATOM     17  C27 ZIN A   1      20.393  -0.053   9.355  0.00  0.00     0.048 C 
ATOM     18  C28 ZIN A   1      19.301   0.137   8.294  0.00  0.00     0.236 C 
ATOM     19  N29 ZIN A   1      18.263  -0.843   8.493  0.00  0.00    -0.063 N 
ATOM     20  H30 ZIN A   1      18.661  -1.768   8.425  0.00  0.00     0.280 HD
ENDROOT
BRANCH   1  21
ATOM     21  C5  ZIN A   1      18.419  -0.777  14.717  0.00  0.00     0.230 C 
ATOM     22  N4  ZIN A   1      19.153  -0.972  15.832  0.00  0.00    -0.344 N 
ATOM     23  H52 ZIN A   1      20.076  -1.259  15.759  0.00  0.00     0.163 HD
ATOM     24  O6  ZIN A   1      17.264  -0.417  14.807  0.00  0.00    -0.273 OA
BRANCH  22  25
ATOM     25  C2  ZIN A   1      18.555  -0.749  17.150  0.00  0.00     0.095 C 
ATOM     26  C1  ZIN A   1      17.047  -0.993  17.074  0.00  0.00     0.047 C 
ATOM     27  C3  ZIN A   1      19.177  -1.713  18.162  0.00  0.00     0.047 C 
BRANCH  25  28
ATOM     28  C35 ZIN A   1      18.813   0.671  17.585  0.00  0.00     0.200 A 
ATOM     29  O45 ZIN A   1      19.705   1.073  18.496  0.00  0.00    -0.193 OA
ATOM     30  N44 ZIN A   1      19.665   2.279  18.613  0.00  0.00    -0.105 NA
ATOM     31  C37 ZIN A   1      18.758   2.778  17.814  0.00  0.00     0.189 A 
ATOM     32  N36 ZIN A   1      18.202   1.743  17.145  0.00  0.00    -0.201 NA
BRANCH  31  33
ATOM     33  C38 ZIN A   1      18.405   4.212  17.669  0.00  0.00     0.014 A 
ATOM     34  C43 ZIN A   1      18.997   4.980  16.669  0.00  0.00     0.015 A 
ATOM     35  C42 ZIN A   1      18.661   6.312  16.535  0.00  0.00     0.001 A 
ATOM     36  C41 ZIN A   1      17.746   6.888  17.399  0.00  0.00     0.000 A 
ATOM     37  C40 ZIN A   1      17.160   6.131  18.398  0.00  0.00     0.001 A 
ATOM     38  C39 ZIN A   1      17.485   4.796  18.537  0.00  0.00     0.015 A 
ENDBRANCH  31  33
ENDBRANCH  25  28
ENDBRANCH  22  25
ENDBRANCH   1  21
BRANCH   3  39
ATOM     39  O10 ZIN A   1      19.189  -2.211  10.794  0.00  0.00    -0.386 OA
ATOM     40  H56 ZIN A   1      18.570  -2.911  11.042  0.00  0.00     0.210 HD
ENDBRANCH   3  39
BRANCH  19  41
ATOM     41  C31 ZIN A   1      17.239  -0.680   7.454  0.00  0.00     0.240 C 
BRANCH  41  42
ATOM     42  C32 ZIN A   1      17.914  -0.410   6.109  0.00  0.00     0.011 A 
ATOM     43  C34 ZIN A   1      17.185  -0.868   4.845  0.00  0.00     0.007 A 
ATOM     44  C33 ZIN A   1      18.432  -1.616   5.322  0.00  0.00     0.007 A 
ENDBRANCH  41  42
ENDBRANCH  19  41
BRANCH   9  45
ATOM     45  O18 ZIN A   1      20.447   4.587  12.147  0.00  0.00    -0.358 OA
ATOM     46  H59 ZIN A   1      21.114   4.954  11.550  0.00  0.00     0.217 HD
ENDBRANCH   9  45
TORSDOF 8
ENDMDL
MODEL 2
REMARK VINA RESULT:      -8.9      6.662     10.467
REMARK  8 active torsions:
REMARK  status: ('A' for Active; 'I' for Inactive)
REMARK    1  A    between atoms: C2_2  and  N4_4 
REMARK    2  A    between atoms: C2_2  and  C35_33 
REMARK       I    between atoms: N4_4  and  C5_5 
REMARK    3  A    between atoms: C5_5  and  C7_7 
REMARK    4  A    between atoms: C9_9  and  O10_10 
REMARK    5  A    between atoms: C17_16  and  O18_17 
REMARK    6  A    between atoms: N29_27  and  C31_29 
REMARK    7  A    between atoms: C31_29  and  C32_30 
REMARK    8  A    between atoms: C37_35  and  C38_36 
ROOT
ATOM      1  C7  ZIN A   1      16.609  -7.176   8.025  0.00  0.00     0.153 C 
ATOM      2  C8  ZIN A   1      15.292  -7.085   7.253  0.00  0.00     0.063 C 
ATOM      3  C9  ZIN A   1      15.259  -8.196   6.205  0.00  0.00     0.102 C 
ATOM      4  C11 ZIN A   1      13.936  -8.153   5.436  0.00  0.00     0.227 C 
ATOM      5  C13 ZIN A   1      13.657  -6.831   4.742  0.00  0.00     0.075 C 
ATOM      6  C14 ZIN A   1      14.891  -6.132   4.271  0.00  0.00    -0.046 A 
ATOM      7  C15 ZIN A   1      16.120  -6.700   4.515  0.00  0.00    -0.001 A 
ATOM      8  C16 ZIN A   1      17.348  -6.111   4.254  0.00  0.00     0.110 A 
ATOM      9  C17 ZIN A   1      17.355  -4.878   3.592  0.00  0.00     0.099 A 
ATOM     10  C19 ZIN A   1      16.116  -4.326   3.271  0.00  0.00     0.040 A 
ATOM     11  C20 ZIN A   1      14.910  -4.921   3.601  0.00  0.00     0.011 A 
ATOM     12  O21 ZIN A   1      18.346  -6.870   4.755  0.00  0.00    -0.334 OA
ATOM     13  C22 ZIN A   1      17.787  -7.798   5.734  0.00  0.00     0.215 C 
ATOM     14  C24 ZIN A   1      17.767  -7.088   7.076  0.00  0.00     0.170 C 
ATOM     15  O25 ZIN A   1      18.732  -6.437   7.397  0.00  0.00    -0.294 OA
ATOM     16  C26 ZIN A   1      16.381  -7.999   5.198  0.00  0.00     0.058 C 
ATOM     17  C27 ZIN A   1      16.317  -9.116   4.158  0.00  0.00     0.048 C 
ATOM     18  C28 ZIN A   1      14.946  -9.060   3.472  0.00  0.00     0.236 C 
ATOM     19  N29 ZIN A   1      13.909  -9.245   4.455  0.00  0.00    -0.063 N 
ATOM     20  H30 ZIN A   1      14.037 -10.136   4.910  0.00  0.00     0.280 HD
ENDROOT
BRANCH   1  21
ATOM     21  C5  ZIN A   1      16.688  -6.043   9.015  0.00  0.00     0.230 C 
ATOM     22  N4  ZIN A   1      17.858  -5.758   9.623  0.00  0.00    -0.344 N 
ATOM     23  H52 ZIN A   1      18.648  -6.283   9.422  0.00  0.00     0.163 HD
ATOM     24  O6  ZIN A   1      15.699  -5.386   9.265  0.00  0.00    -0.273 OA
BRANCH  22  25
ATOM     25  C2  ZIN A   1      17.934  -4.657  10.585  0.00  0.00     0.095 C 
ATOM     26  C1  ZIN A   1      16.696  -4.679  11.485  0.00  0.00     0.047 C 
ATOM     27  C3  ZIN A   1      19.190  -4.816  11.444  0.00  0.00     0.047 C 
BRANCH  25  28
ATOM     28  C35 ZIN A   1      17.993  -3.346   9.845  0.00  0.00     0.200 A 
ATOM     29  O45 ZIN A   1      17.629  -2.150  10.317  0.00  0.00    -0.193 OA
ATOM     30  N44 ZIN A   1      17.804  -1.298   9.472  0.00  0.00    -0.105 NA
ATOM     31  C37 ZIN A   1      18.281  -1.839   8.382  0.00  0.00     0.189 A 
ATOM     32  N36 ZIN A   1      18.407  -3.165   8.615  0.00  0.00    -0.201 NA
BRANCH  31  33
ATOM     33  C38 ZIN A   1      18.622  -1.130   7.123  0.00  0.00     0.014 A 
ATOM     34  C43 ZIN A   1      18.948  -1.854   5.979  0.00  0.00     0.015 A 
ATOM     35  C42 ZIN A   1      19.258  -1.190   4.810  0.00  0.00     0.001 A 
ATOM     36  C41 ZIN A   1      19.258   0.193   4.776  0.00  0.00     0.000 A 
ATOM     37  C40 ZIN A   1      18.941   0.917   5.910  0.00  0.00     0.001 A 
ATOM     38  C39 ZIN A   1      18.623   0.263   7.084  0.00  0.00     0.015 A 
ENDBRANCH  31  33
ENDBRANCH  25  28
ENDBRANCH  22  25
ENDBRANCH   1  21
BRANCH   3  39
ATOM     39  O10 ZIN A   1      15.409  -9.464   6.847  0.00  0.00    -0.386 OA
ATOM     40  H56 ZIN A   1      16.235  -9.918   6.632  0.00  0.00     0.210 HD
ENDBRANCH   3  39
BRANCH  19  41
ATOM     41  C31 ZIN A   1      12.601  -9.226   3.788  0.00  0.00     0.240 C 
BRANCH  41  42
ATOM     42  C32 ZIN A   1      12.801  -9.134   2.274  0.00  0.00     0.011 A 
ATOM     43  C34 ZIN A   1      11.804  -8.291   1.479  0.00  0.00     0.007 A 
ATOM     44  C33 ZIN A   1      11.763  -9.818   1.381  0.00  0.00     0.007 A 
ENDBRANCH  41  42
ENDBRANCH  19  41
BRANCH   9  45
ATOM     45  O18 ZIN A   1      18.517  -4.247   3.278  0.00  0.00    -0.358 OA
ATOM     46  H59 ZIN A   1      18.534  -3.310   3.518  0.00  0.00     0.217 HD
ENDBRANCH   9  45
TORSDOF 8
ENDMDL
MODEL 3
REMARK VINA RESULT:      -8.8      5.190      8.313
REMARK  8 active torsions:
REMARK  status: ('A' for Active; 'I' for Inactive)
REMARK    1  A    between atoms: C2_2  and  N4_4 
REMARK    2  A    between atoms: C2_2  and  C35_33 
REMARK       I    between atoms: N4_4  and  C5_5 
REMARK    3  A    between atoms: C5_5  and  C7_7 
REMARK    4  A    between atoms: C9_9  and  O10_10 
REMARK    5  A    between atoms: C17_16  and  O18_17 
REMARK    6  A    between atoms: N29_27  and  C31_29 
REMARK    7  A    between atoms: C31_29  and  C32_30 
REMARK    8  A    between atoms: C37_35  and  C38_36 
ROOT
ATOM      1  C7  ZIN A   1      17.995  -4.450   8.713  0.00  0.00     0.153 C 
ATOM      2  C8  ZIN A   1      16.556  -4.859   8.398  0.00  0.00     0.063 C 
ATOM      3  C9  ZIN A   1      16.494  -6.381   8.276  0.00  0.00     0.102 C 
ATOM      4  C11 ZIN A   1      15.057  -6.827   7.993  0.00  0.00     0.227 C 
ATOM      5  C13 ZIN A   1      14.448  -6.221   6.741  0.00  0.00     0.075 C 
ATOM      6  C14 ZIN A   1      15.444  -5.962   5.658  0.00  0.00    -0.046 A 
ATOM      7  C15 ZIN A   1      16.770  -6.253   5.880  0.00  0.00    -0.001 A 
ATOM      8  C16 ZIN A   1      17.819  -5.951   5.023  0.00  0.00     0.110 A 
ATOM      9  C17 ZIN A   1      17.506  -5.395   3.779  0.00  0.00     0.099 A 
ATOM     10  C19 ZIN A   1      16.158  -5.163   3.509  0.00  0.00     0.040 A 
ATOM     11  C20 ZIN A   1      15.146  -5.428   4.416  0.00  0.00     0.011 A 
ATOM     12  O21 ZIN A   1      19.000  -6.234   5.614  0.00  0.00    -0.334 OA
ATOM     13  C22 ZIN A   1      18.791  -6.357   7.053  0.00  0.00     0.215 C 
ATOM     14  C24 ZIN A   1      18.920  -4.967   7.653  0.00  0.00     0.170 C 
ATOM     15  O25 ZIN A   1      19.816  -4.255   7.267  0.00  0.00    -0.294 OA
ATOM     16  C26 ZIN A   1      17.356  -6.849   7.115  0.00  0.00     0.058 C 
ATOM     17  C27 ZIN A   1      17.267  -8.370   7.010  0.00  0.00     0.048 C 
ATOM     18  C28 ZIN A   1      15.797  -8.755   6.794  0.00  0.00     0.236 C 
ATOM     19  N29 ZIN A   1      15.011  -8.292   7.910  0.00  0.00    -0.063 N 
ATOM     20  H30 ZIN A   1      15.361  -8.709   8.759  0.00  0.00     0.280 HD
ENDROOT
BRANCH   1  21
ATOM     21  C5  ZIN A   1      18.087  -2.947   8.766  0.00  0.00     0.230 C 
ATOM     22  N4  ZIN A   1      18.720  -2.346   9.794  0.00  0.00    -0.344 N 
ATOM     23  H52 ZIN A   1      19.116  -2.881  10.498  0.00  0.00     0.163 HD
ATOM     24  O6  ZIN A   1      17.592  -2.277   7.884  0.00  0.00    -0.273 OA
BRANCH  22  25
ATOM     25  C2  ZIN A   1      18.809  -0.885   9.845  0.00  0.00     0.095 C 
ATOM     26  C1  ZIN A   1      19.798  -0.396   8.785  0.00  0.00     0.047 C 
ATOM     27  C3  ZIN A   1      17.430  -0.280   9.574  0.00  0.00     0.047 C 
BRANCH  25  28
ATOM     28  C35 ZIN A   1      19.285  -0.458  11.210  0.00  0.00     0.200 A 
ATOM     29  O45 ZIN A   1      20.396   0.233  11.483  0.00  0.00    -0.193 OA
ATOM     30  N44 ZIN A   1      20.488   0.417  12.679  0.00  0.00    -0.105 NA
ATOM     31  C37 ZIN A   1      19.474  -0.131  13.296  0.00  0.00     0.189 A 
ATOM     32  N36 ZIN A   1      18.691  -0.700  12.352  0.00  0.00    -0.201 NA
BRANCH  31  33
ATOM     33  C38 ZIN A   1      19.229  -0.129  14.760  0.00  0.00     0.014 A 
ATOM     34  C43 ZIN A   1      19.050  -1.332  15.440  0.00  0.00     0.015 A 
ATOM     35  C42 ZIN A   1      18.828  -1.325  16.803  0.00  0.00     0.001 A 
ATOM     36  C41 ZIN A   1      18.771  -0.126  17.491  0.00  0.00     0.000 A 
ATOM     37  C40 ZIN A   1      18.942   1.071  16.819  0.00  0.00     0.001 A 
ATOM     38  C39 ZIN A   1      19.171   1.075  15.458  0.00  0.00     0.015 A 
ENDBRANCH  31  33
ENDBRANCH  25  28
ENDBRANCH  22  25
ENDBRANCH   1  21
BRANCH   3  39
ATOM     39  O10 ZIN A   1      16.960  -6.977   9.489  0.00  0.00    -0.386 OA
ATOM     40  H56 ZIN A   1      17.321  -6.345  10.125  0.00  0.00     0.210 HD
ENDBRANCH   3  39
BRANCH  19  41
ATOM     41  C31 ZIN A   1      13.612  -8.693   7.715  0.00  0.00     0.240 C 
BRANCH  41  42
ATOM     42  C32 ZIN A   1      13.500  -9.560   6.459  0.00  0.00     0.011 A 
ATOM     43  C34 ZIN A   1      12.523  -9.107   5.372  0.00  0.00     0.007 A 
ATOM     44  C33 ZIN A   1      12.191 -10.322   6.241  0.00  0.00     0.007 A 
ENDBRANCH  41  42
ENDBRANCH  19  41
BRANCH   9  45
ATOM     45  O18 ZIN A   1      18.474  -5.092   2.873  0.00  0.00    -0.358 OA
ATOM     46  H59 ZIN A   1      18.900  -4.237   3.023  0.00  0.00     0.217 HD
ENDBRANCH   9  45
TORSDOF 8
ENDMDL
MODEL 4
REMARK VINA RESULT:      -8.7      3.498     10.555
REMARK  8 active torsions:
REMARK  status: ('A' for Active; 'I' for Inactive)
REMARK    1  A    between atoms: C2_2  and  N4_4 
REMARK    2  A    between atoms: C2_2  and  C35_33 
REMARK       I    between atoms: N4_4  and  C5_5 
REMARK    3  A    between atoms: C5_5  and  C7_7 
REMARK    4  A    between atoms: C9_9  and  O10_10 
REMARK    5  A    between atoms: C17_16  and  O18_17 
REMARK    6  A    between atoms: N29_27  and  C31_29 
REMARK    7  A    between atoms: C31_29  and  C32_30 
REMARK    8  A    between atoms: C37_35  and  C38_36 
ROOT
ATOM      1  C7  ZIN A   1      17.971  -1.857   9.671  0.00  0.00     0.153 C 
ATOM      2  C8  ZIN A   1      18.943  -1.719  10.845  0.00  0.00     0.063 C 
ATOM      3  C9  ZIN A   1      18.143  -1.421  12.112  0.00  0.00     0.102 C 
ATOM      4  C11 ZIN A   1      19.085  -1.309  13.313  0.00  0.00     0.227 C 
ATOM      5  C13 ZIN A   1      20.164  -0.251  13.167  0.00  0.00     0.075 C 
ATOM      6  C14 ZIN A   1      19.734   0.932  12.362  0.00  0.00    -0.046 A 
ATOM      7  C15 ZIN A   1      18.470   0.955  11.822  0.00  0.00    -0.001 A 
ATOM      8  C16 ZIN A   1      17.978   1.918  10.953  0.00  0.00     0.110 A 
ATOM      9  C17 ZIN A   1      18.792   3.022  10.673  0.00  0.00     0.099 A 
ATOM     10  C19 ZIN A   1      20.049   3.049  11.274  0.00  0.00     0.040 A 
ATOM     11  C20 ZIN A   1      20.523   2.037  12.092  0.00  0.00     0.011 A 
ATOM     12  O21 ZIN A   1      16.761   1.557  10.495  0.00  0.00    -0.334 OA
ATOM     13  C22 ZIN A   1      16.572   0.128  10.731  0.00  0.00     0.215 C 
ATOM     14  C24 ZIN A   1      17.148  -0.611   9.536  0.00  0.00     0.170 C 
ATOM     15  O25 ZIN A   1      16.921  -0.183   8.431  0.00  0.00    -0.294 OA
ATOM     16  C26 ZIN A   1      17.418  -0.092  11.973  0.00  0.00     0.058 C 
ATOM     17  C27 ZIN A   1      16.637   0.185  13.256  0.00  0.00     0.048 C 
ATOM     18  C28 ZIN A   1      17.627   0.219  14.427  0.00  0.00     0.236 C 
ATOM     19  N29 ZIN A   1      18.298  -1.053  14.525  0.00  0.00    -0.063 N 
ATOM     20  H30 ZIN A   1      17.613  -1.780  14.666  0.00  0.00     0.280 HD
ENDROOT
BRANCH   1  21
ATOM     21  C5  ZIN A   1      18.750  -2.082   8.401  0.00  0.00     0.230 C 
ATOM     22  N4  ZIN A   1      18.225  -2.833   7.412  0.00  0.00    -0.344 N 
ATOM     23  H52 ZIN A   1      17.347  -3.228   7.519  0.00  0.00     0.163 HD
ATOM     24  O6  ZIN A   1      19.850  -1.585   8.268  0.00  0.00    -0.273 OA
BRANCH  22  25
ATOM     25  C2  ZIN A   1      18.983  -3.050   6.178  0.00  0.00     0.095 C 
ATOM     26  C1  ZIN A   1      19.394  -1.701   5.586  0.00  0.00     0.047 C 
ATOM     27  C3  ZIN A   1      20.235  -3.874   6.486  0.00  0.00     0.047 C 
BRANCH  25  28
ATOM     28  C35 ZIN A   1      18.125  -3.793   5.186  0.00  0.00     0.200 A 
ATOM     29  O45 ZIN A   1      18.273  -3.802   3.857  0.00  0.00    -0.193 OA
ATOM     30  N44 ZIN A   1      17.421  -4.499   3.349  0.00  0.00    -0.105 NA
ATOM     31  C37 ZIN A   1      16.641  -5.000   4.271  0.00  0.00     0.189 A 
ATOM     32  N36 ZIN A   1      17.091  -4.548   5.463  0.00  0.00    -0.201 NA
BRANCH  31  33
ATOM     33  C38 ZIN A   1      15.480  -5.898   4.050  0.00  0.00     0.014 A 
ATOM     34  C43 ZIN A   1      15.288  -6.500   2.809  0.00  0.00     0.015 A 
ATOM     35  C42 ZIN A   1      14.209  -7.339   2.611  0.00  0.00     0.001 A 
ATOM     36  C41 ZIN A   1      13.313  -7.571   3.639  0.00  0.00     0.000 A 
ATOM     37  C40 ZIN A   1      13.496  -6.971   4.871  0.00  0.00     0.001 A 
ATOM     38  C39 ZIN A   1      14.575  -6.135   5.082  0.00  0.00     0.015 A 
ENDBRANCH  31  33
ENDBRANCH  25  28
ENDBRANCH  22  25
ENDBRANCH   1  21
BRANCH   3  39
ATOM     39  O10 ZIN A   1      17.191  -2.464  12.333  0.00  0.00    -0.386 OA
ATOM     40  H56 ZIN A   1      16.444  -2.203  12.888  0.00  0.00     0.210 HD
ENDBRANCH   3  39
BRANCH  19  41
ATOM     41  C31 ZIN A   1      19.218  -1.028  15.669  0.00  0.00     0.240 C 
BRANCH  41  42
ATOM     42  C32 ZIN A   1      18.548  -0.319  16.848  0.00  0.00     0.011 A 
ATOM     43  C34 ZIN A   1      19.236   0.926  17.409  0.00  0.00     0.007 A 
ATOM     44  C33 ZIN A   1      19.253  -0.382  18.205  0.00  0.00     0.007 A 
ENDBRANCH  41  42
ENDBRANCH  19  41
BRANCH   9  45
ATOM     45  O18 ZIN A   1      18.375   4.021   9.851  0.00  0.00    -0.358 OA
ATOM     46  H59 ZIN A   1      17.414   4.092   9.774  0.00  0.00     0.217 HD
ENDBRANCH   9  45
TORSDOF 8
ENDMDL
MODEL 5
REMARK VINA RESULT:      -8.5      2.982      9.930
REMARK  8 active torsions:
REMARK  status: ('A' for Active; 'I' for Inactive)
REMARK    1  A    between atoms: C2_2  and  N4_4 
REMARK    2  A    between atoms: C2_2  and  C35_33 
REMARK       I    between atoms: N4_4  and  C5_5 
REMARK    3  A    between atoms: C5_5  and  C7_7 
REMARK    4  A    between atoms: C9_9  and  O10_10 
REMARK    5  A    between atoms: C17_16  and  O18_17 
REMARK    6  A    between atoms: N29_27  and  C31_29 
REMARK    7  A    between atoms: C31_29  and  C32_30 
REMARK    8  A    between atoms: C37_35  and  C38_36 
ROOT
ATOM      1  C7  ZIN A   1      18.945   0.648   9.130  0.00  0.00     0.153 C 
ATOM      2  C8  ZIN A   1      17.968   0.588  10.305  0.00  0.00     0.063 C 
ATOM      3  C9  ZIN A   1      18.723   0.930  11.589  0.00  0.00     0.102 C 
ATOM      4  C11 ZIN A   1      17.765   0.911  12.782  0.00  0.00     0.227 C 
ATOM      5  C13 ZIN A   1      17.045  -0.410  12.987  0.00  0.00     0.075 C 
ATOM      6  C14 ZIN A   1      17.851  -1.599  12.577  0.00  0.00    -0.046 A 
ATOM      7  C15 ZIN A   1      19.107  -1.410  12.049  0.00  0.00    -0.001 A 
ATOM      8  C16 ZIN A   1      19.915  -2.401  11.510  0.00  0.00     0.110 A 
ATOM      9  C17 ZIN A   1      19.472  -3.725  11.597  0.00  0.00     0.099 A 
ATOM     10  C19 ZIN A   1      18.233  -3.939  12.198  0.00  0.00     0.040 A 
ATOM     11  C20 ZIN A   1      17.432  -2.915  12.673  0.00  0.00     0.011 A 
ATOM     12  O21 ZIN A   1      21.011  -1.852  10.943  0.00  0.00    -0.334 OA
ATOM     13  C22 ZIN A   1      20.768  -0.429  10.725  0.00  0.00     0.215 C 
ATOM     14  C24 ZIN A   1      20.096  -0.283   9.370  0.00  0.00     0.170 C 
ATOM     15  O25 ZIN A   1      20.518  -0.935   8.446  0.00  0.00    -0.294 OA
ATOM     16  C26 ZIN A   1      19.804  -0.106  11.853  0.00  0.00     0.058 C 
ATOM     17  C27 ZIN A   1      20.533   0.254  13.145  0.00  0.00     0.048 C 
ATOM     18  C28 ZIN A   1      19.509   0.284  14.287  0.00  0.00     0.236 C 
ATOM     19  N29 ZIN A   1      18.499   1.271  14.001  0.00  0.00    -0.063 N 
ATOM     20  H30 ZIN A   1      18.937   2.174  13.900  0.00  0.00     0.280 HD
ENDROOT
BRANCH   1  21
ATOM     21  C5  ZIN A   1      18.232   0.244   7.866  0.00  0.00     0.230 C 
ATOM     22  N4  ZIN A   1      18.934   0.033   6.734  0.00  0.00    -0.344 N 
ATOM     23  H52 ZIN A   1      19.897   0.141   6.734  0.00  0.00     0.163 HD
ATOM     24  O6  ZIN A   1      17.026   0.108   7.866  0.00  0.00    -0.273 OA
BRANCH  22  25
ATOM     25  C2  ZIN A   1      18.240  -0.360   5.505  0.00  0.00     0.095 C 
ATOM     26  C1  ZIN A   1      16.791   0.130   5.557  0.00  0.00     0.047 C 
ATOM     27  C3  ZIN A   1      18.946   0.264   4.299  0.00  0.00     0.047 C 
BRANCH  25  28
ATOM     28  C35 ZIN A   1      18.257  -1.861   5.376  0.00  0.00     0.200 A 
ATOM     29  O45 ZIN A   1      18.507  -2.560   4.264  0.00  0.00    -0.193 OA
ATOM     30  N44 ZIN A   1      18.447  -3.748   4.497  0.00  0.00    -0.105 NA
ATOM     31  C37 ZIN A   1      18.149  -3.945   5.755  0.00  0.00     0.189 A 
ATOM     32  N36 ZIN A   1      18.025  -2.727   6.331  0.00  0.00    -0.201 NA
BRANCH  31  33
ATOM     33  C38 ZIN A   1      17.979  -5.257   6.426  0.00  0.00     0.014 A 
ATOM     34  C43 ZIN A   1      18.086  -5.354   7.812  0.00  0.00     0.015 A 
ATOM     35  C42 ZIN A   1      17.921  -6.576   8.430  0.00  0.00     0.001 A 
ATOM     36  C41 ZIN A   1      17.663  -7.707   7.676  0.00  0.00     0.000 A 
ATOM     37  C40 ZIN A   1      17.563  -7.619   6.300  0.00  0.00     0.001 A 
ATOM     38  C39 ZIN A   1      17.720  -6.400   5.671  0.00  0.00     0.015 A 
ENDBRANCH  31  33
ENDBRANCH  25  28
ENDBRANCH  22  25
ENDBRANCH   1  21
BRANCH   3  39
ATOM     39  O10 ZIN A   1      19.321   2.223  11.463  0.00  0.00    -0.386 OA
ATOM     40  H56 ZIN A   1      19.944   2.438  12.170  0.00  0.00     0.210 HD
ENDBRANCH   3  39
BRANCH  19  41
ATOM     41  C31 ZIN A   1      17.542   1.320  15.113  0.00  0.00     0.240 C 
BRANCH  41  42
ATOM     42  C32 ZIN A   1      18.022   0.407  16.241  0.00  0.00     0.011 A 
ATOM     43  C34 ZIN A   1      17.016  -0.586  16.826  0.00  0.00     0.007 A 
ATOM     44  C33 ZIN A   1      17.440   0.640  17.637  0.00  0.00     0.007 A 
ENDBRANCH  41  42
ENDBRANCH  19  41
BRANCH   9  45
ATOM     45  O18 ZIN A   1      20.216  -4.756  11.115  0.00  0.00    -0.358 OA
ATOM     46  H59 ZIN A   1      20.299  -4.764  10.151  0.00  0.00     0.217 HD
ENDBRANCH   9  45
TORSDOF 8
ENDMDL
MODEL 6
REMARK VINA RESULT:      -8.4      3.348      9.680
REMARK  8 active torsions:
REMARK  status: ('A' for Active; 'I' for Inactive)
REMARK    1  A    between atoms: C2_2  and  N4_4 
REMARK    2  A    between atoms: C2_2  and  C35_33 
REMARK       I    between atoms: N4_4  and  C5_5 
REMARK    3  A    between atoms: C5_5  and  C7_7 
REMARK    4  A    between atoms: C9_9  and  O10_10 
REMARK    5  A    between atoms: C17_16  and  O18_17 
REMARK    6  A    between atoms: N29_27  and  C31_29 
REMARK    7  A    between atoms: C31_29  and  C32_30 
REMARK    8  A    between atoms: C37_35  and  C38_36 
ROOT
ATOM      1  C7  ZIN A   1      19.480  -0.780   9.519  0.00  0.00     0.153 C 
ATOM      2  C8  ZIN A   1      18.369   0.211   9.869  0.00  0.00     0.063 C 
ATOM      3  C9  ZIN A   1      19.006   1.544  10.260  0.00  0.00     0.102 C 
ATOM      4  C11 ZIN A   1      17.917   2.570  10.584  0.00  0.00     0.227 C 
ATOM      5  C13 ZIN A   1      16.969   2.149  11.692  0.00  0.00     0.075 C 
ATOM      6  C14 ZIN A   1      17.612   1.294  12.735  0.00  0.00    -0.046 A 
ATOM      7  C15 ZIN A   1      18.938   0.951  12.600  0.00  0.00    -0.001 A 
ATOM      8  C16 ZIN A   1      19.631   0.067  13.413  0.00  0.00     0.110 A 
ATOM      9  C17 ZIN A   1      18.968  -0.451  14.530  0.00  0.00     0.099 A 
ATOM     10  C19 ZIN A   1      17.646  -0.054  14.722  0.00  0.00     0.040 A 
ATOM     11  C20 ZIN A   1      16.972   0.788  13.854  0.00  0.00     0.011 A 
ATOM     12  O21 ZIN A   1      20.864  -0.160  12.911  0.00  0.00    -0.334 OA
ATOM     13  C22 ZIN A   1      20.888   0.256  11.512  0.00  0.00     0.215 C 
ATOM     14  C24 ZIN A   1      20.423  -0.925  10.677  0.00  0.00     0.170 C 
ATOM     15  O25 ZIN A   1      20.842  -2.023  10.950  0.00  0.00    -0.294 OA
ATOM     16  C26 ZIN A   1      19.859   1.372  11.506  0.00  0.00     0.058 C 
ATOM     17  C27 ZIN A   1      20.472   2.720  11.879  0.00  0.00     0.048 C 
ATOM     18  C28 ZIN A   1      19.334   3.718  12.125  0.00  0.00     0.236 C 
ATOM     19  N29 ZIN A   1      18.545   3.852  10.927  0.00  0.00    -0.063 N 
ATOM     20  H30 ZIN A   1      19.135   4.173  10.174  0.00  0.00     0.280 HD
ENDROOT
BRANCH   1  21
ATOM     21  C5  ZIN A   1      18.872  -2.121   9.200  0.00  0.00     0.230 C 
ATOM     22  N4  ZIN A   1      19.643  -3.112   8.710  0.00  0.00    -0.344 N 
ATOM     23  H52 ZIN A   1      20.590  -2.961   8.562  0.00  0.00     0.163 HD
ATOM     24  O6  ZIN A   1      17.688  -2.309   9.386  0.00  0.00    -0.273 OA
BRANCH  22  25
ATOM     25  C2  ZIN A   1      19.052  -4.415   8.400  0.00  0.00     0.095 C 
ATOM     26  C1  ZIN A   1      20.115  -5.506   8.541  0.00  0.00     0.047 C 
ATOM     27  C3  ZIN A   1      17.901  -4.697   9.369  0.00  0.00     0.047 C 
BRANCH  25  28
ATOM     28  C35 ZIN A   1      18.527  -4.405   6.987  0.00  0.00     0.200 A 
ATOM     29  O45 ZIN A   1      19.171  -3.958   5.904  0.00  0.00    -0.193 OA
ATOM     30  N44 ZIN A   1      18.474  -4.093   4.920  0.00  0.00    -0.105 NA
ATOM     31  C37 ZIN A   1      17.326  -4.623   5.253  0.00  0.00     0.189 A 
ATOM     32  N36 ZIN A   1      17.353  -4.828   6.590  0.00  0.00    -0.201 NA
BRANCH  31  33
ATOM     33  C38 ZIN A   1      16.204  -4.940   4.336  0.00  0.00     0.014 A 
ATOM     34  C43 ZIN A   1      16.149  -4.359   3.071  0.00  0.00     0.015 A 
ATOM     35  C42 ZIN A   1      15.105  -4.662   2.219  0.00  0.00     0.001 A 
ATOM     36  C41 ZIN A   1      14.108  -5.532   2.625  0.00  0.00     0.000 A 
ATOM     37  C40 ZIN A   1      14.155  -6.107   3.882  0.00  0.00     0.001 A 
ATOM     38  C39 ZIN A   1      15.197  -5.815   4.739  0.00  0.00     0.015 A 
ENDBRANCH  31  33
ENDBRANCH  25  28
ENDBRANCH  22  25
ENDBRANCH   1  21
BRANCH   3  39
ATOM     39  O10 ZIN A   1      19.819   2.019   9.184  0.00  0.00    -0.386 OA
ATOM     40  H56 ZIN A   1      20.535   1.417   8.937  0.00  0.00     0.210 HD
ENDBRANCH   3  39
BRANCH  19  41
ATOM     41  C31 ZIN A   1      17.478   4.835  11.157  0.00  0.00     0.240 C 
BRANCH  41  42
ATOM     42  C32 ZIN A   1      17.445   5.214  12.639  0.00  0.00     0.011 A 
ATOM     43  C34 ZIN A   1      16.075   5.438  13.281  0.00  0.00     0.007 A 
ATOM     44  C33 ZIN A   1      16.990   6.631  12.996  0.00  0.00     0.007 A 
ENDBRANCH  41  42
ENDBRANCH  19  41
BRANCH   9  45
ATOM     45  O18 ZIN A   1      19.585  -1.305  15.390  0.00  0.00    -0.358 OA
ATOM     46  H59 ZIN A   1      19.035  -2.052  15.665  0.00  0.00     0.217 HD
ENDBRANCH   9  45
TORSDOF 8
ENDMDL
MODEL 7
REMARK VINA RESULT:      -8.4      2.634      4.062
REMARK  8 active torsions:
REMARK  status: ('A' for Active; 'I' for Inactive)
REMARK    1  A    between atoms: C2_2  and  N4_4 
REMARK    2  A    between atoms: C2_2  and  C35_33 
REMARK       I    between atoms: N4_4  and  C5_5 
REMARK    3  A    between atoms: C5_5  and  C7_7 
REMARK    4  A    between atoms: C9_9  and  O10_10 
REMARK    5  A    between atoms: C17_16  and  O18_17 
REMARK    6  A    between atoms: N29_27  and  C31_29 
REMARK    7  A    between atoms: C31_29  and  C32_30 
REMARK    8  A    between atoms: C37_35  and  C38_36 
ROOT
ATOM      1  C7  ZIN A   1      19.493   0.749  13.470  0.00  0.00     0.153 C 
ATOM      2  C8  ZIN A   1      18.422  -0.285  13.118  0.00  0.00     0.063 C 
ATOM      3  C9  ZIN A   1      19.111  -1.558  12.629  0.00  0.00     0.102 C 
ATOM      4  C11 ZIN A   1      18.066  -2.627  12.299  0.00  0.00     0.227 C 
ATOM      5  C13 ZIN A   1      17.044  -2.205  11.259  0.00  0.00     0.075 C 
ATOM      6  C14 ZIN A   1      17.589  -1.263  10.236  0.00  0.00    -0.046 A 
ATOM      7  C15 ZIN A   1      18.899  -0.852  10.329  0.00  0.00    -0.001 A 
ATOM      8  C16 ZIN A   1      19.503   0.111   9.534  0.00  0.00     0.110 A 
ATOM      9  C17 ZIN A   1      18.760   0.646   8.476  0.00  0.00     0.099 A 
ATOM     10  C19 ZIN A   1      17.454   0.184   8.323  0.00  0.00     0.040 A 
ATOM     11  C20 ZIN A   1      16.870  -0.739   9.175  0.00  0.00     0.011 A 
ATOM     12  O21 ZIN A   1      20.744   0.382   9.991  0.00  0.00    -0.334 OA
ATOM     13  C22 ZIN A   1      20.858  -0.102  11.364  0.00  0.00     0.215 C 
ATOM     14  C24 ZIN A   1      20.369   1.006  12.280  0.00  0.00     0.170 C 
ATOM     15  O25 ZIN A   1      20.714   2.139  12.047  0.00  0.00    -0.294 OA
ATOM     16  C26 ZIN A   1      19.893  -1.274  11.356  0.00  0.00     0.058 C 
ATOM     17  C27 ZIN A   1      20.561  -2.564  10.885  0.00  0.00     0.048 C 
ATOM     18  C28 ZIN A   1      19.468  -3.612  10.637  0.00  0.00     0.236 C 
ATOM     19  N29 ZIN A   1      18.746  -3.852  11.861  0.00  0.00    -0.063 N 
ATOM     20  H30 ZIN A   1      19.388  -4.176  12.568  0.00  0.00     0.280 HD
ENDROOT
BRANCH   1  21
ATOM     21  C5  ZIN A   1      18.828   2.035  13.887  0.00  0.00     0.230 C 
ATOM     22  N4  ZIN A   1      19.563   3.034  14.416  0.00  0.00    -0.344 N 
ATOM     23  H52 ZIN A   1      20.520   2.923  14.529  0.00  0.00     0.163 HD
ATOM     24  O6  ZIN A   1      17.631   2.173  13.745  0.00  0.00    -0.273 OA
BRANCH  22  25
ATOM     25  C2  ZIN A   1      18.916   4.284  14.822  0.00  0.00     0.095 C 
ATOM     26  C1  ZIN A   1      19.895   5.446  14.646  0.00  0.00     0.047 C 
ATOM     27  C3  ZIN A   1      17.680   4.523  13.953  0.00  0.00     0.047 C 
BRANCH  25  28
ATOM     28  C35 ZIN A   1      18.503   4.189  16.268  0.00  0.00     0.200 A 
ATOM     29  O45 ZIN A   1      19.104   3.469  17.220  0.00  0.00    -0.193 OA
ATOM     30  N44 ZIN A   1      18.526   3.612  18.277  0.00  0.00    -0.105 NA
ATOM     31  C37 ZIN A   1      17.505   4.414  18.125  0.00  0.00     0.189 A 
ATOM     32  N36 ZIN A   1      17.483   4.792  16.827  0.00  0.00    -0.201 NA
BRANCH  31  33
ATOM     33  C38 ZIN A   1      16.548   4.831  19.180  0.00  0.00     0.014 A 
ATOM     34  C43 ZIN A   1      15.946   6.086  19.121  0.00  0.00     0.015 A 
ATOM     35  C42 ZIN A   1      15.053   6.467  20.102  0.00  0.00     0.001 A 
ATOM     36  C41 ZIN A   1      14.764   5.610  21.149  0.00  0.00     0.000 A 
ATOM     37  C40 ZIN A   1      15.364   4.366  21.216  0.00  0.00     0.001 A 
ATOM     38  C39 ZIN A   1      16.254   3.972  20.237  0.00  0.00     0.015 A 
ENDBRANCH  31  33
ENDBRANCH  25  28
ENDBRANCH  22  25
ENDBRANCH   1  21
BRANCH   3  39
ATOM     39  O10 ZIN A   1      20.000  -2.039  13.640  0.00  0.00    -0.386 OA
ATOM     40  H56 ZIN A   1      20.872  -2.293  13.307  0.00  0.00     0.210 HD
ENDBRANCH   3  39
BRANCH  19  41
ATOM     41  C31 ZIN A   1      17.725  -4.881  11.627  0.00  0.00     0.240 C 
BRANCH  41  42
ATOM     42  C32 ZIN A   1      17.811  -5.364  10.178  0.00  0.00     0.011 A 
ATOM     43  C34 ZIN A   1      16.557  -5.232   9.313  0.00  0.00     0.007 A 
ATOM     44  C33 ZIN A   1      17.007  -6.611   9.800  0.00  0.00     0.007 A 
ENDBRANCH  41  42
ENDBRANCH  19  41
BRANCH   9  45
ATOM     45  O18 ZIN A   1      19.287   1.576   7.636  0.00  0.00    -0.358 OA
ATOM     46  H59 ZIN A   1      19.324   2.468   8.010  0.00  0.00     0.217 HD
ENDBRANCH   9  45
TORSDOF 8
ENDMDL
MODEL 8
REMARK VINA RESULT:      -8.1      3.192      9.381
REMARK  8 active torsions:
REMARK  status: ('A' for Active; 'I' for Inactive)
REMARK    1  A    between atoms: C2_2  and  N4_4 
REMARK    2  A    between atoms: C2_2  and  C35_33 
REMARK       I    between atoms: N4_4  and  C5_5 
REMARK    3  A    between atoms: C5_5  and  C7_7 
REMARK    4  A    between atoms: C9_9  and  O10_10 
REMARK    5  A    between atoms: C17_16  and  O18_17 
REMARK    6  A    between atoms: N29_27  and  C31_29 
REMARK    7  A    between atoms: C31_29  and  C32_30 
REMARK    8  A    between atoms: C37_35  and  C38_36 
ROOT
ATOM      1  C7  ZIN A   1      18.247   5.158  14.243  0.00  0.00     0.153 C 
ATOM      2  C8  ZIN A   1      16.763   5.366  14.552  0.00  0.00     0.063 C 
ATOM      3  C9  ZIN A   1      16.534   6.838  14.893  0.00  0.00     0.102 C 
ATOM      4  C11 ZIN A   1      15.051   7.087  15.176  0.00  0.00     0.227 C 
ATOM      5  C13 ZIN A   1      14.475   6.240  16.297  0.00  0.00     0.075 C 
ATOM      6  C14 ZIN A   1      15.463   5.924  17.372  0.00  0.00    -0.046 A 
ATOM      7  C15 ZIN A   1      16.755   6.379  17.254  0.00  0.00    -0.001 A 
ATOM      8  C16 ZIN A   1      17.806   6.061  18.102  0.00  0.00     0.110 A 
ATOM      9  C17 ZIN A   1      17.521   5.294  19.237  0.00  0.00     0.099 A 
ATOM     10  C19 ZIN A   1      16.199   4.887  19.410  0.00  0.00     0.040 A 
ATOM     11  C20 ZIN A   1      15.189   5.180  18.508  0.00  0.00     0.011 A 
ATOM     12  O21 ZIN A   1      18.966   6.549  17.612  0.00  0.00    -0.334 OA
ATOM     13  C22 ZIN A   1      18.786   6.865  16.198  0.00  0.00     0.215 C 
ATOM     14  C24 ZIN A   1      19.081   5.602  15.408  0.00  0.00     0.170 C 
ATOM     15  O25 ZIN A   1      20.037   4.936  15.724  0.00  0.00    -0.294 OA
ATOM     16  C26 ZIN A   1      17.308   7.211  16.147  0.00  0.00     0.058 C 
ATOM     17  C27 ZIN A   1      17.053   8.682  16.470  0.00  0.00     0.048 C 
ATOM     18  C28 ZIN A   1      15.545   8.877  16.676  0.00  0.00     0.236 C 
ATOM     19  N29 ZIN A   1      14.845   8.510  15.471  0.00  0.00    -0.063 N 
ATOM     20  H30 ZIN A   1      15.171   9.083  14.708  0.00  0.00     0.280 HD
ENDROOT
BRANCH   1  21
ATOM     21  C5  ZIN A   1      18.502   3.698  13.974  0.00  0.00     0.230 C 
ATOM     22  N4  ZIN A   1      17.840   2.757  14.677  0.00  0.00    -0.344 N 
ATOM     23  H52 ZIN A   1      17.201   3.021  15.356  0.00  0.00     0.163 HD
ATOM     24  O6  ZIN A   1      19.302   3.369  13.123  0.00  0.00    -0.273 OA
BRANCH  22  25
ATOM     25  C2  ZIN A   1      18.089   1.338  14.415  0.00  0.00     0.095 C 
ATOM     26  C1  ZIN A   1      19.581   1.042  14.576  0.00  0.00     0.047 C 
ATOM     27  C3  ZIN A   1      17.291   0.489  15.407  0.00  0.00     0.047 C 
BRANCH  25  28
ATOM     28  C35 ZIN A   1      17.659   1.004  13.009  0.00  0.00     0.200 A 
ATOM     29  O45 ZIN A   1      16.461   0.545  12.633  0.00  0.00    -0.193 OA
ATOM     30  N44 ZIN A   1      16.438   0.380  11.432  0.00  0.00    -0.105 NA
ATOM     31  C37 ZIN A   1      17.594   0.699  10.912  0.00  0.00     0.189 A 
ATOM     32  N36 ZIN A   1      18.391   1.104  11.927  0.00  0.00    -0.201 NA
BRANCH  31  33
ATOM     33  C38 ZIN A   1      17.964   0.629   9.477  0.00  0.00     0.014 A 
ATOM     34  C43 ZIN A   1      18.728   1.643   8.901  0.00  0.00     0.015 A 
ATOM     35  C42 ZIN A   1      19.074   1.570   7.567  0.00  0.00     0.001 A 
ATOM     36  C41 ZIN A   1      18.654   0.499   6.798  0.00  0.00     0.000 A 
ATOM     37  C40 ZIN A   1      17.892  -0.507   7.363  0.00  0.00     0.001 A 
ATOM     38  C39 ZIN A   1      17.545  -0.448   8.698  0.00  0.00     0.015 A 
ENDBRANCH  31  33
ENDBRANCH  25  28
ENDBRANCH  22  25
ENDBRANCH   1  21
BRANCH   3  39
ATOM     39  O10 ZIN A   1      16.968   7.655  13.803  0.00  0.00    -0.386 OA
ATOM     40  H56 ZIN A   1      17.161   7.161  12.994  0.00  0.00     0.210 HD
ENDBRANCH   3  39
BRANCH  19  41
ATOM     41  C31 ZIN A   1      13.406   8.732  15.661  0.00  0.00     0.240 C 
BRANCH  41  42
ATOM     42  C32 ZIN A   1      13.179   9.546  16.936  0.00  0.00     0.011 A 
ATOM     43  C34 ZIN A   1      12.816   8.780  18.209  0.00  0.00     0.007 A 
ATOM     44  C33 ZIN A   1      11.753   9.612  17.489  0.00  0.00     0.007 A 
ENDBRANCH  41  42
ENDBRANCH  19  41
BRANCH   9  45
ATOM     45  O18 ZIN A   1      18.489   4.959  20.130  0.00  0.00    -0.358 OA
ATOM     46  H59 ZIN A   1      19.340   4.740  19.725  0.00  0.00     0.217 HD
ENDBRANCH   9  45
TORSDOF 8
ENDMDL
MODEL 9
REMARK VINA RESULT:      -8.0      5.676      9.369
REMARK  8 active torsions:
REMARK  status: ('A' for Active; 'I' for Inactive)
REMARK    1  A    between atoms: C2_2  and  N4_4 
REMARK    2  A    between atoms: C2_2  and  C35_33 
REMARK       I    between atoms: N4_4  and  C5_5 
REMARK    3  A    between atoms: C5_5  and  C7_7 
REMARK    4  A    between atoms: C9_9  and  O10_10 
REMARK    5  A    between atoms: C17_16  and  O18_17 
REMARK    6  A    between atoms: N29_27  and  C31_29 
REMARK    7  A    between atoms: C31_29  and  C32_30 
REMARK    8  A    between atoms: C37_35  and  C38_36 
ROOT
ATOM      1  C7  ZIN A   1      16.909  -6.941   8.350  0.00  0.00     0.153 C 
ATOM      2  C8  ZIN A   1      15.576  -6.782   7.617  0.00  0.00     0.063 C 
ATOM      3  C9  ZIN A   1      15.465  -7.877   6.557  0.00  0.00     0.102 C 
ATOM      4  C11 ZIN A   1      14.125  -7.766   5.825  0.00  0.00     0.227 C 
ATOM      5  C13 ZIN A   1      13.886  -6.425   5.155  0.00  0.00     0.075 C 
ATOM      6  C14 ZIN A   1      15.137  -5.775   4.658  0.00  0.00    -0.046 A 
ATOM      7  C15 ZIN A   1      16.345  -6.399   4.862  0.00  0.00    -0.001 A 
ATOM      8  C16 ZIN A   1      17.592  -5.862   4.573  0.00  0.00     0.110 A 
ATOM      9  C17 ZIN A   1      17.635  -4.623   3.925  0.00  0.00     0.099 A 
ATOM     10  C19 ZIN A   1      16.414  -4.012   3.645  0.00  0.00     0.040 A 
ATOM     11  C20 ZIN A   1      15.192  -4.558   4.002  0.00  0.00     0.011 A 
ATOM     12  O21 ZIN A   1      18.568  -6.672   5.037  0.00  0.00    -0.334 OA
ATOM     13  C22 ZIN A   1      17.995  -7.586   6.020  0.00  0.00     0.215 C 
ATOM     14  C24 ZIN A   1      18.043  -6.893   7.371  0.00  0.00     0.170 C 
ATOM     15  O25 ZIN A   1      19.044  -6.289   7.672  0.00  0.00    -0.294 OA
ATOM     16  C26 ZIN A   1      16.567  -7.718   5.522  0.00  0.00     0.058 C 
ATOM     17  C27 ZIN A   1      16.425  -8.817   4.471  0.00  0.00     0.048 C 
ATOM     18  C28 ZIN A   1      15.040  -8.692   3.824  0.00  0.00     0.236 C 
ATOM     19  N29 ZIN A   1      14.023  -8.843   4.834  0.00  0.00    -0.063 N 
ATOM     20  H30 ZIN A   1      14.123  -9.745   5.274  0.00  0.00     0.280 HD
ENDROOT
BRANCH   1  21
ATOM     21  C5  ZIN A   1      17.065  -5.825   9.351  0.00  0.00     0.230 C 
ATOM     22  N4  ZIN A   1      18.280  -5.542   9.861  0.00  0.00    -0.344 N 
ATOM     23  H52 ZIN A   1      19.054  -6.057   9.583  0.00  0.00     0.163 HD
ATOM     24  O6  ZIN A   1      16.097  -5.181   9.697  0.00  0.00    -0.273 OA
BRANCH  22  25
ATOM     25  C2  ZIN A   1      18.432  -4.458  10.834  0.00  0.00     0.095 C 
ATOM     26  C1  ZIN A   1      17.321  -4.553  11.882  0.00  0.00     0.047 C 
ATOM     27  C3  ZIN A   1      19.793  -4.576  11.522  0.00  0.00     0.047 C 
BRANCH  25  28
ATOM     28  C35 ZIN A   1      18.341  -3.131  10.125  0.00  0.00     0.200 A 
ATOM     29  O45 ZIN A   1      18.134  -2.942   8.817  0.00  0.00    -0.193 OA
ATOM     30  N44 ZIN A   1      18.112  -1.755   8.568  0.00  0.00    -0.105 NA
ATOM     31  C37 ZIN A   1      18.306  -1.063   9.659  0.00  0.00     0.189 A 
ATOM     32  N36 ZIN A   1      18.455  -1.947  10.672  0.00  0.00    -0.201 NA
BRANCH  31  33
ATOM     33  C38 ZIN A   1      18.354   0.416   9.768  0.00  0.00     0.014 A 
ATOM     34  C43 ZIN A   1      17.613   1.070  10.750  0.00  0.00     0.015 A 
ATOM     35  C42 ZIN A   1      17.666   2.446  10.850  0.00  0.00     0.001 A 
ATOM     36  C41 ZIN A   1      18.443   3.177   9.969  0.00  0.00     0.000 A 
ATOM     37  C40 ZIN A   1      19.176   2.533   8.988  0.00  0.00     0.001 A 
ATOM     38  C39 ZIN A   1      19.135   1.157   8.883  0.00  0.00     0.015 A 
ENDBRANCH  31  33
ENDBRANCH  25  28
ENDBRANCH  22  25
ENDBRANCH   1  21
BRANCH   3  39
ATOM     39  O10 ZIN A   1      15.576  -9.159   7.180  0.00  0.00    -0.386 OA
ATOM     40  H56 ZIN A   1      15.768  -9.880   6.565  0.00  0.00     0.210 HD
ENDBRANCH   3  39
BRANCH  19  41
ATOM     41  C31 ZIN A   1      12.699  -8.758   4.203  0.00  0.00     0.240 C 
BRANCH  41  42
ATOM     42  C32 ZIN A   1      12.851  -8.841   2.683  0.00  0.00     0.011 A 
ATOM     43  C34 ZIN A   1      13.154  -7.545   1.931  0.00  0.00     0.007 A 
ATOM     44  C33 ZIN A   1      11.767  -8.183   1.827  0.00  0.00     0.007 A 
ENDBRANCH  41  42
ENDBRANCH  19  41
BRANCH   9  45
ATOM     45  O18 ZIN A   1      18.815  -4.039   3.586  0.00  0.00    -0.358 OA
ATOM     46  H59 ZIN A   1      18.932  -3.913   2.634  0.00  0.00     0.217 HD
ENDBRANCH   9  45
TORSDOF 8
ENDMDL
