MODEL 1
REMARK VINA RESULT:      -9.5      0.000      0.000
REMARK  14 active torsions:
REMARK  status: ('A' for Active; 'I' for Inactive)
REMARK    1  A    between atoms: C2_2  and  C4_4 
REMARK    2  A    between atoms: C5_5  and  C6_6 
REMARK       I    between atoms: C6_6  and  N8_8 
REMARK    3  A    between atoms: N8_8  and  C9_9 
REMARK    4  A    between atoms: C15_15  and  C16_16 
REMARK    5  A    between atoms: C22_22  and  C23_23 
REMARK    6  A    between atoms: N30_30  and  C31_31 
REMARK    7  A    between atoms: C31_31  and  C32_32 
REMARK    8  A    between atoms: C32_32  and  C33_33 
REMARK    9  A    between atoms: C33_33  and  O35_34 
REMARK   10  A    between atoms: C33_33  and  C36_35 
REMARK   11  A    between atoms: C36_35  and  C37_36 
REMARK   12  A    between atoms: C37_36  and  O39_37 
REMARK   13  A    between atoms: C37_36  and  C40_38 
REMARK   14  A    between atoms: C40_38  and  C41_39 
ROOT
ATOM      1  C4  ZIN A   1      17.839  -2.802  10.559  0.00  0.00     0.032 A 
ATOM      2  C5  ZIN A   1      17.923  -1.533  11.059  0.00  0.00     0.068 A 
ATOM      3  C15 ZIN A   1      18.047  -0.637   9.897  0.00  0.00     0.020 A 
ATOM      4  C22 ZIN A   1      18.025  -1.457   8.786  0.00  0.00     0.057 A 
ATOM      5  N30 ZIN A   1      17.905  -2.754   9.215  0.00  0.00    -0.347 N 
ENDROOT
BRANCH   5   6
ATOM      6  C31 ZIN A   1      17.848  -3.923   8.333  0.00  0.00     0.132 C 
BRANCH   6   7
ATOM      7  C32 ZIN A   1      19.268  -4.336   7.941  0.00  0.00     0.052 C 
BRANCH   7   8
ATOM      8  C33 ZIN A   1      19.300  -4.703   6.456  0.00  0.00     0.122 C 
BRANCH   8   9
ATOM      9  O35 ZIN A   1      19.619  -6.089   6.315  0.00  0.00    -0.395 OA
ATOM     10  H70 ZIN A   1      18.852  -6.676   6.369  0.00  0.00     0.210 HD
ENDBRANCH   8   9
BRANCH   8  11
ATOM     11  C36 ZIN A   1      17.931  -4.428   5.832  0.00  0.00     0.064 C 
BRANCH  11  12
ATOM     12  C37 ZIN A   1      18.097  -4.167   4.333  0.00  0.00     0.130 C 
BRANCH  12  13
ATOM     13  O39 ZIN A   1      18.086  -5.411   3.630  0.00  0.00    -0.395 OA
ATOM     14  H73 ZIN A   1      17.204  -5.788   3.510  0.00  0.00     0.210 HD
ENDBRANCH  12  13
BRANCH  12  15
ATOM     15  C40 ZIN A   1      16.944  -3.291   3.838  0.00  0.00     0.144 C 
BRANCH  15  16
ATOM     16  C41 ZIN A   1      16.013  -4.119   2.991  0.00  0.00     0.175 C 
ATOM     17  O42 ZIN A   1      15.090  -4.725   3.511  0.00  0.00    -0.648 OA
ATOM     18  O43 ZIN A   1      16.180  -4.183   1.785  0.00  0.00    -0.648 OA
ENDBRANCH  15  16
ENDBRANCH  12  15
ENDBRANCH  11  12
ENDBRANCH   8  11
ENDBRANCH   7   8
ENDBRANCH   6   7
ENDBRANCH   5   6
BRANCH   1  19
ATOM     19  C2  ZIN A   1      17.700  -4.057  11.382  0.00  0.00     0.028 C 
ATOM     20  C1  ZIN A   1      16.668  -4.981  10.733  0.00  0.00     0.016 C 
ATOM     21  C3  ZIN A   1      19.051  -4.772  11.454  0.00  0.00     0.016 C 
ENDBRANCH   1  19
BRANCH   4  22
ATOM     22  C23 ZIN A   1      18.121  -1.014   7.381  0.00  0.00    -0.008 A 
ATOM     23  C29 ZIN A   1      17.011  -0.452   6.746  0.00  0.00     0.017 A 
ATOM     24  C28 ZIN A   1      17.108  -0.036   5.434  0.00  0.00     0.043 A 
ATOM     25  C26 ZIN A   1      18.301  -0.185   4.743  0.00  0.00     0.116 A 
ATOM     26  C25 ZIN A   1      19.404  -0.747   5.367  0.00  0.00     0.043 A 
ATOM     27  F27 ZIN A   1      18.388   0.221   3.458  0.00  0.00    -0.206 F 
ATOM     28  C24 ZIN A   1      19.320  -1.162   6.679  0.00  0.00     0.017 A 
ENDBRANCH   4  22
BRANCH   2  29
ATOM     29  C6  ZIN A   1      17.896  -1.140  12.477  0.00  0.00     0.259 C 
ATOM     30  O7  ZIN A   1      16.838  -0.863  13.010  0.00  0.00    -0.267 OA
ATOM     31  N8  ZIN A   1      19.042  -1.087  13.183  0.00  0.00    -0.323 N 
ATOM     32  H51 ZIN A   1      19.877  -1.371  12.777  0.00  0.00     0.169 HD
BRANCH  31  33
ATOM     33  C9  ZIN A   1      19.030  -0.621  14.503  0.00  0.00     0.035 A 
ATOM     34  C14 ZIN A   1      19.102   0.742  14.760  0.00  0.00     0.029 A 
ATOM     35  C13 ZIN A   1      19.085   1.199  16.063  0.00  0.00     0.002 A 
ATOM     36  C12 ZIN A   1      19.005   0.301  17.111  0.00  0.00     0.000 A 
ATOM     37  C11 ZIN A   1      18.939  -1.057  16.859  0.00  0.00     0.002 A 
ATOM     38  C10 ZIN A   1      18.951  -1.520  15.557  0.00  0.00     0.029 A 
ENDBRANCH  31  33
ENDBRANCH   2  29
BRANCH   3  39
ATOM     39  C16 ZIN A   1      18.168   0.838   9.917  0.00  0.00    -0.023 A 
ATOM     40  C21 ZIN A   1      19.056   1.479   9.051  0.00  0.00     0.012 A 
ATOM     41  C20 ZIN A   1      19.161   2.854   9.070  0.00  0.00     0.001 A 
ATOM     42  C19 ZIN A   1      18.397   3.597   9.952  0.00  0.00     0.000 A 
ATOM     43  C18 ZIN A   1      17.518   2.968  10.816  0.00  0.00     0.001 A 
ATOM     44  C17 ZIN A   1      17.400   1.593  10.803  0.00  0.00     0.012 A 
ENDBRANCH   3  39
TORSDOF 14
ENDMDL
MODEL 2
REMARK VINA RESULT:      -9.2      3.344      6.141
REMARK  14 active torsions:
REMARK  status: ('A' for Active; 'I' for Inactive)
REMARK    1  A    between atoms: C2_2  and  C4_4 
REMARK    2  A    between atoms: C5_5  and  C6_6 
REMARK       I    between atoms: C6_6  and  N8_8 
REMARK    3  A    between atoms: N8_8  and  C9_9 
REMARK    4  A    between atoms: C15_15  and  C16_16 
REMARK    5  A    between atoms: C22_22  and  C23_23 
REMARK    6  A    between atoms: N30_30  and  C31_31 
REMARK    7  A    between atoms: C31_31  and  C32_32 
REMARK    8  A    between atoms: C32_32  and  C33_33 
REMARK    9  A    between atoms: C33_33  and  O35_34 
REMARK   10  A    between atoms: C33_33  and  C36_35 
REMARK   11  A    between atoms: C36_35  and  C37_36 
REMARK   12  A    between atoms: C37_36  and  O39_37 
REMARK   13  A    between atoms: C37_36  and  C40_38 
REMARK   14  A    between atoms: C40_38  and  C41_39 
ROOT
ATOM      1  C4  ZIN A   1      18.960   2.306  11.931  0.00  0.00     0.032 A 
ATOM      2  C5  ZIN A   1      18.766   2.137  13.273  0.00  0.00     0.068 A 
ATOM      3  C15 ZIN A   1      18.615   0.688  13.490  0.00  0.00     0.020 A 
ATOM      4  C22 ZIN A   1      18.734   0.107  12.243  0.00  0.00     0.057 A 
ATOM      5  N30 ZIN A   1      18.935   1.104  11.324  0.00  0.00    -0.347 N 
ENDROOT
BRANCH   5   6
ATOM      6  C31 ZIN A   1      19.109   0.892   9.885  0.00  0.00     0.132 C 
BRANCH   6   7
ATOM      7  C32 ZIN A   1      17.737   0.808   9.213  0.00  0.00     0.052 C 
BRANCH   7   8
ATOM      8  C33 ZIN A   1      17.610  -0.529   8.478  0.00  0.00     0.122 C 
BRANCH   8   9
ATOM      9  O35 ZIN A   1      16.838  -0.347   7.289  0.00  0.00    -0.395 OA
ATOM     10  H70 ZIN A   1      15.932  -0.053   7.451  0.00  0.00     0.210 HD
ENDBRANCH   8   9
BRANCH   8  11
ATOM     11  C36 ZIN A   1      19.003  -1.043   8.110  0.00  0.00     0.064 C 
BRANCH  11  12
ATOM     12  C37 ZIN A   1      18.968  -2.568   7.989  0.00  0.00     0.130 C 
BRANCH  12  13
ATOM     13  O39 ZIN A   1      17.611  -3.011   7.938  0.00  0.00    -0.395 OA
ATOM     14  H73 ZIN A   1      17.388  -3.505   7.137  0.00  0.00     0.210 HD
ENDBRANCH  12  13
BRANCH  12  15
ATOM     15  C40 ZIN A   1      19.692  -2.995   6.710  0.00  0.00     0.144 C 
BRANCH  15  16
ATOM     16  C41 ZIN A   1      19.112  -2.255   5.533  0.00  0.00     0.175 C 
ATOM     17  O42 ZIN A   1      17.926  -2.365   5.268  0.00  0.00    -0.648 OA
ATOM     18  O43 ZIN A   1      19.826  -1.544   4.848  0.00  0.00    -0.648 OA
ENDBRANCH  15  16
ENDBRANCH  12  15
ENDBRANCH  11  12
ENDBRANCH   8  11
ENDBRANCH   7   8
ENDBRANCH   6   7
ENDBRANCH   5   6
BRANCH   1  19
ATOM     19  C2  ZIN A   1      19.164   3.630  11.239  0.00  0.00     0.028 C 
ATOM     20  C1  ZIN A   1      17.810   4.310  11.031  0.00  0.00     0.016 C 
ATOM     21  C3  ZIN A   1      20.058   4.523  12.101  0.00  0.00     0.016 C 
ENDBRANCH   1  19
BRANCH   4  22
ATOM     22  C23 ZIN A   1      18.652  -1.338  11.949  0.00  0.00    -0.008 A 
ATOM     23  C29 ZIN A   1      19.819  -2.101  11.854  0.00  0.00     0.017 A 
ATOM     24  C28 ZIN A   1      19.736  -3.451  11.584  0.00  0.00     0.043 A 
ATOM     25  C26 ZIN A   1      18.499  -4.049  11.397  0.00  0.00     0.116 A 
ATOM     26  C25 ZIN A   1      17.339  -3.295  11.485  0.00  0.00     0.043 A 
ATOM     27  F27 ZIN A   1      18.425  -5.370  11.128  0.00  0.00    -0.206 F 
ATOM     28  C24 ZIN A   1      17.410  -1.946  11.759  0.00  0.00     0.017 A 
ENDBRANCH   4  22
BRANCH   2  29
ATOM     29  C6  ZIN A   1      18.716   3.192  14.298  0.00  0.00     0.259 C 
ATOM     30  O7  ZIN A   1      19.682   3.393  15.009  0.00  0.00    -0.267 OA
ATOM     31  N8  ZIN A   1      17.601   3.933  14.448  0.00  0.00    -0.323 N 
ATOM     32  H51 ZIN A   1      16.855   3.818  13.837  0.00  0.00     0.169 HD
BRANCH  31  33
ATOM     33  C9  ZIN A   1      17.518   4.870  15.483  0.00  0.00     0.035 A 
ATOM     34  C14 ZIN A   1      17.461   6.227  15.191  0.00  0.00     0.029 A 
ATOM     35  C13 ZIN A   1      17.374   7.149  16.215  0.00  0.00     0.002 A 
ATOM     36  C12 ZIN A   1      17.353   6.724  17.531  0.00  0.00     0.000 A 
ATOM     37  C11 ZIN A   1      17.416   5.374  17.825  0.00  0.00     0.002 A 
ATOM     38  C10 ZIN A   1      17.498   4.446  16.805  0.00  0.00     0.029 A 
ENDBRANCH  31  33
ENDBRANCH   2  29
BRANCH   3  39
ATOM     39  C16 ZIN A   1      18.383  -0.002  14.779  0.00  0.00    -0.023 A 
ATOM     40  C21 ZIN A   1      19.307  -0.936  15.249  0.00  0.00     0.012 A 
ATOM     41  C20 ZIN A   1      19.088  -1.572  16.454  0.00  0.00     0.001 A 
ATOM     42  C19 ZIN A   1      17.950  -1.294  17.190  0.00  0.00     0.000 A 
ATOM     43  C18 ZIN A   1      17.027  -0.373  16.726  0.00  0.00     0.001 A 
ATOM     44  C17 ZIN A   1      17.237   0.275  15.526  0.00  0.00     0.012 A 
ENDBRANCH   3  39
TORSDOF 14
ENDMDL
MODEL 3
REMARK VINA RESULT:      -9.1      2.569      8.712
REMARK  14 active torsions:
REMARK  status: ('A' for Active; 'I' for Inactive)
REMARK    1  A    between atoms: C2_2  and  C4_4 
REMARK    2  A    between atoms: C5_5  and  C6_6 
REMARK       I    between atoms: C6_6  and  N8_8 
REMARK    3  A    between atoms: N8_8  and  C9_9 
REMARK    4  A    between atoms: C15_15  and  C16_16 
REMARK    5  A    between atoms: C22_22  and  C23_23 
REMARK    6  A    between atoms: N30_30  and  C31_31 
REMARK    7  A    between atoms: C31_31  and  C32_32 
REMARK    8  A    between atoms: C32_32  and  C33_33 
REMARK    9  A    between atoms: C33_33  and  O35_34 
REMARK   10  A    between atoms: C33_33  and  C36_35 
REMARK   11  A    between atoms: C36_35  and  C37_36 
REMARK   12  A    between atoms: C37_36  and  O39_37 
REMARK   13  A    between atoms: C37_36  and  C40_38 
REMARK   14  A    between atoms: C40_38  and  C41_39 
ROOT
ATOM      1  C4  ZIN A   1      18.128  -2.853  10.875  0.00  0.00     0.032 A 
ATOM      2  C5  ZIN A   1      18.133  -2.908   9.509  0.00  0.00     0.068 A 
ATOM      3  C15 ZIN A   1      18.168  -1.513   9.039  0.00  0.00     0.020 A 
ATOM      4  C22 ZIN A   1      18.181  -0.732  10.179  0.00  0.00     0.057 A 
ATOM      5  N30 ZIN A   1      18.150  -1.565  11.267  0.00  0.00    -0.347 N 
ENDROOT
BRANCH   5   6
ATOM      6  C31 ZIN A   1      18.152  -1.117  12.662  0.00  0.00     0.132 C 
BRANCH   6   7
ATOM      7  C32 ZIN A   1      19.578  -1.171  13.213  0.00  0.00     0.052 C 
BRANCH   7   8
ATOM      8  C33 ZIN A   1      19.948   0.191  13.805  0.00  0.00     0.122 C 
BRANCH   8   9
ATOM      9  O35 ZIN A   1      20.539   1.005  12.790  0.00  0.00    -0.395 OA
ATOM     10  H70 ZIN A   1      21.500   0.918  12.727  0.00  0.00     0.210 HD
ENDBRANCH   8   9
BRANCH   8  11
ATOM     11  C36 ZIN A   1      18.689   0.874  14.340  0.00  0.00     0.064 C 
BRANCH  11  12
ATOM     12  C37 ZIN A   1      18.920   1.306  15.790  0.00  0.00     0.130 C 
BRANCH  12  13
ATOM     13  O39 ZIN A   1      18.071   2.413  16.098  0.00  0.00    -0.395 OA
ATOM     14  H73 ZIN A   1      18.541   3.188  16.435  0.00  0.00     0.210 HD
ENDBRANCH  12  13
BRANCH  12  15
ATOM     15  C40 ZIN A   1      18.597   0.139  16.727  0.00  0.00     0.144 C 
BRANCH  15  16
ATOM     16  C41 ZIN A   1      19.028   0.487  18.128  0.00  0.00     0.175 C 
ATOM     17  O42 ZIN A   1      19.829   1.388  18.314  0.00  0.00    -0.648 OA
ATOM     18  O43 ZIN A   1      18.574  -0.130  19.076  0.00  0.00    -0.648 OA
ENDBRANCH  15  16
ENDBRANCH  12  15
ENDBRANCH  11  12
ENDBRANCH   8  11
ENDBRANCH   7   8
ENDBRANCH   6   7
ENDBRANCH   5   6
BRANCH   1  19
ATOM     19  C2  ZIN A   1      18.096  -4.046  11.795  0.00  0.00     0.028 C 
ATOM     20  C1  ZIN A   1      16.820  -4.852  11.541  0.00  0.00     0.016 C 
ATOM     21  C3  ZIN A   1      19.318  -4.927  11.531  0.00  0.00     0.016 C 
ENDBRANCH   1  19
BRANCH   4  22
ATOM     22  C23 ZIN A   1      18.215   0.744  10.217  0.00  0.00    -0.008 A 
ATOM     23  C29 ZIN A   1      19.184   1.442   9.492  0.00  0.00     0.017 A 
ATOM     24  C28 ZIN A   1      19.208   2.820   9.528  0.00  0.00     0.043 A 
ATOM     25  C26 ZIN A   1      18.280   3.512  10.291  0.00  0.00     0.116 A 
ATOM     26  C25 ZIN A   1      17.320   2.824  11.017  0.00  0.00     0.043 A 
ATOM     27  F27 ZIN A   1      18.312   4.862  10.326  0.00  0.00    -0.206 F 
ATOM     28  C24 ZIN A   1      17.284   1.447  10.984  0.00  0.00     0.017 A 
ENDBRANCH   4  22
BRANCH   2  29
ATOM     29  C6  ZIN A   1      18.109  -4.119   8.674  0.00  0.00     0.259 C 
ATOM     30  O7  ZIN A   1      19.152  -4.656   8.352  0.00  0.00    -0.267 OA
ATOM     31  N8  ZIN A   1      16.932  -4.633   8.267  0.00  0.00    -0.323 N 
ATOM     32  H51 ZIN A   1      16.098  -4.244   8.577  0.00  0.00     0.169 HD
BRANCH  31  33
ATOM     33  C9  ZIN A   1      16.910  -5.727   7.395  0.00  0.00     0.035 A 
ATOM     34  C14 ZIN A   1      17.005  -5.525   6.024  0.00  0.00     0.029 A 
ATOM     35  C13 ZIN A   1      16.988  -6.607   5.166  0.00  0.00     0.002 A 
ATOM     36  C12 ZIN A   1      16.868  -7.890   5.670  0.00  0.00     0.000 A 
ATOM     37  C11 ZIN A   1      16.767  -8.093   7.034  0.00  0.00     0.002 A 
ATOM     38  C10 ZIN A   1      16.788  -7.015   7.898  0.00  0.00     0.029 A 
ENDBRANCH  31  33
ENDBRANCH   2  29
BRANCH   3  39
ATOM     39  C16 ZIN A   1      18.185  -1.044   7.635  0.00  0.00    -0.023 A 
ATOM     40  C21 ZIN A   1      17.113  -0.307   7.129  0.00  0.00     0.012 A 
ATOM     41  C20 ZIN A   1      17.138   0.132   5.822  0.00  0.00     0.001 A 
ATOM     42  C19 ZIN A   1      18.217  -0.167   5.009  0.00  0.00     0.000 A 
ATOM     43  C18 ZIN A   1      19.280  -0.901   5.503  0.00  0.00     0.001 A 
ATOM     44  C17 ZIN A   1      19.271  -1.341   6.811  0.00  0.00     0.012 A 
ENDBRANCH   3  39
TORSDOF 14
ENDMDL
MODEL 4
REMARK VINA RESULT:      -9.1      3.569     10.158
REMARK  14 active torsions:
REMARK  status: ('A' for Active; 'I' for Inactive)
REMARK    1  A    between atoms: C2_2  and  C4_4 
REMARK    2  A    between atoms: C5_5  and  C6_6 
REMARK       I    between atoms: C6_6  and  N8_8 
REMARK    3  A    between atoms: N8_8  and  C9_9 
REMARK    4  A    between atoms: C15_15  and  C16_16 
REMARK    5  A    between atoms: C22_22  and  C23_23 
REMARK    6  A    between atoms: N30_30  and  C31_31 
REMARK    7  A    between atoms: C31_31  and  C32_32 
REMARK    8  A    between atoms: C32_32  and  C33_33 
REMARK    9  A    between atoms: C33_33  and  O35_34 
REMARK   10  A    between atoms: C33_33  and  C36_35 
REMARK   11  A    between atoms: C36_35  and  C37_36 
REMARK   12  A    between atoms: C37_36  and  O39_37 
REMARK   13  A    between atoms: C37_36  and  C40_38 
REMARK   14  A    between atoms: C40_38  and  C41_39 
ROOT
ATOM      1  C4  ZIN A   1      17.942   1.432  10.714  0.00  0.00     0.032 A 
ATOM      2  C5  ZIN A   1      18.059   0.149  10.258  0.00  0.00     0.068 A 
ATOM      3  C15 ZIN A   1      18.226  -0.701  11.448  0.00  0.00     0.020 A 
ATOM      4  C22 ZIN A   1      18.194   0.156  12.530  0.00  0.00     0.057 A 
ATOM      5  N30 ZIN A   1      18.028   1.433  12.059  0.00  0.00    -0.347 N 
ENDROOT
BRANCH   5   6
ATOM      6  C31 ZIN A   1      17.946   2.630  12.899  0.00  0.00     0.132 C 
BRANCH   6   7
ATOM      7  C32 ZIN A   1      19.356   3.147  13.189  0.00  0.00     0.052 C 
BRANCH   7   8
ATOM      8  C33 ZIN A   1      19.278   4.326  14.161  0.00  0.00     0.122 C 
BRANCH   8   9
ATOM      9  O35 ZIN A   1      18.734   5.463  13.487  0.00  0.00    -0.395 OA
ATOM     10  H70 ZIN A   1      19.363   6.187  13.368  0.00  0.00     0.210 HD
ENDBRANCH   8   9
BRANCH   8  11
ATOM     11  C36 ZIN A   1      18.380   3.955  15.343  0.00  0.00     0.064 C 
BRANCH  11  12
ATOM     12  C37 ZIN A   1      19.211   3.244  16.412  0.00  0.00     0.130 C 
BRANCH  12  13
ATOM     13  O39 ZIN A   1      20.512   3.831  16.472  0.00  0.00    -0.395 OA
ATOM     14  H73 ZIN A   1      20.967   3.868  15.619  0.00  0.00     0.210 HD
ENDBRANCH  12  13
BRANCH  12  15
ATOM     15  C40 ZIN A   1      18.524   3.387  17.772  0.00  0.00     0.144 C 
BRANCH  15  16
ATOM     16  C41 ZIN A   1      18.707   2.118  18.563  0.00  0.00     0.175 C 
ATOM     17  O42 ZIN A   1      17.741   1.565  19.062  0.00  0.00    -0.648 OA
ATOM     18  O43 ZIN A   1      19.821   1.642  18.703  0.00  0.00    -0.648 OA
ENDBRANCH  15  16
ENDBRANCH  12  15
ENDBRANCH  11  12
ENDBRANCH   8  11
ENDBRANCH   7   8
ENDBRANCH   6   7
ENDBRANCH   5   6
BRANCH   1  19
ATOM     19  C2  ZIN A   1      17.754   2.652   9.850  0.00  0.00     0.028 C 
ATOM     20  C1  ZIN A   1      17.225   3.805  10.705  0.00  0.00     0.016 C 
ATOM     21  C3  ZIN A   1      19.095   3.050   9.230  0.00  0.00     0.016 C 
ENDBRANCH   1  19
BRANCH   4  22
ATOM     22  C23 ZIN A   1      18.322  -0.233  13.949  0.00  0.00    -0.008 A 
ATOM     23  C29 ZIN A   1      17.296   0.059  14.852  0.00  0.00     0.017 A 
ATOM     24  C28 ZIN A   1      17.420  -0.312  16.174  0.00  0.00     0.043 A 
ATOM     25  C26 ZIN A   1      18.563  -0.963  16.611  0.00  0.00     0.116 A 
ATOM     26  C25 ZIN A   1      19.586  -1.250  15.720  0.00  0.00     0.043 A 
ATOM     27  F27 ZIN A   1      18.680  -1.319  17.908  0.00  0.00    -0.206 F 
ATOM     28  C24 ZIN A   1      19.471  -0.889  14.395  0.00  0.00     0.017 A 
ENDBRANCH   4  22
BRANCH   2  29
ATOM     29  C6  ZIN A   1      18.026  -0.295   8.855  0.00  0.00     0.259 C 
ATOM     30  O7  ZIN A   1      16.960  -0.411   8.280  0.00  0.00    -0.267 OA
ATOM     31  N8  ZIN A   1      19.175  -0.572   8.208  0.00  0.00    -0.323 N 
ATOM     32  H51 ZIN A   1      20.027  -0.416   8.645  0.00  0.00     0.169 HD
BRANCH  31  33
ATOM     33  C9  ZIN A   1      19.139  -1.085   6.907  0.00  0.00     0.035 A 
ATOM     34  C14 ZIN A   1      19.187  -2.457   6.700  0.00  0.00     0.029 A 
ATOM     35  C13 ZIN A   1      19.147  -2.961   5.414  0.00  0.00     0.002 A 
ATOM     36  C12 ZIN A   1      19.068  -2.101   4.335  0.00  0.00     0.000 A 
ATOM     37  C11 ZIN A   1      19.026  -0.734   4.538  0.00  0.00     0.002 A 
ATOM     38  C10 ZIN A   1      19.061  -0.224   5.821  0.00  0.00     0.029 A 
ENDBRANCH  31  33
ENDBRANCH   2  29
BRANCH   3  39
ATOM     39  C16 ZIN A   1      18.393  -2.172  11.479  0.00  0.00    -0.023 A 
ATOM     40  C21 ZIN A   1      19.667  -2.734  11.389  0.00  0.00     0.012 A 
ATOM     41  C20 ZIN A   1      19.817  -4.105  11.424  0.00  0.00     0.001 A 
ATOM     42  C19 ZIN A   1      18.707  -4.923  11.536  0.00  0.00     0.000 A 
ATOM     43  C18 ZIN A   1      17.440  -4.372  11.620  0.00  0.00     0.001 A 
ATOM     44  C17 ZIN A   1      17.277  -3.002  11.592  0.00  0.00     0.012 A 
ENDBRANCH   3  39
TORSDOF 14
ENDMDL
MODEL 5
REMARK VINA RESULT:      -8.9      3.837      6.778
REMARK  14 active torsions:
REMARK  status: ('A' for Active; 'I' for Inactive)
REMARK    1  A    between atoms: C2_2  and  C4_4 
REMARK    2  A    between atoms: C5_5  and  C6_6 
REMARK       I    between atoms: C6_6  and  N8_8 
REMARK    3  A    between atoms: N8_8  and  C9_9 
REMARK    4  A    between atoms: C15_15  and  C16_16 
REMARK    5  A    between atoms: C22_22  and  C23_23 
REMARK    6  A    between atoms: N30_30  and  C31_31 
REMARK    7  A    between atoms: C31_31  and  C32_32 
REMARK    8  A    between atoms: C32_32  and  C33_33 
REMARK    9  A    between atoms: C33_33  and  O35_34 
REMARK   10  A    between atoms: C33_33  and  C36_35 
REMARK   11  A    between atoms: C36_35  and  C37_36 
REMARK   12  A    between atoms: C37_36  and  O39_37 
REMARK   13  A    between atoms: C37_36  and  C40_38 
REMARK   14  A    between atoms: C40_38  and  C41_39 
ROOT
ATOM      1  C4  ZIN A   1      17.940   3.368  12.092  0.00  0.00     0.032 A 
ATOM      2  C5  ZIN A   1      17.981   3.306  13.456  0.00  0.00     0.068 A 
ATOM      3  C15 ZIN A   1      18.115   1.881  13.802  0.00  0.00     0.020 A 
ATOM      4  C22 ZIN A   1      18.143   1.203  12.599  0.00  0.00     0.057 A 
ATOM      5  N30 ZIN A   1      18.030   2.122  11.588  0.00  0.00    -0.347 N 
ENDROOT
BRANCH   5   6
ATOM      6  C31 ZIN A   1      18.019   1.796  10.160  0.00  0.00     0.132 C 
BRANCH   6   7
ATOM      7  C32 ZIN A   1      19.434   1.430   9.709  0.00  0.00     0.052 C 
BRANCH   7   8
ATOM      8  C33 ZIN A   1      19.371   0.253   8.733  0.00  0.00     0.122 C 
BRANCH   8   9
ATOM      9  O35 ZIN A   1      19.975  -0.895   9.333  0.00  0.00    -0.395 OA
ATOM     10  H70 ZIN A   1      20.754  -0.694   9.869  0.00  0.00     0.210 HD
ENDBRANCH   8   9
BRANCH   8  11
ATOM     11  C36 ZIN A   1      17.911  -0.055   8.398  0.00  0.00     0.064 C 
BRANCH  11  12
ATOM     12  C37 ZIN A   1      17.803  -0.482   6.933  0.00  0.00     0.130 C 
BRANCH  12  13
ATOM     13  O39 ZIN A   1      16.483  -0.216   6.456  0.00  0.00    -0.395 OA
ATOM     14  H73 ZIN A   1      15.781  -0.550   7.032  0.00  0.00     0.210 HD
ENDBRANCH  12  13
BRANCH  12  15
ATOM     15  C40 ZIN A   1      18.815   0.303   6.096  0.00  0.00     0.144 C 
BRANCH  15  16
ATOM     16  C41 ZIN A   1      19.013  -0.385   4.771  0.00  0.00     0.175 C 
ATOM     17  O42 ZIN A   1      20.037  -1.011   4.555  0.00  0.00    -0.648 OA
ATOM     18  O43 ZIN A   1      18.148  -0.318   3.915  0.00  0.00    -0.648 OA
ENDBRANCH  15  16
ENDBRANCH  12  15
ENDBRANCH  11  12
ENDBRANCH   8  11
ENDBRANCH   7   8
ENDBRANCH   6   7
ENDBRANCH   5   6
BRANCH   1  19
ATOM     19  C2  ZIN A   1      17.807   4.630  11.279  0.00  0.00     0.028 C 
ATOM     20  C1  ZIN A   1      18.151   4.335   9.818  0.00  0.00     0.016 C 
ATOM     21  C3  ZIN A   1      16.370   5.148  11.371  0.00  0.00     0.016 C 
ENDBRANCH   1  19
BRANCH   4  22
ATOM     22  C23 ZIN A   1      18.267  -0.259  12.431  0.00  0.00    -0.008 A 
ATOM     23  C29 ZIN A   1      19.435  -0.914  12.831  0.00  0.00     0.017 A 
ATOM     24  C28 ZIN A   1      19.543  -2.280  12.676  0.00  0.00     0.043 A 
ATOM     25  C26 ZIN A   1      18.501  -3.002  12.115  0.00  0.00     0.116 A 
ATOM     26  C25 ZIN A   1      17.343  -2.356  11.711  0.00  0.00     0.043 A 
ATOM     27  F27 ZIN A   1      18.615  -4.339  11.962  0.00  0.00    -0.206 F 
ATOM     28  C24 ZIN A   1      17.221  -0.991  11.866  0.00  0.00     0.017 A 
ENDBRANCH   4  22
BRANCH   2  29
ATOM     29  C6  ZIN A   1      17.906   4.437  14.394  0.00  0.00     0.259 C 
ATOM     30  O7  ZIN A   1      18.912   5.063  14.672  0.00  0.00    -0.267 OA
ATOM     31  N8  ZIN A   1      16.725   4.780  14.943  0.00  0.00    -0.323 N 
ATOM     32  H51 ZIN A   1      15.912   4.324  14.671  0.00  0.00     0.169 HD
BRANCH  31  33
ATOM     33  C9  ZIN A   1      16.669   5.793  15.907  0.00  0.00     0.035 A 
ATOM     34  C14 ZIN A   1      17.028   5.523  17.221  0.00  0.00     0.029 A 
ATOM     35  C13 ZIN A   1      16.976   6.526  18.169  0.00  0.00     0.002 A 
ATOM     36  C12 ZIN A   1      16.559   7.795  17.813  0.00  0.00     0.000 A 
ATOM     37  C11 ZIN A   1      16.195   8.065  16.506  0.00  0.00     0.002 A 
ATOM     38  C10 ZIN A   1      16.249   7.067  15.553  0.00  0.00     0.029 A 
ENDBRANCH  31  33
ENDBRANCH   2  29
BRANCH   3  39
ATOM     39  C16 ZIN A   1      18.202   1.296  15.160  0.00  0.00    -0.023 A 
ATOM     40  C21 ZIN A   1      17.296   0.312  15.557  0.00  0.00     0.012 A 
ATOM     41  C20 ZIN A   1      17.386  -0.233  16.821  0.00  0.00     0.001 A 
ATOM     42  C19 ZIN A   1      18.364   0.201  17.697  0.00  0.00     0.000 A 
ATOM     43  C18 ZIN A   1      19.263   1.180  17.311  0.00  0.00     0.001 A 
ATOM     44  C17 ZIN A   1      19.188   1.729  16.047  0.00  0.00     0.012 A 
ENDBRANCH   3  39
TORSDOF 14
ENDMDL
MODEL 6
REMARK VINA RESULT:      -8.8      1.500      2.113
REMARK  14 active torsions:
REMARK  status: ('A' for Active; 'I' for Inactive)
REMARK    1  A    between atoms: C2_2  and  C4_4 
REMARK    2  A    between atoms: C5_5  and  C6_6 
REMARK       I    between atoms: C6_6  and  N8_8 
REMARK    3  A    between atoms: N8_8  and  C9_9 
REMARK    4  A    between atoms: C15_15  and  C16_16 
REMARK    5  A    between atoms: C22_22  and  C23_23 
REMARK    6  A    between atoms: N30_30  and  C31_31 
REMARK    7  A    between atoms: C31_31  and  C32_32 
REMARK    8  A    between atoms: C32_32  and  C33_33 
REMARK    9  A    between atoms: C33_33  and  O35_34 
REMARK   10  A    between atoms: C33_33  and  C36_35 
REMARK   11  A    between atoms: C36_35  and  C37_36 
REMARK   12  A    between atoms: C37_36  and  O39_37 
REMARK   13  A    between atoms: C37_36  and  C40_38 
REMARK   14  A    between atoms: C40_38  and  C41_39 
ROOT
ATOM      1  C4  ZIN A   1      18.907  -2.652  10.950  0.00  0.00     0.032 A 
ATOM      2  C5  ZIN A   1      18.840  -1.353  11.368  0.00  0.00     0.068 A 
ATOM      3  C15 ZIN A   1      18.630  -0.539  10.160  0.00  0.00     0.020 A 
ATOM      4  C22 ZIN A   1      18.588  -1.432   9.107  0.00  0.00     0.057 A 
ATOM      5  N30 ZIN A   1      18.763  -2.694   9.611  0.00  0.00    -0.347 N 
ENDROOT
BRANCH   5   6
ATOM      6  C31 ZIN A   1      18.782  -3.919   8.808  0.00  0.00     0.132 C 
BRANCH   6   7
ATOM      7  C32 ZIN A   1      17.349  -4.408   8.590  0.00  0.00     0.052 C 
BRANCH   7   8
ATOM      8  C33 ZIN A   1      17.298  -5.302   7.349  0.00  0.00     0.122 C 
BRANCH   8   9
ATOM      9  O35 ZIN A   1      15.965  -5.784   7.164  0.00  0.00    -0.395 OA
ATOM     10  H70 ZIN A   1      15.838  -6.280   6.344  0.00  0.00     0.210 HD
ENDBRANCH   8   9
BRANCH   8  11
ATOM     11  C36 ZIN A   1      17.724  -4.495   6.121  0.00  0.00     0.064 C 
BRANCH  11  12
ATOM     12  C37 ZIN A   1      18.452  -5.412   5.135  0.00  0.00     0.130 C 
BRANCH  12  13
ATOM     13  O39 ZIN A   1      18.923  -6.572   5.823  0.00  0.00    -0.395 OA
ATOM     14  H73 ZIN A   1      18.235  -7.050   6.306  0.00  0.00     0.210 HD
ENDBRANCH  12  13
BRANCH  12  15
ATOM     15  C40 ZIN A   1      17.487  -5.834   4.024  0.00  0.00     0.144 C 
BRANCH  15  16
ATOM     16  C41 ZIN A   1      17.227  -7.314   4.122  0.00  0.00     0.175 C 
ATOM     17  O42 ZIN A   1      16.303  -7.728   4.803  0.00  0.00    -0.648 OA
ATOM     18  O43 ZIN A   1      17.938  -8.099   3.519  0.00  0.00    -0.648 OA
ENDBRANCH  15  16
ENDBRANCH  12  15
ENDBRANCH  11  12
ENDBRANCH   8  11
ENDBRANCH   7   8
ENDBRANCH   6   7
ENDBRANCH   5   6
BRANCH   1  19
ATOM     19  C2  ZIN A   1      19.115  -3.847  11.844  0.00  0.00     0.028 C 
ATOM     20  C1  ZIN A   1      17.796  -4.608  11.993  0.00  0.00     0.016 C 
ATOM     21  C3  ZIN A   1      20.169  -4.769  11.226  0.00  0.00     0.016 C 
ENDBRANCH   1  19
BRANCH   4  22
ATOM     22  C23 ZIN A   1      18.395  -1.086   7.684  0.00  0.00    -0.008 A 
ATOM     23  C29 ZIN A   1      19.412  -1.333   6.759  0.00  0.00     0.017 A 
ATOM     24  C28 ZIN A   1      19.224  -1.012   5.431  0.00  0.00     0.043 A 
ATOM     25  C26 ZIN A   1      18.033  -0.436   5.016  0.00  0.00     0.116 A 
ATOM     26  C25 ZIN A   1      17.023  -0.184   5.931  0.00  0.00     0.043 A 
ATOM     27  F27 ZIN A   1      17.857  -0.120   3.714  0.00  0.00    -0.206 F 
ATOM     28  C24 ZIN A   1      17.198  -0.505   7.260  0.00  0.00     0.017 A 
ENDBRANCH   4  22
BRANCH   2  29
ATOM     29  C6  ZIN A   1      18.955  -0.864  12.752  0.00  0.00     0.259 C 
ATOM     30  O7  ZIN A   1      19.901  -0.170  13.074  0.00  0.00    -0.267 OA
ATOM     31  N8  ZIN A   1      18.014  -1.186  13.660  0.00  0.00    -0.323 N 
ATOM     32  H51 ZIN A   1      17.226  -1.683  13.389  0.00  0.00     0.169 HD
BRANCH  31  33
ATOM     33  C9  ZIN A   1      18.172  -0.803  14.997  0.00  0.00     0.035 A 
ATOM     34  C14 ZIN A   1      18.991  -1.543  15.840  0.00  0.00     0.029 A 
ATOM     35  C13 ZIN A   1      19.149  -1.160  17.157  0.00  0.00     0.002 A 
ATOM     36  C12 ZIN A   1      18.486  -0.046  17.639  0.00  0.00     0.000 A 
ATOM     37  C11 ZIN A   1      17.665   0.689  16.804  0.00  0.00     0.002 A 
ATOM     38  C10 ZIN A   1      17.507   0.314  15.484  0.00  0.00     0.029 A 
ENDBRANCH  31  33
ENDBRANCH   2  29
BRANCH   3  39
ATOM     39  C16 ZIN A   1      18.491   0.934  10.088  0.00  0.00    -0.023 A 
ATOM     40  C21 ZIN A   1      17.603   1.596  10.937  0.00  0.00     0.012 A 
ATOM     41  C20 ZIN A   1      17.483   2.969  10.869  0.00  0.00     0.001 A 
ATOM     42  C19 ZIN A   1      18.232   3.687   9.954  0.00  0.00     0.000 A 
ATOM     43  C18 ZIN A   1      19.111   3.036   9.107  0.00  0.00     0.001 A 
ATOM     44  C17 ZIN A   1      19.245   1.664   9.169  0.00  0.00     0.012 A 
ENDBRANCH   3  39
TORSDOF 14
ENDMDL
MODEL 7
REMARK VINA RESULT:      -8.5      3.958     10.109
REMARK  14 active torsions:
REMARK  status: ('A' for Active; 'I' for Inactive)
REMARK    1  A    between atoms: C2_2  and  C4_4 
REMARK    2  A    between atoms: C5_5  and  C6_6 
REMARK       I    between atoms: C6_6  and  N8_8 
REMARK    3  A    between atoms: N8_8  and  C9_9 
REMARK    4  A    between atoms: C15_15  and  C16_16 
REMARK    5  A    between atoms: C22_22  and  C23_23 
REMARK    6  A    between atoms: N30_30  and  C31_31 
REMARK    7  A    between atoms: C31_31  and  C32_32 
REMARK    8  A    between atoms: C32_32  and  C33_33 
REMARK    9  A    between atoms: C33_33  and  O35_34 
REMARK   10  A    between atoms: C33_33  and  C36_35 
REMARK   11  A    between atoms: C36_35  and  C37_36 
REMARK   12  A    between atoms: C37_36  and  O39_37 
REMARK   13  A    between atoms: C37_36  and  C40_38 
REMARK   14  A    between atoms: C40_38  and  C41_39 
ROOT
ATOM      1  C4  ZIN A   1      17.861   1.630  10.851  0.00  0.00     0.032 A 
ATOM      2  C5  ZIN A   1      18.020   0.356  10.383  0.00  0.00     0.068 A 
ATOM      3  C15 ZIN A   1      18.208  -0.500  11.566  0.00  0.00     0.020 A 
ATOM      4  C22 ZIN A   1      18.144   0.346  12.656  0.00  0.00     0.057 A 
ATOM      5  N30 ZIN A   1      17.941   1.621  12.196  0.00  0.00    -0.347 N 
ENDROOT
BRANCH   5   6
ATOM      6  C31 ZIN A   1      17.817   2.807  13.047  0.00  0.00     0.132 C 
BRANCH   6   7
ATOM      7  C32 ZIN A   1      19.203   3.225  13.542  0.00  0.00     0.052 C 
BRANCH   7   8
ATOM      8  C33 ZIN A   1      19.088   3.801  14.956  0.00  0.00     0.122 C 
BRANCH   8   9
ATOM      9  O35 ZIN A   1      19.719   2.916  15.883  0.00  0.00    -0.395 OA
ATOM     10  H70 ZIN A   1      19.652   3.199  16.805  0.00  0.00     0.210 HD
ENDBRANCH   8   9
BRANCH   8  11
ATOM     11  C36 ZIN A   1      19.772   5.168  15.007  0.00  0.00     0.064 C 
BRANCH  11  12
ATOM     12  C37 ZIN A   1      18.822   6.190  15.636  0.00  0.00     0.130 C 
BRANCH  12  13
ATOM     13  O39 ZIN A   1      19.004   7.459  15.005  0.00  0.00    -0.395 OA
ATOM     14  H73 ZIN A   1      19.594   7.437  14.239  0.00  0.00     0.210 HD
ENDBRANCH  12  13
BRANCH  12  15
ATOM     15  C40 ZIN A   1      17.376   5.728  15.444  0.00  0.00     0.144 C 
BRANCH  15  16
ATOM     16  C41 ZIN A   1      16.663   6.679  14.518  0.00  0.00     0.175 C 
ATOM     17  O42 ZIN A   1      16.698   6.497  13.312  0.00  0.00    -0.648 OA
ATOM     18  O43 ZIN A   1      16.051   7.629  14.973  0.00  0.00    -0.648 OA
ENDBRANCH  15  16
ENDBRANCH  12  15
ENDBRANCH  11  12
ENDBRANCH   8  11
ENDBRANCH   7   8
ENDBRANCH   6   7
ENDBRANCH   5   6
BRANCH   1  19
ATOM     19  C2  ZIN A   1      17.638   2.852   9.998  0.00  0.00     0.028 C 
ATOM     20  C1  ZIN A   1      17.150   4.005  10.876  0.00  0.00     0.016 C 
ATOM     21  C3  ZIN A   1      18.952   3.247   9.320  0.00  0.00     0.016 C 
ENDBRANCH   1  19
BRANCH   4  22
ATOM     22  C23 ZIN A   1      18.279  -0.053  14.072  0.00  0.00    -0.008 A 
ATOM     23  C29 ZIN A   1      19.405  -0.763  14.496  0.00  0.00     0.017 A 
ATOM     24  C28 ZIN A   1      19.527  -1.129  15.820  0.00  0.00     0.043 A 
ATOM     25  C26 ZIN A   1      18.531  -0.803  16.727  0.00  0.00     0.116 A 
ATOM     26  C25 ZIN A   1      17.409  -0.104  16.310  0.00  0.00     0.043 A 
ATOM     27  F27 ZIN A   1      18.654  -1.169  18.021  0.00  0.00    -0.206 F 
ATOM     28  C24 ZIN A   1      17.278   0.271  14.990  0.00  0.00     0.017 A 
ENDBRANCH   4  22
BRANCH   2  29
ATOM     29  C6  ZIN A   1      18.007  -0.075   8.976  0.00  0.00     0.259 C 
ATOM     30  O7  ZIN A   1      16.949  -0.206   8.391  0.00  0.00    -0.267 OA
ATOM     31  N8  ZIN A   1      19.166  -0.325   8.337  0.00  0.00    -0.323 N 
ATOM     32  H51 ZIN A   1      20.012  -0.158   8.782  0.00  0.00     0.169 HD
BRANCH  31  33
ATOM     33  C9  ZIN A   1      19.151  -0.827   7.031  0.00  0.00     0.035 A 
ATOM     34  C14 ZIN A   1      19.074   0.045   5.952  0.00  0.00     0.029 A 
ATOM     35  C13 ZIN A   1      19.064  -0.453   4.664  0.00  0.00     0.002 A 
ATOM     36  C12 ZIN A   1      19.123  -1.818   4.448  0.00  0.00     0.000 A 
ATOM     37  C11 ZIN A   1      19.194  -2.688   5.520  0.00  0.00     0.002 A 
ATOM     38  C10 ZIN A   1      19.209  -2.196   6.811  0.00  0.00     0.029 A 
ENDBRANCH  31  33
ENDBRANCH   2  29
BRANCH   3  39
ATOM     39  C16 ZIN A   1      18.421  -1.965  11.584  0.00  0.00    -0.023 A 
ATOM     40  C21 ZIN A   1      17.332  -2.830  11.693  0.00  0.00     0.012 A 
ATOM     41  C20 ZIN A   1      17.537  -4.194  11.703  0.00  0.00     0.001 A 
ATOM     42  C19 ZIN A   1      18.820  -4.705  11.617  0.00  0.00     0.000 A 
ATOM     43  C18 ZIN A   1      19.905  -3.853  11.513  0.00  0.00     0.001 A 
ATOM     44  C17 ZIN A   1      19.713  -2.486  11.496  0.00  0.00     0.012 A 
ENDBRANCH   3  39
TORSDOF 14
ENDMDL
MODEL 8
REMARK VINA RESULT:      -8.4      2.798      8.614
REMARK  14 active torsions:
REMARK  status: ('A' for Active; 'I' for Inactive)
REMARK    1  A    between atoms: C2_2  and  C4_4 
REMARK    2  A    between atoms: C5_5  and  C6_6 
REMARK       I    between atoms: C6_6  and  N8_8 
REMARK    3  A    between atoms: N8_8  and  C9_9 
REMARK    4  A    between atoms: C15_15  and  C16_16 
REMARK    5  A    between atoms: C22_22  and  C23_23 
REMARK    6  A    between atoms: N30_30  and  C31_31 
REMARK    7  A    between atoms: C31_31  and  C32_32 
REMARK    8  A    between atoms: C32_32  and  C33_33 
REMARK    9  A    between atoms: C33_33  and  O35_34 
REMARK   10  A    between atoms: C33_33  and  C36_35 
REMARK   11  A    between atoms: C36_35  and  C37_36 
REMARK   12  A    between atoms: C37_36  and  O39_37 
REMARK   13  A    between atoms: C37_36  and  C40_38 
REMARK   14  A    between atoms: C40_38  and  C41_39 
ROOT
ATOM      1  C4  ZIN A   1      18.898  -2.452  11.193  0.00  0.00     0.032 A 
ATOM      2  C5  ZIN A   1      18.706  -2.394   9.841  0.00  0.00     0.068 A 
ATOM      3  C15 ZIN A   1      18.582  -0.967   9.500  0.00  0.00     0.020 A 
ATOM      4  C22 ZIN A   1      18.712  -0.283  10.693  0.00  0.00     0.057 A 
ATOM      5  N30 ZIN A   1      18.895  -1.202  11.694  0.00  0.00    -0.347 N 
ENDROOT
BRANCH   5   6
ATOM      6  C31 ZIN A   1      19.072  -0.870  13.110  0.00  0.00     0.132 C 
BRANCH   6   7
ATOM      7  C32 ZIN A   1      17.703  -0.648  13.757  0.00  0.00     0.052 C 
BRANCH   7   8
ATOM      8  C33 ZIN A   1      17.890  -0.041  15.150  0.00  0.00     0.122 C 
BRANCH   8   9
ATOM      9  O35 ZIN A   1      17.994  -1.089  16.115  0.00  0.00    -0.395 OA
ATOM     10  H70 ZIN A   1      18.887  -1.448  16.210  0.00  0.00     0.210 HD
ENDBRANCH   8   9
BRANCH   8  11
ATOM     11  C36 ZIN A   1      19.165   0.803  15.172  0.00  0.00     0.064 C 
BRANCH  11  12
ATOM     12  C37 ZIN A   1      18.843   2.200  15.705  0.00  0.00     0.130 C 
BRANCH  12  13
ATOM     13  O39 ZIN A   1      20.043   2.823  16.166  0.00  0.00    -0.395 OA
ATOM     14  H73 ZIN A   1      20.038   3.787  16.096  0.00  0.00     0.210 HD
ENDBRANCH  12  13
BRANCH  12  15
ATOM     15  C40 ZIN A   1      18.228   3.044  14.586  0.00  0.00     0.144 C 
BRANCH  15  16
ATOM     16  C41 ZIN A   1      17.831   4.391  15.133  0.00  0.00     0.175 C 
ATOM     17  O42 ZIN A   1      17.393   5.248  14.384  0.00  0.00    -0.648 OA
ATOM     18  O43 ZIN A   1      17.947   4.624  16.323  0.00  0.00    -0.648 OA
ENDBRANCH  15  16
ENDBRANCH  12  15
ENDBRANCH  11  12
ENDBRANCH   8  11
ENDBRANCH   7   8
ENDBRANCH   6   7
ENDBRANCH   5   6
BRANCH   1  19
ATOM     19  C2  ZIN A   1      19.078  -3.714  11.996  0.00  0.00     0.028 C 
ATOM     20  C1  ZIN A   1      17.860  -4.620  11.801  0.00  0.00     0.016 C 
ATOM     21  C3  ZIN A   1      20.338  -4.444  11.524  0.00  0.00     0.016 C 
ENDBRANCH   1  19
BRANCH   4  22
ATOM     22  C23 ZIN A   1      18.656   1.183  10.862  0.00  0.00    -0.008 A 
ATOM     23  C29 ZIN A   1      19.822   1.901  11.143  0.00  0.00     0.017 A 
ATOM     24  C28 ZIN A   1      19.764   3.270  11.295  0.00  0.00     0.043 A 
ATOM     25  C26 ZIN A   1      18.552   3.933  11.179  0.00  0.00     0.116 A 
ATOM     26  C25 ZIN A   1      17.392   3.225  10.906  0.00  0.00     0.043 A 
ATOM     27  F27 ZIN A   1      18.502   5.274  11.333  0.00  0.00    -0.206 F 
ATOM     28  C24 ZIN A   1      17.438   1.856  10.747  0.00  0.00     0.017 A 
ENDBRANCH   4  22
BRANCH   2  29
ATOM     29  C6  ZIN A   1      18.638  -3.532   8.910  0.00  0.00     0.259 C 
ATOM     30  O7  ZIN A   1      19.660  -3.996   8.442  0.00  0.00    -0.267 OA
ATOM     31  N8  ZIN A   1      17.443  -4.059   8.577  0.00  0.00    -0.323 N 
ATOM     32  H51 ZIN A   1      16.633  -3.733   9.001  0.00  0.00     0.169 HD
BRANCH  31  33
ATOM     33  C9  ZIN A   1      17.370  -5.077   7.620  0.00  0.00     0.035 A 
ATOM     34  C14 ZIN A   1      17.201  -6.396   8.020  0.00  0.00     0.029 A 
ATOM     35  C13 ZIN A   1      17.123  -7.398   7.073  0.00  0.00     0.002 A 
ATOM     36  C12 ZIN A   1      17.223  -7.090   5.728  0.00  0.00     0.000 A 
ATOM     37  C11 ZIN A   1      17.398  -5.778   5.328  0.00  0.00     0.002 A 
ATOM     38  C10 ZIN A   1      17.471  -4.771   6.270  0.00  0.00     0.029 A 
ENDBRANCH  31  33
ENDBRANCH   2  29
BRANCH   3  39
ATOM     39  C16 ZIN A   1      18.363  -0.386   8.156  0.00  0.00    -0.023 A 
ATOM     40  C21 ZIN A   1      17.136  -0.553   7.512  0.00  0.00     0.012 A 
ATOM     41  C20 ZIN A   1      16.937  -0.005   6.262  0.00  0.00     0.001 A 
ATOM     42  C19 ZIN A   1      17.953   0.701   5.643  0.00  0.00     0.000 A 
ATOM     43  C18 ZIN A   1      19.173   0.867   6.274  0.00  0.00     0.001 A 
ATOM     44  C17 ZIN A   1      19.384   0.328   7.527  0.00  0.00     0.012 A 
ENDBRANCH   3  39
TORSDOF 14
ENDMDL
MODEL 9
REMARK VINA RESULT:      -8.3      2.501      8.503
REMARK  14 active torsions:
REMARK  status: ('A' for Active; 'I' for Inactive)
REMARK    1  A    between atoms: C2_2  and  C4_4 
REMARK    2  A    between atoms: C5_5  and  C6_6 
REMARK       I    between atoms: C6_6  and  N8_8 
REMARK    3  A    between atoms: N8_8  and  C9_9 
REMARK    4  A    between atoms: C15_15  and  C16_16 
REMARK    5  A    between atoms: C22_22  and  C23_23 
REMARK    6  A    between atoms: N30_30  and  C31_31 
REMARK    7  A    between atoms: C31_31  and  C32_32 
REMARK    8  A    between atoms: C32_32  and  C33_33 
REMARK    9  A    between atoms: C33_33  and  O35_34 
REMARK   10  A    between atoms: C33_33  and  C36_35 
REMARK   11  A    between atoms: C36_35  and  C37_36 
REMARK   12  A    between atoms: C37_36  and  O39_37 
REMARK   13  A    between atoms: C37_36  and  C40_38 
REMARK   14  A    between atoms: C40_38  and  C41_39 
ROOT
ATOM      1  C4  ZIN A   1      18.124  -3.537   9.848  0.00  0.00     0.032 A 
ATOM      2  C5  ZIN A   1      18.186  -3.418   8.488  0.00  0.00     0.068 A 
ATOM      3  C15 ZIN A   1      18.257  -1.976   8.201  0.00  0.00     0.020 A 
ATOM      4  C22 ZIN A   1      18.231  -1.345   9.430  0.00  0.00     0.057 A 
ATOM      5  N30 ZIN A   1      18.145  -2.309  10.401  0.00  0.00    -0.347 N 
ENDROOT
BRANCH   5   6
ATOM      6  C31 ZIN A   1      18.094  -2.041  11.841  0.00  0.00     0.132 C 
BRANCH   6   7
ATOM      7  C32 ZIN A   1      19.492  -1.675  12.342  0.00  0.00     0.052 C 
BRANCH   7   8
ATOM      8  C33 ZIN A   1      19.384  -1.008  13.715  0.00  0.00     0.122 C 
BRANCH   8   9
ATOM      9  O35 ZIN A   1      20.670  -0.528  14.113  0.00  0.00    -0.395 OA
ATOM     10  H70 ZIN A   1      21.113   0.009  13.443  0.00  0.00     0.210 HD
ENDBRANCH   8   9
BRANCH   8  11
ATOM     11  C36 ZIN A   1      18.403   0.163  13.638  0.00  0.00     0.064 C 
BRANCH  11  12
ATOM     12  C37 ZIN A   1      19.081   1.432  14.157  0.00  0.00     0.130 C 
BRANCH  12  13
ATOM     13  O39 ZIN A   1      19.770   2.077  13.084  0.00  0.00    -0.395 OA
ATOM     14  H73 ZIN A   1      20.721   2.175  13.230  0.00  0.00     0.210 HD
ENDBRANCH  12  13
BRANCH  12  15
ATOM     15  C40 ZIN A   1      18.022   2.380  14.726  0.00  0.00     0.144 C 
BRANCH  15  16
ATOM     16  C41 ZIN A   1      18.276   3.777  14.221  0.00  0.00     0.175 C 
ATOM     17  O42 ZIN A   1      19.173   4.447  14.705  0.00  0.00    -0.648 OA
ATOM     18  O43 ZIN A   1      17.586   4.236  13.328  0.00  0.00    -0.648 OA
ENDBRANCH  15  16
ENDBRANCH  12  15
ENDBRANCH  11  12
ENDBRANCH   8  11
ENDBRANCH   7   8
ENDBRANCH   6   7
ENDBRANCH   5   6
BRANCH   1  19
ATOM     19  C2  ZIN A   1      18.039  -4.835  10.608  0.00  0.00     0.028 C 
ATOM     20  C1  ZIN A   1      19.292  -5.005  11.470  0.00  0.00     0.016 C 
ATOM     21  C3  ZIN A   1      16.800  -4.821  11.505  0.00  0.00     0.016 C 
ENDBRANCH   1  19
BRANCH   4  22
ATOM     22  C23 ZIN A   1      18.281   0.113   9.657  0.00  0.00    -0.008 A 
ATOM     23  C29 ZIN A   1      19.358   0.861   9.173  0.00  0.00     0.017 A 
ATOM     24  C28 ZIN A   1      19.397   2.223   9.384  0.00  0.00     0.043 A 
ATOM     25  C26 ZIN A   1      18.377   2.848  10.084  0.00  0.00     0.116 A 
ATOM     26  C25 ZIN A   1      17.309   2.110  10.571  0.00  0.00     0.043 A 
ATOM     27  F27 ZIN A   1      18.423   4.182  10.292  0.00  0.00    -0.206 F 
ATOM     28  C24 ZIN A   1      17.257   0.748  10.362  0.00  0.00     0.017 A 
ENDBRANCH   4  22
BRANCH   2  29
ATOM     29  C6  ZIN A   1      18.182  -4.513   7.505  0.00  0.00     0.259 C 
ATOM     30  O7  ZIN A   1      19.219  -5.087   7.231  0.00  0.00    -0.267 OA
ATOM     31  N8  ZIN A   1      17.030  -4.880   6.910  0.00  0.00    -0.323 N 
ATOM     32  H51 ZIN A   1      16.193  -4.468   7.177  0.00  0.00     0.169 HD
BRANCH  31  33
ATOM     33  C9  ZIN A   1      17.041  -5.855   5.907  0.00  0.00     0.035 A 
ATOM     34  C14 ZIN A   1      16.905  -7.197   6.240  0.00  0.00     0.029 A 
ATOM     35  C13 ZIN A   1      16.911  -8.157   5.247  0.00  0.00     0.002 A 
ATOM     36  C12 ZIN A   1      17.061  -7.784   3.924  0.00  0.00     0.000 A 
ATOM     37  C11 ZIN A   1      17.202  -6.450   3.589  0.00  0.00     0.002 A 
ATOM     38  C10 ZIN A   1      17.192  -5.484   4.578  0.00  0.00     0.029 A 
ENDBRANCH  31  33
ENDBRANCH   2  29
BRANCH   3  39
ATOM     39  C16 ZIN A   1      18.339  -1.333   6.869  0.00  0.00    -0.023 A 
ATOM     40  C21 ZIN A   1      17.376  -0.400   6.482  0.00  0.00     0.012 A 
ATOM     41  C20 ZIN A   1      17.461   0.199   5.242  0.00  0.00     0.001 A 
ATOM     42  C19 ZIN A   1      18.491  -0.131   4.379  0.00  0.00     0.000 A 
ATOM     43  C18 ZIN A   1      19.445  -1.060   4.755  0.00  0.00     0.001 A 
ATOM     44  C17 ZIN A   1      19.375  -1.662   5.995  0.00  0.00     0.012 A 
ENDBRANCH   3  39
TORSDOF 14
ENDMDL
