MODEL 1
REMARK VINA RESULT:      -4.4      0.000      0.000
REMARK  4 active torsions:
REMARK  status: ('A' for Active; 'I' for Inactive)
REMARK    1  A    between atoms: C2_2  and  C4_3 
REMARK    2  A    between atoms: C2_2  and  O9_8 
REMARK    3  A    between atoms: C4_3  and  N5_4 
REMARK    4  A    between atoms: O9_8  and  C10_9 
REMARK       I    between atoms: C10_9  and  N11_10 
ROOT
ATOM      1  C1  ZIN A   1      18.180   0.331   7.744  0.00  0.00     0.042 C 
ATOM      2  C2  ZIN A   1      18.825   0.720   9.077  0.00  0.00     0.155 C 
ENDROOT
BRANCH   2   3
ATOM      3  C4  ZIN A   1      19.038   2.234   9.117  0.00  0.00     0.268 C 
BRANCH   3   4
ATOM      4  N5  ZIN A   1      18.562   2.762  10.403  0.00  0.00    -0.076 N 
ATOM      5  C6  ZIN A   1      17.613   1.813  11.001  0.00  0.00     0.271 C 
ATOM      6  C7  ZIN A   1      19.704   2.948  11.308  0.00  0.00     0.271 C 
ATOM      7  C8  ZIN A   1      17.894   4.052  10.187  0.00  0.00     0.271 C 
ENDBRANCH   3   4
ENDBRANCH   2   3
BRANCH   2   8
ATOM      8  O9  ZIN A   1      20.104   0.047   9.211  0.00  0.00    -0.297 OA
BRANCH   8   9
ATOM      9  C10 ZIN A   1      20.330  -0.611  10.363  0.00  0.00     0.358 C 
ATOM     10  N11 ZIN A   1      21.545  -0.555  10.944  0.00  0.00    -0.346 N 
ATOM     11  H27 ZIN A   1      22.256  -0.041  10.532  0.00  0.00     0.161 HD
ATOM     12  H28 ZIN A   1      21.708  -1.029  11.775  0.00  0.00     0.161 HD
ATOM     13  O12 ZIN A   1      19.439  -1.256  10.880  0.00  0.00    -0.239 OA
ENDBRANCH   8   9
ENDBRANCH   2   8
TORSDOF 4
ENDMDL
MODEL 2
REMARK VINA RESULT:      -4.2      3.016      4.843
REMARK  4 active torsions:
REMARK  status: ('A' for Active; 'I' for Inactive)
REMARK    1  A    between atoms: C2_2  and  C4_3 
REMARK    2  A    between atoms: C2_2  and  O9_8 
REMARK    3  A    between atoms: C4_3  and  N5_4 
REMARK    4  A    between atoms: O9_8  and  C10_9 
REMARK       I    between atoms: C10_9  and  N11_10 
ROOT
ATOM      1  C1  ZIN A   1      16.936  -0.110  11.400  0.00  0.00     0.042 C 
ATOM      2  C2  ZIN A   1      18.063  -1.106  11.116  0.00  0.00     0.155 C 
ENDROOT
BRANCH   2   3
ATOM      3  C4  ZIN A   1      17.819  -2.392  11.908  0.00  0.00     0.268 C 
BRANCH   3   4
ATOM      4  N5  ZIN A   1      17.987  -3.551  11.022  0.00  0.00    -0.076 N 
ATOM      5  C6  ZIN A   1      19.328  -4.122  11.210  0.00  0.00     0.271 C 
ATOM      6  C7  ZIN A   1      16.975  -4.565  11.345  0.00  0.00     0.271 C 
ATOM      7  C8  ZIN A   1      17.828  -3.128   9.624  0.00  0.00     0.271 C 
ENDBRANCH   3   4
ENDBRANCH   2   3
BRANCH   2   8
ATOM      8  O9  ZIN A   1      19.333  -0.526  11.514  0.00  0.00    -0.297 OA
BRANCH   8   9
ATOM      9  C10 ZIN A   1      20.310  -0.500  10.588  0.00  0.00     0.358 C 
ATOM     10  N11 ZIN A   1      21.599  -0.611  10.966  0.00  0.00    -0.346 N 
ATOM     11  H27 ZIN A   1      21.824  -0.707  11.904  0.00  0.00     0.161 HD
ATOM     12  H28 ZIN A   1      22.303  -0.592  10.298  0.00  0.00     0.161 HD
ATOM     13  O12 ZIN A   1      20.030  -0.379   9.413  0.00  0.00    -0.239 OA
ENDBRANCH   8   9
ENDBRANCH   2   8
TORSDOF 4
ENDMDL
MODEL 3
REMARK VINA RESULT:      -4.1      3.518      4.300
REMARK  4 active torsions:
REMARK  status: ('A' for Active; 'I' for Inactive)
REMARK    1  A    between atoms: C2_2  and  C4_3 
REMARK    2  A    between atoms: C2_2  and  O9_8 
REMARK    3  A    between atoms: C4_3  and  N5_4 
REMARK    4  A    between atoms: O9_8  and  C10_9 
REMARK       I    between atoms: C10_9  and  N11_10 
ROOT
ATOM      1  C1  ZIN A   1      17.542  -1.503  11.789  0.00  0.00     0.042 C 
ATOM      2  C2  ZIN A   1      18.505  -0.654  12.622  0.00  0.00     0.155 C 
ENDROOT
BRANCH   2   3
ATOM      3  C4  ZIN A   1      17.722   0.094  13.702  0.00  0.00     0.268 C 
BRANCH   3   4
ATOM      4  N5  ZIN A   1      18.431  -0.014  14.984  0.00  0.00    -0.076 N 
ATOM      5  C6  ZIN A   1      19.308  -1.192  14.961  0.00  0.00     0.271 C 
ATOM      6  C7  ZIN A   1      19.238   1.194  15.201  0.00  0.00     0.271 C 
ATOM      7  C8  ZIN A   1      17.455  -0.152  16.074  0.00  0.00     0.271 C 
ENDBRANCH   3   4
ENDBRANCH   2   3
BRANCH   2   8
ATOM      8  O9  ZIN A   1      19.177   0.302  11.761  0.00  0.00    -0.297 OA
BRANCH   8   9
ATOM      9  C10 ZIN A   1      20.462   0.048  11.452  0.00  0.00     0.358 C 
ATOM     10  N11 ZIN A   1      21.452   0.578  12.198  0.00  0.00    -0.346 N 
ATOM     11  H27 ZIN A   1      21.239   1.143  12.957  0.00  0.00     0.161 HD
ATOM     12  H28 ZIN A   1      22.379   0.394  11.975  0.00  0.00     0.161 HD
ATOM     13  O12 ZIN A   1      20.731  -0.660  10.502  0.00  0.00    -0.239 OA
ENDBRANCH   8   9
ENDBRANCH   2   8
TORSDOF 4
ENDMDL
MODEL 4
REMARK VINA RESULT:      -4.1      2.183      3.350
REMARK  4 active torsions:
REMARK  status: ('A' for Active; 'I' for Inactive)
REMARK    1  A    between atoms: C2_2  and  C4_3 
REMARK    2  A    between atoms: C2_2  and  O9_8 
REMARK    3  A    between atoms: C4_3  and  N5_4 
REMARK    4  A    between atoms: O9_8  and  C10_9 
REMARK       I    between atoms: C10_9  and  N11_10 
ROOT
ATOM      1  C1  ZIN A   1      18.886   2.858  10.023  0.00  0.00     0.042 C 
ATOM      2  C2  ZIN A   1      19.146   1.445  10.549  0.00  0.00     0.155 C 
ENDROOT
BRANCH   2   3
ATOM      3  C4  ZIN A   1      17.920   0.569  10.286  0.00  0.00     0.268 C 
BRANCH   3   4
ATOM      4  N5  ZIN A   1      18.293  -0.542   9.401  0.00  0.00    -0.076 N 
ATOM      5  C6  ZIN A   1      18.078  -1.817  10.098  0.00  0.00     0.271 C 
ATOM      6  C7  ZIN A   1      17.464  -0.502   8.189  0.00  0.00     0.271 C 
ATOM      7  C8  ZIN A   1      19.709  -0.420   9.030  0.00  0.00     0.271 C 
ENDBRANCH   3   4
ENDBRANCH   2   3
BRANCH   2   8
ATOM      8  O9  ZIN A   1      19.405   1.499  11.976  0.00  0.00    -0.297 OA
BRANCH   8   9
ATOM      9  C10 ZIN A   1      20.260   0.587  12.477  0.00  0.00     0.358 C 
ATOM     10  N11 ZIN A   1      21.554   0.597  12.099  0.00  0.00    -0.346 N 
ATOM     11  H27 ZIN A   1      21.869   1.260  11.466  0.00  0.00     0.161 HD
ATOM     12  H28 ZIN A   1      22.169  -0.060  12.460  0.00  0.00     0.161 HD
ATOM     13  O12 ZIN A   1      19.865  -0.244  13.270  0.00  0.00    -0.239 OA
ENDBRANCH   8   9
ENDBRANCH   2   8
TORSDOF 4
ENDMDL
MODEL 5
REMARK VINA RESULT:      -4.0      1.663      2.892
REMARK  4 active torsions:
REMARK  status: ('A' for Active; 'I' for Inactive)
REMARK    1  A    between atoms: C2_2  and  C4_3 
REMARK    2  A    between atoms: C2_2  and  O9_8 
REMARK    3  A    between atoms: C4_3  and  N5_4 
REMARK    4  A    between atoms: O9_8  and  C10_9 
REMARK       I    between atoms: C10_9  and  N11_10 
ROOT
ATOM      1  C1  ZIN A   1      19.550   0.578  14.077  0.00  0.00     0.042 C 
ATOM      2  C2  ZIN A   1      19.412   0.807  12.570  0.00  0.00     0.155 C 
ENDROOT
BRANCH   2   3
ATOM      3  C4  ZIN A   1      18.076   1.490  12.278  0.00  0.00     0.268 C 
BRANCH   3   4
ATOM      4  N5  ZIN A   1      18.311   2.710  11.493  0.00  0.00    -0.076 N 
ATOM      5  C6  ZIN A   1      19.722   3.101  11.607  0.00  0.00     0.271 C 
ATOM      6  C7  ZIN A   1      17.985   2.456  10.083  0.00  0.00     0.271 C 
ATOM      7  C8  ZIN A   1      17.460   3.794  12.004  0.00  0.00     0.271 C 
ENDBRANCH   3   4
ENDBRANCH   2   3
BRANCH   2   8
ATOM      8  O9  ZIN A   1      19.465  -0.469  11.879  0.00  0.00    -0.297 OA
BRANCH   8   9
ATOM      9  C10 ZIN A   1      20.272  -0.549  10.805  0.00  0.00     0.358 C 
ATOM     10  N11 ZIN A   1      21.611  -0.557  10.968  0.00  0.00    -0.346 N 
ATOM     11  H27 ZIN A   1      21.992  -0.503  11.858  0.00  0.00     0.161 HD
ATOM     12  H28 ZIN A   1      22.193  -0.615  10.194  0.00  0.00     0.161 HD
ATOM     13  O12 ZIN A   1      19.796  -0.617   9.690  0.00  0.00    -0.239 OA
ENDBRANCH   8   9
ENDBRANCH   2   8
TORSDOF 4
ENDMDL
MODEL 6
REMARK VINA RESULT:      -4.0      2.087      3.103
REMARK  4 active torsions:
REMARK  status: ('A' for Active; 'I' for Inactive)
REMARK    1  A    between atoms: C2_2  and  C4_3 
REMARK    2  A    between atoms: C2_2  and  O9_8 
REMARK    3  A    between atoms: C4_3  and  N5_4 
REMARK    4  A    between atoms: O9_8  and  C10_9 
REMARK       I    between atoms: C10_9  and  N11_10 
ROOT
ATOM      1  C1  ZIN A   1      17.674  -1.955  11.547  0.00  0.00     0.042 C 
ATOM      2  C2  ZIN A   1      18.555  -0.726  11.317  0.00  0.00     0.155 C 
ENDROOT
BRANCH   2   3
ATOM      3  C4  ZIN A   1      19.020  -0.697   9.860  0.00  0.00     0.268 C 
BRANCH   3   4
ATOM      4  N5  ZIN A   1      18.396   0.439   9.169  0.00  0.00    -0.076 N 
ATOM      5  C6  ZIN A   1      17.733   1.306  10.152  0.00  0.00     0.271 C 
ATOM      6  C7  ZIN A   1      19.427   1.205   8.456  0.00  0.00     0.271 C 
ATOM      7  C8  ZIN A   1      17.403  -0.057   8.207  0.00  0.00     0.271 C 
ENDBRANCH   3   4
ENDBRANCH   2   3
BRANCH   2   8
ATOM      8  O9  ZIN A   1      19.711  -0.789  12.193  0.00  0.00    -0.297 OA
BRANCH   8   9
ATOM      9  C10 ZIN A   1      20.299   0.379  12.513  0.00  0.00     0.358 C 
ATOM     10  N11 ZIN A   1      21.568   0.622  12.128  0.00  0.00    -0.346 N 
ATOM     11  H27 ZIN A   1      22.058  -0.044  11.622  0.00  0.00     0.161 HD
ATOM     12  H28 ZIN A   1      21.992   1.464  12.359  0.00  0.00     0.161 HD
ATOM     13  O12 ZIN A   1      19.687   1.214  13.147  0.00  0.00    -0.239 OA
ENDBRANCH   8   9
ENDBRANCH   2   8
TORSDOF 4
ENDMDL
MODEL 7
REMARK VINA RESULT:      -4.0      1.787      3.303
REMARK  4 active torsions:
REMARK  status: ('A' for Active; 'I' for Inactive)
REMARK    1  A    between atoms: C2_2  and  C4_3 
REMARK    2  A    between atoms: C2_2  and  O9_8 
REMARK    3  A    between atoms: C4_3  and  N5_4 
REMARK    4  A    between atoms: O9_8  and  C10_9 
REMARK       I    between atoms: C10_9  and  N11_10 
ROOT
ATOM      1  C1  ZIN A   1      18.189   2.218  10.643  0.00  0.00     0.042 C 
ATOM      2  C2  ZIN A   1      18.778   0.951  10.018  0.00  0.00     0.155 C 
ENDROOT
BRANCH   2   3
ATOM      3  C4  ZIN A   1      17.740   0.308   9.096  0.00  0.00     0.268 C 
BRANCH   3   4
ATOM      4  N5  ZIN A   1      18.330   0.098   7.767  0.00  0.00    -0.076 N 
ATOM      5  C6  ZIN A   1      19.125   1.275   7.392  0.00  0.00     0.271 C 
ATOM      6  C7  ZIN A   1      19.197  -1.088   7.798  0.00  0.00     0.271 C 
ATOM      7  C8  ZIN A   1      17.260  -0.104   6.781  0.00  0.00     0.271 C 
ENDBRANCH   3   4
ENDBRANCH   2   3
BRANCH   2   8
ATOM      8  O9  ZIN A   1      19.138   0.015  11.068  0.00  0.00    -0.297 OA
BRANCH   8   9
ATOM      9  C10 ZIN A   1      20.417   0.032  11.489  0.00  0.00     0.358 C 
ATOM     10  N11 ZIN A   1      21.377  -0.558  10.749  0.00  0.00    -0.346 N 
ATOM     11  H27 ZIN A   1      21.147  -0.996   9.915  0.00  0.00     0.161 HD
ATOM     12  H28 ZIN A   1      22.299  -0.546  11.052  0.00  0.00     0.161 HD
ATOM     13  O12 ZIN A   1      20.706   0.580  12.533  0.00  0.00    -0.239 OA
ENDBRANCH   8   9
ENDBRANCH   2   8
TORSDOF 4
ENDMDL
MODEL 8
REMARK VINA RESULT:      -4.0      2.092      2.367
REMARK  4 active torsions:
REMARK  status: ('A' for Active; 'I' for Inactive)
REMARK    1  A    between atoms: C2_2  and  C4_3 
REMARK    2  A    between atoms: C2_2  and  O9_8 
REMARK    3  A    between atoms: C4_3  and  N5_4 
REMARK    4  A    between atoms: O9_8  and  C10_9 
REMARK       I    between atoms: C10_9  and  N11_10 
ROOT
ATOM      1  C1  ZIN A   1      17.153   0.087  11.407  0.00  0.00     0.042 C 
ATOM      2  C2  ZIN A   1      18.293   1.069  11.687  0.00  0.00     0.155 C 
ENDROOT
BRANCH   2   3
ATOM      3  C4  ZIN A   1      17.864   2.479  11.278  0.00  0.00     0.268 C 
BRANCH   3   4
ATOM      4  N5  ZIN A   1      18.175   3.419  12.363  0.00  0.00    -0.076 N 
ATOM      5  C6  ZIN A   1      18.105   2.719  13.653  0.00  0.00     0.271 C 
ATOM      6  C7  ZIN A   1      19.527   3.959  12.171  0.00  0.00     0.271 C 
ATOM      7  C8  ZIN A   1      17.202   4.520  12.351  0.00  0.00     0.271 C 
ENDBRANCH   3   4
ENDBRANCH   2   3
BRANCH   2   8
ATOM      8  O9  ZIN A   1      19.466   0.679  10.926  0.00  0.00    -0.297 OA
BRANCH   8   9
ATOM      9  C10 ZIN A   1      20.517   0.207  11.622  0.00  0.00     0.358 C 
ATOM     10  N11 ZIN A   1      21.459  -0.531  11.001  0.00  0.00    -0.346 N 
ATOM     11  H27 ZIN A   1      21.379  -0.722  10.054  0.00  0.00     0.161 HD
ATOM     12  H28 ZIN A   1      22.217  -0.871  11.502  0.00  0.00     0.161 HD
ATOM     13  O12 ZIN A   1      20.617   0.446  12.808  0.00  0.00    -0.239 OA
ENDBRANCH   8   9
ENDBRANCH   2   8
TORSDOF 4
ENDMDL
MODEL 9
REMARK VINA RESULT:      -3.9      3.259      5.283
REMARK  4 active torsions:
REMARK  status: ('A' for Active; 'I' for Inactive)
REMARK    1  A    between atoms: C2_2  and  C4_3 
REMARK    2  A    between atoms: C2_2  and  O9_8 
REMARK    3  A    between atoms: C4_3  and  N5_4 
REMARK    4  A    between atoms: O9_8  and  C10_9 
REMARK       I    between atoms: C10_9  and  N11_10 
ROOT
ATOM      1  C1  ZIN A   1      19.099  -1.796  13.235  0.00  0.00     0.042 C 
ATOM      2  C2  ZIN A   1      19.276  -2.035  11.734  0.00  0.00     0.155 C 
ENDROOT
BRANCH   2   3
ATOM      3  C4  ZIN A   1      19.390  -3.537  11.467  0.00  0.00     0.268 C 
BRANCH   3   4
ATOM      4  N5  ZIN A   1      18.307  -3.958  10.567  0.00  0.00    -0.076 N 
ATOM      5  C6  ZIN A   1      18.749  -5.114   9.776  0.00  0.00     0.271 C 
ATOM      6  C7  ZIN A   1      17.128  -4.329  11.360  0.00  0.00     0.271 C 
ATOM      7  C8  ZIN A   1      17.962  -2.851   9.664  0.00  0.00     0.271 C 
ENDBRANCH   3   4
ENDBRANCH   2   3
BRANCH   2   8
ATOM      8  O9  ZIN A   1      20.482  -1.370  11.277  0.00  0.00    -0.297 OA
BRANCH   8   9
ATOM      9  C10 ZIN A   1      20.519  -0.029  11.386  0.00  0.00     0.358 C 
ATOM     10  N11 ZIN A   1      21.504   0.562  12.093  0.00  0.00    -0.346 N 
ATOM     11  H27 ZIN A   1      22.184   0.021  12.523  0.00  0.00     0.161 HD
ATOM     12  H28 ZIN A   1      21.530   1.529  12.172  0.00  0.00     0.161 HD
ATOM     13  O12 ZIN A   1      19.667   0.649  10.849  0.00  0.00    -0.239 OA
ENDBRANCH   8   9
ENDBRANCH   2   8
TORSDOF 4
ENDMDL
