MODEL 1
REMARK VINA RESULT:      -8.8      0.000      0.000
REMARK  0 active torsions:
REMARK  status: ('A' for Active; 'I' for Inactive)
ROOT
ATOM      1  C1  ZIN A   1      19.241  -4.416   9.778  0.00  0.00     0.269 C 
ATOM      2  N2  ZIN A   1      18.169  -3.538  10.266  0.00  0.00    -0.074 N 
ATOM      3  H3  ZIN A   1      17.286  -4.025  10.227  0.00  0.00     0.279 HD
ATOM      4  C4  ZIN A   1      18.103  -2.313   9.425  0.00  0.00     0.244 C 
ATOM      5  C5  ZIN A   1      17.769  -1.195  10.427  0.00  0.00     0.057 C 
ATOM      6  C7  ZIN A   1      18.075   0.179   9.978  0.00  0.00    -0.018 A 
ATOM      7  C8  ZIN A   1      18.674   0.449   8.764  0.00  0.00     0.010 A 
ATOM      8  C9  ZIN A   1      18.965   1.755   8.413  0.00  0.00     0.001 A 
ATOM      9  C10 ZIN A   1      18.661   2.792   9.274  0.00  0.00     0.003 A 
ATOM     10  C11 ZIN A   1      18.049   2.528  10.486  0.00  0.00     0.038 A 
ATOM     11  C12 ZIN A   1      17.740   1.224  10.830  0.00  0.00     0.082 A 
ATOM     12  O13 ZIN A   1      17.062   0.929  11.956  0.00  0.00    -0.310 OA
ATOM     13  C14 ZIN A   1      17.567   0.268  13.015  0.00  0.00     0.083 A 
ATOM     14  C15 ZIN A   1      17.332   0.830  14.270  0.00  0.00     0.039 A 
ATOM     15  C16 ZIN A   1      17.824   0.246  15.415  0.00  0.00     0.026 A 
ATOM     16  C17 ZIN A   1      18.567  -0.917  15.319  0.00  0.00     0.034 A 
ATOM     17 Cl18 ZIN A   1      19.208  -1.662  16.750  0.00  0.00    -0.084 Cl
ATOM     18  C19 ZIN A   1      18.796  -1.483  14.084  0.00  0.00     0.034 A 
ATOM     19  C20 ZIN A   1      18.294  -0.909  12.916  0.00  0.00    -0.016 A 
ATOM     20  C21 ZIN A   1      18.567  -1.611  11.646  0.00  0.00     0.057 C 
ATOM     21  C23 ZIN A   1      18.453  -3.131  11.665  0.00  0.00     0.244 C 
ENDROOT
TORSDOF 0
ENDMDL
MODEL 2
REMARK VINA RESULT:      -8.8      2.842      4.542
REMARK  0 active torsions:
REMARK  status: ('A' for Active; 'I' for Inactive)
ROOT
ATOM      1  C1  ZIN A   1      17.011   5.647  13.048  0.00  0.00     0.269 C 
ATOM      2  N2  ZIN A   1      18.201   4.797  13.194  0.00  0.00    -0.074 N 
ATOM      3  H3  ZIN A   1      18.929   5.309  13.668  0.00  0.00     0.279 HD
ATOM      4  C4  ZIN A   1      18.680   4.372  11.851  0.00  0.00     0.244 C 
ATOM      5  C5  ZIN A   1      19.158   2.927  12.070  0.00  0.00     0.057 C 
ATOM      6  C7  ZIN A   1      19.270   2.098  10.851  0.00  0.00    -0.018 A 
ATOM      7  C8  ZIN A   1      18.915   2.563   9.601  0.00  0.00     0.010 A 
ATOM      8  C9  ZIN A   1      19.011   1.728   8.502  0.00  0.00     0.001 A 
ATOM      9  C10 ZIN A   1      19.457   0.429   8.650  0.00  0.00     0.003 A 
ATOM     10  C11 ZIN A   1      19.826  -0.038   9.900  0.00  0.00     0.038 A 
ATOM     11  C12 ZIN A   1      19.748   0.802  10.997  0.00  0.00     0.082 A 
ATOM     12  O13 ZIN A   1      20.183   0.421  12.213  0.00  0.00    -0.310 OA
ATOM     13  C14 ZIN A   1      19.398   0.219  13.288  0.00  0.00     0.083 A 
ATOM     14  C15 ZIN A   1      19.609  -0.963  14.000  0.00  0.00     0.039 A 
ATOM     15  C16 ZIN A   1      18.845  -1.278  15.101  0.00  0.00     0.026 A 
ATOM     16  C17 ZIN A   1      17.850  -0.407  15.508  0.00  0.00     0.034 A 
ATOM     17 Cl18 ZIN A   1      16.867  -0.790  16.886  0.00  0.00    -0.084 Cl
ATOM     18  C19 ZIN A   1      17.641   0.766  14.817  0.00  0.00     0.034 A 
ATOM     19  C20 ZIN A   1      18.415   1.104  13.706  0.00  0.00    -0.016 A 
ATOM     20  C21 ZIN A   1      18.135   2.399  13.054  0.00  0.00     0.057 C 
ATOM     21  C23 ZIN A   1      17.856   3.582  13.974  0.00  0.00     0.244 C 
ENDROOT
TORSDOF 0
ENDMDL
MODEL 3
REMARK VINA RESULT:      -8.4      3.539      5.524
REMARK  0 active torsions:
REMARK  status: ('A' for Active; 'I' for Inactive)
ROOT
ATOM      1  C1  ZIN A   1      19.617  -3.046  11.958  0.00  0.00     0.269 C 
ATOM      2  N2  ZIN A   1      20.234  -2.020  11.107  0.00  0.00    -0.074 N 
ATOM      3  H3  ZIN A   1      21.228  -2.180  11.047  0.00  0.00     0.279 HD
ATOM      4  C4  ZIN A   1      19.978  -0.672  11.683  0.00  0.00     0.244 C 
ATOM      5  C5  ZIN A   1      19.756   0.220  10.450  0.00  0.00     0.057 C 
ATOM      6  C7  ZIN A   1      19.050   1.493  10.700  0.00  0.00    -0.018 A 
ATOM      7  C8  ZIN A   1      18.565   1.843  11.943  0.00  0.00     0.010 A 
ATOM      8  C9  ZIN A   1      17.883   3.035  12.108  0.00  0.00     0.001 A 
ATOM      9  C10 ZIN A   1      17.681   3.877  11.031  0.00  0.00     0.003 A 
ATOM     10  C11 ZIN A   1      18.176   3.537   9.785  0.00  0.00     0.038 A 
ATOM     11  C12 ZIN A   1      18.874   2.353   9.623  0.00  0.00     0.082 A 
ATOM     12  O13 ZIN A   1      19.453   2.027   8.451  0.00  0.00    -0.310 OA
ATOM     13  C14 ZIN A   1      19.074   1.007   7.658  0.00  0.00     0.083 A 
ATOM     14  C15 ZIN A   1      18.923   1.296   6.301  0.00  0.00     0.039 A 
ATOM     15  C16 ZIN A   1      18.517   0.331   5.408  0.00  0.00     0.026 A 
ATOM     16  C17 ZIN A   1      18.252  -0.948   5.864  0.00  0.00     0.034 A 
ATOM     17 Cl18 ZIN A   1      17.727  -2.177   4.757  0.00  0.00    -0.084 Cl
ATOM     18  C19 ZIN A   1      18.408  -1.245   7.201  0.00  0.00     0.034 A 
ATOM     19  C20 ZIN A   1      18.830  -0.280   8.115  0.00  0.00    -0.016 A 
ATOM     20  C21 ZIN A   1      18.998  -0.706   9.519  0.00  0.00     0.057 C 
ATOM     21  C23 ZIN A   1      19.637  -2.071   9.749  0.00  0.00     0.244 C 
ENDROOT
TORSDOF 0
ENDMDL
MODEL 4
REMARK VINA RESULT:      -8.2      3.206      5.046
REMARK  0 active torsions:
REMARK  status: ('A' for Active; 'I' for Inactive)
ROOT
ATOM      1  C1  ZIN A   1      18.039  -0.397   5.336  0.00  0.00     0.269 C 
ATOM      2  N2  ZIN A   1      19.094  -0.157   6.330  0.00  0.00    -0.074 N 
ATOM      3  H3  ZIN A   1      19.964   0.047   5.862  0.00  0.00     0.279 HD
ATOM      4  C4  ZIN A   1      19.257  -1.362   7.188  0.00  0.00     0.244 C 
ATOM      5  C5  ZIN A   1      19.542  -0.785   8.584  0.00  0.00     0.057 C 
ATOM      6  C7  ZIN A   1      19.308  -1.706   9.717  0.00  0.00    -0.018 A 
ATOM      7  C8  ZIN A   1      18.812  -2.982   9.547  0.00  0.00     0.010 A 
ATOM      8  C9  ZIN A   1      18.584  -3.786  10.649  0.00  0.00     0.001 A 
ATOM      9  C10 ZIN A   1      18.847  -3.316  11.922  0.00  0.00     0.003 A 
ATOM     10  C11 ZIN A   1      19.357  -2.042  12.096  0.00  0.00     0.038 A 
ATOM     11  C12 ZIN A   1      19.603  -1.243  10.993  0.00  0.00     0.082 A 
ATOM     12  O13 ZIN A   1      20.184  -0.033  11.109  0.00  0.00    -0.310 OA
ATOM     13  C14 ZIN A   1      19.582   1.143  10.855  0.00  0.00     0.083 A 
ATOM     14  C15 ZIN A   1      19.734   2.141  11.819  0.00  0.00     0.039 A 
ATOM     15  C16 ZIN A   1      19.140   3.374  11.668  0.00  0.00     0.026 A 
ATOM     16  C17 ZIN A   1      18.376   3.626  10.543  0.00  0.00     0.034 A 
ATOM     17 Cl18 ZIN A   1      17.607   5.168  10.339  0.00  0.00    -0.084 Cl
ATOM     18  C19 ZIN A   1      18.228   2.649   9.583  0.00  0.00     0.034 A 
ATOM     19  C20 ZIN A   1      18.834   1.400   9.716  0.00  0.00    -0.016 A 
ATOM     20  C21 ZIN A   1      18.642   0.433   8.616  0.00  0.00     0.057 C 
ATOM     21  C23 ZIN A   1      18.713   0.987   7.197  0.00  0.00     0.244 C 
ENDROOT
TORSDOF 0
ENDMDL
MODEL 5
REMARK VINA RESULT:      -8.1      3.645      6.650
REMARK  0 active torsions:
REMARK  status: ('A' for Active; 'I' for Inactive)
ROOT
ATOM      1  C1  ZIN A   1      20.005   5.869  14.494  0.00  0.00     0.269 C 
ATOM      2  N2  ZIN A   1      18.810   5.069  14.194  0.00  0.00    -0.074 N 
ATOM      3  H3  ZIN A   1      17.995   5.663  14.186  0.00  0.00     0.279 HD
ATOM      4  C4  ZIN A   1      18.647   4.008  15.224  0.00  0.00     0.244 C 
ATOM      5  C5  ZIN A   1      18.127   2.798  14.429  0.00  0.00     0.057 C 
ATOM      6  C7  ZIN A   1      18.293   1.484  15.082  0.00  0.00    -0.018 A 
ATOM      7  C8  ZIN A   1      18.923   1.333  16.300  0.00  0.00     0.010 A 
ATOM      8  C9  ZIN A   1      19.076   0.071  16.847  0.00  0.00     0.001 A 
ATOM      9  C10 ZIN A   1      18.604  -1.041  16.177  0.00  0.00     0.003 A 
ATOM     10  C11 ZIN A   1      17.960  -0.894  14.961  0.00  0.00     0.038 A 
ATOM     11  C12 ZIN A   1      17.789   0.369  14.423  0.00  0.00     0.082 A 
ATOM     12  O13 ZIN A   1      17.088   0.568  13.289  0.00  0.00    -0.310 OA
ATOM     13  C14 ZIN A   1      17.608   0.987  12.120  0.00  0.00     0.083 A 
ATOM     14  C15 ZIN A   1      17.237   0.270  10.982  0.00  0.00     0.039 A 
ATOM     15  C16 ZIN A   1      17.729   0.602   9.740  0.00  0.00     0.026 A 
ATOM     16  C17 ZIN A   1      18.609   1.663   9.619  0.00  0.00     0.034 A 
ATOM     17 Cl18 ZIN A   1      19.252   2.089   8.065  0.00  0.00    -0.084 Cl
ATOM     18  C19 ZIN A   1      18.973   2.381  10.737  0.00  0.00     0.034 A 
ATOM     19  C20 ZIN A   1      18.473   2.064  12.000  0.00  0.00    -0.016 A 
ATOM     20  C21 ZIN A   1      18.898   2.915  13.130  0.00  0.00     0.057 C 
ATOM     21  C23 ZIN A   1      18.965   4.416  12.869  0.00  0.00     0.244 C 
ENDROOT
TORSDOF 0
ENDMDL
MODEL 6
REMARK VINA RESULT:      -8.0      3.018      5.162
REMARK  0 active torsions:
REMARK  status: ('A' for Active; 'I' for Inactive)
ROOT
ATOM      1  C1  ZIN A   1      18.192  -5.660  10.225  0.00  0.00     0.269 C 
ATOM      2  N2  ZIN A   1      19.213  -4.609  10.130  0.00  0.00    -0.074 N 
ATOM      3  H3  ZIN A   1      20.079  -5.003   9.794  0.00  0.00     0.279 HD
ATOM      4  C4  ZIN A   1      19.428  -3.997  11.469  0.00  0.00     0.244 C 
ATOM      5  C5  ZIN A   1      19.656  -2.507  11.163  0.00  0.00     0.057 C 
ATOM      6  C7  ZIN A   1      19.454  -1.582  12.297  0.00  0.00    -0.018 A 
ATOM      7  C8  ZIN A   1      19.033  -2.010  13.540  0.00  0.00     0.010 A 
ATOM      8  C9  ZIN A   1      18.830  -1.092  14.554  0.00  0.00     0.001 A 
ATOM      9  C10 ZIN A   1      19.044   0.254  14.328  0.00  0.00     0.003 A 
ATOM     10  C11 ZIN A   1      19.479   0.687  13.088  0.00  0.00     0.038 A 
ATOM     11  C12 ZIN A   1      19.699  -0.233  12.078  0.00  0.00     0.082 A 
ATOM     12  O13 ZIN A   1      20.210   0.132  10.886  0.00  0.00    -0.310 OA
ATOM     13  C14 ZIN A   1      19.547   0.095   9.715  0.00  0.00     0.083 A 
ATOM     14  C15 ZIN A   1      19.626   1.238   8.918  0.00  0.00     0.039 A 
ATOM     15  C16 ZIN A   1      18.966   1.312   7.712  0.00  0.00     0.026 A 
ATOM     16  C17 ZIN A   1      18.209   0.235   7.285  0.00  0.00     0.034 A 
ATOM     17 Cl18 ZIN A   1      17.359   0.313   5.774  0.00  0.00    -0.084 Cl
ATOM     18  C19 ZIN A   1      18.134  -0.900   8.062  0.00  0.00     0.034 A 
ATOM     19  C20 ZIN A   1      18.807  -0.994   9.280  0.00  0.00    -0.016 A 
ATOM     20  C21 ZIN A   1      18.688  -2.266  10.022  0.00  0.00     0.057 C 
ATOM     21  C23 ZIN A   1      18.753  -3.547   9.199  0.00  0.00     0.244 C 
ENDROOT
TORSDOF 0
ENDMDL
MODEL 7
REMARK VINA RESULT:      -8.0      2.971      4.303
REMARK  0 active torsions:
REMARK  status: ('A' for Active; 'I' for Inactive)
ROOT
ATOM      1  C1  ZIN A   1      18.743  -1.193  15.064  0.00  0.00     0.269 C 
ATOM      2  N2  ZIN A   1      17.755  -0.413  14.307  0.00  0.00    -0.074 N 
ATOM      3  H3  ZIN A   1      16.825  -0.738  14.524  0.00  0.00     0.279 HD
ATOM      4  C4  ZIN A   1      18.010  -0.561  12.849  0.00  0.00     0.244 C 
ATOM      5  C5  ZIN A   1      17.700   0.831  12.276  0.00  0.00     0.057 C 
ATOM      6  C7  ZIN A   1      18.279   1.121  10.948  0.00  0.00    -0.018 A 
ATOM      7  C8  ZIN A   1      19.095   0.229  10.282  0.00  0.00     0.010 A 
ATOM      8  C9  ZIN A   1      19.634   0.570   9.054  0.00  0.00     0.001 A 
ATOM      9  C10 ZIN A   1      19.363   1.803   8.493  0.00  0.00     0.003 A 
ATOM     10  C11 ZIN A   1      18.535   2.696   9.150  0.00  0.00     0.038 A 
ATOM     11  C12 ZIN A   1      17.980   2.348  10.369  0.00  0.00     0.082 A 
ATOM     12  O13 ZIN A   1      17.097   3.147  10.999  0.00  0.00    -0.310 OA
ATOM     13  C14 ZIN A   1      17.323   3.785  12.163  0.00  0.00     0.083 A 
ATOM     14  C15 ZIN A   1      16.984   5.138  12.206  0.00  0.00     0.039 A 
ATOM     15  C16 ZIN A   1      17.195   5.889  13.340  0.00  0.00     0.026 A 
ATOM     16  C17 ZIN A   1      17.757   5.292  14.455  0.00  0.00     0.034 A 
ATOM     17 Cl18 ZIN A   1      18.044   6.224  15.891  0.00  0.00    -0.084 Cl
ATOM     18  C19 ZIN A   1      18.086   3.955  14.423  0.00  0.00     0.034 A 
ATOM     19  C20 ZIN A   1      17.866   3.179  13.285  0.00  0.00    -0.016 A 
ATOM     20  C21 ZIN A   1      18.224   1.748  13.363  0.00  0.00     0.057 C 
ATOM     21  C23 ZIN A   1      17.877   1.025  14.660  0.00  0.00     0.244 C 
ENDROOT
TORSDOF 0
ENDMDL
MODEL 8
REMARK VINA RESULT:      -8.0      2.869      5.316
REMARK  0 active torsions:
REMARK  status: ('A' for Active; 'I' for Inactive)
ROOT
ATOM      1  C1  ZIN A   1      18.060  -2.410  10.572  0.00  0.00     0.269 C 
ATOM      2  N2  ZIN A   1      18.966  -1.484  11.265  0.00  0.00    -0.074 N 
ATOM      3  H3  ZIN A   1      19.902  -1.587  10.900  0.00  0.00     0.279 HD
ATOM      4  C4  ZIN A   1      18.963  -1.777  12.723  0.00  0.00     0.244 C 
ATOM      5  C5  ZIN A   1      19.062  -0.390  13.379  0.00  0.00     0.057 C 
ATOM      6  C7  ZIN A   1      18.636  -0.318  14.792  0.00  0.00    -0.018 A 
ATOM      7  C8  ZIN A   1      18.126  -1.405  15.472  0.00  0.00     0.010 A 
ATOM      8  C9  ZIN A   1      17.713  -1.268  16.785  0.00  0.00     0.001 A 
ATOM      9  C10 ZIN A   1      17.806  -0.044  17.420  0.00  0.00     0.003 A 
ATOM     10  C11 ZIN A   1      18.328   1.046  16.747  0.00  0.00     0.038 A 
ATOM     11  C12 ZIN A   1      18.759   0.905  15.440  0.00  0.00     0.082 A 
ATOM     12  O13 ZIN A   1      19.358   1.914  14.778  0.00  0.00    -0.310 OA
ATOM     13  C14 ZIN A   1      18.838   2.562  13.718  0.00  0.00     0.083 A 
ATOM     14  C15 ZIN A   1      18.884   3.956  13.757  0.00  0.00     0.039 A 
ATOM     15  C16 ZIN A   1      18.360   4.715  12.735  0.00  0.00     0.026 A 
ATOM     16  C17 ZIN A   1      17.776   4.084  11.652  0.00  0.00     0.034 A 
ATOM     17 Cl18 ZIN A   1      17.098   5.021  10.358  0.00  0.00    -0.084 Cl
ATOM     18  C19 ZIN A   1      17.735   2.708  11.601  0.00  0.00     0.034 A 
ATOM     19  C20 ZIN A   1      18.273   1.926  12.623  0.00  0.00    -0.016 A 
ATOM     20  C21 ZIN A   1      18.209   0.459  12.459  0.00  0.00     0.057 C 
ATOM     21  C23 ZIN A   1      18.503  -0.087  11.067  0.00  0.00     0.244 C 
ENDROOT
TORSDOF 0
ENDMDL
MODEL 9
REMARK VINA RESULT:      -8.0      2.204      4.073
REMARK  0 active torsions:
REMARK  status: ('A' for Active; 'I' for Inactive)
ROOT
ATOM      1  C1  ZIN A   1      17.690   4.886  11.116  0.00  0.00     0.269 C 
ATOM      2  N2  ZIN A   1      18.691   3.831  11.323  0.00  0.00    -0.074 N 
ATOM      3  H3  ZIN A   1      19.596   4.247  11.483  0.00  0.00     0.279 HD
ATOM      4  C4  ZIN A   1      18.749   2.954  10.123  0.00  0.00     0.244 C 
ATOM      5  C5  ZIN A   1      18.973   1.548  10.704  0.00  0.00     0.057 C 
ATOM      6  C7  ZIN A   1      18.630   0.423   9.808  0.00  0.00    -0.018 A 
ATOM      7  C8  ZIN A   1      18.089   0.610   8.553  0.00  0.00     0.010 A 
ATOM      8  C9  ZIN A   1      17.759  -0.483   7.773  0.00  0.00     0.001 A 
ATOM      9  C10 ZIN A   1      17.964  -1.765   8.247  0.00  0.00     0.003 A 
ATOM     10  C11 ZIN A   1      18.518  -1.958   9.500  0.00  0.00     0.038 A 
ATOM     11  C12 ZIN A   1      18.866  -0.864  10.273  0.00  0.00     0.082 A 
ATOM     12  O13 ZIN A   1      19.492  -1.005  11.458  0.00  0.00    -0.310 OA
ATOM     13  C14 ZIN A   1      18.958  -0.703  12.657  0.00  0.00     0.083 A 
ATOM     14  C15 ZIN A   1      19.095  -1.664  13.659  0.00  0.00     0.039 A 
ATOM     15  C16 ZIN A   1      18.565  -1.465  14.914  0.00  0.00     0.026 A 
ATOM     16  C17 ZIN A   1      17.884  -0.292  15.185  0.00  0.00     0.034 A 
ATOM     17 Cl18 ZIN A   1      17.197  -0.026  16.757  0.00  0.00    -0.084 Cl
ATOM     18  C19 ZIN A   1      17.752   0.666  14.204  0.00  0.00     0.034 A 
ATOM     19  C20 ZIN A   1      18.294   0.483  12.931  0.00  0.00    -0.016 A 
ATOM     20  C21 ZIN A   1      18.126   1.583  11.960  0.00  0.00     0.057 C 
ATOM     21  C23 ZIN A   1      18.309   3.000  12.493  0.00  0.00     0.244 C 
ENDROOT
TORSDOF 0
ENDMDL
