MODEL 1
REMARK VINA RESULT:      -6.1      0.000      0.000
REMARK  7 active torsions:
REMARK  status: ('A' for Active; 'I' for Inactive)
REMARK    1  A    between atoms: C2_2  and  C4_3 
REMARK    2  A    between atoms: C2_2  and  O15_14 
REMARK    3  A    between atoms: C4_3  and  N5_4 
REMARK    4  A    between atoms: C9_8  and  N10_9 
REMARK    5  A    between atoms: O15_14  and  C16_15 
REMARK    6  A    between atoms: C16_15  and  P17_16 
REMARK    7  A    between atoms: P17_16  and  O20_19 
ROOT
ATOM      1  N5  ZIN A   1      18.620  -1.295   7.418  0.00  0.00    -0.322 N 
ATOM      2  C6  ZIN A   1      19.197  -1.368   6.185  0.00  0.00     0.212 A 
ATOM      3  N7  ZIN A   1      19.674  -2.563   5.989  0.00  0.00    -0.236 NA
ATOM      4  C8  ZIN A   1      19.433  -3.330   7.078  0.00  0.00     0.149 A 
ATOM      5  C9  ZIN A   1      19.707  -4.663   7.430  0.00  0.00     0.155 A 
ATOM      6  N11 ZIN A   1      19.312  -5.098   8.622  0.00  0.00    -0.222 NA
ATOM      7  C12 ZIN A   1      18.676  -4.304   9.463  0.00  0.00     0.237 A 
ATOM      8  N13 ZIN A   1      18.398  -3.049   9.178  0.00  0.00    -0.222 NA
ATOM      9  C14 ZIN A   1      18.759  -2.524   8.011  0.00  0.00     0.165 A 
ENDROOT
BRANCH   1  10
ATOM     10  C4  ZIN A   1      17.975  -0.117   8.003  0.00  0.00     0.163 C 
BRANCH  10  11
ATOM     11  C2  ZIN A   1      18.965   0.604   8.920  0.00  0.00     0.136 C 
ATOM     12  C1  ZIN A   1      19.117   2.056   8.464  0.00  0.00     0.041 C 
BRANCH  11  13
ATOM     13  O15 ZIN A   1      18.477   0.576  10.263  0.00  0.00    -0.372 OA
BRANCH  13  14
ATOM     14  C16 ZIN A   1      19.265  -0.221  11.150  0.00  0.00     0.303 C 
BRANCH  14  15
ATOM     15  P17 ZIN A   1      20.183   0.866  12.290  0.00  0.00     0.271 P 
ATOM     16  O18 ZIN A   1      19.880   2.343  11.950  0.00  0.00    -0.645 OA
ATOM     17  O19 ZIN A   1      19.749   0.572  13.743  0.00  0.00    -0.645 OA
BRANCH  15  18
ATOM     18  O20 ZIN A   1      21.762   0.594  12.136  0.00  0.00    -0.321 OA
ATOM     19  H32 ZIN A   1      21.981  -0.312  11.873  0.00  0.00     0.221 HD
ENDBRANCH  15  18
ENDBRANCH  14  15
ENDBRANCH  13  14
ENDBRANCH  11  13
ENDBRANCH  10  11
ENDBRANCH   1  10
BRANCH   5  20
ATOM     20  N10 ZIN A   1      20.373  -5.503   6.555  0.00  0.00    -0.382 N 
ATOM     21  H27 ZIN A   1      21.189  -5.946   6.835  0.00  0.00     0.157 HD
ATOM     22  H28 ZIN A   1      20.024  -5.650   5.663  0.00  0.00     0.157 HD
ENDBRANCH   5  20
TORSDOF 7
ENDMDL
MODEL 2
REMARK VINA RESULT:      -6.1      4.648      6.545
REMARK  7 active torsions:
REMARK  status: ('A' for Active; 'I' for Inactive)
REMARK    1  A    between atoms: C2_2  and  C4_3 
REMARK    2  A    between atoms: C2_2  and  O15_14 
REMARK    3  A    between atoms: C4_3  and  N5_4 
REMARK    4  A    between atoms: C9_8  and  N10_9 
REMARK    5  A    between atoms: O15_14  and  C16_15 
REMARK    6  A    between atoms: C16_15  and  P17_16 
REMARK    7  A    between atoms: P17_16  and  O20_19 
ROOT
ATOM      1  N5  ZIN A   1      19.709   0.626  12.671  0.00  0.00    -0.322 N 
ATOM      2  C6  ZIN A   1      20.176  -0.267  11.753  0.00  0.00     0.212 A 
ATOM      3  N7  ZIN A   1      19.979   0.188  10.550  0.00  0.00    -0.236 NA
ATOM      4  C8  ZIN A   1      19.375   1.399  10.619  0.00  0.00     0.149 A 
ATOM      5  C9  ZIN A   1      18.932   2.338   9.672  0.00  0.00     0.155 A 
ATOM      6  N11 ZIN A   1      18.365   3.458  10.108  0.00  0.00    -0.222 NA
ATOM      7  C12 ZIN A   1      18.217   3.692  11.399  0.00  0.00     0.237 A 
ATOM      8  N13 ZIN A   1      18.617   2.842  12.322  0.00  0.00    -0.222 NA
ATOM      9  C14 ZIN A   1      19.190   1.692  11.980  0.00  0.00     0.165 A 
ENDROOT
BRANCH   1  10
ATOM     10  C4  ZIN A   1      19.750   0.473  14.127  0.00  0.00     0.163 C 
BRANCH  10  11
ATOM     11  C2  ZIN A   1      18.364   0.071  14.636  0.00  0.00     0.136 C 
ATOM     12  C1  ZIN A   1      18.426  -1.342  15.219  0.00  0.00     0.041 C 
BRANCH  11  13
ATOM     13  O15 ZIN A   1      17.946   0.987  15.651  0.00  0.00    -0.372 OA
BRANCH  13  14
ATOM     14  C16 ZIN A   1      19.022   1.669  16.297  0.00  0.00     0.303 C 
BRANCH  14  15
ATOM     15  P17 ZIN A   1      19.007   1.278  18.078  0.00  0.00     0.271 P 
ATOM     16  O18 ZIN A   1      19.643   2.445  18.866  0.00  0.00    -0.645 OA
ATOM     17  O19 ZIN A   1      17.550   1.071  18.547  0.00  0.00    -0.645 OA
BRANCH  15  18
ATOM     18  O20 ZIN A   1      19.852  -0.068  18.338  0.00  0.00    -0.321 OA
ATOM     19  H32 ZIN A   1      19.349  -0.882  18.195  0.00  0.00     0.221 HD
ENDBRANCH  15  18
ENDBRANCH  14  15
ENDBRANCH  13  14
ENDBRANCH  11  13
ENDBRANCH  10  11
ENDBRANCH   1  10
BRANCH   5  20
ATOM     20  N10 ZIN A   1      19.083   2.101   8.316  0.00  0.00    -0.382 N 
ATOM     21  H27 ZIN A   1      19.525   2.759   7.757  0.00  0.00     0.157 HD
ATOM     22  H28 ZIN A   1      18.748   1.280   7.927  0.00  0.00     0.157 HD
ENDBRANCH   5  20
TORSDOF 7
ENDMDL
MODEL 3
REMARK VINA RESULT:      -6.0      1.889      3.265
REMARK  7 active torsions:
REMARK  status: ('A' for Active; 'I' for Inactive)
REMARK    1  A    between atoms: C2_2  and  C4_3 
REMARK    2  A    between atoms: C2_2  and  O15_14 
REMARK    3  A    between atoms: C4_3  and  N5_4 
REMARK    4  A    between atoms: C9_8  and  N10_9 
REMARK    5  A    between atoms: O15_14  and  C16_15 
REMARK    6  A    between atoms: C16_15  and  P17_16 
REMARK    7  A    between atoms: P17_16  and  O20_19 
ROOT
ATOM      1  N5  ZIN A   1      18.828  -1.248   8.389  0.00  0.00    -0.322 N 
ATOM      2  C6  ZIN A   1      18.624  -2.594   8.309  0.00  0.00     0.212 A 
ATOM      3  N7  ZIN A   1      18.659  -2.975   7.065  0.00  0.00    -0.236 NA
ATOM      4  C8  ZIN A   1      18.889  -1.903   6.270  0.00  0.00     0.149 A 
ATOM      5  C9  ZIN A   1      19.026  -1.710   4.885  0.00  0.00     0.155 A 
ATOM      6  N11 ZIN A   1      19.255  -0.480   4.436  0.00  0.00    -0.222 NA
ATOM      7  C12 ZIN A   1      19.351   0.543   5.265  0.00  0.00     0.237 A 
ATOM      8  N13 ZIN A   1      19.229   0.411   6.569  0.00  0.00    -0.222 NA
ATOM      9  C14 ZIN A   1      18.994  -0.781   7.110  0.00  0.00     0.165 A 
ENDROOT
BRANCH   1  10
ATOM     10  C4  ZIN A   1      18.859  -0.448   9.615  0.00  0.00     0.163 C 
BRANCH  10  11
ATOM     11  C2  ZIN A   1      17.559   0.350   9.736  0.00  0.00     0.136 C 
ATOM     12  C1  ZIN A   1      16.829  -0.057  11.018  0.00  0.00     0.041 C 
BRANCH  11  13
ATOM     13  O15 ZIN A   1      17.860   1.746   9.782  0.00  0.00    -0.372 OA
BRANCH  13  14
ATOM     14  C16 ZIN A   1      19.250   2.036   9.936  0.00  0.00     0.303 C 
BRANCH  14  15
ATOM     15  P17 ZIN A   1      19.509   2.976  11.476  0.00  0.00     0.271 P 
ATOM     16  O18 ZIN A   1      18.657   4.265  11.442  0.00  0.00    -0.645 OA
ATOM     17  O19 ZIN A   1      19.087   2.111  12.684  0.00  0.00    -0.645 OA
BRANCH  15  18
ATOM     18  O20 ZIN A   1      21.065   3.366  11.612  0.00  0.00    -0.321 OA
ATOM     19  H32 ZIN A   1      21.616   3.043  10.885  0.00  0.00     0.221 HD
ENDBRANCH  15  18
ENDBRANCH  14  15
ENDBRANCH  13  14
ENDBRANCH  11  13
ENDBRANCH  10  11
ENDBRANCH   1  10
BRANCH   5  20
ATOM     20  N10 ZIN A   1      18.927  -2.777   4.009  0.00  0.00    -0.382 N 
ATOM     21  H27 ZIN A   1      18.578  -2.638   3.115  0.00  0.00     0.157 HD
ATOM     22  H28 ZIN A   1      19.207  -3.662   4.288  0.00  0.00     0.157 HD
ENDBRANCH   5  20
TORSDOF 7
ENDMDL
MODEL 4
REMARK VINA RESULT:      -6.0      5.780      7.929
REMARK  7 active torsions:
REMARK  status: ('A' for Active; 'I' for Inactive)
REMARK    1  A    between atoms: C2_2  and  C4_3 
REMARK    2  A    between atoms: C2_2  and  O15_14 
REMARK    3  A    between atoms: C4_3  and  N5_4 
REMARK    4  A    between atoms: C9_8  and  N10_9 
REMARK    5  A    between atoms: O15_14  and  C16_15 
REMARK    6  A    between atoms: C16_15  and  P17_16 
REMARK    7  A    between atoms: P17_16  and  O20_19 
ROOT
ATOM      1  N5  ZIN A   1      18.087   2.054  14.654  0.00  0.00    -0.322 N 
ATOM      2  C6  ZIN A   1      17.863   0.723  14.462  0.00  0.00     0.212 A 
ATOM      3  N7  ZIN A   1      18.235   0.053  15.513  0.00  0.00    -0.236 NA
ATOM      4  C8  ZIN A   1      18.720   0.908  16.445  0.00  0.00     0.149 A 
ATOM      5  C9  ZIN A   1      19.251   0.765  17.738  0.00  0.00     0.155 A 
ATOM      6  N11 ZIN A   1      19.641   1.857  18.388  0.00  0.00    -0.222 NA
ATOM      7  C12 ZIN A   1      19.536   3.053  17.839  0.00  0.00     0.237 A 
ATOM      8  N13 ZIN A   1      19.046   3.236  16.630  0.00  0.00    -0.222 NA
ATOM      9  C14 ZIN A   1      18.635   2.202  15.902  0.00  0.00     0.165 A 
ENDROOT
BRANCH   1  10
ATOM     10  C4  ZIN A   1      17.798   3.127  13.700  0.00  0.00     0.163 C 
BRANCH  10  11
ATOM     11  C2  ZIN A   1      17.943   2.595  12.274  0.00  0.00     0.136 C 
ATOM     12  C1  ZIN A   1      17.326   3.592  11.292  0.00  0.00     0.041 C 
BRANCH  11  13
ATOM     13  O15 ZIN A   1      19.329   2.422  11.968  0.00  0.00    -0.372 OA
BRANCH  13  14
ATOM     14  C16 ZIN A   1      19.582   1.453  10.949  0.00  0.00     0.303 C 
BRANCH  14  15
ATOM     15  P17 ZIN A   1      20.333  -0.031  11.694  0.00  0.00     0.271 P 
ATOM     16  O18 ZIN A   1      20.866   0.313  13.103  0.00  0.00    -0.645 OA
ATOM     17  O19 ZIN A   1      19.270  -1.147  11.802  0.00  0.00    -0.645 OA
BRANCH  15  18
ATOM     18  O20 ZIN A   1      21.551  -0.538  10.769  0.00  0.00    -0.321 OA
ATOM     19  H32 ZIN A   1      21.271  -1.051   9.998  0.00  0.00     0.221 HD
ENDBRANCH  15  18
ENDBRANCH  14  15
ENDBRANCH  13  14
ENDBRANCH  11  13
ENDBRANCH  10  11
ENDBRANCH   1  10
BRANCH   5  20
ATOM     20  N10 ZIN A   1      19.364  -0.485  18.322  0.00  0.00    -0.382 N 
ATOM     21  H27 ZIN A   1      19.435  -1.275  17.765  0.00  0.00     0.157 HD
ATOM     22  H28 ZIN A   1      19.373  -0.569  19.288  0.00  0.00     0.157 HD
ENDBRANCH   5  20
TORSDOF 7
ENDMDL
MODEL 5
REMARK VINA RESULT:      -6.0      3.990      6.316
REMARK  7 active torsions:
REMARK  status: ('A' for Active; 'I' for Inactive)
REMARK    1  A    between atoms: C2_2  and  C4_3 
REMARK    2  A    between atoms: C2_2  and  O15_14 
REMARK    3  A    between atoms: C4_3  and  N5_4 
REMARK    4  A    between atoms: C9_8  and  N10_9 
REMARK    5  A    between atoms: O15_14  and  C16_15 
REMARK    6  A    between atoms: C16_15  and  P17_16 
REMARK    7  A    between atoms: P17_16  and  O20_19 
ROOT
ATOM      1  N5  ZIN A   1      18.489  -0.399  11.988  0.00  0.00    -0.322 N 
ATOM      2  C6  ZIN A   1      19.731  -0.546  12.530  0.00  0.00     0.212 A 
ATOM      3  N7  ZIN A   1      20.384   0.577  12.454  0.00  0.00    -0.236 NA
ATOM      4  C8  ZIN A   1      19.605   1.513  11.862  0.00  0.00     0.149 A 
ATOM      5  C9  ZIN A   1      19.770   2.867  11.523  0.00  0.00     0.155 A 
ATOM      6  N11 ZIN A   1      18.763   3.500  10.932  0.00  0.00    -0.222 NA
ATOM      7  C12 ZIN A   1      17.629   2.879  10.664  0.00  0.00     0.237 A 
ATOM      8  N13 ZIN A   1      17.429   1.612  10.962  0.00  0.00    -0.222 NA
ATOM      9  C14 ZIN A   1      18.382   0.897  11.551  0.00  0.00     0.165 A 
ENDROOT
BRANCH   1  10
ATOM     10  C4  ZIN A   1      17.460  -1.437  11.887  0.00  0.00     0.163 C 
BRANCH  10  11
ATOM     11  C2  ZIN A   1      18.030  -2.650  11.150  0.00  0.00     0.136 C 
ATOM     12  C1  ZIN A   1      17.528  -3.933  11.816  0.00  0.00     0.041 C 
BRANCH  11  13
ATOM     13  O15 ZIN A   1      17.603  -2.623   9.786  0.00  0.00    -0.372 OA
BRANCH  13  14
ATOM     14  C16 ZIN A   1      18.674  -2.667   8.841  0.00  0.00     0.303 C 
BRANCH  14  15
ATOM     15  P17 ZIN A   1      18.952  -1.000   8.160  0.00  0.00     0.271 P 
ATOM     16  O18 ZIN A   1      20.127  -0.328   8.906  0.00  0.00    -0.645 OA
ATOM     17  O19 ZIN A   1      19.290  -1.108   6.657  0.00  0.00    -0.645 OA
BRANCH  15  18
ATOM     18  O20 ZIN A   1      17.620  -0.114   8.349  0.00  0.00    -0.321 OA
ATOM     19  H32 ZIN A   1      17.261   0.237   7.521  0.00  0.00     0.221 HD
ENDBRANCH  15  18
ENDBRANCH  14  15
ENDBRANCH  13  14
ENDBRANCH  11  13
ENDBRANCH  10  11
ENDBRANCH   1  10
BRANCH   5  20
ATOM     20  N10 ZIN A   1      20.956   3.527  11.801  0.00  0.00    -0.382 N 
ATOM     21  H27 ZIN A   1      20.981   4.496  11.802  0.00  0.00     0.157 HD
ATOM     22  H28 ZIN A   1      21.759   3.020  11.995  0.00  0.00     0.157 HD
ENDBRANCH   5  20
TORSDOF 7
ENDMDL
MODEL 6
REMARK VINA RESULT:      -6.0      6.158      8.831
REMARK  7 active torsions:
REMARK  status: ('A' for Active; 'I' for Inactive)
REMARK    1  A    between atoms: C2_2  and  C4_3 
REMARK    2  A    between atoms: C2_2  and  O15_14 
REMARK    3  A    between atoms: C4_3  and  N5_4 
REMARK    4  A    between atoms: C9_8  and  N10_9 
REMARK    5  A    between atoms: O15_14  and  C16_15 
REMARK    6  A    between atoms: C16_15  and  P17_16 
REMARK    7  A    between atoms: P17_16  and  O20_19 
ROOT
ATOM      1  N5  ZIN A   1      18.521   1.828  15.707  0.00  0.00    -0.322 N 
ATOM      2  C6  ZIN A   1      19.070   1.941  16.950  0.00  0.00     0.212 A 
ATOM      3  N7  ZIN A   1      19.654   3.097  17.073  0.00  0.00    -0.236 NA
ATOM      4  C8  ZIN A   1      19.517   3.798  15.922  0.00  0.00     0.149 A 
ATOM      5  C9  ZIN A   1      19.929   5.067  15.483  0.00  0.00     0.155 A 
ATOM      6  N11 ZIN A   1      19.608   5.445  14.249  0.00  0.00    -0.222 NA
ATOM      7  C12 ZIN A   1      18.921   4.652  13.448  0.00  0.00     0.237 A 
ATOM      8  N13 ZIN A   1      18.515   3.455  13.816  0.00  0.00    -0.222 NA
ATOM      9  C14 ZIN A   1      18.793   2.989  15.030  0.00  0.00     0.165 A 
ENDROOT
BRANCH   1  10
ATOM     10  C4  ZIN A   1      17.780   0.676  15.190  0.00  0.00     0.163 C 
BRANCH  10  11
ATOM     11  C2  ZIN A   1      18.754  -0.301  14.527  0.00  0.00     0.136 C 
ATOM     12  C1  ZIN A   1      18.950  -1.518  15.433  0.00  0.00     0.041 C 
BRANCH  11  13
ATOM     13  O15 ZIN A   1      18.222  -0.724  13.270  0.00  0.00    -0.372 OA
BRANCH  13  14
ATOM     14  C16 ZIN A   1      18.720   0.014  12.152  0.00  0.00     0.303 C 
BRANCH  14  15
ATOM     15  P17 ZIN A   1      17.320   0.673  11.187  0.00  0.00     0.271 P 
ATOM     16  O18 ZIN A   1      17.550   0.388   9.686  0.00  0.00    -0.645 OA
ATOM     17  O19 ZIN A   1      16.012  -0.008  11.647  0.00  0.00    -0.645 OA
BRANCH  15  18
ATOM     18  O20 ZIN A   1      17.209   2.262  11.421  0.00  0.00    -0.321 OA
ATOM     19  H32 ZIN A   1      16.835   2.745  10.671  0.00  0.00     0.221 HD
ENDBRANCH  15  18
ENDBRANCH  14  15
ENDBRANCH  13  14
ENDBRANCH  11  13
ENDBRANCH  10  11
ENDBRANCH   1  10
BRANCH   5  20
ATOM     20  N10 ZIN A   1      20.650   5.906  16.315  0.00  0.00    -0.382 N 
ATOM     21  H27 ZIN A   1      20.205   6.361  17.047  0.00  0.00     0.157 HD
ATOM     22  H28 ZIN A   1      21.599   6.037  16.168  0.00  0.00     0.157 HD
ENDBRANCH   5  20
TORSDOF 7
ENDMDL
MODEL 7
REMARK VINA RESULT:      -5.9      3.996      6.000
REMARK  7 active torsions:
REMARK  status: ('A' for Active; 'I' for Inactive)
REMARK    1  A    between atoms: C2_2  and  C4_3 
REMARK    2  A    between atoms: C2_2  and  O15_14 
REMARK    3  A    between atoms: C4_3  and  N5_4 
REMARK    4  A    between atoms: C9_8  and  N10_9 
REMARK    5  A    between atoms: O15_14  and  C16_15 
REMARK    6  A    between atoms: C16_15  and  P17_16 
REMARK    7  A    between atoms: P17_16  and  O20_19 
ROOT
ATOM      1  N5  ZIN A   1      18.715   1.542  10.462  0.00  0.00    -0.322 N 
ATOM      2  C6  ZIN A   1      17.690   2.434  10.575  0.00  0.00     0.212 A 
ATOM      3  N7  ZIN A   1      17.445   2.670  11.831  0.00  0.00    -0.236 NA
ATOM      4  C8  ZIN A   1      18.293   1.948  12.601  0.00  0.00     0.149 A 
ATOM      5  C9  ZIN A   1      18.491   1.801  13.984  0.00  0.00     0.155 A 
ATOM      6  N11 ZIN A   1      19.448   0.980  14.404  0.00  0.00    -0.222 NA
ATOM      7  C12 ZIN A   1      20.199   0.312  13.548  0.00  0.00     0.237 A 
ATOM      8  N13 ZIN A   1      20.050   0.417  12.244  0.00  0.00    -0.222 NA
ATOM      9  C14 ZIN A   1      19.115   1.211  11.732  0.00  0.00     0.165 A 
ENDROOT
BRANCH   1  10
ATOM     10  C4  ZIN A   1      19.282   1.027   9.213  0.00  0.00     0.163 C 
BRANCH  10  11
ATOM     11  C2  ZIN A   1      18.512  -0.221   8.779  0.00  0.00     0.136 C 
ATOM     12  C1  ZIN A   1      18.182  -0.125   7.288  0.00  0.00     0.041 C 
BRANCH  11  13
ATOM     13  O15 ZIN A   1      19.313  -1.381   9.016  0.00  0.00    -0.372 OA
BRANCH  13  14
ATOM     14  C16 ZIN A   1      18.585  -2.490   9.547  0.00  0.00     0.303 C 
BRANCH  14  15
ATOM     15  P17 ZIN A   1      19.367  -3.043  11.098  0.00  0.00     0.271 P 
ATOM     16  O18 ZIN A   1      18.472  -2.650  12.295  0.00  0.00    -0.645 OA
ATOM     17  O19 ZIN A   1      19.543  -4.578  11.068  0.00  0.00    -0.645 OA
BRANCH  15  18
ATOM     18  O20 ZIN A   1      20.808  -2.341  11.253  0.00  0.00    -0.321 OA
ATOM     19  H32 ZIN A   1      21.328  -2.670  11.999  0.00  0.00     0.221 HD
ENDBRANCH  15  18
ENDBRANCH  14  15
ENDBRANCH  13  14
ENDBRANCH  11  13
ENDBRANCH  10  11
ENDBRANCH   1  10
BRANCH   5  20
ATOM     20  N10 ZIN A   1      17.708   2.497  14.889  0.00  0.00    -0.382 N 
ATOM     21  H27 ZIN A   1      17.277   2.026  15.619  0.00  0.00     0.157 HD
ATOM     22  H28 ZIN A   1      17.593   3.455  14.794  0.00  0.00     0.157 HD
ENDBRANCH   5  20
TORSDOF 7
ENDMDL
MODEL 8
REMARK VINA RESULT:      -5.9      3.536      5.022
REMARK  7 active torsions:
REMARK  status: ('A' for Active; 'I' for Inactive)
REMARK    1  A    between atoms: C2_2  and  C4_3 
REMARK    2  A    between atoms: C2_2  and  O15_14 
REMARK    3  A    between atoms: C4_3  and  N5_4 
REMARK    4  A    between atoms: C9_8  and  N10_9 
REMARK    5  A    between atoms: O15_14  and  C16_15 
REMARK    6  A    between atoms: C16_15  and  P17_16 
REMARK    7  A    between atoms: P17_16  and  O20_19 
ROOT
ATOM      1  N5  ZIN A   1      18.735  -1.317   9.636  0.00  0.00    -0.322 N 
ATOM      2  C6  ZIN A   1      17.905  -0.915  10.640  0.00  0.00     0.212 A 
ATOM      3  N7  ZIN A   1      17.297  -1.945  11.151  0.00  0.00    -0.236 NA
ATOM      4  C8  ZIN A   1      17.696  -3.070  10.512  0.00  0.00     0.149 A 
ATOM      5  C9  ZIN A   1      17.388  -4.436  10.628  0.00  0.00     0.155 A 
ATOM      6  N11 ZIN A   1      17.989  -5.293   9.808  0.00  0.00    -0.222 NA
ATOM      7  C12 ZIN A   1      18.855  -4.879   8.902  0.00  0.00     0.237 A 
ATOM      8  N13 ZIN A   1      19.174  -3.610   8.756  0.00  0.00    -0.222 NA
ATOM      9  C14 ZIN A   1      18.620  -2.679   9.527  0.00  0.00     0.165 A 
ENDROOT
BRANCH   1  10
ATOM     10  C4  ZIN A   1      19.590  -0.451   8.819  0.00  0.00     0.163 C 
BRANCH  10  11
ATOM     11  C2  ZIN A   1      18.741   0.656   8.191  0.00  0.00     0.136 C 
ATOM     12  C1  ZIN A   1      19.157   2.009   8.772  0.00  0.00     0.041 C 
BRANCH  11  13
ATOM     13  O15 ZIN A   1      18.941   0.664   6.775  0.00  0.00    -0.372 OA
BRANCH  13  14
ATOM     14  C16 ZIN A   1      17.865   0.089   6.034  0.00  0.00     0.303 C 
BRANCH  14  15
ATOM     15  P17 ZIN A   1      18.510  -1.220   4.941  0.00  0.00     0.271 P 
ATOM     16  O18 ZIN A   1      19.983  -0.915   4.586  0.00  0.00    -0.645 OA
ATOM     17  O19 ZIN A   1      18.426  -2.582   5.665  0.00  0.00    -0.645 OA
BRANCH  15  18
ATOM     18  O20 ZIN A   1      17.633  -1.274   3.592  0.00  0.00    -0.321 OA
ATOM     19  H32 ZIN A   1      18.055  -0.848   2.832  0.00  0.00     0.221 HD
ENDBRANCH  15  18
ENDBRANCH  14  15
ENDBRANCH  13  14
ENDBRANCH  11  13
ENDBRANCH  10  11
ENDBRANCH   1  10
BRANCH   5  20
ATOM     20  N10 ZIN A   1      16.482  -4.879  11.575  0.00  0.00    -0.382 N 
ATOM     21  H27 ZIN A   1      16.252  -5.820  11.622  0.00  0.00     0.157 HD
ATOM     22  H28 ZIN A   1      16.078  -4.250  12.192  0.00  0.00     0.157 HD
ENDBRANCH   5  20
TORSDOF 7
ENDMDL
MODEL 9
REMARK VINA RESULT:      -5.9      4.869      7.037
REMARK  7 active torsions:
REMARK  status: ('A' for Active; 'I' for Inactive)
REMARK    1  A    between atoms: C2_2  and  C4_3 
REMARK    2  A    between atoms: C2_2  and  O15_14 
REMARK    3  A    between atoms: C4_3  and  N5_4 
REMARK    4  A    between atoms: C9_8  and  N10_9 
REMARK    5  A    between atoms: O15_14  and  C16_15 
REMARK    6  A    between atoms: C16_15  and  P17_16 
REMARK    7  A    between atoms: P17_16  and  O20_19 
ROOT
ATOM      1  N5  ZIN A   1      17.557  -1.432  11.692  0.00  0.00    -0.322 N 
ATOM      2  C6  ZIN A   1      16.952  -0.331  11.163  0.00  0.00     0.212 A 
ATOM      3  N7  ZIN A   1      17.012   0.657  12.007  0.00  0.00    -0.236 NA
ATOM      4  C8  ZIN A   1      17.657   0.256  13.128  0.00  0.00     0.149 A 
ATOM      5  C9  ZIN A   1      18.009   0.872  14.340  0.00  0.00     0.155 A 
ATOM      6  N11 ZIN A   1      18.663   0.155  15.249  0.00  0.00    -0.222 NA
ATOM      7  C12 ZIN A   1      18.978  -1.107  15.026  0.00  0.00     0.237 A 
ATOM      8  N13 ZIN A   1      18.669  -1.726  13.906  0.00  0.00    -0.222 NA
ATOM      9  C14 ZIN A   1      18.010  -1.092  12.941  0.00  0.00     0.165 A 
ENDROOT
BRANCH   1  10
ATOM     10  C4  ZIN A   1      17.694  -2.740  11.047  0.00  0.00     0.163 C 
BRANCH  10  11
ATOM     11  C2  ZIN A   1      19.095  -2.868  10.447  0.00  0.00     0.136 C 
ATOM     12  C1  ZIN A   1      19.936  -3.811  11.310  0.00  0.00     0.041 C 
BRANCH  11  13
ATOM     13  O15 ZIN A   1      18.999  -3.395   9.121  0.00  0.00    -0.372 OA
BRANCH  13  14
ATOM     14  C16 ZIN A   1      19.245  -4.800   9.036  0.00  0.00     0.303 C 
BRANCH  14  15
ATOM     15  P17 ZIN A   1      20.179  -5.162   7.513  0.00  0.00     0.271 P 
ATOM     16  O18 ZIN A   1      21.496  -5.885   7.875  0.00  0.00    -0.645 OA
ATOM     17  O19 ZIN A   1      19.331  -6.066   6.592  0.00  0.00    -0.645 OA
BRANCH  15  18
ATOM     18  O20 ZIN A   1      20.516  -3.784   6.750  0.00  0.00    -0.321 OA
ATOM     19  H32 ZIN A   1      20.809  -3.072   7.336  0.00  0.00     0.221 HD
ENDBRANCH  15  18
ENDBRANCH  14  15
ENDBRANCH  13  14
ENDBRANCH  11  13
ENDBRANCH  10  11
ENDBRANCH   1  10
BRANCH   5  20
ATOM     20  N10 ZIN A   1      17.683   2.195  14.583  0.00  0.00    -0.382 N 
ATOM     21  H27 ZIN A   1      16.770   2.437  14.801  0.00  0.00     0.157 HD
ATOM     22  H28 ZIN A   1      18.368   2.880  14.536  0.00  0.00     0.157 HD
ENDBRANCH   5  20
TORSDOF 7
ENDMDL
