MODEL 1
REMARK VINA RESULT:      -8.5      0.000      0.000
REMARK  8 active torsions:
REMARK  status: ('A' for Active; 'I' for Inactive)
REMARK    1  A    between atoms: O2_2  and  C3_3 
REMARK    2  A    between atoms: C8_8  and  C9_9 
REMARK    3  A    between atoms: C9_9  and  C10_10 
REMARK    4  A    between atoms: C20_20  and  C21_21 
REMARK    5  A    between atoms: N25_25  and  C26_26 
REMARK    6  A    between atoms: C26_26  and  C28_27 
REMARK    7  A    between atoms: C26_26  and  C30_29 
REMARK    8  A    between atoms: C28_27  and  O29_28 
ROOT
ATOM      1  C3  ZIN A   1      19.670   0.618  11.342  0.00  0.00     0.077 A 
ATOM      2  C4  ZIN A   1      19.405  -0.606  10.754  0.00  0.00     0.067 A 
ATOM      3  C5  ZIN A   1      19.221  -0.686   9.378  0.00  0.00     0.051 A 
ATOM      4  C6  ZIN A   1      19.307   0.486   8.606  0.00  0.00     0.043 A 
ATOM      5  C7  ZIN A   1      19.575   1.712   9.216  0.00  0.00     0.028 A 
ATOM      6  C8  ZIN A   1      19.749   1.775  10.569  0.00  0.00    -0.019 A 
ATOM      7  C18 ZIN A   1      19.110   0.387   7.149  0.00  0.00     0.202 A 
ATOM      8  O19 ZIN A   1      19.174   1.370   6.432  0.00  0.00    -0.286 OA
ATOM      9  C20 ZIN A   1      18.832  -0.950   6.596  0.00  0.00     0.107 A 
ATOM     10  C24 ZIN A   1      18.770  -2.028   7.457  0.00  0.00     0.114 A 
ATOM     11  N25 ZIN A   1      18.956  -1.899   8.777  0.00  0.00    -0.348 N 
ENDROOT
BRANCH   6  12
ATOM     12  C9  ZIN A   1      20.039   3.098  11.227  0.00  0.00     0.083 C 
BRANCH  12  13
ATOM     13  C10 ZIN A   1      18.746   3.832  11.473  0.00  0.00    -0.013 A 
ATOM     14  C16 ZIN A   1      18.343   4.111  12.767  0.00  0.00     0.144 A 
ATOM     15  C14 ZIN A   1      17.157   4.791  12.991  0.00  0.00     0.073 A 
ATOM     16  F17 ZIN A   1      19.112   3.731  13.812  0.00  0.00    -0.204 F 
ATOM     17  C13 ZIN A   1      16.371   5.179  11.921  0.00  0.00     0.027 A 
ATOM     18 Cl15 ZIN A   1      16.653   5.148  14.614  0.00  0.00    -0.081 Cl
ATOM     19  C12 ZIN A   1      16.773   4.894  10.629  0.00  0.00     0.002 A 
ATOM     20  C11 ZIN A   1      17.959   4.222  10.405  0.00  0.00     0.011 A 
ENDBRANCH  12  13
ENDBRANCH   6  12
BRANCH   1  21
ATOM     21  O2  ZIN A   1      19.850   0.694  12.686  0.00  0.00    -0.355 OA
ATOM     22  C1  ZIN A   1      18.734   0.352  13.509  0.00  0.00     0.210 C 
ENDBRANCH   1  21
BRANCH  11  23
ATOM     23  C26 ZIN A   1      18.874  -3.095   9.617  0.00  0.00     0.116 C 
BRANCH  23  24
ATOM     24  C28 ZIN A   1      19.418  -4.300   8.845  0.00  0.00     0.190 C 
BRANCH  24  25
ATOM     25  O29 ZIN A   1      20.399  -4.970   9.639  0.00  0.00    -0.399 OA
ATOM     26  H46 ZIN A   1      20.699  -4.461  10.405  0.00  0.00     0.209 HD
ENDBRANCH  24  25
ENDBRANCH  23  24
BRANCH  23  27
ATOM     27  C30 ZIN A   1      17.416  -3.352  10.000  0.00  0.00     0.003 C 
ATOM     28  C31 ZIN A   1      16.914  -4.608   9.287  0.00  0.00     0.011 C 
ATOM     29  C32 ZIN A   1      17.314  -3.549  11.515  0.00  0.00     0.011 C 
ENDBRANCH  23  27
ENDBRANCH  11  23
BRANCH   9  30
ATOM     30  C21 ZIN A   1      18.624  -1.133   5.156  0.00  0.00     0.214 C 
ATOM     31  O22 ZIN A   1      19.584  -1.288   4.413  0.00  0.00    -0.644 OA
ATOM     32  O23 ZIN A   1      17.489  -1.130   4.697  0.00  0.00    -0.644 OA
ENDBRANCH   9  30
TORSDOF 8
ENDMDL
MODEL 2
REMARK VINA RESULT:      -8.2      3.833      8.517
REMARK  8 active torsions:
REMARK  status: ('A' for Active; 'I' for Inactive)
REMARK    1  A    between atoms: O2_2  and  C3_3 
REMARK    2  A    between atoms: C8_8  and  C9_9 
REMARK    3  A    between atoms: C9_9  and  C10_10 
REMARK    4  A    between atoms: C20_20  and  C21_21 
REMARK    5  A    between atoms: N25_25  and  C26_26 
REMARK    6  A    between atoms: C26_26  and  C28_27 
REMARK    7  A    between atoms: C26_26  and  C30_29 
REMARK    8  A    between atoms: C28_27  and  O29_28 
ROOT
ATOM      1  C3  ZIN A   1      19.753  -1.044  11.145  0.00  0.00     0.077 A 
ATOM      2  C4  ZIN A   1      19.513   0.225  11.642  0.00  0.00     0.067 A 
ATOM      3  C5  ZIN A   1      19.304   0.407  13.005  0.00  0.00     0.051 A 
ATOM      4  C6  ZIN A   1      19.341  -0.711  13.858  0.00  0.00     0.043 A 
ATOM      5  C7  ZIN A   1      19.584  -1.984  13.341  0.00  0.00     0.028 A 
ATOM      6  C8  ZIN A   1      19.781  -2.145  11.999  0.00  0.00    -0.019 A 
ATOM      7  C18 ZIN A   1      19.118  -0.505  15.300  0.00  0.00     0.202 A 
ATOM      8  O19 ZIN A   1      19.138  -1.436  16.084  0.00  0.00    -0.286 OA
ATOM      9  C20 ZIN A   1      18.869   0.875  15.753  0.00  0.00     0.107 A 
ATOM     10  C24 ZIN A   1      18.857   1.892  14.817  0.00  0.00     0.114 A 
ATOM     11  N25 ZIN A   1      19.065   1.666  13.514  0.00  0.00    -0.348 N 
ENDROOT
BRANCH   6  12
ATOM     12  C9  ZIN A   1      20.045  -3.520  11.440  0.00  0.00     0.083 C 
BRANCH  12  13
ATOM     13  C10 ZIN A   1      18.754  -4.117  10.945  0.00  0.00    -0.013 A 
ATOM     14  C16 ZIN A   1      18.595  -4.407   9.601  0.00  0.00     0.144 A 
ATOM     15  C14 ZIN A   1      17.408  -4.962   9.149  0.00  0.00     0.073 A 
ATOM     16  F17 ZIN A   1      19.600  -4.160   8.733  0.00  0.00    -0.204 F 
ATOM     17  C13 ZIN A   1      16.381  -5.214  10.038  0.00  0.00     0.027 A 
ATOM     18 Cl15 ZIN A   1      17.210  -5.332   7.464  0.00  0.00    -0.081 Cl
ATOM     19  C12 ZIN A   1      16.539  -4.918  11.380  0.00  0.00     0.002 A 
ATOM     20  C11 ZIN A   1      17.724  -4.371  11.833  0.00  0.00     0.011 A 
ENDBRANCH  12  13
ENDBRANCH   6  12
BRANCH   1  21
ATOM     21  O2  ZIN A   1      19.957  -1.219   9.815  0.00  0.00    -0.355 OA
ATOM     22  C1  ZIN A   1      19.545  -0.158   8.951  0.00  0.00     0.210 C 
ENDBRANCH   1  21
BRANCH  11  23
ATOM     23  C26 ZIN A   1      19.035   2.802  12.591  0.00  0.00     0.116 C 
BRANCH  23  24
ATOM     24  C28 ZIN A   1      19.460   4.072  13.332  0.00  0.00     0.190 C 
BRANCH  24  25
ATOM     25  O29 ZIN A   1      20.525   4.704  12.619  0.00  0.00    -0.399 OA
ATOM     26  H46 ZIN A   1      21.014   5.356  13.140  0.00  0.00     0.209 HD
ENDBRANCH  24  25
ENDBRANCH  23  24
BRANCH  23  27
ATOM     27  C30 ZIN A   1      17.617   2.981  12.046  0.00  0.00     0.003 C 
ATOM     28  C31 ZIN A   1      17.060   4.330  12.504  0.00  0.00     0.011 C 
ATOM     29  C32 ZIN A   1      17.650   2.934  10.517  0.00  0.00     0.011 C 
ENDBRANCH  23  27
ENDBRANCH  11  23
BRANCH   9  30
ATOM     30  C21 ZIN A   1      18.639   1.164  17.171  0.00  0.00     0.214 C 
ATOM     31  O22 ZIN A   1      19.559   1.567  17.872  0.00  0.00    -0.644 OA
ATOM     32  O23 ZIN A   1      17.526   1.003  17.656  0.00  0.00    -0.644 OA
ENDBRANCH   9  30
TORSDOF 8
ENDMDL
MODEL 3
REMARK VINA RESULT:      -8.2      4.174      8.845
REMARK  8 active torsions:
REMARK  status: ('A' for Active; 'I' for Inactive)
REMARK    1  A    between atoms: O2_2  and  C3_3 
REMARK    2  A    between atoms: C8_8  and  C9_9 
REMARK    3  A    between atoms: C9_9  and  C10_10 
REMARK    4  A    between atoms: C20_20  and  C21_21 
REMARK    5  A    between atoms: N25_25  and  C26_26 
REMARK    6  A    between atoms: C26_26  and  C28_27 
REMARK    7  A    between atoms: C26_26  and  C30_29 
REMARK    8  A    between atoms: C28_27  and  O29_28 
ROOT
ATOM      1  C3  ZIN A   1      17.512   2.378  11.980  0.00  0.00     0.077 A 
ATOM      2  C4  ZIN A   1      18.030   3.138  13.014  0.00  0.00     0.067 A 
ATOM      3  C5  ZIN A   1      18.233   2.559  14.263  0.00  0.00     0.051 A 
ATOM      4  C6  ZIN A   1      17.906   1.205  14.451  0.00  0.00     0.043 A 
ATOM      5  C7  ZIN A   1      17.384   0.454  13.398  0.00  0.00     0.028 A 
ATOM      6  C8  ZIN A   1      17.185   1.038  12.179  0.00  0.00    -0.019 A 
ATOM      7  C18 ZIN A   1      18.126   0.604  15.779  0.00  0.00     0.202 A 
ATOM      8  O19 ZIN A   1      17.860  -0.564  15.999  0.00  0.00    -0.286 OA
ATOM      9  C20 ZIN A   1      18.681   1.476  16.829  0.00  0.00     0.107 A 
ATOM     10  C24 ZIN A   1      18.963   2.794  16.522  0.00  0.00     0.114 A 
ATOM     11  N25 ZIN A   1      18.749   3.303  15.303  0.00  0.00    -0.348 N 
ENDROOT
BRANCH   6  12
ATOM     12  C9  ZIN A   1      16.623   0.227  11.041  0.00  0.00     0.083 C 
BRANCH  12  13
ATOM     13  C10 ZIN A   1      17.726  -0.576  10.403  0.00  0.00    -0.013 A 
ATOM     14  C16 ZIN A   1      17.952  -1.883  10.801  0.00  0.00     0.144 A 
ATOM     15  C14 ZIN A   1      18.963  -2.621  10.208  0.00  0.00     0.073 A 
ATOM     16  F17 ZIN A   1      17.178  -2.441  11.758  0.00  0.00    -0.204 F 
ATOM     17  C13 ZIN A   1      19.753  -2.049   9.229  0.00  0.00     0.027 A 
ATOM     18 Cl15 ZIN A   1      19.243  -4.263  10.701  0.00  0.00    -0.081 Cl
ATOM     19  C12 ZIN A   1      19.530  -0.742   8.837  0.00  0.00     0.002 A 
ATOM     20  C11 ZIN A   1      18.517  -0.006   9.423  0.00  0.00     0.011 A 
ENDBRANCH  12  13
ENDBRANCH   6  12
BRANCH   1  21
ATOM     21  O2  ZIN A   1      17.315   2.945  10.762  0.00  0.00    -0.355 OA
ATOM     22  C1  ZIN A   1      17.271   4.372  10.711  0.00  0.00     0.210 C 
ENDBRANCH   1  21
BRANCH  11  23
ATOM     23  C26 ZIN A   1      19.077   4.711  15.064  0.00  0.00     0.116 C 
BRANCH  23  24
ATOM     24  C28 ZIN A   1      20.296   5.101  15.904  0.00  0.00     0.190 C 
BRANCH  24  25
ATOM     25  O29 ZIN A   1      21.311   5.632  15.050  0.00  0.00    -0.399 OA
ATOM     26  H46 ZIN A   1      20.989   5.904  14.179  0.00  0.00     0.209 HD
ENDBRANCH  24  25
ENDBRANCH  23  24
BRANCH  23  27
ATOM     27  C30 ZIN A   1      17.887   5.586  15.457  0.00  0.00     0.003 C 
ATOM     28  C31 ZIN A   1      18.241   6.401  16.702  0.00  0.00     0.011 C 
ATOM     29  C32 ZIN A   1      17.549   6.535  14.304  0.00  0.00     0.011 C 
ENDBRANCH  23  27
ENDBRANCH  11  23
BRANCH   9  30
ATOM     30  C21 ZIN A   1      18.929   0.955  18.177  0.00  0.00     0.214 C 
ATOM     31  O22 ZIN A   1      20.067   0.656  18.517  0.00  0.00    -0.644 OA
ATOM     32  O23 ZIN A   1      18.000   0.818  18.961  0.00  0.00    -0.644 OA
ENDBRANCH   9  30
TORSDOF 8
ENDMDL
MODEL 4
REMARK VINA RESULT:      -7.8      3.685      6.510
REMARK  8 active torsions:
REMARK  status: ('A' for Active; 'I' for Inactive)
REMARK    1  A    between atoms: O2_2  and  C3_3 
REMARK    2  A    between atoms: C8_8  and  C9_9 
REMARK    3  A    between atoms: C9_9  and  C10_10 
REMARK    4  A    between atoms: C20_20  and  C21_21 
REMARK    5  A    between atoms: N25_25  and  C26_26 
REMARK    6  A    between atoms: C26_26  and  C28_27 
REMARK    7  A    between atoms: C26_26  and  C30_29 
REMARK    8  A    between atoms: C28_27  and  O29_28 
ROOT
ATOM      1  C3  ZIN A   1      18.256   3.924  12.542  0.00  0.00     0.077 A 
ATOM      2  C4  ZIN A   1      18.315   2.568  12.275  0.00  0.00     0.067 A 
ATOM      3  C5  ZIN A   1      18.320   1.656  13.325  0.00  0.00     0.051 A 
ATOM      4  C6  ZIN A   1      18.264   2.133  14.647  0.00  0.00     0.043 A 
ATOM      5  C7  ZIN A   1      18.205   3.504  14.898  0.00  0.00     0.028 A 
ATOM      6  C8  ZIN A   1      18.207   4.387  13.856  0.00  0.00    -0.019 A 
ATOM      7  C18 ZIN A   1      18.269   1.156  15.750  0.00  0.00     0.202 A 
ATOM      8  O19 ZIN A   1      18.223   1.513  16.913  0.00  0.00    -0.286 OA
ATOM      9  C20 ZIN A   1      18.333  -0.270  15.386  0.00  0.00     0.107 A 
ATOM     10  C24 ZIN A   1      18.385  -0.616  14.050  0.00  0.00     0.114 A 
ATOM     11  N25 ZIN A   1      18.377   0.301  13.074  0.00  0.00    -0.348 N 
ENDROOT
BRANCH   6  12
ATOM     12  C9  ZIN A   1      18.143   5.868  14.128  0.00  0.00     0.083 C 
BRANCH  12  13
ATOM     13  C10 ZIN A   1      16.937   6.171  14.978  0.00  0.00    -0.013 A 
ATOM     14  C16 ZIN A   1      15.664   6.018  14.456  0.00  0.00     0.144 A 
ATOM     15  C14 ZIN A   1      14.557   6.293  15.241  0.00  0.00     0.073 A 
ATOM     16  F17 ZIN A   1      15.502   5.591  13.184  0.00  0.00    -0.204 F 
ATOM     17  C13 ZIN A   1      14.724   6.730  16.542  0.00  0.00     0.027 A 
ATOM     18 Cl15 ZIN A   1      12.959   6.095  14.589  0.00  0.00    -0.081 Cl
ATOM     19  C12 ZIN A   1      15.996   6.887  17.061  0.00  0.00     0.002 A 
ATOM     20  C11 ZIN A   1      17.101   6.608  16.280  0.00  0.00     0.011 A 
ENDBRANCH  12  13
ENDBRANCH   6  12
BRANCH   1  21
ATOM     21  O2  ZIN A   1      18.252   4.813  11.516  0.00  0.00    -0.355 OA
ATOM     22  C1  ZIN A   1      17.336   4.565  10.448  0.00  0.00     0.210 C 
ENDBRANCH   1  21
BRANCH  11  23
ATOM     23  C26 ZIN A   1      18.434  -0.153  11.683  0.00  0.00     0.116 C 
BRANCH  23  24
ATOM     24  C28 ZIN A   1      17.128  -0.867  11.326  0.00  0.00     0.190 C 
BRANCH  24  25
ATOM     25  O29 ZIN A   1      16.037   0.048  11.452  0.00  0.00    -0.399 OA
ATOM     26  H46 ZIN A   1      15.635   0.299  10.609  0.00  0.00     0.209 HD
ENDBRANCH  24  25
ENDBRANCH  23  24
BRANCH  23  27
ATOM     27  C30 ZIN A   1      19.606  -1.120  11.509  0.00  0.00     0.003 C 
ATOM     28  C31 ZIN A   1      19.164  -2.310  10.656  0.00  0.00     0.011 C 
ATOM     29  C32 ZIN A   1      20.764  -0.397  10.816  0.00  0.00     0.011 C 
ENDBRANCH  23  27
ENDBRANCH  11  23
BRANCH   9  30
ATOM     30  C21 ZIN A   1      18.342  -1.305  16.425  0.00  0.00     0.214 C 
ATOM     31  O22 ZIN A   1      17.286  -1.722  16.883  0.00  0.00    -0.644 OA
ATOM     32  O23 ZIN A   1      19.406  -1.751  16.835  0.00  0.00    -0.644 OA
ENDBRANCH   9  30
TORSDOF 8
ENDMDL
MODEL 5
REMARK VINA RESULT:      -7.7      4.772      8.785
REMARK  8 active torsions:
REMARK  status: ('A' for Active; 'I' for Inactive)
REMARK    1  A    between atoms: O2_2  and  C3_3 
REMARK    2  A    between atoms: C8_8  and  C9_9 
REMARK    3  A    between atoms: C9_9  and  C10_10 
REMARK    4  A    between atoms: C20_20  and  C21_21 
REMARK    5  A    between atoms: N25_25  and  C26_26 
REMARK    6  A    between atoms: C26_26  and  C28_27 
REMARK    7  A    between atoms: C26_26  and  C30_29 
REMARK    8  A    between atoms: C28_27  and  O29_28 
ROOT
ATOM      1  C3  ZIN A   1      19.149  -2.129   5.561  0.00  0.00     0.077 A 
ATOM      2  C4  ZIN A   1      19.266  -1.642   6.850  0.00  0.00     0.067 A 
ATOM      3  C5  ZIN A   1      18.788  -2.392   7.920  0.00  0.00     0.051 A 
ATOM      4  C6  ZIN A   1      18.189  -3.640   7.667  0.00  0.00     0.043 A 
ATOM      5  C7  ZIN A   1      18.079  -4.116   6.360  0.00  0.00     0.028 A 
ATOM      6  C8  ZIN A   1      18.549  -3.364   5.321  0.00  0.00    -0.019 A 
ATOM      7  C18 ZIN A   1      17.687  -4.425   8.808  0.00  0.00     0.202 A 
ATOM      8  O19 ZIN A   1      17.160  -5.511   8.647  0.00  0.00    -0.286 OA
ATOM      9  C20 ZIN A   1      17.848  -3.840  10.151  0.00  0.00     0.107 A 
ATOM     10  C24 ZIN A   1      18.453  -2.604  10.272  0.00  0.00     0.114 A 
ATOM     11  N25 ZIN A   1      18.898  -1.921   9.210  0.00  0.00    -0.348 N 
ENDROOT
BRANCH   6  12
ATOM     12  C9  ZIN A   1      18.431  -3.878   3.909  0.00  0.00     0.083 C 
BRANCH  12  13
ATOM     13  C10 ZIN A   1      17.434  -5.006   3.867  0.00  0.00    -0.013 A 
ATOM     14  C16 ZIN A   1      16.138  -4.770   3.441  0.00  0.00     0.144 A 
ATOM     15  C14 ZIN A   1      15.224  -5.810   3.398  0.00  0.00     0.073 A 
ATOM     16  F17 ZIN A   1      15.768  -3.528   3.058  0.00  0.00    -0.204 F 
ATOM     17  C13 ZIN A   1      15.603  -7.080   3.791  0.00  0.00     0.027 A 
ATOM     18 Cl15 ZIN A   1      13.600  -5.516   2.858  0.00  0.00    -0.081 Cl
ATOM     19  C12 ZIN A   1      16.896  -7.313   4.222  0.00  0.00     0.002 A 
ATOM     20  C11 ZIN A   1      17.811  -6.277   4.259  0.00  0.00     0.011 A 
ENDBRANCH  12  13
ENDBRANCH   6  12
BRANCH   1  21
ATOM     21  O2  ZIN A   1      19.617  -1.395   4.519  0.00  0.00    -0.355 OA
ATOM     22  C1  ZIN A   1      19.161  -0.044   4.421  0.00  0.00     0.210 C 
ENDBRANCH   1  21
BRANCH  11  23
ATOM     23  C26 ZIN A   1      19.528  -0.617   9.429  0.00  0.00     0.116 C 
BRANCH  23  24
ATOM     24  C28 ZIN A   1      20.118  -0.565  10.841  0.00  0.00     0.190 C 
BRANCH  24  25
ATOM     25  O29 ZIN A   1      21.544  -0.606  10.761  0.00  0.00    -0.399 OA
ATOM     26  H46 ZIN A   1      21.938  -1.392  11.164  0.00  0.00     0.209 HD
ENDBRANCH  24  25
ENDBRANCH  23  24
BRANCH  23  27
ATOM     27  C30 ZIN A   1      18.482   0.488   9.274  0.00  0.00     0.003 C 
ATOM     28  C31 ZIN A   1      18.019   0.951  10.657  0.00  0.00     0.011 C 
ATOM     29  C32 ZIN A   1      19.097   1.670   8.520  0.00  0.00     0.011 C 
ENDBRANCH  23  27
ENDBRANCH  11  23
BRANCH   9  30
ATOM     30  C21 ZIN A   1      17.374  -4.558  11.338  0.00  0.00     0.214 C 
ATOM     31  O22 ZIN A   1      18.171  -5.156  12.050  0.00  0.00    -0.644 OA
ATOM     32  O23 ZIN A   1      16.182  -4.560  11.617  0.00  0.00    -0.644 OA
ENDBRANCH   9  30
TORSDOF 8
ENDMDL
MODEL 6
REMARK VINA RESULT:      -7.4      4.723      8.207
REMARK  8 active torsions:
REMARK  status: ('A' for Active; 'I' for Inactive)
REMARK    1  A    between atoms: O2_2  and  C3_3 
REMARK    2  A    between atoms: C8_8  and  C9_9 
REMARK    3  A    between atoms: C9_9  and  C10_10 
REMARK    4  A    between atoms: C20_20  and  C21_21 
REMARK    5  A    between atoms: N25_25  and  C26_26 
REMARK    6  A    between atoms: C26_26  and  C28_27 
REMARK    7  A    between atoms: C26_26  and  C30_29 
REMARK    8  A    between atoms: C28_27  and  O29_28 
ROOT
ATOM      1  C3  ZIN A   1      17.159  -4.596  10.033  0.00  0.00     0.077 A 
ATOM      2  C4  ZIN A   1      17.574  -3.276  10.044  0.00  0.00     0.067 A 
ATOM      3  C5  ZIN A   1      17.997  -2.673   8.864  0.00  0.00     0.051 A 
ATOM      4  C6  ZIN A   1      17.996  -3.423   7.674  0.00  0.00     0.043 A 
ATOM      5  C7  ZIN A   1      17.575  -4.754   7.681  0.00  0.00     0.028 A 
ATOM      6  C8  ZIN A   1      17.168  -5.332   8.849  0.00  0.00    -0.019 A 
ATOM      7  C18 ZIN A   1      18.446  -2.773   6.431  0.00  0.00     0.202 A 
ATOM      8  O19 ZIN A   1      18.467  -3.375   5.372  0.00  0.00    -0.286 OA
ATOM      9  C20 ZIN A   1      18.872  -1.366   6.523  0.00  0.00     0.107 A 
ATOM     10  C24 ZIN A   1      18.829  -0.734   7.751  0.00  0.00     0.114 A 
ATOM     11  N25 ZIN A   1      18.412  -1.358   8.860  0.00  0.00    -0.348 N 
ENDROOT
BRANCH   6  12
ATOM     12  C9  ZIN A   1      16.713  -6.768   8.856  0.00  0.00     0.083 C 
BRANCH  12  13
ATOM     13  C10 ZIN A   1      15.426  -6.892   8.083  0.00  0.00    -0.013 A 
ATOM     14  C16 ZIN A   1      15.329  -7.796   7.039  0.00  0.00     0.144 A 
ATOM     15  C14 ZIN A   1      14.143  -7.912   6.332  0.00  0.00     0.073 A 
ATOM     16  F17 ZIN A   1      16.387  -8.573   6.717  0.00  0.00    -0.204 F 
ATOM     17  C13 ZIN A   1      13.062  -7.116   6.663  0.00  0.00     0.027 A 
ATOM     18 Cl15 ZIN A   1      14.018  -9.050   5.027  0.00  0.00    -0.081 Cl
ATOM     19  C12 ZIN A   1      13.162  -6.209   7.702  0.00  0.00     0.002 A 
ATOM     20  C11 ZIN A   1      14.343  -6.098   8.411  0.00  0.00     0.011 A 
ENDBRANCH  12  13
ENDBRANCH   6  12
BRANCH   1  21
ATOM     21  O2  ZIN A   1      16.746  -5.182  11.186  0.00  0.00    -0.355 OA
ATOM     22  C1  ZIN A   1      17.683  -5.223  12.264  0.00  0.00     0.210 C 
ENDBRANCH   1  21
BRANCH  11  23
ATOM     23  C26 ZIN A   1      18.397  -0.614  10.121  0.00  0.00     0.116 C 
BRANCH  23  24
ATOM     24  C28 ZIN A   1      17.187   0.323  10.146  0.00  0.00     0.190 C 
BRANCH  24  25
ATOM     25  O29 ZIN A   1      16.328  -0.039  11.229  0.00  0.00    -0.399 OA
ATOM     26  H46 ZIN A   1      16.743  -0.619  11.882  0.00  0.00     0.209 HD
ENDBRANCH  24  25
ENDBRANCH  23  24
BRANCH  23  27
ATOM     27  C30 ZIN A   1      19.680   0.209  10.244  0.00  0.00     0.003 C 
ATOM     28  C31 ZIN A   1      19.372   1.537  10.938  0.00  0.00     0.011 C 
ATOM     29  C32 ZIN A   1      20.708  -0.571  11.067  0.00  0.00     0.011 C 
ENDBRANCH  23  27
ENDBRANCH  11  23
BRANCH   9  30
ATOM     30  C21 ZIN A   1      19.334  -0.647   5.332  0.00  0.00     0.214 C 
ATOM     31  O22 ZIN A   1      19.093   0.546   5.204  0.00  0.00    -0.644 OA
ATOM     32  O23 ZIN A   1      19.961  -1.241   4.464  0.00  0.00    -0.644 OA
ENDBRANCH   9  30
TORSDOF 8
ENDMDL
MODEL 7
REMARK VINA RESULT:      -7.3      2.299      3.128
REMARK  8 active torsions:
REMARK  status: ('A' for Active; 'I' for Inactive)
REMARK    1  A    between atoms: O2_2  and  C3_3 
REMARK    2  A    between atoms: C8_8  and  C9_9 
REMARK    3  A    between atoms: C9_9  and  C10_10 
REMARK    4  A    between atoms: C20_20  and  C21_21 
REMARK    5  A    between atoms: N25_25  and  C26_26 
REMARK    6  A    between atoms: C26_26  and  C28_27 
REMARK    7  A    between atoms: C26_26  and  C30_29 
REMARK    8  A    between atoms: C28_27  and  O29_28 
ROOT
ATOM      1  C3  ZIN A   1      18.016  -0.529  14.338  0.00  0.00     0.077 A 
ATOM      2  C4  ZIN A   1      18.192  -1.470  13.340  0.00  0.00     0.067 A 
ATOM      3  C5  ZIN A   1      18.166  -1.077  12.006  0.00  0.00     0.051 A 
ATOM      4  C6  ZIN A   1      17.959   0.279  11.696  0.00  0.00     0.043 A 
ATOM      5  C7  ZIN A   1      17.783   1.215  12.716  0.00  0.00     0.028 A 
ATOM      6  C8  ZIN A   1      17.806   0.812  14.020  0.00  0.00    -0.019 A 
ATOM      7  C18 ZIN A   1      17.934   0.683  10.279  0.00  0.00     0.202 A 
ATOM      8  O19 ZIN A   1      17.758   1.843   9.953  0.00  0.00    -0.286 OA
ATOM      9  C20 ZIN A   1      18.129  -0.376   9.273  0.00  0.00     0.107 A 
ATOM     10  C24 ZIN A   1      18.323  -1.676   9.702  0.00  0.00     0.114 A 
ATOM     11  N25 ZIN A   1      18.341  -2.004  11.000  0.00  0.00    -0.348 N 
ENDROOT
BRANCH   6  12
ATOM     12  C9  ZIN A   1      17.617   1.823  15.121  0.00  0.00     0.083 C 
BRANCH  12  13
ATOM     13  C10 ZIN A   1      18.149   3.159  14.674  0.00  0.00    -0.013 A 
ATOM     14  C16 ZIN A   1      19.228   3.729  15.327  0.00  0.00     0.144 A 
ATOM     15  C14 ZIN A   1      19.720   4.955  14.911  0.00  0.00     0.073 A 
ATOM     16  F17 ZIN A   1      19.809   3.084  16.363  0.00  0.00    -0.204 F 
ATOM     17  C13 ZIN A   1      19.125   5.614  13.851  0.00  0.00     0.027 A 
ATOM     18 Cl15 ZIN A   1      21.078   5.668  15.725  0.00  0.00    -0.081 Cl
ATOM     19  C12 ZIN A   1      18.043   5.046  13.203  0.00  0.00     0.002 A 
ATOM     20  C11 ZIN A   1      17.556   3.820  13.614  0.00  0.00     0.011 A 
ENDBRANCH  12  13
ENDBRANCH   6  12
BRANCH   1  21
ATOM     21  O2  ZIN A   1      18.042  -0.915  15.640  0.00  0.00    -0.355 OA
ATOM     22  C1  ZIN A   1      19.257  -1.493  16.120  0.00  0.00     0.210 C 
ENDBRANCH   1  21
BRANCH  11  23
ATOM     23  C26 ZIN A   1      18.554  -3.405  11.366  0.00  0.00     0.116 C 
BRANCH  23  24
ATOM     24  C28 ZIN A   1      19.961  -3.835  10.945  0.00  0.00     0.190 C 
BRANCH  24  25
ATOM     25  O29 ZIN A   1      20.923  -2.967  11.547  0.00  0.00    -0.399 OA
ATOM     26  H46 ZIN A   1      20.646  -2.606  12.400  0.00  0.00     0.209 HD
ENDBRANCH  24  25
ENDBRANCH  23  24
BRANCH  23  27
ATOM     27  C30 ZIN A   1      17.520  -4.281  10.657  0.00  0.00     0.003 C 
ATOM     28  C31 ZIN A   1      18.234  -5.403   9.901  0.00  0.00     0.011 C 
ATOM     29  C32 ZIN A   1      16.569  -4.887  11.692  0.00  0.00     0.011 C 
ENDBRANCH  23  27
ENDBRANCH  11  23
BRANCH   9  30
ATOM     30  C21 ZIN A   1      18.118  -0.057   7.842  0.00  0.00     0.214 C 
ATOM     31  O22 ZIN A   1      19.163   0.217   7.268  0.00  0.00    -0.644 OA
ATOM     32  O23 ZIN A   1      17.062  -0.064   7.223  0.00  0.00    -0.644 OA
ENDBRANCH   9  30
TORSDOF 8
ENDMDL
MODEL 8
REMARK VINA RESULT:      -7.2      2.139      3.488
REMARK  8 active torsions:
REMARK  status: ('A' for Active; 'I' for Inactive)
REMARK    1  A    between atoms: O2_2  and  C3_3 
REMARK    2  A    between atoms: C8_8  and  C9_9 
REMARK    3  A    between atoms: C9_9  and  C10_10 
REMARK    4  A    between atoms: C20_20  and  C21_21 
REMARK    5  A    between atoms: N25_25  and  C26_26 
REMARK    6  A    between atoms: C26_26  and  C28_27 
REMARK    7  A    between atoms: C26_26  and  C30_29 
REMARK    8  A    between atoms: C28_27  and  O29_28 
ROOT
ATOM      1  C3  ZIN A   1      18.043  -3.105  10.887  0.00  0.00     0.077 A 
ATOM      2  C4  ZIN A   1      18.158  -3.797   9.695  0.00  0.00     0.067 A 
ATOM      3  C5  ZIN A   1      18.334  -3.099   8.504  0.00  0.00     0.051 A 
ATOM      4  C6  ZIN A   1      18.391  -1.694   8.536  0.00  0.00     0.043 A 
ATOM      5  C7  ZIN A   1      18.274  -1.012   9.747  0.00  0.00     0.028 A 
ATOM      6  C8  ZIN A   1      18.096  -1.712  10.907  0.00  0.00    -0.019 A 
ATOM      7  C18 ZIN A   1      18.578  -0.968   7.268  0.00  0.00     0.202 A 
ATOM      8  O19 ZIN A   1      18.635   0.248   7.236  0.00  0.00    -0.286 OA
ATOM      9  C20 ZIN A   1      18.692  -1.774   6.040  0.00  0.00     0.107 A 
ATOM     10  C24 ZIN A   1      18.620  -3.151   6.136  0.00  0.00     0.114 A 
ATOM     11  N25 ZIN A   1      18.450  -3.776   7.308  0.00  0.00    -0.348 N 
ENDROOT
BRANCH   6  12
ATOM     12  C9  ZIN A   1      17.970  -0.975  12.215  0.00  0.00     0.083 C 
BRANCH  12  13
ATOM     13  C10 ZIN A   1      18.549   0.408  12.071  0.00  0.00    -0.013 A 
ATOM     14  C16 ZIN A   1      17.751   1.451  11.635  0.00  0.00     0.144 A 
ATOM     15  C14 ZIN A   1      18.284   2.724  11.509  0.00  0.00     0.073 A 
ATOM     16  F17 ZIN A   1      16.449   1.231  11.344  0.00  0.00    -0.204 F 
ATOM     17  C13 ZIN A   1      19.615   2.948  11.807  0.00  0.00     0.027 A 
ATOM     18 Cl15 ZIN A   1      17.282   4.035  10.969  0.00  0.00    -0.081 Cl
ATOM     19  C12 ZIN A   1      20.413   1.903  12.237  0.00  0.00     0.002 A 
ATOM     20  C11 ZIN A   1      19.880   0.635  12.369  0.00  0.00     0.011 A 
ENDBRANCH  12  13
ENDBRANCH   6  12
BRANCH   1  21
ATOM     21  O2  ZIN A   1      17.872  -3.787  12.048  0.00  0.00    -0.355 OA
ATOM     22  C1  ZIN A   1      17.435  -5.143  11.944  0.00  0.00     0.210 C 
ENDBRANCH   1  21
BRANCH  11  23
ATOM     23  C26 ZIN A   1      18.385  -5.238   7.320  0.00  0.00     0.116 C 
BRANCH  23  24
ATOM     24  C28 ZIN A   1      19.613  -5.810   6.608  0.00  0.00     0.190 C 
BRANCH  24  25
ATOM     25  O29 ZIN A   1      20.738  -5.762   7.488  0.00  0.00    -0.399 OA
ATOM     26  H46 ZIN A   1      20.769  -4.970   8.043  0.00  0.00     0.209 HD
ENDBRANCH  24  25
ENDBRANCH  23  24
BRANCH  23  27
ATOM     27  C30 ZIN A   1      17.117  -5.699   6.598  0.00  0.00     0.003 C 
ATOM     28  C31 ZIN A   1      17.451  -6.876   5.680  0.00  0.00     0.011 C 
ATOM     29  C32 ZIN A   1      16.074  -6.135   7.629  0.00  0.00     0.011 C 
ENDBRANCH  23  27
ENDBRANCH  11  23
BRANCH   9  30
ATOM     30  C21 ZIN A   1      18.880  -1.127   4.738  0.00  0.00     0.214 C 
ATOM     31  O22 ZIN A   1      17.914  -0.911   4.017  0.00  0.00    -0.644 OA
ATOM     32  O23 ZIN A   1      20.002  -0.803   4.371  0.00  0.00    -0.644 OA
ENDBRANCH   9  30
TORSDOF 8
ENDMDL
MODEL 9
REMARK VINA RESULT:      -7.1      4.474      7.939
REMARK  8 active torsions:
REMARK  status: ('A' for Active; 'I' for Inactive)
REMARK    1  A    between atoms: O2_2  and  C3_3 
REMARK    2  A    between atoms: C8_8  and  C9_9 
REMARK    3  A    between atoms: C9_9  and  C10_10 
REMARK    4  A    between atoms: C20_20  and  C21_21 
REMARK    5  A    between atoms: N25_25  and  C26_26 
REMARK    6  A    between atoms: C26_26  and  C28_27 
REMARK    7  A    between atoms: C26_26  and  C30_29 
REMARK    8  A    between atoms: C28_27  and  O29_28 
ROOT
ATOM      1  C3  ZIN A   1      18.434  -4.611  10.392  0.00  0.00     0.077 A 
ATOM      2  C4  ZIN A   1      18.301  -3.321  10.874  0.00  0.00     0.067 A 
ATOM      3  C5  ZIN A   1      18.509  -2.240  10.024  0.00  0.00     0.051 A 
ATOM      4  C6  ZIN A   1      18.854  -2.481   8.682  0.00  0.00     0.043 A 
ATOM      5  C7  ZIN A   1      18.985  -3.788   8.213  0.00  0.00     0.028 A 
ATOM      6  C8  ZIN A   1      18.782  -4.839   9.062  0.00  0.00    -0.019 A 
ATOM      7  C18 ZIN A   1      19.071  -1.327   7.792  0.00  0.00     0.202 A 
ATOM      8  O19 ZIN A   1      19.372  -1.477   6.622  0.00  0.00    -0.286 OA
ATOM      9  C20 ZIN A   1      18.910   0.015   8.378  0.00  0.00     0.107 A 
ATOM     10  C24 ZIN A   1      18.569   0.125   9.712  0.00  0.00     0.114 A 
ATOM     11  N25 ZIN A   1      18.378  -0.949  10.490  0.00  0.00    -0.348 N 
ENDROOT
BRANCH   6  12
ATOM     12  C9  ZIN A   1      18.923  -6.251   8.555  0.00  0.00     0.083 C 
BRANCH  12  13
ATOM     13  C10 ZIN A   1      17.670  -6.647   7.817  0.00  0.00    -0.013 A 
ATOM     14  C16 ZIN A   1      17.667  -6.696   6.434  0.00  0.00     0.144 A 
ATOM     15  C14 ZIN A   1      16.516  -7.066   5.758  0.00  0.00     0.073 A 
ATOM     16  F17 ZIN A   1      18.790  -6.394   5.744  0.00  0.00    -0.204 F 
ATOM     17  C13 ZIN A   1      15.369  -7.375   6.465  0.00  0.00     0.027 A 
ATOM     18 Cl15 ZIN A   1      16.513  -7.134   4.023  0.00  0.00    -0.081 Cl
ATOM     19  C12 ZIN A   1      15.372  -7.319   7.846  0.00  0.00     0.002 A 
ATOM     20  C11 ZIN A   1      16.522  -6.957   8.522  0.00  0.00     0.011 A 
ENDBRANCH  12  13
ENDBRANCH   6  12
BRANCH   1  21
ATOM     21  O2  ZIN A   1      18.230  -5.665  11.224  0.00  0.00    -0.355 OA
ATOM     22  C1  ZIN A   1      17.357  -5.454  12.335  0.00  0.00     0.210 C 
ENDBRANCH   1  21
BRANCH  11  23
ATOM     23  C26 ZIN A   1      18.017  -0.742  11.894  0.00  0.00     0.116 C 
BRANCH  23  24
ATOM     24  C28 ZIN A   1      17.074   0.458  12.007  0.00  0.00     0.190 C 
BRANCH  24  25
ATOM     25  O29 ZIN A   1      15.755   0.064  11.623  0.00  0.00    -0.399 OA
ATOM     26  H46 ZIN A   1      15.230   0.777  11.234  0.00  0.00     0.209 HD
ENDBRANCH  24  25
ENDBRANCH  23  24
BRANCH  23  27
ATOM     27  C30 ZIN A   1      19.281  -0.476  12.712  0.00  0.00     0.003 C 
ATOM     28  C31 ZIN A   1      19.269   0.969  13.216  0.00  0.00     0.011 C 
ATOM     29  C32 ZIN A   1      19.327  -1.432  13.906  0.00  0.00     0.011 C 
ENDBRANCH  23  27
ENDBRANCH  11  23
BRANCH   9  30
ATOM     30  C21 ZIN A   1      19.110   1.215   7.559  0.00  0.00     0.214 C 
ATOM     31  O22 ZIN A   1      19.131   1.126   6.338  0.00  0.00    -0.644 OA
ATOM     32  O23 ZIN A   1      19.255   2.305   8.096  0.00  0.00    -0.644 OA
ENDBRANCH   9  30
TORSDOF 8
ENDMDL
