MODEL 1
REMARK VINA RESULT:      -7.8      0.000      0.000
REMARK  3 active torsions:
REMARK  status: ('A' for Active; 'I' for Inactive)
REMARK    1  A    between atoms: N6_6  and  C7_7 
REMARK    2  A    between atoms: C7_7  and  C9_8 
REMARK    3  A    between atoms: C7_7  and  C15_14 
ROOT
ATOM      1  C7  <0> d   1      19.323  -0.747  12.887  0.00  0.00     0.289 C 
ENDROOT
BRANCH   1   2
ATOM      2  N6  <0> d   1      18.715   0.382  12.171  0.00  0.00     0.105 N 
ATOM      3  C5  <0> d   1      18.975   0.291  10.728  0.00  0.00     0.301 C 
ATOM      4  C4  <0> d   1      18.277   1.451  10.013  0.00  0.00     0.264 C 
ATOM      5  N2  <0> d   1      18.781   2.726  10.539  0.00  0.00    -0.072 N 
ATOM      6  C1  <0> d   1      18.123   3.838   9.840  0.00  0.00     0.269 C 
ATOM      7  H3  <0> d   1      19.778   2.779  10.394  0.00  0.00     0.279 HD
ATOM      8  C23 <0> d   1      18.491   2.812  11.977  0.00  0.00     0.264 C 
ATOM      9  C22 <0> d   1      19.192   1.664  12.708  0.00  0.00     0.301 C 
ENDBRANCH   1   2
BRANCH   1  10
ATOM     10  C9  <0> d   1      18.823  -0.768  14.309  0.00  0.00    -0.021 A 
ATOM     11  C14 <0> d   1      19.493  -1.505  15.267  0.00  0.00     0.010 A 
ATOM     12  C13 <0> d   1      19.038  -1.520  16.572  0.00  0.00     0.001 A 
ATOM     13  C12 <0> d   1      17.907  -0.804  16.917  0.00  0.00     0.000 A 
ATOM     14  C11 <0> d   1      17.234  -0.071  15.959  0.00  0.00     0.001 A 
ATOM     15  C10 <0> d   1      17.692  -0.052  14.655  0.00  0.00     0.010 A 
ENDBRANCH   1  10
BRANCH   1  16
ATOM     16  C15 <0> d   1      18.946  -2.036  12.205  0.00  0.00    -0.021 A 
ATOM     17  C21 <0> d   1      17.619  -2.315  11.938  0.00  0.00     0.011 A 
ATOM     18  C20 <0> d   1      17.273  -3.496  11.307  0.00  0.00     0.024 A 
ATOM     19  C18 <0> d   1      18.255  -4.404  10.953  0.00  0.00     0.034 A 
ATOM     20  C17 <0> d   1      19.583  -4.127  11.227  0.00  0.00     0.024 A 
ATOM     21 Cl19 <0> d   1      17.820  -5.890  10.168  0.00  0.00    -0.084 Cl
ATOM     22  C16 <0> d   1      19.927  -2.945  11.852  0.00  0.00     0.011 A 
ENDBRANCH   1  16
TORSDOF 3
ENDMDL
MODEL 2
REMARK VINA RESULT:      -7.6      3.798      7.413
REMARK  3 active torsions:
REMARK  status: ('A' for Active; 'I' for Inactive)
REMARK    1  A    between atoms: N6_6  and  C7_7 
REMARK    2  A    between atoms: C7_7  and  C9_8 
REMARK    3  A    between atoms: C7_7  and  C15_14 
ROOT
ATOM      1  C7  <0> d   1      19.349   0.489   8.953  0.00  0.00     0.289 C 
ENDROOT
BRANCH   1   2
ATOM      2  N6  <0> d   1      19.174  -0.752   9.719  0.00  0.00     0.105 N 
ATOM      3  C5  <0> d   1      20.230  -0.898  10.730  0.00  0.00     0.301 C 
ATOM      4  C4  <0> d   1      19.979  -2.170  11.545  0.00  0.00     0.264 C 
ATOM      5  N2  <0> d   1      19.971  -3.333  10.648  0.00  0.00    -0.072 N 
ATOM      6  C1  <0> d   1      19.748  -4.555  11.433  0.00  0.00     0.269 C 
ATOM      7  H3  <0> d   1      20.858  -3.397  10.172  0.00  0.00     0.279 HD
ATOM      8  C23 <0> d   1      18.894  -3.183   9.660  0.00  0.00     0.264 C 
ATOM      9  C22 <0> d   1      19.137  -1.920   8.829  0.00  0.00     0.301 C 
ENDBRANCH   1   2
BRANCH   1  10
ATOM     10  C9  <0> d   1      18.741   0.323   7.584  0.00  0.00    -0.021 A 
ATOM     11  C14 <0> d   1      19.525   0.475   6.456  0.00  0.00     0.010 A 
ATOM     12  C13 <0> d   1      18.968   0.319   5.200  0.00  0.00     0.001 A 
ATOM     13  C12 <0> d   1      17.625   0.018   5.072  0.00  0.00     0.000 A 
ATOM     14  C11 <0> d   1      16.839  -0.129   6.200  0.00  0.00     0.001 A 
ATOM     15  C10 <0> d   1      17.397   0.023   7.456  0.00  0.00     0.010 A 
ENDBRANCH   1  10
BRANCH   1  16
ATOM     16  C15 <0> d   1      18.666   1.624   9.670  0.00  0.00    -0.021 A 
ATOM     17  C21 <0> d   1      18.759   2.911   9.174  0.00  0.00     0.011 A 
ATOM     18  C20 <0> d   1      18.128   3.952   9.829  0.00  0.00     0.024 A 
ATOM     19  C18 <0> d   1      17.414   3.708  10.989  0.00  0.00     0.034 A 
ATOM     20  C17 <0> d   1      17.327   2.420  11.489  0.00  0.00     0.024 A 
ATOM     21 Cl19 <0> d   1      16.628   5.016  11.817  0.00  0.00    -0.084 Cl
ATOM     22  C16 <0> d   1      17.953   1.380  10.830  0.00  0.00     0.011 A 
ENDBRANCH   1  16
TORSDOF 3
ENDMDL
MODEL 3
REMARK VINA RESULT:      -7.4      4.004      7.617
REMARK  3 active torsions:
REMARK  status: ('A' for Active; 'I' for Inactive)
REMARK    1  A    between atoms: N6_6  and  C7_7 
REMARK    2  A    between atoms: C7_7  and  C9_8 
REMARK    3  A    between atoms: C7_7  and  C15_14 
ROOT
ATOM      1  C7  <0> d   1      19.086  -0.950   8.596  0.00  0.00     0.289 C 
ENDROOT
BRANCH   1   2
ATOM      2  N6  <0> d   1      18.396  -2.012   9.341  0.00  0.00     0.105 N 
ATOM      3  C5  <0> d   1      19.179  -2.426  10.513  0.00  0.00     0.301 C 
ATOM      4  C4  <0> d   1      18.401  -3.489  11.294  0.00  0.00     0.264 C 
ATOM      5  N2  <0> d   1      18.141  -4.643  10.424  0.00  0.00    -0.072 N 
ATOM      6  C1  <0> d   1      17.410  -5.670  11.178  0.00  0.00     0.269 C 
ATOM      7  H3  <0> d   1      19.018  -5.025  10.100  0.00  0.00     0.279 HD
ATOM      8  C23 <0> d   1      17.337  -4.218   9.271  0.00  0.00     0.264 C 
ATOM      9  C22 <0> d   1      18.107  -3.162   8.473  0.00  0.00     0.301 C 
ENDBRANCH   1   2
BRANCH   1  10
ATOM     10  C9  <0> d   1      18.664  -0.996   7.150  0.00  0.00    -0.021 A 
ATOM     11  C14 <0> d   1      19.454  -1.644   6.219  0.00  0.00     0.010 A 
ATOM     12  C13 <0> d   1      19.064  -1.689   4.894  0.00  0.00     0.001 A 
ATOM     13  C12 <0> d   1      17.889  -1.079   4.498  0.00  0.00     0.000 A 
ATOM     14  C11 <0> d   1      17.101  -0.426   5.427  0.00  0.00     0.001 A 
ATOM     15  C10 <0> d   1      17.489  -0.385   6.754  0.00  0.00     0.010 A 
ENDBRANCH   1  10
BRANCH   1  16
ATOM     16  C15 <0> d   1      18.727   0.390   9.182  0.00  0.00    -0.021 A 
ATOM     17  C21 <0> d   1      19.332   1.537   8.705  0.00  0.00     0.011 A 
ATOM     18  C20 <0> d   1      18.999   2.769   9.239  0.00  0.00     0.024 A 
ATOM     19  C18 <0> d   1      18.067   2.851  10.259  0.00  0.00     0.034 A 
ATOM     20  C17 <0> d   1      17.465   1.701  10.739  0.00  0.00     0.024 A 
ATOM     21 Cl19 <0> d   1      17.653   4.396  10.934  0.00  0.00    -0.084 Cl
ATOM     22  C16 <0> d   1      17.795   0.472  10.201  0.00  0.00     0.011 A 
ENDBRANCH   1  16
TORSDOF 3
ENDMDL
MODEL 4
REMARK VINA RESULT:      -7.4      2.522      5.214
REMARK  3 active torsions:
REMARK  status: ('A' for Active; 'I' for Inactive)
REMARK    1  A    between atoms: N6_6  and  C7_7 
REMARK    2  A    between atoms: C7_7  and  C9_8 
REMARK    3  A    between atoms: C7_7  and  C15_14 
ROOT
ATOM      1  C7  <0> d   1      19.515   0.737  11.732  0.00  0.00     0.289 C 
ENDROOT
BRANCH   1   2
ATOM      2  N6  <0> d   1      19.056  -0.123  10.633  0.00  0.00     0.105 N 
ATOM      3  C5  <0> d   1      18.818  -1.495  11.104  0.00  0.00     0.301 C 
ATOM      4  C4  <0> d   1      18.285  -2.343   9.946  0.00  0.00     0.264 C 
ATOM      5  N2  <0> d   1      19.263  -2.345   8.851  0.00  0.00    -0.072 N 
ATOM      6  C1  <0> d   1      18.760  -3.174   7.747  0.00  0.00     0.269 C 
ATOM      7  H3  <0> d   1      20.139  -2.723   9.182  0.00  0.00     0.279 HD
ATOM      8  C23 <0> d   1      19.472  -0.971   8.375  0.00  0.00     0.264 C 
ATOM      9  C22 <0> d   1      20.015  -0.112   9.520  0.00  0.00     0.301 C 
ENDBRANCH   1   2
BRANCH   1  10
ATOM     10  C9  <0> d   1      19.022   2.144  11.507  0.00  0.00    -0.021 A 
ATOM     11  C14 <0> d   1      17.974   2.379  10.638  0.00  0.00     0.010 A 
ATOM     12  C13 <0> d   1      17.519   3.669  10.436  0.00  0.00     0.001 A 
ATOM     13  C12 <0> d   1      18.119   4.724  11.096  0.00  0.00     0.000 A 
ATOM     14  C11 <0> d   1      19.171   4.491  11.961  0.00  0.00     0.001 A 
ATOM     15  C10 <0> d   1      19.623   3.200  12.167  0.00  0.00     0.010 A 
ENDBRANCH   1  10
BRANCH   1  16
ATOM     16  C15 <0> d   1      18.972   0.218  13.038  0.00  0.00    -0.021 A 
ATOM     17  C21 <0> d   1      17.715   0.603  13.465  0.00  0.00     0.011 A 
ATOM     18  C20 <0> d   1      17.214   0.123  14.661  0.00  0.00     0.024 A 
ATOM     19  C18 <0> d   1      17.977  -0.734  15.436  0.00  0.00     0.034 A 
ATOM     20  C17 <0> d   1      19.238  -1.113  15.010  0.00  0.00     0.024 A 
ATOM     21 Cl19 <0> d   1      17.352  -1.331  16.942  0.00  0.00    -0.084 Cl
ATOM     22  C16 <0> d   1      19.734  -0.637  13.812  0.00  0.00     0.011 A 
ENDBRANCH   1  16
TORSDOF 3
ENDMDL
MODEL 5
REMARK VINA RESULT:      -7.3      1.659      4.744
REMARK  3 active torsions:
REMARK  status: ('A' for Active; 'I' for Inactive)
REMARK    1  A    between atoms: N6_6  and  C7_7 
REMARK    2  A    between atoms: C7_7  and  C9_8 
REMARK    3  A    between atoms: C7_7  and  C15_14 
ROOT
ATOM      1  C7  <0> d   1      17.844  -0.200  12.915  0.00  0.00     0.289 C 
ENDROOT
BRANCH   1   2
ATOM      2  N6  <0> d   1      18.489  -0.131  14.232  0.00  0.00     0.105 N 
ATOM      3  C5  <0> d   1      18.265  -1.368  14.993  0.00  0.00     0.301 C 
ATOM      4  C4  <0> d   1      19.001  -1.281  16.332  0.00  0.00     0.264 C 
ATOM      5  N2  <0> d   1      18.506  -0.124  17.089  0.00  0.00    -0.072 N 
ATOM      6  C1  <0> d   1      19.201  -0.051  18.381  0.00  0.00     0.269 C 
ATOM      7  H3  <0> d   1      17.514  -0.223  17.245  0.00  0.00     0.279 HD
ATOM      8  C23 <0> d   1      18.761   1.106  16.327  0.00  0.00     0.264 C 
ATOM      9  C22 <0> d   1      18.021   1.039  14.988  0.00  0.00     0.301 C 
ENDBRANCH   1   2
BRANCH   1  10
ATOM     10  C9  <0> d   1      18.249   0.998  12.094  0.00  0.00    -0.021 A 
ATOM     11  C14 <0> d   1      17.393   1.497  11.130  0.00  0.00     0.010 A 
ATOM     12  C13 <0> d   1      17.763   2.599  10.381  0.00  0.00     0.001 A 
ATOM     13  C12 <0> d   1      18.992   3.195  10.589  0.00  0.00     0.000 A 
ATOM     14  C11 <0> d   1      19.850   2.693  11.549  0.00  0.00     0.001 A 
ATOM     15  C10 <0> d   1      19.478   1.594  12.302  0.00  0.00     0.010 A 
ENDBRANCH   1  10
BRANCH   1  16
ATOM     16  C15 <0> d   1      18.273  -1.459  12.209  0.00  0.00    -0.021 A 
ATOM     17  C21 <0> d   1      19.607  -1.821  12.190  0.00  0.00     0.011 A 
ATOM     18  C20 <0> d   1      20.001  -2.980  11.547  0.00  0.00     0.024 A 
ATOM     19  C18 <0> d   1      19.061  -3.772  10.912  0.00  0.00     0.034 A 
ATOM     20  C17 <0> d   1      17.726  -3.406  10.926  0.00  0.00     0.024 A 
ATOM     21 Cl19 <0> d   1      19.556  -5.223  10.098  0.00  0.00    -0.084 Cl
ATOM     22  C16 <0> d   1      17.333  -2.251  11.574  0.00  0.00     0.011 A 
ENDBRANCH   1  16
TORSDOF 3
ENDMDL
MODEL 6
REMARK VINA RESULT:      -7.3      2.797      3.787
REMARK  3 active torsions:
REMARK  status: ('A' for Active; 'I' for Inactive)
REMARK    1  A    between atoms: N6_6  and  C7_7 
REMARK    2  A    between atoms: C7_7  and  C9_8 
REMARK    3  A    between atoms: C7_7  and  C15_14 
ROOT
ATOM      1  C7  <0> d   1      18.888   1.862  13.045  0.00  0.00     0.289 C 
ENDROOT
BRANCH   1   2
ATOM      2  N6  <0> d   1      18.037   2.992  13.438  0.00  0.00     0.105 N 
ATOM      3  C5  <0> d   1      17.755   3.863  12.289  0.00  0.00     0.301 C 
ATOM      4  C4  <0> d   1      16.818   4.992  12.726  0.00  0.00     0.264 C 
ATOM      5  N2  <0> d   1      17.451   5.764  13.804  0.00  0.00    -0.072 N 
ATOM      6  C1  <0> d   1      16.559   6.858  14.211  0.00  0.00     0.269 C 
ATOM      7  H3  <0> d   1      18.325   6.147  13.476  0.00  0.00     0.279 HD
ATOM      8  C23 <0> d   1      17.702   4.885  14.954  0.00  0.00     0.264 C 
ATOM      9  C22 <0> d   1      18.647   3.755  14.535  0.00  0.00     0.301 C 
ENDBRANCH   1   2
BRANCH   1  10
ATOM     10  C9  <0> d   1      18.718   0.737  14.033  0.00  0.00    -0.021 A 
ATOM     11  C14 <0> d   1      19.618  -0.312  14.050  0.00  0.00     0.010 A 
ATOM     12  C13 <0> d   1      19.464  -1.342  14.960  0.00  0.00     0.001 A 
ATOM     13  C12 <0> d   1      18.404  -1.327  15.846  0.00  0.00     0.000 A 
ATOM     14  C11 <0> d   1      17.500  -0.282  15.827  0.00  0.00     0.001 A 
ATOM     15  C10 <0> d   1      17.657   0.751  14.920  0.00  0.00     0.010 A 
ENDBRANCH   1  10
BRANCH   1  16
ATOM     16  C15 <0> d   1      18.492   1.387  11.672  0.00  0.00    -0.021 A 
ATOM     17  C21 <0> d   1      17.340   0.643  11.503  0.00  0.00     0.011 A 
ATOM     18  C20 <0> d   1      16.973   0.211  10.242  0.00  0.00     0.024 A 
ATOM     19  C18 <0> d   1      17.766   0.515   9.149  0.00  0.00     0.034 A 
ATOM     20  C17 <0> d   1      18.923   1.255   9.320  0.00  0.00     0.024 A 
ATOM     21 Cl19 <0> d   1      17.310  -0.033   7.566  0.00  0.00    -0.084 Cl
ATOM     22  C16 <0> d   1      19.285   1.690  10.580  0.00  0.00     0.011 A 
ENDBRANCH   1  16
TORSDOF 3
ENDMDL
MODEL 7
REMARK VINA RESULT:      -7.2      2.517      5.783
REMARK  3 active torsions:
REMARK  status: ('A' for Active; 'I' for Inactive)
REMARK    1  A    between atoms: N6_6  and  C7_7 
REMARK    2  A    between atoms: C7_7  and  C9_8 
REMARK    3  A    between atoms: C7_7  and  C15_14 
ROOT
ATOM      1  C7  <0> d   1      19.730  -0.728  12.034  0.00  0.00     0.289 C 
ENDROOT
BRANCH   1   2
ATOM      2  N6  <0> d   1      19.208  -1.923  11.357  0.00  0.00     0.105 N 
ATOM      3  C5  <0> d   1      17.880  -2.281  11.873  0.00  0.00     0.301 C 
ATOM      4  C4  <0> d   1      17.346  -3.492  11.103  0.00  0.00     0.264 C 
ATOM      5  N2  <0> d   1      18.273  -4.620  11.261  0.00  0.00    -0.072 N 
ATOM      6  C1  <0> d   1      17.752  -5.787  10.537  0.00  0.00     0.269 C 
ATOM      7  H3  <0> d   1      18.365  -4.846  12.241  0.00  0.00     0.279 HD
ATOM      8  C23 <0> d   1      19.588  -4.255  10.718  0.00  0.00     0.264 C 
ATOM      9  C22 <0> d   1      20.140  -3.051  11.486  0.00  0.00     0.301 C 
ENDBRANCH   1   2
BRANCH   1  10
ATOM     10  C9  <0> d   1      19.429   0.492  11.202  0.00  0.00    -0.021 A 
ATOM     11  C14 <0> d   1      18.780   0.359   9.988  0.00  0.00     0.010 A 
ATOM     12  C13 <0> d   1      18.500   1.479   9.227  0.00  0.00     0.001 A 
ATOM     13  C12 <0> d   1      18.877   2.730   9.676  0.00  0.00     0.000 A 
ATOM     14  C11 <0> d   1      19.531   2.864  10.886  0.00  0.00     0.001 A 
ATOM     15  C10 <0> d   1      19.807   1.744  11.650  0.00  0.00     0.010 A 
ENDBRANCH   1  10
BRANCH   1  16
ATOM     16  C15 <0> d   1      19.076  -0.589  13.383  0.00  0.00    -0.021 A 
ATOM     17  C21 <0> d   1      17.981   0.241  13.538  0.00  0.00     0.011 A 
ATOM     18  C20 <0> d   1      17.377   0.366  14.776  0.00  0.00     0.024 A 
ATOM     19  C18 <0> d   1      17.876  -0.331  15.862  0.00  0.00     0.034 A 
ATOM     20  C17 <0> d   1      18.976  -1.157  15.707  0.00  0.00     0.024 A 
ATOM     21 Cl19 <0> d   1      17.123  -0.169  17.418  0.00  0.00    -0.084 Cl
ATOM     22  C16 <0> d   1      19.575  -1.285  14.469  0.00  0.00     0.011 A 
ENDBRANCH   1  16
TORSDOF 3
ENDMDL
MODEL 8
REMARK VINA RESULT:      -7.2      3.246      5.805
REMARK  3 active torsions:
REMARK  status: ('A' for Active; 'I' for Inactive)
REMARK    1  A    between atoms: N6_6  and  C7_7 
REMARK    2  A    between atoms: C7_7  and  C9_8 
REMARK    3  A    between atoms: C7_7  and  C15_14 
ROOT
ATOM      1  C7  <0> d   1      17.688   0.681  10.117  0.00  0.00     0.289 C 
ENDROOT
BRANCH   1   2
ATOM      2  N6  <0> d   1      18.334  -0.460  10.777  0.00  0.00     0.105 N 
ATOM      3  C5  <0> d   1      19.294  -1.114   9.877  0.00  0.00     0.301 C 
ATOM      4  C4  <0> d   1      19.988  -2.259  10.621  0.00  0.00     0.264 C 
ATOM      5  N2  <0> d   1      18.982  -3.226  11.079  0.00  0.00    -0.072 N 
ATOM      6  C1  <0> d   1      19.650  -4.333  11.776  0.00  0.00     0.269 C 
ATOM      7  H3  <0> d   1      18.475  -3.587  10.284  0.00  0.00     0.279 HD
ATOM      8  C23 <0> d   1      18.046  -2.564  11.996  0.00  0.00     0.264 C 
ATOM      9  C22 <0> d   1      17.336  -1.422  11.264  0.00  0.00     0.301 C 
ENDBRANCH   1   2
BRANCH   1  10
ATOM     10  C9  <0> d   1      18.258   1.966  10.662  0.00  0.00    -0.021 A 
ATOM     11  C14 <0> d   1      19.485   1.963  11.299  0.00  0.00     0.010 A 
ATOM     12  C13 <0> d   1      20.009   3.142  11.795  0.00  0.00     0.001 A 
ATOM     13  C12 <0> d   1      19.303   4.322  11.663  0.00  0.00     0.000 A 
ATOM     14  C11 <0> d   1      18.073   4.325  11.031  0.00  0.00     0.001 A 
ATOM     15  C10 <0> d   1      17.551   3.146  10.530  0.00  0.00     0.010 A 
ENDBRANCH   1  10
BRANCH   1  16
ATOM     16  C15 <0> d   1      17.939   0.612   8.633  0.00  0.00    -0.021 A 
ATOM     17  C21 <0> d   1      18.955   1.360   8.068  0.00  0.00     0.011 A 
ATOM     18  C20 <0> d   1      19.189   1.293   6.707  0.00  0.00     0.024 A 
ATOM     19  C18 <0> d   1      18.399   0.485   5.908  0.00  0.00     0.034 A 
ATOM     20  C17 <0> d   1      17.378  -0.259   6.474  0.00  0.00     0.024 A 
ATOM     21 Cl19 <0> d   1      18.688   0.406   4.198  0.00  0.00    -0.084 Cl
ATOM     22  C16 <0> d   1      17.149  -0.195   7.835  0.00  0.00     0.011 A 
ENDBRANCH   1  16
TORSDOF 3
ENDMDL
MODEL 9
REMARK VINA RESULT:      -7.1      3.028      4.349
REMARK  3 active torsions:
REMARK  status: ('A' for Active; 'I' for Inactive)
REMARK    1  A    between atoms: N6_6  and  C7_7 
REMARK    2  A    between atoms: C7_7  and  C9_8 
REMARK    3  A    between atoms: C7_7  and  C15_14 
ROOT
ATOM      1  C7  <0> d   1      19.225  -0.182   9.611  0.00  0.00     0.289 C 
ENDROOT
BRANCH   1   2
ATOM      2  N6  <0> d   1      18.503   0.995  10.112  0.00  0.00     0.105 N 
ATOM      3  C5  <0> d   1      19.052   2.232   9.540  0.00  0.00     0.301 C 
ATOM      4  C4  <0> d   1      18.237   3.427  10.040  0.00  0.00     0.264 C 
ATOM      5  N2  <0> d   1      18.291   3.479  11.506  0.00  0.00    -0.072 N 
ATOM      6  C1  <0> d   1      17.523   4.637  11.984  0.00  0.00     0.269 C 
ATOM      7  H3  <0> d   1      19.251   3.566  11.805  0.00  0.00     0.279 HD
ATOM      8  C23 <0> d   1      17.716   2.247  12.063  0.00  0.00     0.264 C 
ATOM      9  C22 <0> d   1      18.527   1.042  11.581  0.00  0.00     0.301 C 
ENDBRANCH   1   2
BRANCH   1  10
ATOM     10  C9  <0> d   1      18.946  -1.362  10.508  0.00  0.00    -0.021 A 
ATOM     11  C14 <0> d   1      19.987  -1.996  11.160  0.00  0.00     0.010 A 
ATOM     12  C13 <0> d   1      19.730  -3.075  11.985  0.00  0.00     0.001 A 
ATOM     13  C12 <0> d   1      18.434  -3.524  12.152  0.00  0.00     0.000 A 
ATOM     14  C11 <0> d   1      17.394  -2.894  11.496  0.00  0.00     0.001 A 
ATOM     15  C10 <0> d   1      17.650  -1.812  10.673  0.00  0.00     0.010 A 
ENDBRANCH   1  10
BRANCH   1  16
ATOM     16  C15 <0> d   1      18.765  -0.496   8.212  0.00  0.00    -0.021 A 
ATOM     17  C21 <0> d   1      17.674   0.164   7.678  0.00  0.00     0.011 A 
ATOM     18  C20 <0> d   1      17.254  -0.121   6.392  0.00  0.00     0.024 A 
ATOM     19  C18 <0> d   1      17.920  -1.074   5.642  0.00  0.00     0.034 A 
ATOM     20  C17 <0> d   1      19.008  -1.739   6.179  0.00  0.00     0.024 A 
ATOM     21 Cl19 <0> d   1      17.389  -1.437   4.029  0.00  0.00    -0.084 Cl
ATOM     22  C16 <0> d   1      19.430  -1.450   7.463  0.00  0.00     0.011 A 
ENDBRANCH   1  16
TORSDOF 3
ENDMDL
