MODEL 1
REMARK VINA RESULT:      -9.4      0.000      0.000
REMARK  7 active torsions:
REMARK  status: ('A' for Active; 'I' for Inactive)
REMARK    1  A    between atoms: C2_2  and  C3_3 
REMARK       I    between atoms: N7_7  and  C8_8 
REMARK       I    between atoms: C8_8  and  N10_10 
REMARK    2  A    between atoms: N10_10  and  C11_11 
REMARK    3  A    between atoms: C11_11  and  C12_12 
REMARK    4  A    between atoms: C12_12  and  C13_13 
REMARK    5  A    between atoms: C16_16  and  S17_17 
REMARK    6  A    between atoms: S17_17  and  N20_20 
REMARK       I    between atoms: C21_21  and  N23_23 
REMARK    7  A    between atoms: N23_23  and  C24_24 
ROOT
ATOM      1  C13 ZIN A   1      18.326   0.445   6.203  0.00  0.00    -0.057 A 
ATOM      2  C14 ZIN A   1      17.359  -0.224   6.930  0.00  0.00     0.009 A 
ATOM      3  C15 ZIN A   1      17.282  -0.054   8.300  0.00  0.00     0.026 A 
ATOM      4  C16 ZIN A   1      18.174   0.784   8.943  0.00  0.00     0.081 A 
ATOM      5  C31 ZIN A   1      19.142   1.451   8.218  0.00  0.00     0.026 A 
ATOM      6  C32 ZIN A   1      19.221   1.279   6.848  0.00  0.00     0.009 A 
ENDROOT
BRANCH   1   7
ATOM      7  C12 ZIN A   1      18.409   0.261   4.710  0.00  0.00     0.058 C 
BRANCH   7   8
ATOM      8  C11 ZIN A   1      19.330  -0.920   4.393  0.00  0.00     0.129 C 
BRANCH   8   9
ATOM      9  N10 ZIN A   1      18.565  -2.168   4.464  0.00  0.00    -0.342 N 
ATOM     10  C8  ZIN A   1      18.995  -3.178   5.246  0.00  0.00     0.325 C 
ATOM     11  N7  ZIN A   1      18.292  -4.326   5.312  0.00  0.00    -0.262 N 
ATOM     12  O9  ZIN A   1      20.017  -3.053   5.893  0.00  0.00    -0.247 OA
ATOM     13  C6  ZIN A   1      18.629  -5.508   6.114  0.00  0.00     0.171 A 
ATOM     14  C33 ZIN A   1      17.153  -4.602   4.649  0.00  0.00     0.258 A 
ATOM     15  C4  ZIN A   1      17.537  -6.516   5.843  0.00  0.00    -0.054 A 
ATOM     16  C3  ZIN A   1      16.691  -5.951   4.987  0.00  0.00     0.013 A 
ATOM     17  C5  ZIN A   1      17.427  -7.900   6.431  0.00  0.00     0.046 C 
ATOM     18  O34 ZIN A   1      16.587  -3.842   3.889  0.00  0.00    -0.267 OA
ATOM     19  H45 ZIN A   1      17.750  -2.267   3.948  0.00  0.00     0.164 HD
BRANCH  16  20
ATOM     20  C2  ZIN A   1      15.447  -6.603   4.439  0.00  0.00     0.040 C 
ATOM     21  C1  ZIN A   1      14.245  -6.211   5.300  0.00  0.00     0.010 C 
ENDBRANCH  16  20
ENDBRANCH   8   9
ENDBRANCH   7   8
ENDBRANCH   1   7
BRANCH   4  22
ATOM     22  S17 ZIN A   1      18.076   1.000  10.689  0.00  0.00     0.286 S 
ATOM     23  O18 ZIN A   1      19.412   1.136  11.153  0.00  0.00    -0.198 OA
ATOM     24  O19 ZIN A   1      17.071   1.978  10.916  0.00  0.00    -0.198 OA
BRANCH  22  25
ATOM     25  N20 ZIN A   1      17.502  -0.418  11.327  0.00  0.00    -0.115 NA
ATOM     26  C21 ZIN A   1      18.212  -1.504  11.237  0.00  0.00     0.284 C 
ATOM     27  O22 ZIN A   1      19.415  -1.477  10.623  0.00  0.00    -0.149 OA
ATOM     28  N23 ZIN A   1      17.737  -2.679  11.765  0.00  0.00    -0.347 N 
ATOM     29  H52 ZIN A   1      16.873  -2.699  12.206  0.00  0.00     0.163 HD
BRANCH  28  30
ATOM     30  C24 ZIN A   1      18.535  -3.903  11.665  0.00  0.00     0.085 C 
ATOM     31  C30 ZIN A   1      18.962  -4.117  10.211  0.00  0.00     0.025 C 
ATOM     32  C29 ZIN A   1      17.719  -4.245   9.328  0.00  0.00     0.006 C 
ATOM     33  C27 ZIN A   1      16.884  -5.439   9.794  0.00  0.00    -0.019 C 
ATOM     34  C26 ZIN A   1      16.457  -5.226  11.248  0.00  0.00     0.006 C 
ATOM     35  C28 ZIN A   1      15.640  -5.568   8.912  0.00  0.00     0.010 C 
ATOM     36  C25 ZIN A   1      17.700  -5.097  12.132  0.00  0.00     0.025 C 
ENDBRANCH  28  30
ENDBRANCH  22  25
ENDBRANCH   4  22
TORSDOF 7
ENDMDL
MODEL 2
REMARK VINA RESULT:      -9.3      3.323      7.981
REMARK  7 active torsions:
REMARK  status: ('A' for Active; 'I' for Inactive)
REMARK    1  A    between atoms: C2_2  and  C3_3 
REMARK       I    between atoms: N7_7  and  C8_8 
REMARK       I    between atoms: C8_8  and  N10_10 
REMARK    2  A    between atoms: N10_10  and  C11_11 
REMARK    3  A    between atoms: C11_11  and  C12_12 
REMARK    4  A    between atoms: C12_12  and  C13_13 
REMARK    5  A    between atoms: C16_16  and  S17_17 
REMARK    6  A    between atoms: S17_17  and  N20_20 
REMARK       I    between atoms: C21_21  and  N23_23 
REMARK    7  A    between atoms: N23_23  and  C24_24 
ROOT
ATOM      1  C13 ZIN A   1      19.111   1.612   8.671  0.00  0.00    -0.057 A 
ATOM      2  C14 ZIN A   1      18.975   2.115   7.391  0.00  0.00     0.009 A 
ATOM      3  C15 ZIN A   1      18.845   1.251   6.319  0.00  0.00     0.026 A 
ATOM      4  C16 ZIN A   1      18.851  -0.115   6.528  0.00  0.00     0.081 A 
ATOM      5  C31 ZIN A   1      18.987  -0.619   7.807  0.00  0.00     0.026 A 
ATOM      6  C32 ZIN A   1      19.121   0.244   8.879  0.00  0.00     0.009 A 
ENDROOT
BRANCH   1   7
ATOM      7  C12 ZIN A   1      19.252   2.552   9.840  0.00  0.00     0.058 C 
BRANCH   7   8
ATOM      8  C11 ZIN A   1      17.883   2.770  10.487  0.00  0.00     0.129 C 
BRANCH   8   9
ATOM      9  N10 ZIN A   1      17.857   2.126  11.803  0.00  0.00    -0.342 N 
ATOM     10  C8  ZIN A   1      18.331   2.780  12.882  0.00  0.00     0.325 C 
ATOM     11  N7  ZIN A   1      18.307   2.188  14.093  0.00  0.00    -0.262 N 
ATOM     12  O9  ZIN A   1      18.780   3.904  12.764  0.00  0.00    -0.247 OA
ATOM     13  C6  ZIN A   1      18.785   2.768  15.355  0.00  0.00     0.171 A 
ATOM     14  C33 ZIN A   1      17.848   0.952  14.368  0.00  0.00     0.258 A 
ATOM     15  C4  ZIN A   1      18.540   1.716  16.411  0.00  0.00    -0.054 A 
ATOM     16  C3  ZIN A   1      17.989   0.671  15.799  0.00  0.00     0.013 A 
ATOM     17  C5  ZIN A   1      18.860   1.827  17.879  0.00  0.00     0.046 C 
ATOM     18  O34 ZIN A   1      17.377   0.186  13.550  0.00  0.00    -0.267 OA
ATOM     19  H45 ZIN A   1      17.499   1.230  11.897  0.00  0.00     0.164 HD
BRANCH  16  20
ATOM     20  C2  ZIN A   1      17.577  -0.611  16.474  0.00  0.00     0.040 C 
ATOM     21  C1  ZIN A   1      18.708  -1.635  16.358  0.00  0.00     0.010 C 
ENDBRANCH  16  20
ENDBRANCH   8   9
ENDBRANCH   7   8
ENDBRANCH   1   7
BRANCH   4  22
ATOM     22  S17 ZIN A   1      18.683  -1.215   5.161  0.00  0.00     0.286 S 
ATOM     23  O18 ZIN A   1      17.732  -0.625   4.285  0.00  0.00    -0.198 OA
ATOM     24  O19 ZIN A   1      20.002  -1.559   4.759  0.00  0.00    -0.198 OA
BRANCH  22  25
ATOM     25  N20 ZIN A   1      17.990  -2.606   5.735  0.00  0.00    -0.115 NA
ATOM     26  C21 ZIN A   1      18.740  -3.558   6.209  0.00  0.00     0.284 C 
ATOM     27  O22 ZIN A   1      20.082  -3.412   6.233  0.00  0.00    -0.149 OA
ATOM     28  N23 ZIN A   1      18.166  -4.711   6.684  0.00  0.00    -0.347 N 
ATOM     29  H52 ZIN A   1      17.201  -4.816   6.667  0.00  0.00     0.163 HD
BRANCH  28  30
ATOM     30  C24 ZIN A   1      19.009  -5.783   7.219  0.00  0.00     0.085 C 
ATOM     31  C30 ZIN A   1      18.127  -6.948   7.672  0.00  0.00     0.025 C 
ATOM     32  C29 ZIN A   1      17.164  -6.467   8.759  0.00  0.00     0.006 C 
ATOM     33  C27 ZIN A   1      17.964  -5.940   9.952  0.00  0.00    -0.019 C 
ATOM     34  C26 ZIN A   1      18.847  -4.775   9.499  0.00  0.00     0.006 C 
ATOM     35  C28 ZIN A   1      17.002  -5.458  11.039  0.00  0.00     0.010 C 
ATOM     36  C25 ZIN A   1      19.809  -5.256   8.411  0.00  0.00     0.025 C 
ENDBRANCH  28  30
ENDBRANCH  22  25
ENDBRANCH   4  22
TORSDOF 7
ENDMDL
MODEL 3
REMARK VINA RESULT:      -9.3      3.165      7.733
REMARK  7 active torsions:
REMARK  status: ('A' for Active; 'I' for Inactive)
REMARK    1  A    between atoms: C2_2  and  C3_3 
REMARK       I    between atoms: N7_7  and  C8_8 
REMARK       I    between atoms: C8_8  and  N10_10 
REMARK    2  A    between atoms: N10_10  and  C11_11 
REMARK    3  A    between atoms: C11_11  and  C12_12 
REMARK    4  A    between atoms: C12_12  and  C13_13 
REMARK    5  A    between atoms: C16_16  and  S17_17 
REMARK    6  A    between atoms: S17_17  and  N20_20 
REMARK       I    between atoms: C21_21  and  N23_23 
REMARK    7  A    between atoms: N23_23  and  C24_24 
ROOT
ATOM      1  C13 ZIN A   1      18.404   1.661   8.729  0.00  0.00    -0.057 A 
ATOM      2  C14 ZIN A   1      17.721   0.461   8.791  0.00  0.00     0.009 A 
ATOM      3  C15 ZIN A   1      17.773  -0.419   7.725  0.00  0.00     0.026 A 
ATOM      4  C16 ZIN A   1      18.507  -0.098   6.599  0.00  0.00     0.081 A 
ATOM      5  C31 ZIN A   1      19.189   1.102   6.537  0.00  0.00     0.026 A 
ATOM      6  C32 ZIN A   1      19.136   1.984   7.600  0.00  0.00     0.009 A 
ENDROOT
BRANCH   1   7
ATOM      7  C12 ZIN A   1      18.349   2.620   9.890  0.00  0.00     0.058 C 
BRANCH   7   8
ATOM      8  C11 ZIN A   1      19.646   2.521  10.696  0.00  0.00     0.129 C 
BRANCH   8   9
ATOM      9  N10 ZIN A   1      19.338   2.118  12.070  0.00  0.00    -0.342 N 
ATOM     10  C8  ZIN A   1      19.602   0.861  12.479  0.00  0.00     0.325 C 
ATOM     11  N7  ZIN A   1      19.319   0.490  13.743  0.00  0.00    -0.262 N 
ATOM     12  O9  ZIN A   1      20.097   0.062  11.706  0.00  0.00    -0.247 OA
ATOM     13  C6  ZIN A   1      19.547  -0.836  14.333  0.00  0.00     0.171 A 
ATOM     14  C33 ZIN A   1      18.768   1.264  14.697  0.00  0.00     0.258 A 
ATOM     15  C4  ZIN A   1      19.066  -0.740  15.761  0.00  0.00    -0.054 A 
ATOM     16  C3  ZIN A   1      18.621   0.501  15.939  0.00  0.00     0.013 A 
ATOM     17  C5  ZIN A   1      19.084  -1.841  16.790  0.00  0.00     0.046 C 
ATOM     18  O34 ZIN A   1      18.447   2.427  14.551  0.00  0.00    -0.267 OA
ATOM     19  H45 ZIN A   1      18.944   2.755  12.686  0.00  0.00     0.164 HD
BRANCH  16  20
ATOM     20  C2  ZIN A   1      18.046   1.040  17.224  0.00  0.00     0.040 C 
ATOM     21  C1  ZIN A   1      19.158   1.698  18.044  0.00  0.00     0.010 C 
ENDBRANCH  16  20
ENDBRANCH   8   9
ENDBRANCH   7   8
ENDBRANCH   1   7
BRANCH   4  22
ATOM     22  S17 ZIN A   1      18.573  -1.221   5.242  0.00  0.00     0.286 S 
ATOM     23  O18 ZIN A   1      17.665  -0.726   4.268  0.00  0.00    -0.198 OA
ATOM     24  O19 ZIN A   1      19.950  -1.448   4.976  0.00  0.00    -0.198 OA
BRANCH  22  25
ATOM     25  N20 ZIN A   1      17.953  -2.663   5.770  0.00  0.00    -0.115 NA
ATOM     26  C21 ZIN A   1      18.735  -3.542   6.326  0.00  0.00     0.284 C 
ATOM     27  O22 ZIN A   1      20.051  -3.279   6.471  0.00  0.00    -0.149 OA
ATOM     28  N23 ZIN A   1      18.221  -4.738   6.763  0.00  0.00    -0.347 N 
ATOM     29  H52 ZIN A   1      17.275  -4.927   6.659  0.00  0.00     0.163 HD
BRANCH  28  30
ATOM     30  C24 ZIN A   1      19.100  -5.728   7.389  0.00  0.00     0.085 C 
ATOM     31  C30 ZIN A   1      18.273  -6.933   7.842  0.00  0.00     0.025 C 
ATOM     32  C29 ZIN A   1      17.218  -6.476   8.852  0.00  0.00     0.006 C 
ATOM     33  C27 ZIN A   1      17.911  -5.850  10.064  0.00  0.00    -0.019 C 
ATOM     34  C26 ZIN A   1      18.740  -4.646   9.611  0.00  0.00     0.006 C 
ATOM     35  C28 ZIN A   1      16.858  -5.392  11.075  0.00  0.00     0.010 C 
ATOM     36  C25 ZIN A   1      19.794  -5.102   8.600  0.00  0.00     0.025 C 
ENDBRANCH  28  30
ENDBRANCH  22  25
ENDBRANCH   4  22
TORSDOF 7
ENDMDL
MODEL 4
REMARK VINA RESULT:      -9.0      3.256      8.278
REMARK  7 active torsions:
REMARK  status: ('A' for Active; 'I' for Inactive)
REMARK    1  A    between atoms: C2_2  and  C3_3 
REMARK       I    between atoms: N7_7  and  C8_8 
REMARK       I    between atoms: C8_8  and  N10_10 
REMARK    2  A    between atoms: N10_10  and  C11_11 
REMARK    3  A    between atoms: C11_11  and  C12_12 
REMARK    4  A    between atoms: C12_12  and  C13_13 
REMARK    5  A    between atoms: C16_16  and  S17_17 
REMARK    6  A    between atoms: S17_17  and  N20_20 
REMARK       I    between atoms: C21_21  and  N23_23 
REMARK    7  A    between atoms: N23_23  and  C24_24 
ROOT
ATOM      1  C13 ZIN A   1      19.089   1.485   8.598  0.00  0.00    -0.057 A 
ATOM      2  C14 ZIN A   1      18.898   1.925   7.302  0.00  0.00     0.009 A 
ATOM      3  C15 ZIN A   1      18.750   1.009   6.276  0.00  0.00     0.026 A 
ATOM      4  C16 ZIN A   1      18.794  -0.345   6.546  0.00  0.00     0.081 A 
ATOM      5  C31 ZIN A   1      18.987  -0.786   7.842  0.00  0.00     0.026 A 
ATOM      6  C32 ZIN A   1      19.138   0.129   8.868  0.00  0.00     0.009 A 
ENDROOT
BRANCH   1   7
ATOM      7  C12 ZIN A   1      19.250   2.482   9.716  0.00  0.00     0.058 C 
BRANCH   7   8
ATOM      8  C11 ZIN A   1      17.946   2.567  10.514  0.00  0.00     0.129 C 
BRANCH   8   9
ATOM      9  N10 ZIN A   1      18.111   1.872  11.793  0.00  0.00    -0.342 N 
ATOM     10  C8  ZIN A   1      18.413   2.571  12.905  0.00  0.00     0.325 C 
ATOM     11  N7  ZIN A   1      18.564   1.932  14.083  0.00  0.00    -0.262 N 
ATOM     12  O9  ZIN A   1      18.548   3.778  12.847  0.00  0.00    -0.247 OA
ATOM     13  C6  ZIN A   1      18.891   2.551  15.373  0.00  0.00     0.171 A 
ATOM     14  C33 ZIN A   1      18.449   0.607  14.291  0.00  0.00     0.258 A 
ATOM     15  C4  ZIN A   1      18.947   1.419  16.372  0.00  0.00    -0.054 A 
ATOM     16  C3  ZIN A   1      18.680   0.299  15.705  0.00  0.00     0.013 A 
ATOM     17  C5  ZIN A   1      19.249   1.535  17.843  0.00  0.00     0.046 C 
ATOM     18  O34 ZIN A   1      18.185  -0.214  13.434  0.00  0.00    -0.267 OA
ATOM     19  H45 ZIN A   1      18.002   0.909  11.840  0.00  0.00     0.164 HD
BRANCH  16  20
ATOM     20  C2  ZIN A   1      18.631  -1.080  16.311  0.00  0.00     0.040 C 
ATOM     21  C1  ZIN A   1      17.204  -1.382  16.775  0.00  0.00     0.010 C 
ENDBRANCH  16  20
ENDBRANCH   8   9
ENDBRANCH   7   8
ENDBRANCH   1   7
BRANCH   4  22
ATOM     22  S17 ZIN A   1      18.605  -1.511   5.239  0.00  0.00     0.286 S 
ATOM     23  O18 ZIN A   1      17.474  -1.090   4.487  0.00  0.00    -0.198 OA
ATOM     24  O19 ZIN A   1      19.894  -1.688   4.669  0.00  0.00    -0.198 OA
BRANCH  22  25
ATOM     25  N20 ZIN A   1      18.194  -2.960   5.930  0.00  0.00    -0.115 NA
ATOM     26  C21 ZIN A   1      17.903  -3.979   5.176  0.00  0.00     0.284 C 
ATOM     27  O22 ZIN A   1      17.934  -3.857   3.831  0.00  0.00    -0.149 OA
ATOM     28  N23 ZIN A   1      17.563  -5.180   5.748  0.00  0.00    -0.347 N 
ATOM     29  H52 ZIN A   1      17.540  -5.268   6.714  0.00  0.00     0.163 HD
BRANCH  28  30
ATOM     30  C24 ZIN A   1      17.235  -6.329   4.901  0.00  0.00     0.085 C 
ATOM     31  C30 ZIN A   1      15.783  -6.218   4.429  0.00  0.00     0.025 C 
ATOM     32  C29 ZIN A   1      14.853  -6.198   5.644  0.00  0.00     0.006 C 
ATOM     33  C27 ZIN A   1      15.031  -7.490   6.443  0.00  0.00    -0.019 C 
ATOM     34  C26 ZIN A   1      16.483  -7.602   6.914  0.00  0.00     0.006 C 
ATOM     35  C28 ZIN A   1      14.101  -7.471   7.658  0.00  0.00     0.010 C 
ATOM     36  C25 ZIN A   1      17.414  -7.621   5.700  0.00  0.00     0.025 C 
ENDBRANCH  28  30
ENDBRANCH  22  25
ENDBRANCH   4  22
TORSDOF 7
ENDMDL
MODEL 5
REMARK VINA RESULT:      -8.9      3.060      6.767
REMARK  7 active torsions:
REMARK  status: ('A' for Active; 'I' for Inactive)
REMARK    1  A    between atoms: C2_2  and  C3_3 
REMARK       I    between atoms: N7_7  and  C8_8 
REMARK       I    between atoms: C8_8  and  N10_10 
REMARK    2  A    between atoms: N10_10  and  C11_11 
REMARK    3  A    between atoms: C11_11  and  C12_12 
REMARK    4  A    between atoms: C12_12  and  C13_13 
REMARK    5  A    between atoms: C16_16  and  S17_17 
REMARK    6  A    between atoms: S17_17  and  N20_20 
REMARK       I    between atoms: C21_21  and  N23_23 
REMARK    7  A    between atoms: N23_23  and  C24_24 
ROOT
ATOM      1  C13 ZIN A   1      18.803  -4.509  10.936  0.00  0.00    -0.057 A 
ATOM      2  C14 ZIN A   1      17.614  -3.888  11.267  0.00  0.00     0.009 A 
ATOM      3  C15 ZIN A   1      17.618  -2.789  12.106  0.00  0.00     0.026 A 
ATOM      4  C16 ZIN A   1      18.812  -2.312  12.615  0.00  0.00     0.081 A 
ATOM      5  C31 ZIN A   1      20.001  -2.934  12.285  0.00  0.00     0.026 A 
ATOM      6  C32 ZIN A   1      19.997  -4.034  11.448  0.00  0.00     0.009 A 
ENDROOT
BRANCH   1   7
ATOM      7  C12 ZIN A   1      18.799  -5.706  10.021  0.00  0.00     0.058 C 
BRANCH   7   8
ATOM      8  C11 ZIN A   1      19.672  -5.415   8.797  0.00  0.00     0.129 C 
BRANCH   8   9
ATOM      9  N10 ZIN A   1      19.443  -4.038   8.351  0.00  0.00    -0.342 N 
ATOM     10  C8  ZIN A   1      19.459  -3.745   7.036  0.00  0.00     0.325 C 
ATOM     11  N7  ZIN A   1      19.248  -2.478   6.625  0.00  0.00    -0.262 N 
ATOM     12  O9  ZIN A   1      19.662  -4.623   6.219  0.00  0.00    -0.247 OA
ATOM     13  C6  ZIN A   1      19.235  -2.005   5.235  0.00  0.00     0.171 A 
ATOM     14  C33 ZIN A   1      19.018  -1.412   7.414  0.00  0.00     0.258 A 
ATOM     15  C4  ZIN A   1      18.960  -0.522   5.307  0.00  0.00    -0.054 A 
ATOM     16  C3  ZIN A   1      18.835  -0.212   6.594  0.00  0.00     0.013 A 
ATOM     17  C5  ZIN A   1      18.848   0.427   4.141  0.00  0.00     0.046 C 
ATOM     18  O34 ZIN A   1      18.962  -1.442   8.628  0.00  0.00    -0.267 OA
ATOM     19  H45 ZIN A   1      19.280  -3.338   9.002  0.00  0.00     0.164 HD
BRANCH  16  20
ATOM     20  C2  ZIN A   1      18.554   1.169   7.130  0.00  0.00     0.040 C 
ATOM     21  C1  ZIN A   1      19.602   1.530   8.185  0.00  0.00     0.010 C 
ENDBRANCH  16  20
ENDBRANCH   8   9
ENDBRANCH   7   8
ENDBRANCH   1   7
BRANCH   4  22
ATOM     22  S17 ZIN A   1      18.816  -0.911  13.684  0.00  0.00     0.286 S 
ATOM     23  O18 ZIN A   1      18.052  -1.275  14.825  0.00  0.00    -0.198 OA
ATOM     24  O19 ZIN A   1      20.164  -0.469  13.760  0.00  0.00    -0.198 OA
BRANCH  22  25
ATOM     25  N20 ZIN A   1      17.971   0.291  12.918  0.00  0.00    -0.115 NA
ATOM     26  C21 ZIN A   1      18.608   1.283  12.369  0.00  0.00     0.284 C 
ATOM     27  O22 ZIN A   1      19.956   1.335  12.423  0.00  0.00    -0.149 OA
ATOM     28  N23 ZIN A   1      17.908   2.280  11.735  0.00  0.00    -0.347 N 
ATOM     29  H52 ZIN A   1      16.939   2.243  11.695  0.00  0.00     0.163 HD
BRANCH  28  30
ATOM     30  C24 ZIN A   1      18.623   3.398  11.115  0.00  0.00     0.085 C 
ATOM     31  C30 ZIN A   1      19.345   4.205  12.197  0.00  0.00     0.025 C 
ATOM     32  C29 ZIN A   1      18.321   4.745  13.198  0.00  0.00     0.006 C 
ATOM     33  C27 ZIN A   1      17.325   5.649  12.470  0.00  0.00    -0.019 C 
ATOM     34  C26 ZIN A   1      16.603   4.843  11.387  0.00  0.00     0.006 C 
ATOM     35  C28 ZIN A   1      16.300   6.190  13.469  0.00  0.00     0.010 C 
ATOM     36  C25 ZIN A   1      17.627   4.301  10.387  0.00  0.00     0.025 C 
ENDBRANCH  28  30
ENDBRANCH  22  25
ENDBRANCH   4  22
TORSDOF 7
ENDMDL
MODEL 6
REMARK VINA RESULT:      -8.9      3.212      8.079
REMARK  7 active torsions:
REMARK  status: ('A' for Active; 'I' for Inactive)
REMARK    1  A    between atoms: C2_2  and  C3_3 
REMARK       I    between atoms: N7_7  and  C8_8 
REMARK       I    between atoms: C8_8  and  N10_10 
REMARK    2  A    between atoms: N10_10  and  C11_11 
REMARK    3  A    between atoms: C11_11  and  C12_12 
REMARK    4  A    between atoms: C12_12  and  C13_13 
REMARK    5  A    between atoms: C16_16  and  S17_17 
REMARK    6  A    between atoms: S17_17  and  N20_20 
REMARK       I    between atoms: C21_21  and  N23_23 
REMARK    7  A    between atoms: N23_23  and  C24_24 
ROOT
ATOM      1  C13 ZIN A   1      18.494   1.798   8.988  0.00  0.00    -0.057 A 
ATOM      2  C14 ZIN A   1      17.821   0.601   9.146  0.00  0.00     0.009 A 
ATOM      3  C15 ZIN A   1      17.830  -0.336   8.129  0.00  0.00     0.026 A 
ATOM      4  C16 ZIN A   1      18.511  -0.076   6.955  0.00  0.00     0.081 A 
ATOM      5  C31 ZIN A   1      19.183   1.121   6.797  0.00  0.00     0.026 A 
ATOM      6  C32 ZIN A   1      19.172   2.060   7.812  0.00  0.00     0.009 A 
ENDROOT
BRANCH   1   7
ATOM      7  C12 ZIN A   1      18.486   2.819  10.096  0.00  0.00     0.058 C 
BRANCH   7   8
ATOM      8  C11 ZIN A   1      19.766   2.684  10.924  0.00  0.00     0.129 C 
BRANCH   8   9
ATOM      9  N10 ZIN A   1      19.428   2.224  12.274  0.00  0.00    -0.342 N 
ATOM     10  C8  ZIN A   1      19.651   0.941  12.624  0.00  0.00     0.325 C 
ATOM     11  N7  ZIN A   1      19.341   0.518  13.865  0.00  0.00    -0.262 N 
ATOM     12  O9  ZIN A   1      20.134   0.167  11.820  0.00  0.00    -0.247 OA
ATOM     13  C6  ZIN A   1      19.524  -0.840  14.392  0.00  0.00     0.171 A 
ATOM     14  C33 ZIN A   1      18.799   1.260  14.849  0.00  0.00     0.258 A 
ATOM     15  C4  ZIN A   1      19.026  -0.800  15.818  0.00  0.00    -0.054 A 
ATOM     16  C3  ZIN A   1      18.614   0.443  16.051  0.00  0.00     0.013 A 
ATOM     17  C5  ZIN A   1      19.000  -1.950  16.792  0.00  0.00     0.046 C 
ATOM     18  O34 ZIN A   1      18.513   2.438  14.756  0.00  0.00    -0.267 OA
ATOM     19  H45 ZIN A   1      19.044   2.842  12.915  0.00  0.00     0.164 HD
BRANCH  16  20
ATOM     20  C2  ZIN A   1      18.037   0.935  17.353  0.00  0.00     0.040 C 
ATOM     21  C1  ZIN A   1      19.155   1.526  18.215  0.00  0.00     0.010 C 
ENDBRANCH  16  20
ENDBRANCH   8   9
ENDBRANCH   7   8
ENDBRANCH   1   7
BRANCH   4  22
ATOM     22  S17 ZIN A   1      18.523  -1.271   5.660  0.00  0.00     0.286 S 
ATOM     23  O18 ZIN A   1      17.482  -0.902   4.765  0.00  0.00    -0.198 OA
ATOM     24  O19 ZIN A   1      19.878  -1.415   5.260  0.00  0.00    -0.198 OA
BRANCH  22  25
ATOM     25  N20 ZIN A   1      18.074  -2.719   6.327  0.00  0.00    -0.115 NA
ATOM     26  C21 ZIN A   1      17.939  -3.769   5.571  0.00  0.00     0.284 C 
ATOM     27  O22 ZIN A   1      18.163  -3.677   4.242  0.00  0.00    -0.149 OA
ATOM     28  N23 ZIN A   1      17.567  -4.970   6.123  0.00  0.00    -0.347 N 
ATOM     29  H52 ZIN A   1      17.405  -5.035   7.078  0.00  0.00     0.163 HD
BRANCH  28  30
ATOM     30  C24 ZIN A   1      17.414  -6.152   5.272  0.00  0.00     0.085 C 
ATOM     31  C30 ZIN A   1      16.027  -6.142   4.628  0.00  0.00     0.025 C 
ATOM     32  C29 ZIN A   1      14.957  -6.160   5.721  0.00  0.00     0.006 C 
ATOM     33  C27 ZIN A   1      15.115  -7.423   6.569  0.00  0.00    -0.019 C 
ATOM     34  C26 ZIN A   1      16.504  -7.434   7.213  0.00  0.00     0.006 C 
ATOM     35  C28 ZIN A   1      14.046  -7.442   7.663  0.00  0.00     0.010 C 
ATOM     36  C25 ZIN A   1      17.574  -7.415   6.120  0.00  0.00     0.025 C 
ENDBRANCH  28  30
ENDBRANCH  22  25
ENDBRANCH   4  22
TORSDOF 7
ENDMDL
MODEL 7
REMARK VINA RESULT:      -8.8      3.362      8.767
REMARK  7 active torsions:
REMARK  status: ('A' for Active; 'I' for Inactive)
REMARK    1  A    between atoms: C2_2  and  C3_3 
REMARK       I    between atoms: N7_7  and  C8_8 
REMARK       I    between atoms: C8_8  and  N10_10 
REMARK    2  A    between atoms: N10_10  and  C11_11 
REMARK    3  A    between atoms: C11_11  and  C12_12 
REMARK    4  A    between atoms: C12_12  and  C13_13 
REMARK    5  A    between atoms: C16_16  and  S17_17 
REMARK    6  A    between atoms: S17_17  and  N20_20 
REMARK       I    between atoms: C21_21  and  N23_23 
REMARK    7  A    between atoms: N23_23  and  C24_24 
ROOT
ATOM      1  C13 ZIN A   1      18.369   0.971   8.605  0.00  0.00    -0.057 A 
ATOM      2  C14 ZIN A   1      18.815   1.354   7.354  0.00  0.00     0.009 A 
ATOM      3  C15 ZIN A   1      19.058   0.398   6.384  0.00  0.00     0.026 A 
ATOM      4  C16 ZIN A   1      18.857  -0.940   6.667  0.00  0.00     0.081 A 
ATOM      5  C31 ZIN A   1      18.413  -1.323   7.918  0.00  0.00     0.026 A 
ATOM      6  C32 ZIN A   1      18.172  -0.368   8.889  0.00  0.00     0.009 A 
ENDROOT
BRANCH   1   7
ATOM      7  C12 ZIN A   1      18.103   2.013   9.661  0.00  0.00     0.058 C 
BRANCH   7   8
ATOM      8  C11 ZIN A   1      19.377   2.250  10.475  0.00  0.00     0.129 C 
BRANCH   8   9
ATOM      9  N10 ZIN A   1      19.240   1.621  11.791  0.00  0.00    -0.342 N 
ATOM     10  C8  ZIN A   1      19.222   2.382  12.903  0.00  0.00     0.325 C 
ATOM     11  N7  ZIN A   1      19.096   1.804  14.114  0.00  0.00    -0.262 N 
ATOM     12  O9  ZIN A   1      19.320   3.591  12.814  0.00  0.00    -0.247 OA
ATOM     13  C6  ZIN A   1      19.061   2.495  15.409  0.00  0.00     0.171 A 
ATOM     14  C33 ZIN A   1      18.986   0.485  14.360  0.00  0.00     0.258 A 
ATOM     15  C4  ZIN A   1      18.908   1.411  16.450  0.00  0.00    -0.054 A 
ATOM     16  C3  ZIN A   1      18.863   0.251  15.801  0.00  0.00     0.013 A 
ATOM     17  C5  ZIN A   1      18.823   1.607  17.942  0.00  0.00     0.046 C 
ATOM     18  O34 ZIN A   1      18.979  -0.385  13.510  0.00  0.00    -0.267 OA
ATOM     19  H45 ZIN A   1      19.161   0.657  11.861  0.00  0.00     0.164 HD
BRANCH  16  20
ATOM     20  C2  ZIN A   1      18.717  -1.101  16.450  0.00  0.00     0.040 C 
ATOM     21  C1  ZIN A   1      17.241  -1.363  16.756  0.00  0.00     0.010 C 
ENDBRANCH  16  20
ENDBRANCH   8   9
ENDBRANCH   7   8
ENDBRANCH   1   7
BRANCH   4  22
ATOM     22  S17 ZIN A   1      19.167  -2.157   5.432  0.00  0.00     0.286 S 
ATOM     23  O18 ZIN A   1      19.580  -1.453   4.269  0.00  0.00    -0.198 OA
ATOM     24  O19 ZIN A   1      19.954  -3.166   6.050  0.00  0.00    -0.198 OA
BRANCH  22  25
ATOM     25  N20 ZIN A   1      17.713  -2.859   5.060  0.00  0.00    -0.115 NA
ATOM     26  C21 ZIN A   1      17.612  -3.632   4.018  0.00  0.00     0.284 C 
ATOM     27  O22 ZIN A   1      18.691  -3.860   3.239  0.00  0.00    -0.149 OA
ATOM     28  N23 ZIN A   1      16.407  -4.214   3.710  0.00  0.00    -0.347 N 
ATOM     29  H52 ZIN A   1      15.631  -4.050   4.270  0.00  0.00     0.163 HD
BRANCH  28  30
ATOM     30  C24 ZIN A   1      16.292  -5.083   2.537  0.00  0.00     0.085 C 
ATOM     31  C30 ZIN A   1      14.856  -5.041   2.008  0.00  0.00     0.025 C 
ATOM     32  C29 ZIN A   1      13.897  -5.524   3.098  0.00  0.00     0.006 C 
ATOM     33  C27 ZIN A   1      14.253  -6.959   3.490  0.00  0.00    -0.019 C 
ATOM     34  C26 ZIN A   1      15.688  -7.003   4.018  0.00  0.00     0.006 C 
ATOM     35  C28 ZIN A   1      13.294  -7.444   4.579  0.00  0.00     0.010 C 
ATOM     36  C25 ZIN A   1      16.648  -6.518   2.929  0.00  0.00     0.025 C 
ENDBRANCH  28  30
ENDBRANCH  22  25
ENDBRANCH   4  22
TORSDOF 7
ENDMDL
MODEL 8
REMARK VINA RESULT:      -8.8      3.714      7.819
REMARK  7 active torsions:
REMARK  status: ('A' for Active; 'I' for Inactive)
REMARK    1  A    between atoms: C2_2  and  C3_3 
REMARK       I    between atoms: N7_7  and  C8_8 
REMARK       I    between atoms: C8_8  and  N10_10 
REMARK    2  A    between atoms: N10_10  and  C11_11 
REMARK    3  A    between atoms: C11_11  and  C12_12 
REMARK    4  A    between atoms: C12_12  and  C13_13 
REMARK    5  A    between atoms: C16_16  and  S17_17 
REMARK    6  A    between atoms: S17_17  and  N20_20 
REMARK       I    between atoms: C21_21  and  N23_23 
REMARK    7  A    between atoms: N23_23  and  C24_24 
ROOT
ATOM      1  C13 ZIN A   1      18.438   4.430  12.082  0.00  0.00    -0.057 A 
ATOM      2  C14 ZIN A   1      17.457   4.089  11.170  0.00  0.00     0.009 A 
ATOM      3  C15 ZIN A   1      17.685   3.076  10.256  0.00  0.00     0.026 A 
ATOM      4  C16 ZIN A   1      18.893   2.405  10.255  0.00  0.00     0.081 A 
ATOM      5  C31 ZIN A   1      19.874   2.746  11.167  0.00  0.00     0.026 A 
ATOM      6  C32 ZIN A   1      19.649   3.760  12.078  0.00  0.00     0.009 A 
ENDROOT
BRANCH   1   7
ATOM      7  C12 ZIN A   1      18.191   5.533  13.078  0.00  0.00     0.058 C 
BRANCH   7   8
ATOM      8  C11 ZIN A   1      17.530   4.951  14.330  0.00  0.00     0.129 C 
BRANCH   8   9
ATOM      9  N10 ZIN A   1      17.695   3.494  14.336  0.00  0.00    -0.342 N 
ATOM     10  C8  ZIN A   1      18.194   2.879  15.426  0.00  0.00     0.325 C 
ATOM     11  N7  ZIN A   1      18.346   1.539  15.433  0.00  0.00    -0.262 N 
ATOM     12  O9  ZIN A   1      18.507   3.531  16.404  0.00  0.00    -0.247 OA
ATOM     13  C6  ZIN A   1      18.873   0.729  16.538  0.00  0.00     0.171 A 
ATOM     14  C33 ZIN A   1      18.049   0.698  14.425  0.00  0.00     0.258 A 
ATOM     15  C4  ZIN A   1      18.842  -0.701  16.053  0.00  0.00    -0.054 A 
ATOM     16  C3  ZIN A   1      18.351  -0.681  14.817  0.00  0.00     0.013 A 
ATOM     17  C5  ZIN A   1      19.283  -1.920  16.822  0.00  0.00     0.046 C 
ATOM     18  O34 ZIN A   1      17.590   1.033  13.350  0.00  0.00    -0.267 OA
ATOM     19  H45 ZIN A   1      17.445   2.975  13.557  0.00  0.00     0.164 HD
BRANCH  16  20
ATOM     20  C2  ZIN A   1      18.144  -1.894  13.947  0.00  0.00     0.040 C 
ATOM     21  C1  ZIN A   1      19.279  -1.990  12.925  0.00  0.00     0.010 C 
ENDBRANCH  16  20
ENDBRANCH   8   9
ENDBRANCH   7   8
ENDBRANCH   1   7
BRANCH   4  22
ATOM     22  S17 ZIN A   1      19.182   1.114   9.092  0.00  0.00     0.286 S 
ATOM     23  O18 ZIN A   1      18.555   1.517   7.881  0.00  0.00    -0.198 OA
ATOM     24  O19 ZIN A   1      20.563   0.793   9.182  0.00  0.00    -0.198 OA
BRANCH  22  25
ATOM     25  N20 ZIN A   1      18.355  -0.219   9.624  0.00  0.00    -0.115 NA
ATOM     26  C21 ZIN A   1      18.517  -1.365   9.030  0.00  0.00     0.284 C 
ATOM     27  O22 ZIN A   1      19.358  -1.467   7.978  0.00  0.00    -0.149 OA
ATOM     28  N23 ZIN A   1      17.832  -2.470   9.471  0.00  0.00    -0.347 N 
ATOM     29  H52 ZIN A   1      17.228  -2.397  10.227  0.00  0.00     0.163 HD
BRANCH  28  30
ATOM     30  C24 ZIN A   1      18.014  -3.761   8.803  0.00  0.00     0.085 C 
ATOM     31  C30 ZIN A   1      16.770  -4.625   9.013  0.00  0.00     0.025 C 
ATOM     32  C29 ZIN A   1      16.554  -4.852  10.510  0.00  0.00     0.006 C 
ATOM     33  C27 ZIN A   1      17.773  -5.565  11.099  0.00  0.00    -0.019 C 
ATOM     34  C26 ZIN A   1      19.018  -4.701  10.888  0.00  0.00     0.006 C 
ATOM     35  C28 ZIN A   1      17.558  -5.792  12.596  0.00  0.00     0.010 C 
ATOM     36  C25 ZIN A   1      19.234  -4.472   9.390  0.00  0.00     0.025 C 
ENDBRANCH  28  30
ENDBRANCH  22  25
ENDBRANCH   4  22
TORSDOF 7
ENDMDL
MODEL 9
REMARK VINA RESULT:      -8.7      3.987      8.930
REMARK  7 active torsions:
REMARK  status: ('A' for Active; 'I' for Inactive)
REMARK    1  A    between atoms: C2_2  and  C3_3 
REMARK       I    between atoms: N7_7  and  C8_8 
REMARK       I    between atoms: C8_8  and  N10_10 
REMARK    2  A    between atoms: N10_10  and  C11_11 
REMARK    3  A    between atoms: C11_11  and  C12_12 
REMARK    4  A    between atoms: C12_12  and  C13_13 
REMARK    5  A    between atoms: C16_16  and  S17_17 
REMARK    6  A    between atoms: S17_17  and  N20_20 
REMARK       I    between atoms: C21_21  and  N23_23 
REMARK    7  A    between atoms: N23_23  and  C24_24 
ROOT
ATOM      1  C13 ZIN A   1      19.025   1.242   8.295  0.00  0.00    -0.057 A 
ATOM      2  C14 ZIN A   1      18.894   1.365   6.925  0.00  0.00     0.009 A 
ATOM      3  C15 ZIN A   1      18.956   0.242   6.121  0.00  0.00     0.026 A 
ATOM      4  C16 ZIN A   1      19.148  -1.004   6.687  0.00  0.00     0.081 A 
ATOM      5  C31 ZIN A   1      19.279  -1.128   8.057  0.00  0.00     0.026 A 
ATOM      6  C32 ZIN A   1      19.221  -0.005   8.862  0.00  0.00     0.009 A 
ENDROOT
BRANCH   1   7
ATOM      7  C12 ZIN A   1      18.957   2.465   9.172  0.00  0.00     0.058 C 
BRANCH   7   8
ATOM      8  C11 ZIN A   1      17.828   2.300  10.192  0.00  0.00     0.129 C 
BRANCH   8   9
ATOM      9  N10 ZIN A   1      18.208   2.948  11.450  0.00  0.00    -0.342 N 
ATOM     10  C8  ZIN A   1      18.209   2.241  12.598  0.00  0.00     0.325 C 
ATOM     11  N7  ZIN A   1      18.558   2.836  13.756  0.00  0.00    -0.262 N 
ATOM     12  O9  ZIN A   1      17.895   1.066  12.588  0.00  0.00    -0.247 OA
ATOM     13  C6  ZIN A   1      18.608   2.202  15.079  0.00  0.00     0.171 A 
ATOM     14  C33 ZIN A   1      18.920   4.123  13.913  0.00  0.00     0.258 A 
ATOM     15  C4  ZIN A   1      19.053   3.283  16.037  0.00  0.00    -0.054 A 
ATOM     16  C3  ZIN A   1      19.229   4.389  15.320  0.00  0.00     0.013 A 
ATOM     17  C5  ZIN A   1      19.257   3.135  17.523  0.00  0.00     0.046 C 
ATOM     18  O34 ZIN A   1      18.988   4.943  13.017  0.00  0.00    -0.267 OA
ATOM     19  H45 ZIN A   1      18.458   3.884  11.457  0.00  0.00     0.164 HD
BRANCH  16  20
ATOM     20  C2  ZIN A   1      19.674   5.718  15.873  0.00  0.00     0.040 C 
ATOM     21  C1  ZIN A   1      21.184   5.872  15.681  0.00  0.00     0.010 C 
ENDBRANCH  16  20
ENDBRANCH   8   9
ENDBRANCH   7   8
ENDBRANCH   1   7
BRANCH   4  22
ATOM     22  S17 ZIN A   1      19.226  -2.435   5.662  0.00  0.00     0.286 S 
ATOM     23  O18 ZIN A   1      19.314  -1.965   4.323  0.00  0.00    -0.198 OA
ATOM     24  O19 ZIN A   1      20.190  -3.297   6.248  0.00  0.00    -0.198 OA
BRANCH  22  25
ATOM     25  N20 ZIN A   1      17.766  -3.208   5.790  0.00  0.00    -0.115 NA
ATOM     26  C21 ZIN A   1      17.719  -4.508   5.809  0.00  0.00     0.284 C 
ATOM     27  O22 ZIN A   1      18.860  -5.227   5.722  0.00  0.00    -0.149 OA
ATOM     28  N23 ZIN A   1      16.510  -5.150   5.915  0.00  0.00    -0.347 N 
ATOM     29  H52 ZIN A   1      15.691  -4.634   5.977  0.00  0.00     0.163 HD
BRANCH  28  30
ATOM     30  C24 ZIN A   1      16.456  -6.613   5.936  0.00  0.00     0.085 C 
ATOM     31  C30 ZIN A   1      15.235  -7.091   5.148  0.00  0.00     0.025 C 
ATOM     32  C29 ZIN A   1      13.964  -6.525   5.785  0.00  0.00     0.006 C 
ATOM     33  C27 ZIN A   1      13.858  -7.011   7.231  0.00  0.00    -0.019 C 
ATOM     34  C26 ZIN A   1      15.080  -6.534   8.019  0.00  0.00     0.006 C 
ATOM     35  C28 ZIN A   1      12.588  -6.445   7.869  0.00  0.00     0.010 C 
ATOM     36  C25 ZIN A   1      16.352  -7.099   7.382  0.00  0.00     0.025 C 
ENDBRANCH  28  30
ENDBRANCH  22  25
ENDBRANCH   4  22
TORSDOF 7
ENDMDL
