MODEL 1
REMARK VINA RESULT:      -6.1      0.000      0.000
REMARK  2 active torsions:
REMARK  status: ('A' for Active; 'I' for Inactive)
REMARK    1  A    between atoms: N2_2  and  C5_5 
REMARK    2  A    between atoms: C5_5  and  C6_6 
ROOT
ATOM      1  C5  ZIN A   1      18.531   0.397  11.400  0.00  0.00     0.213 C 
ATOM      2  C13 ZIN A   1      19.244  -0.047  10.118  0.00  0.00     0.052 C 
ATOM      3  C14 ZIN A   1      19.456  -1.562  10.154  0.00  0.00     0.004 C 
ATOM      4  C15 ZIN A   1      18.103  -2.274  10.163  0.00  0.00     0.007 C 
ATOM      5  C16 ZIN A   1      17.346  -1.914  11.445  0.00  0.00     0.081 C 
ATOM      6  C17 ZIN A   1      17.259  -0.407  11.544  0.00  0.00     0.167 C 
ATOM      7  O18 ZIN A   1      16.199   0.141  11.734  0.00  0.00    -0.295 OA
ENDROOT
BRANCH   1   8
ATOM      8  N2  ZIN A   1      19.402   0.156  12.558  0.00  0.00    -0.059 N 
ATOM      9  C1  ZIN A   1      20.761   0.625  12.255  0.00  0.00     0.269 C 
ATOM     10  H3  ZIN A   1      19.424  -0.832  12.763  0.00  0.00     0.278 HD
ATOM     11  H4  ZIN A   1      19.044   0.657  13.357  0.00  0.00     0.278 HD
ENDBRANCH   1   8
BRANCH   1  12
ATOM     12  C6  ZIN A   1      18.197   1.864  11.315  0.00  0.00     0.007 A 
ATOM     13  C11 ZIN A   1      17.858   2.564  12.459  0.00  0.00     0.043 A 
ATOM     14  C10 ZIN A   1      17.557   3.913  12.381  0.00  0.00     0.024 A 
ATOM     15 Cl12 ZIN A   1      17.828   1.755  13.994  0.00  0.00    -0.084 Cl
ATOM     16  C9  ZIN A   1      17.582   4.556  11.158  0.00  0.00     0.002 A 
ATOM     17  C8  ZIN A   1      17.913   3.855  10.015  0.00  0.00     0.001 A 
ATOM     18  C7  ZIN A   1      18.221   2.508  10.092  0.00  0.00     0.012 A 
ENDBRANCH   1  12
TORSDOF 2
ENDMDL
MODEL 2
REMARK VINA RESULT:      -6.1      2.559      4.145
REMARK  2 active torsions:
REMARK  status: ('A' for Active; 'I' for Inactive)
REMARK    1  A    between atoms: N2_2  and  C5_5 
REMARK    2  A    between atoms: C5_5  and  C6_6 
ROOT
ATOM      1  C5  ZIN A   1      18.633   0.766  12.404  0.00  0.00     0.213 C 
ATOM      2  C13 ZIN A   1      19.037   2.243  12.430  0.00  0.00     0.052 C 
ATOM      3  C14 ZIN A   1      19.185   2.755  10.996  0.00  0.00     0.004 C 
ATOM      4  C15 ZIN A   1      17.834   2.691  10.282  0.00  0.00     0.007 C 
ATOM      5  C16 ZIN A   1      17.383   1.230  10.175  0.00  0.00     0.081 C 
ATOM      6  C17 ZIN A   1      17.385   0.624  11.561  0.00  0.00     0.167 C 
ATOM      7  O18 ZIN A   1      16.415   0.041  11.983  0.00  0.00    -0.295 OA
ENDROOT
BRANCH   1   8
ATOM      8  N2  ZIN A   1      19.718  -0.034  11.818  0.00  0.00    -0.059 N 
ATOM      9  C1  ZIN A   1      21.013   0.497  12.266  0.00  0.00     0.269 C 
ATOM     10  H3  ZIN A   1      19.665   0.014  10.812  0.00  0.00     0.278 HD
ATOM     11  H4  ZIN A   1      19.626  -0.993  12.116  0.00  0.00     0.278 HD
ENDBRANCH   1   8
BRANCH   1  12
ATOM     12  C6  ZIN A   1      18.353   0.288  13.806  0.00  0.00     0.007 A 
ATOM     13  C11 ZIN A   1      18.391  -1.064  14.097  0.00  0.00     0.043 A 
ATOM     14  C10 ZIN A   1      18.140  -1.501  15.386  0.00  0.00     0.024 A 
ATOM     15 Cl12 ZIN A   1      18.770  -2.210  12.850  0.00  0.00    -0.084 Cl
ATOM     16  C9  ZIN A   1      17.838  -0.587  16.378  0.00  0.00     0.002 A 
ATOM     17  C8  ZIN A   1      17.794   0.762  16.085  0.00  0.00     0.001 A 
ATOM     18  C7  ZIN A   1      18.051   1.201  14.799  0.00  0.00     0.012 A 
ENDBRANCH   1  12
TORSDOF 2
ENDMDL
MODEL 3
REMARK VINA RESULT:      -6.0      2.181      3.698
REMARK  2 active torsions:
REMARK  status: ('A' for Active; 'I' for Inactive)
REMARK    1  A    between atoms: N2_2  and  C5_5 
REMARK    2  A    between atoms: C5_5  and  C6_6 
ROOT
ATOM      1  C5  ZIN A   1      19.121   1.563  11.636  0.00  0.00     0.213 C 
ATOM      2  C13 ZIN A   1      19.276   0.284  12.465  0.00  0.00     0.052 C 
ATOM      3  C14 ZIN A   1      19.509   0.654  13.932  0.00  0.00     0.004 C 
ATOM      4  C15 ZIN A   1      18.280   1.379  14.483  0.00  0.00     0.007 C 
ATOM      5  C16 ZIN A   1      18.086   2.699  13.730  0.00  0.00     0.081 C 
ATOM      6  C17 ZIN A   1      18.022   2.401  12.249  0.00  0.00     0.167 C 
ATOM      7  O18 ZIN A   1      17.115   2.824  11.572  0.00  0.00    -0.295 OA
ENDROOT
BRANCH   1   8
ATOM      8  N2  ZIN A   1      20.382   2.316  11.649  0.00  0.00    -0.059 N 
ATOM      9  C1  ZIN A   1      20.094   3.751  11.776  0.00  0.00     0.269 C 
ATOM     10  H3  ZIN A   1      20.883   2.148  10.789  0.00  0.00     0.278 HD
ATOM     11  H4  ZIN A   1      20.945   2.016  12.430  0.00  0.00     0.278 HD
ENDBRANCH   1   8
BRANCH   1  12
ATOM     12  C6  ZIN A   1      18.757   1.210  10.217  0.00  0.00     0.007 A 
ATOM     13  C11 ZIN A   1      17.771   0.272   9.968  0.00  0.00     0.043 A 
ATOM     14  C10 ZIN A   1      17.432  -0.047   8.665  0.00  0.00     0.024 A 
ATOM     15 Cl12 ZIN A   1      16.946  -0.492  11.291  0.00  0.00    -0.084 Cl
ATOM     16  C9  ZIN A   1      18.090   0.562   7.613  0.00  0.00     0.002 A 
ATOM     17  C8  ZIN A   1      19.080   1.493   7.862  0.00  0.00     0.001 A 
ATOM     18  C7  ZIN A   1      19.414   1.818   9.164  0.00  0.00     0.012 A 
ENDBRANCH   1  12
TORSDOF 2
ENDMDL
MODEL 4
REMARK VINA RESULT:      -6.0      2.281      3.206
REMARK  2 active torsions:
REMARK  status: ('A' for Active; 'I' for Inactive)
REMARK    1  A    between atoms: N2_2  and  C5_5 
REMARK    2  A    between atoms: C5_5  and  C6_6 
ROOT
ATOM      1  C5  ZIN A   1      18.962  -1.476   9.916  0.00  0.00     0.213 C 
ATOM      2  C13 ZIN A   1      17.603  -2.149  10.135  0.00  0.00     0.052 C 
ATOM      3  C14 ZIN A   1      17.813  -3.640  10.411  0.00  0.00     0.004 C 
ATOM      4  C15 ZIN A   1      18.598  -3.820  11.711  0.00  0.00     0.007 C 
ATOM      5  C16 ZIN A   1      19.994  -3.210  11.553  0.00  0.00     0.081 C 
ATOM      6  C17 ZIN A   1      19.842  -1.771  11.110  0.00  0.00     0.167 C 
ATOM      7  O18 ZIN A   1      20.409  -0.880  11.696  0.00  0.00    -0.295 OA
ENDROOT
BRANCH   1   8
ATOM      8  N2  ZIN A   1      19.587  -2.010   8.698  0.00  0.00    -0.059 N 
ATOM      9  C1  ZIN A   1      18.566  -2.173   7.655  0.00  0.00     0.269 C 
ATOM     10  H3  ZIN A   1      20.008  -2.905   8.901  0.00  0.00     0.278 HD
ATOM     11  H4  ZIN A   1      20.297  -1.370   8.377  0.00  0.00     0.278 HD
ENDBRANCH   1   8
BRANCH   1  12
ATOM     12  C6  ZIN A   1      18.777   0.013   9.779  0.00  0.00     0.007 A 
ATOM     13  C11 ZIN A   1      17.882   0.678  10.598  0.00  0.00     0.043 A 
ATOM     14  C10 ZIN A   1      17.718   2.047  10.476  0.00  0.00     0.024 A 
ATOM     15 Cl12 ZIN A   1      16.978  -0.202  11.791  0.00  0.00    -0.084 Cl
ATOM     16  C9  ZIN A   1      18.438   2.746   9.526  0.00  0.00     0.002 A 
ATOM     17  C8  ZIN A   1      19.327   2.080   8.704  0.00  0.00     0.001 A 
ATOM     18  C7  ZIN A   1      19.497   0.714   8.830  0.00  0.00     0.012 A 
ENDBRANCH   1  12
TORSDOF 2
ENDMDL
MODEL 5
REMARK VINA RESULT:      -5.9      1.629      2.338
REMARK  2 active torsions:
REMARK  status: ('A' for Active; 'I' for Inactive)
REMARK    1  A    between atoms: N2_2  and  C5_5 
REMARK    2  A    between atoms: C5_5  and  C6_6 
ROOT
ATOM      1  C5  ZIN A   1      18.534   2.358  10.817  0.00  0.00     0.213 C 
ATOM      2  C13 ZIN A   1      18.711   2.867   9.383  0.00  0.00     0.052 C 
ATOM      3  C14 ZIN A   1      19.254   1.737   8.506  0.00  0.00     0.004 C 
ATOM      4  C15 ZIN A   1      18.234   0.600   8.437  0.00  0.00     0.007 C 
ATOM      5  C16 ZIN A   1      18.038   0.005   9.835  0.00  0.00     0.081 C 
ATOM      6  C17 ZIN A   1      17.663   1.122  10.784  0.00  0.00     0.167 C 
ATOM      7  O18 ZIN A   1      16.693   1.029  11.498  0.00  0.00    -0.295 OA
ENDROOT
BRANCH   1   8
ATOM      8  N2  ZIN A   1      19.846   2.023  11.388  0.00  0.00    -0.059 N 
ATOM      9  C1  ZIN A   1      20.664   3.240  11.483  0.00  0.00     0.269 C 
ATOM     10  H3  ZIN A   1      20.309   1.351  10.794  0.00  0.00     0.278 HD
ATOM     11  H4  ZIN A   1      19.721   1.629  12.308  0.00  0.00     0.278 HD
ENDBRANCH   1   8
BRANCH   1  12
ATOM     12  C6  ZIN A   1      17.873   3.420  11.658  0.00  0.00     0.007 A 
ATOM     13  C11 ZIN A   1      17.901   3.327  13.038  0.00  0.00     0.043 A 
ATOM     14  C10 ZIN A   1      17.300   4.306  13.810  0.00  0.00     0.024 A 
ATOM     15 Cl12 ZIN A   1      18.705   1.992  13.802  0.00  0.00    -0.084 Cl
ATOM     16  C9  ZIN A   1      16.660   5.369  13.200  0.00  0.00     0.002 A 
ATOM     17  C8  ZIN A   1      16.627   5.458  11.822  0.00  0.00     0.001 A 
ATOM     18  C7  ZIN A   1      17.233   4.483  11.050  0.00  0.00     0.012 A 
ENDBRANCH   1  12
TORSDOF 2
ENDMDL
MODEL 6
REMARK VINA RESULT:      -5.8      2.291      3.746
REMARK  2 active torsions:
REMARK  status: ('A' for Active; 'I' for Inactive)
REMARK    1  A    between atoms: N2_2  and  C5_5 
REMARK    2  A    between atoms: C5_5  and  C6_6 
ROOT
ATOM      1  C5  ZIN A   1      18.617  -0.204  12.022  0.00  0.00     0.213 C 
ATOM      2  C13 ZIN A   1      19.319  -1.397  12.680  0.00  0.00     0.052 C 
ATOM      3  C14 ZIN A   1      19.484  -1.127  14.177  0.00  0.00     0.004 C 
ATOM      4  C15 ZIN A   1      18.109  -1.018  14.838  0.00  0.00     0.007 C 
ATOM      5  C16 ZIN A   1      17.361   0.188  14.261  0.00  0.00     0.081 C 
ATOM      6  C17 ZIN A   1      17.320   0.053  12.755  0.00  0.00     0.167 C 
ATOM      7  O18 ZIN A   1      16.277   0.150  12.153  0.00  0.00    -0.295 OA
ENDROOT
BRANCH   1   8
ATOM      8  N2  ZIN A   1      19.477   0.984  12.108  0.00  0.00    -0.059 N 
ATOM      9  C1  ZIN A   1      20.878   0.590  11.903  0.00  0.00     0.269 C 
ATOM     10  H3  ZIN A   1      19.376   1.407  13.019  0.00  0.00     0.278 HD
ATOM     11  H4  ZIN A   1      19.207   1.646  11.397  0.00  0.00     0.278 HD
ENDBRANCH   1   8
BRANCH   1  12
ATOM     12  C6  ZIN A   1      18.328  -0.516  10.576  0.00  0.00     0.007 A 
ATOM     13  C11 ZIN A   1      18.026   0.507   9.694  0.00  0.00     0.043 A 
ATOM     14  C10 ZIN A   1      17.768   0.220   8.365  0.00  0.00     0.024 A 
ATOM     15 Cl12 ZIN A   1      17.990   2.150  10.251  0.00  0.00    -0.084 Cl
ATOM     16  C9  ZIN A   1      17.797  -1.089   7.924  0.00  0.00     0.002 A 
ATOM     17  C8  ZIN A   1      18.092  -2.110   8.806  0.00  0.00     0.001 A 
ATOM     18  C7  ZIN A   1      18.357  -1.825  10.133  0.00  0.00     0.012 A 
ENDBRANCH   1  12
TORSDOF 2
ENDMDL
MODEL 7
REMARK VINA RESULT:      -5.7      2.519      3.457
REMARK  2 active torsions:
REMARK  status: ('A' for Active; 'I' for Inactive)
REMARK    1  A    between atoms: N2_2  and  C5_5 
REMARK    2  A    between atoms: C5_5  and  C6_6 
ROOT
ATOM      1  C5  ZIN A   1      18.850  -0.551  10.263  0.00  0.00     0.213 C 
ATOM      2  C13 ZIN A   1      19.142  -2.055  10.268  0.00  0.00     0.052 C 
ATOM      3  C14 ZIN A   1      18.989  -2.597  11.691  0.00  0.00     0.004 C 
ATOM      4  C15 ZIN A   1      17.539  -2.438  12.152  0.00  0.00     0.007 C 
ATOM      5  C16 ZIN A   1      17.186  -0.949  12.217  0.00  0.00     0.081 C 
ATOM      6  C17 ZIN A   1      17.485  -0.325  10.872  0.00  0.00     0.167 C 
ATOM      7  O18 ZIN A   1      16.653   0.339  10.299  0.00  0.00    -0.295 OA
ENDROOT
BRANCH   1   8
ATOM      8  N2  ZIN A   1      19.868   0.153  11.056  0.00  0.00    -0.059 N 
ATOM      9  C1  ZIN A   1      21.170  -0.501  10.871  0.00  0.00     0.269 C 
ATOM     10  H3  ZIN A   1      19.612   0.124  12.032  0.00  0.00     0.278 HD
ATOM     11  H4  ZIN A   1      19.926   1.112  10.752  0.00  0.00     0.278 HD
ENDBRANCH   1   8
BRANCH   1  12
ATOM     12  C6  ZIN A   1      18.865  -0.033   8.848  0.00  0.00     0.007 A 
ATOM     13  C11 ZIN A   1      19.009   1.322   8.608  0.00  0.00     0.043 A 
ATOM     14  C10 ZIN A   1      19.030   1.797   7.308  0.00  0.00     0.024 A 
ATOM     15 Cl12 ZIN A   1      19.183   2.425   9.937  0.00  0.00    -0.084 Cl
ATOM     16  C9  ZIN A   1      18.892   0.917   6.251  0.00  0.00     0.002 A 
ATOM     17  C8  ZIN A   1      18.740  -0.435   6.491  0.00  0.00     0.001 A 
ATOM     18  C7  ZIN A   1      18.727  -0.911   7.789  0.00  0.00     0.012 A 
ENDBRANCH   1  12
TORSDOF 2
ENDMDL
MODEL 8
REMARK VINA RESULT:      -5.6      1.428      1.859
REMARK  2 active torsions:
REMARK  status: ('A' for Active; 'I' for Inactive)
REMARK    1  A    between atoms: N2_2  and  C5_5 
REMARK    2  A    between atoms: C5_5  and  C6_6 
ROOT
ATOM      1  C5  ZIN A   1      18.507   0.502  11.526  0.00  0.00     0.213 C 
ATOM      2  C13 ZIN A   1      19.595   0.003  10.570  0.00  0.00     0.052 C 
ATOM      3  C14 ZIN A   1      19.790  -1.503  10.764  0.00  0.00     0.004 C 
ATOM      4  C15 ZIN A   1      18.507  -2.244  10.384  0.00  0.00     0.007 C 
ATOM      5  C16 ZIN A   1      17.378  -1.829  11.332  0.00  0.00     0.081 C 
ATOM      6  C17 ZIN A   1      17.258  -0.321  11.305  0.00  0.00     0.167 C 
ATOM      7  O18 ZIN A   1      16.191   0.211  11.112  0.00  0.00    -0.295 OA
ENDROOT
BRANCH   1   8
ATOM      8  N2  ZIN A   1      18.961   0.348  12.915  0.00  0.00    -0.059 N 
ATOM      9  C1  ZIN A   1      20.402   0.625  12.993  0.00  0.00     0.269 C 
ATOM     10  H3  ZIN A   1      18.782  -0.596  13.224  0.00  0.00     0.278 HD
ATOM     11  H4  ZIN A   1      18.462   0.996  13.505  0.00  0.00     0.278 HD
ENDBRANCH   1   8
BRANCH   1  12
ATOM     12  C6  ZIN A   1      18.212   1.954  11.249  0.00  0.00     0.007 A 
ATOM     13  C11 ZIN A   1      18.408   2.470   9.980  0.00  0.00     0.043 A 
ATOM     14  C10 ZIN A   1      18.130   3.801   9.724  0.00  0.00     0.024 A 
ATOM     15 Cl12 ZIN A   1      18.986   1.444   8.705  0.00  0.00    -0.084 Cl
ATOM     16  C9  ZIN A   1      17.670   4.618  10.740  0.00  0.00     0.002 A 
ATOM     17  C8  ZIN A   1      17.481   4.103  12.009  0.00  0.00     0.001 A 
ATOM     18  C7  ZIN A   1      17.752   2.772  12.264  0.00  0.00     0.012 A 
ENDBRANCH   1  12
TORSDOF 2
ENDMDL
MODEL 9
REMARK VINA RESULT:      -5.5      2.260      3.703
REMARK  2 active torsions:
REMARK  status: ('A' for Active; 'I' for Inactive)
REMARK    1  A    between atoms: N2_2  and  C5_5 
REMARK    2  A    between atoms: C5_5  and  C6_6 
ROOT
ATOM      1  C5  ZIN A   1      18.195   0.273  11.644  0.00  0.00     0.213 C 
ATOM      2  C13 ZIN A   1      17.803   1.518  12.445  0.00  0.00     0.052 C 
ATOM      3  C14 ZIN A   1      17.752   1.169  13.934  0.00  0.00     0.004 C 
ATOM      4  C15 ZIN A   1      19.145   0.764  14.419  0.00  0.00     0.007 C 
ATOM      5  C16 ZIN A   1      19.588  -0.509  13.692  0.00  0.00     0.081 C 
ATOM      6  C17 ZIN A   1      19.492  -0.269  12.201  0.00  0.00     0.167 C 
ATOM      7  O18 ZIN A   1      20.428  -0.505  11.475  0.00  0.00    -0.295 OA
ENDROOT
BRANCH   1   8
ATOM      8  N2  ZIN A   1      17.142  -0.745  11.766  0.00  0.00    -0.059 N 
ATOM      9  C1  ZIN A   1      17.752  -2.081  11.785  0.00  0.00     0.269 C 
ATOM     10  H3  ZIN A   1      16.513  -0.673  10.979  0.00  0.00     0.278 HD
ATOM     11  H4  ZIN A   1      16.629  -0.597  12.621  0.00  0.00     0.278 HD
ENDBRANCH   1   8
BRANCH   1  12
ATOM     12  C6  ZIN A   1      18.380   0.637  10.193  0.00  0.00     0.007 A 
ATOM     13  C11 ZIN A   1      19.076   1.783   9.851  0.00  0.00     0.043 A 
ATOM     14  C10 ZIN A   1      19.252   2.114   8.519  0.00  0.00     0.024 A 
ATOM     15 Cl12 ZIN A   1      19.743   2.797  11.093  0.00  0.00    -0.084 Cl
ATOM     16  C9  ZIN A   1      18.720   1.306   7.532  0.00  0.00     0.002 A 
ATOM     17  C8  ZIN A   1      18.020   0.165   7.874  0.00  0.00     0.001 A 
ATOM     18  C7  ZIN A   1      17.850  -0.170   9.205  0.00  0.00     0.012 A 
ENDBRANCH   1  12
TORSDOF 2
ENDMDL
