MODEL 1
REMARK VINA RESULT:      -7.9      0.000      0.000
REMARK  12 active torsions:
REMARK  status: ('A' for Active; 'I' for Inactive)
REMARK    1  A    between atoms: C2_2  and  C3_3 
REMARK    2  A    between atoms: C25_25  and  C26_26 
REMARK    3  A    between atoms: C26_26  and  O28_28 
REMARK    4  A    between atoms: C30_30  and  C32_31 
REMARK    5  A    between atoms: C32_31  and  O34_33 
REMARK    6  A    between atoms: C40_39  and  C41_40 
REMARK    7  A    between atoms: C41_40  and  C42_41 
REMARK    8  A    between atoms: C42_41  and  C43_42 
REMARK    9  A    between atoms: C43_42  and  O45_44 
REMARK   10  A    between atoms: C47_46  and  C48_47 
REMARK   11  A    between atoms: C48_47  and  C49_48 
REMARK   12  A    between atoms: C49_48  and  C50_49 
ROOT
ATOM      1  C3  ZIN A   1      18.810  -1.103  16.495  0.00  0.00    -0.002 A 
ATOM      2  C4  ZIN A   1      18.591  -0.896  15.106  0.00  0.00     0.045 A 
ATOM      3  C5  ZIN A   1      18.559  -1.909  14.161  0.00  0.00     0.060 C 
ATOM      4  C6  ZIN A   1      18.375  -1.656  12.804  0.00  0.00     0.041 A 
ATOM      5  N7  ZIN A   1      18.250  -0.432  12.189  0.00  0.00    -0.355 N 
ATOM      6  C8  ZIN A   1      18.143  -0.641  10.829  0.00  0.00     0.041 A 
ATOM      7  C9  ZIN A   1      18.062   0.317   9.831  0.00  0.00     0.062 C 
ATOM      8  C10 ZIN A   1      18.068   1.691  10.099  0.00  0.00     0.066 A 
ATOM      9  N11 ZIN A   1      17.976   2.296  11.286  0.00  0.00    -0.248 NA
ATOM     10  C12 ZIN A   1      17.882   3.615  11.123  0.00  0.00     0.066 A 
ATOM     11  C13 ZIN A   1      17.644   4.599  12.092  0.00  0.00     0.060 C 
ATOM     12  C14 ZIN A   1      17.656   4.379  13.451  0.00  0.00     0.051 C 
ATOM     13  N15 ZIN A   1      17.934   3.265  14.113  0.00  0.00    -0.252 NA
ATOM     14  C16 ZIN A   1      18.004   3.412  15.435  0.00  0.00     0.067 C 
ATOM     15  C17 ZIN A   1      18.251   2.435  16.404  0.00  0.00     0.062 C 
ATOM     16  C18 ZIN A   1      18.438   1.090  16.129  0.00  0.00     0.041 A 
ATOM     17  C19 ZIN A   1      18.703   0.126  17.120  0.00  0.00    -0.023 A 
ATOM     18  C20 ZIN A   1      18.847   0.388  18.596  0.00  0.00     0.051 C 
ATOM     19  N21 ZIN A   1      18.400   0.452  14.908  0.00  0.00    -0.355 N 
ATOM     20  C22 ZIN A   1      17.781   4.813  15.770  0.00  0.00    -0.014 C 
ATOM     21  C23 ZIN A   1      17.896   5.530  16.903  0.00  0.00     0.011 C 
ATOM     22  C24 ZIN A   1      17.755   6.936  16.789  0.00  0.00     0.015 C 
ATOM     23  C25 ZIN A   1      17.822   7.548  15.577  0.00  0.00     0.032 C 
ATOM     24  C30 ZIN A   1      18.059   6.753  14.308  0.00  0.00     0.143 C 
ATOM     25  C36 ZIN A   1      17.305   5.438  14.467  0.00  0.00     0.047 C 
ATOM     26  C37 ZIN A   1      15.792   5.679  14.492  0.00  0.00     0.029 C 
ATOM     27  C38 ZIN A   1      18.061   3.916   9.695  0.00  0.00    -0.025 A 
ATOM     28  C39 ZIN A   1      18.109   5.282   9.060  0.00  0.00     0.051 C 
ATOM     29  C40 ZIN A   1      18.174   2.726   9.063  0.00  0.00    -0.021 A 
ATOM     30  C47 ZIN A   1      18.141  -2.031  10.608  0.00  0.00    -0.023 A 
ATOM     31  C53 ZIN A   1      18.291  -2.649  11.811  0.00  0.00    -0.027 A 
ATOM     32  C54 ZIN A   1      18.355  -4.137  12.040  0.00  0.00     0.051 C 
ATOM     33  H59 ZIN A   1      18.238   0.430  12.635  0.00  0.00     0.166 HD
ATOM     34  H66 ZIN A   1      18.261   0.884  14.050  0.00  0.00     0.166 HD
ENDROOT
BRANCH  29  35
ATOM     35  C41 ZIN A   1      18.370   2.505   7.585  0.00  0.00     0.051 C 
BRANCH  35  36
ATOM     36  C42 ZIN A   1      19.269   1.286   7.367  0.00  0.00     0.116 C 
BRANCH  36  37
ATOM     37  C43 ZIN A   1      18.738   0.472   6.215  0.00  0.00     0.258 C 
ATOM     38  O44 ZIN A   1      17.570   0.540   5.915  0.00  0.00    -0.265 OA
BRANCH  37  39
ATOM     39  O45 ZIN A   1      19.565  -0.329   5.522  0.00  0.00    -0.326 OA
ATOM     40  C46 ZIN A   1      18.969  -1.154   4.487  0.00  0.00     0.213 C 
ENDBRANCH  37  39
ENDBRANCH  36  37
ENDBRANCH  35  36
ENDBRANCH  29  35
BRANCH  30  41
ATOM     41  C48 ZIN A   1      17.999  -2.714   9.272  0.00  0.00     0.052 C 
BRANCH  41  42
ATOM     42  C49 ZIN A   1      19.320  -2.617   8.505  0.00  0.00     0.118 C 
BRANCH  42  43
ATOM     43  C50 ZIN A   1      19.251  -3.483   7.273  0.00  0.00     0.172 C 
ATOM     44  O51 ZIN A   1      20.236  -3.618   6.569  0.00  0.00    -0.648 OA
ATOM     45  O52 ZIN A   1      18.210  -4.046   6.982  0.00  0.00    -0.648 OA
ENDBRANCH  42  43
ENDBRANCH  41  42
ENDBRANCH  30  41
BRANCH  24  46
ATOM     46  C32 ZIN A   1      19.531   6.485  14.133  0.00  0.00     0.268 C 
ATOM     47  O33 ZIN A   1      19.931   5.933  13.136  0.00  0.00    -0.264 OA
BRANCH  46  48
ATOM     48  O34 ZIN A   1      20.400   6.862  15.086  0.00  0.00    -0.326 OA
ATOM     49  C35 ZIN A   1      21.344   5.862  15.550  0.00  0.00     0.213 C 
ENDBRANCH  46  48
ENDBRANCH  24  46
BRANCH  23  50
ATOM     50  C26 ZIN A   1      17.670   8.953  15.499  0.00  0.00     0.289 C 
ATOM     51  O27 ZIN A   1      18.415   9.606  14.792  0.00  0.00    -0.260 OA
BRANCH  50  52
ATOM     52  O28 ZIN A   1      16.701   9.568  16.209  0.00  0.00    -0.323 OA
ATOM     53  C29 ZIN A   1      15.399   9.614  15.623  0.00  0.00     0.213 C 
ENDBRANCH  50  52
ENDBRANCH  23  50
BRANCH   1  54
ATOM     54  C2  ZIN A   1      19.093  -2.393  17.150  0.00  0.00     0.004 C 
ATOM     55  C1  ZIN A   1      20.199  -2.544  17.870  0.00  0.00     0.012 C 
ENDBRANCH   1  54
TORSDOF 12
ENDMDL
