MODEL 1
REMARK VINA RESULT:      -4.6      0.000      0.000
REMARK  4 active torsions:
REMARK  status: ('A' for Active; 'I' for Inactive)
REMARK    1  A    between atoms: N1_1  and  C5_5 
REMARK    2  A    between atoms: C5_5  and  C7_6 
REMARK    3  A    between atoms: C5_5  and  C13_12 
REMARK    4  A    between atoms: C7_6  and  C8_7 
ROOT
ATOM      1  C5  <0> d   1      18.570   3.333  10.213  0.00  0.00     0.289 C 
ENDROOT
BRANCH   1   2
ATOM      2  N1  <0> d   1      19.552   3.430  11.300  0.00  0.00    -0.065 N 
ATOM      3  H2  <0> d   1      19.918   4.369  11.341  0.00  0.00     0.275 HD
ATOM      4  H3  <0> d   1      20.307   2.782  11.131  0.00  0.00     0.275 HD
ATOM      5  H4  <0> d   1      19.106   3.205  12.177  0.00  0.00     0.275 HD
ENDBRANCH   1   2
BRANCH   1   6
ATOM      6  C7  <0> d   1      17.969   1.927  10.191  0.00  0.00     0.104 C 
BRANCH   6   7
ATOM      7  C8  <0> d   1      19.078   0.906  10.212  0.00  0.00     0.053 A 
ATOM      8  N12 <0> d   1      19.611   0.343  11.306  0.00  0.00    -0.247 NA
ATOM      9  C11 <0> d   1      20.545  -0.494  10.949  0.00  0.00     0.207 A 
ATOM     10  N10 <0> d   1      20.642  -0.485   9.601  0.00  0.00    -0.359 N 
ATOM     11  C9  <0> d   1      19.711   0.403   9.134  0.00  0.00     0.116 A 
ATOM     12  H19 <0> d   1      21.257  -1.010   9.065  0.00  0.00     0.166 HD
ENDBRANCH   6   7
ENDBRANCH   1   6
BRANCH   1  13
ATOM     13  C13 <0> d   1      17.475   4.345  10.434  0.00  0.00     0.204 C 
ATOM     14  O14 <0> d   1      17.441   5.362   9.765  0.00  0.00    -0.646 OA
ATOM     15  O15 <0> d   1      16.623   4.144  11.283  0.00  0.00    -0.646 OA
ENDBRANCH   1  13
TORSDOF 4
ENDMDL
MODEL 2
REMARK VINA RESULT:      -4.5      4.590      5.763
REMARK  4 active torsions:
REMARK  status: ('A' for Active; 'I' for Inactive)
REMARK    1  A    between atoms: N1_1  and  C5_5 
REMARK    2  A    between atoms: C5_5  and  C7_6 
REMARK    3  A    between atoms: C5_5  and  C13_12 
REMARK    4  A    between atoms: C7_6  and  C8_7 
ROOT
ATOM      1  C5  <0> d   1      18.805  -1.246   6.672  0.00  0.00     0.289 C 
ENDROOT
BRANCH   1   2
ATOM      2  N1  <0> d   1      19.552  -1.683   7.858  0.00  0.00    -0.065 N 
ATOM      3  H2  <0> d   1      19.108  -1.321   8.689  0.00  0.00     0.275 HD
ATOM      4  H3  <0> d   1      20.499  -1.338   7.806  0.00  0.00     0.275 HD
ATOM      5  H4  <0> d   1      19.564  -2.692   7.897  0.00  0.00     0.275 HD
ENDBRANCH   1   2
BRANCH   1   6
ATOM      6  C7  <0> d   1      18.838   0.280   6.582  0.00  0.00     0.104 C 
BRANCH   6   7
ATOM      7  C8  <0> d   1      18.610   0.870   7.950  0.00  0.00     0.053 A 
ATOM      8  N12 <0> d   1      17.706   0.451   8.848  0.00  0.00    -0.247 NA
ATOM      9  C11 <0> d   1      17.789   1.190   9.920  0.00  0.00     0.207 A 
ATOM     10  N10 <0> d   1      18.755   2.117   9.733  0.00  0.00    -0.359 N 
ATOM     11  C9  <0> d   1      19.275   1.913   8.483  0.00  0.00     0.116 A 
ATOM     12  H19 <0> d   1      19.027   2.799  10.366  0.00  0.00     0.166 HD
ENDBRANCH   6   7
ENDBRANCH   1   6
BRANCH   1  13
ATOM     13  C13 <0> d   1      19.435  -1.837   5.437  0.00  0.00     0.204 C 
ATOM     14  O14 <0> d   1      19.795  -1.108   4.528  0.00  0.00    -0.646 OA
ATOM     15  O15 <0> d   1      19.584  -3.044   5.346  0.00  0.00    -0.646 OA
ENDBRANCH   1  13
TORSDOF 4
ENDMDL
MODEL 3
REMARK VINA RESULT:      -4.4      4.478      5.590
REMARK  4 active torsions:
REMARK  status: ('A' for Active; 'I' for Inactive)
REMARK    1  A    between atoms: N1_1  and  C5_5 
REMARK    2  A    between atoms: C5_5  and  C7_6 
REMARK    3  A    between atoms: C5_5  and  C13_12 
REMARK    4  A    between atoms: C7_6  and  C8_7 
ROOT
ATOM      1  C5  <0> d   1      17.829  -0.879   5.633  0.00  0.00     0.289 C 
ENDROOT
BRANCH   1   2
ATOM      2  N1  <0> d   1      17.872  -2.334   5.821  0.00  0.00    -0.065 N 
ATOM      3  H2  <0> d   1      18.338  -2.762   5.035  0.00  0.00     0.275 HD
ATOM      4  H3  <0> d   1      16.931  -2.693   5.889  0.00  0.00     0.275 HD
ATOM      5  H4  <0> d   1      18.376  -2.549   6.669  0.00  0.00     0.275 HD
ENDBRANCH   1   2
BRANCH   1   6
ATOM      6  C7  <0> d   1      17.578  -0.197   6.978  0.00  0.00     0.104 C 
BRANCH   6   7
ATOM      7  C8  <0> d   1      18.314  -0.941   8.063  0.00  0.00     0.053 A 
ATOM      8  N12 <0> d   1      17.875  -2.032   8.707  0.00  0.00    -0.247 NA
ATOM      9  C11 <0> d   1      18.771  -2.407   9.579  0.00  0.00     0.207 A 
ATOM     10  N10 <0> d   1      19.815  -1.552   9.521  0.00  0.00    -0.359 N 
ATOM     11  C9  <0> d   1      19.525  -0.622   8.559  0.00  0.00     0.116 A 
ATOM     12  H19 <0> d   1      20.620  -1.590  10.061  0.00  0.00     0.166 HD
ENDBRANCH   6   7
ENDBRANCH   1   6
BRANCH   1  13
ATOM     13  C13 <0> d   1      19.144  -0.407   5.067  0.00  0.00     0.204 C 
ATOM     14  O14 <0> d   1      19.861  -1.183   4.461  0.00  0.00    -0.646 OA
ATOM     15  O15 <0> d   1      19.491   0.753   5.218  0.00  0.00    -0.646 OA
ENDBRANCH   1  13
TORSDOF 4
ENDMDL
MODEL 4
REMARK VINA RESULT:      -4.4      4.455      5.372
REMARK  4 active torsions:
REMARK  status: ('A' for Active; 'I' for Inactive)
REMARK    1  A    between atoms: N1_1  and  C5_5 
REMARK    2  A    between atoms: C5_5  and  C7_6 
REMARK    3  A    between atoms: C5_5  and  C13_12 
REMARK    4  A    between atoms: C7_6  and  C8_7 
ROOT
ATOM      1  C5  <0> d   1      18.020  -0.013   5.842  0.00  0.00     0.289 C 
ENDROOT
BRANCH   1   2
ATOM      2  N1  <0> d   1      17.144  -0.452   6.936  0.00  0.00    -0.065 N 
ATOM      3  H2  <0> d   1      16.845  -1.401   6.768  0.00  0.00     0.275 HD
ATOM      4  H3  <0> d   1      16.336   0.151   6.984  0.00  0.00     0.275 HD
ATOM      5  H4  <0> d   1      17.648  -0.409   7.810  0.00  0.00     0.275 HD
ENDBRANCH   1   2
BRANCH   1   6
ATOM      6  C7  <0> d   1      18.936   1.106   6.340  0.00  0.00     0.104 C 
BRANCH   6   7
ATOM      7  C8  <0> d   1      19.262   0.879   7.794  0.00  0.00     0.053 A 
ATOM      8  N12 <0> d   1      19.671  -0.276   8.339  0.00  0.00    -0.247 NA
ATOM      9  C11 <0> d   1      19.862  -0.105   9.618  0.00  0.00     0.207 A 
ATOM     10  N10 <0> d   1      19.569   1.176   9.932  0.00  0.00    -0.359 N 
ATOM     11  C9  <0> d   1      19.189   1.800   8.774  0.00  0.00     0.116 A 
ATOM     12  H19 <0> d   1      19.618   1.578  10.814  0.00  0.00     0.166 HD
ENDBRANCH   6   7
ENDBRANCH   1   6
BRANCH   1  13
ATOM     13  C13 <0> d   1      18.856  -1.175   5.371  0.00  0.00     0.204 C 
ATOM     14  O14 <0> d   1      19.873  -0.973   4.730  0.00  0.00    -0.646 OA
ATOM     15  O15 <0> d   1      18.514  -2.316   5.630  0.00  0.00    -0.646 OA
ENDBRANCH   1  13
TORSDOF 4
ENDMDL
MODEL 5
REMARK VINA RESULT:      -4.3      5.267      6.007
REMARK  4 active torsions:
REMARK  status: ('A' for Active; 'I' for Inactive)
REMARK    1  A    between atoms: N1_1  and  C5_5 
REMARK    2  A    between atoms: C5_5  and  C7_6 
REMARK    3  A    between atoms: C5_5  and  C13_12 
REMARK    4  A    between atoms: C7_6  and  C8_7 
ROOT
ATOM      1  C5  <0> d   1      18.220   0.493  16.774  0.00  0.00     0.289 C 
ENDROOT
BRANCH   1   2
ATOM      2  N1  <0> d   1      17.645   1.287  15.680  0.00  0.00    -0.065 N 
ATOM      3  H2  <0> d   1      16.899   0.766  15.242  0.00  0.00     0.275 HD
ATOM      4  H3  <0> d   1      18.360   1.488  14.997  0.00  0.00     0.275 HD
ATOM      5  H4  <0> d   1      17.279   2.152  16.049  0.00  0.00     0.275 HD
ENDBRANCH   1   2
BRANCH   1   6
ATOM      6  C7  <0> d   1      18.831  -0.789  16.207  0.00  0.00     0.104 C 
BRANCH   6   7
ATOM      7  C8  <0> d   1      19.101  -0.610  14.735  0.00  0.00     0.053 A 
ATOM      8  N12 <0> d   1      19.926   0.295  14.189  0.00  0.00    -0.247 NA
ATOM      9  C11 <0> d   1      19.914   0.162  12.892  0.00  0.00     0.207 A 
ATOM     10  N10 <0> d   1      19.065  -0.837  12.567  0.00  0.00    -0.359 N 
ATOM     11  C9  <0> d   1      18.550  -1.327  13.737  0.00  0.00     0.116 A 
ATOM     12  H19 <0> d   1      18.860  -1.149  11.672  0.00  0.00     0.166 HD
ENDBRANCH   6   7
ENDBRANCH   1   6
BRANCH   1  13
ATOM     13  C13 <0> d   1      19.291   1.296  17.467  0.00  0.00     0.204 C 
ATOM     14  O14 <0> d   1      19.573   2.412  17.065  0.00  0.00    -0.646 OA
ATOM     15  O15 <0> d   1      19.875   0.829  18.430  0.00  0.00    -0.646 OA
ENDBRANCH   1  13
TORSDOF 4
ENDMDL
MODEL 6
REMARK VINA RESULT:      -4.2      1.755      2.325
REMARK  4 active torsions:
REMARK  status: ('A' for Active; 'I' for Inactive)
REMARK    1  A    between atoms: N1_1  and  C5_5 
REMARK    2  A    between atoms: C5_5  and  C7_6 
REMARK    3  A    between atoms: C5_5  and  C13_12 
REMARK    4  A    between atoms: C7_6  and  C8_7 
ROOT
ATOM      1  C5  <0> d   1      19.068   2.589  10.449  0.00  0.00     0.289 C 
ENDROOT
BRANCH   1   2
ATOM      2  N1  <0> d   1      19.819   1.519  11.117  0.00  0.00    -0.065 N 
ATOM      3  H2  <0> d   1      19.510   1.436  12.074  0.00  0.00     0.275 HD
ATOM      4  H3  <0> d   1      20.804   1.737  11.099  0.00  0.00     0.275 HD
ATOM      5  H4  <0> d   1      19.660   0.646  10.636  0.00  0.00     0.275 HD
ENDBRANCH   1   2
BRANCH   1   6
ATOM      6  C7  <0> d   1      18.957   2.281   8.955  0.00  0.00     0.104 C 
BRANCH   6   7
ATOM      7  C8  <0> d   1      18.765   0.799   8.761  0.00  0.00     0.053 A 
ATOM      8  N12 <0> d   1      19.737  -0.124   8.729  0.00  0.00    -0.247 NA
ATOM      9  C11 <0> d   1      19.207  -1.302   8.546  0.00  0.00     0.207 A 
ATOM     10  N10 <0> d   1      17.867  -1.163   8.448  0.00  0.00    -0.359 N 
ATOM     11  C9  <0> d   1      17.587   0.170   8.584  0.00  0.00     0.116 A 
ATOM     12  H19 <0> d   1      17.224  -1.875   8.306  0.00  0.00     0.166 HD
ENDBRANCH   6   7
ENDBRANCH   1   6
BRANCH   1  13
ATOM     13  C13 <0> d   1      17.687   2.682  11.046  0.00  0.00     0.204 C 
ATOM     14  O14 <0> d   1      17.263   1.778  11.744  0.00  0.00    -0.646 OA
ATOM     15  O15 <0> d   1      16.994   3.662  10.830  0.00  0.00    -0.646 OA
ENDBRANCH   1  13
TORSDOF 4
ENDMDL
MODEL 7
REMARK VINA RESULT:      -4.2      3.450      4.210
REMARK  4 active torsions:
REMARK  status: ('A' for Active; 'I' for Inactive)
REMARK    1  A    between atoms: N1_1  and  C5_5 
REMARK    2  A    between atoms: C5_5  and  C7_6 
REMARK    3  A    between atoms: C5_5  and  C13_12 
REMARK    4  A    between atoms: C7_6  and  C8_7 
ROOT
ATOM      1  C5  <0> d   1      20.178   0.323  12.101  0.00  0.00     0.289 C 
ENDROOT
BRANCH   1   2
ATOM      2  N1  <0> d   1      21.607   0.662  12.113  0.00  0.00    -0.065 N 
ATOM      3  H2  <0> d   1      21.903   0.843  13.060  0.00  0.00     0.275 HD
ATOM      4  H3  <0> d   1      21.762   1.486  11.550  0.00  0.00     0.275 HD
ATOM      5  H4  <0> d   1      22.139  -0.108  11.736  0.00  0.00     0.275 HD
ENDBRANCH   1   2
BRANCH   1   6
ATOM      6  C7  <0> d   1      19.918  -0.756  11.049  0.00  0.00     0.104 C 
BRANCH   6   7
ATOM      7  C8  <0> d   1      19.615  -0.103   9.725  0.00  0.00     0.053 A 
ATOM      8  N12 <0> d   1      19.502   1.215   9.503  0.00  0.00    -0.247 NA
ATOM      9  C11 <0> d   1      19.237   1.419   8.242  0.00  0.00     0.207 A 
ATOM     10  N10 <0> d   1      19.165   0.223   7.616  0.00  0.00    -0.359 N 
ATOM     11  C9  <0> d   1      19.405  -0.741   8.558  0.00  0.00     0.116 A 
ATOM     12  H19 <0> d   1      18.977   0.077   6.676  0.00  0.00     0.166 HD
ENDBRANCH   6   7
ENDBRANCH   1   6
BRANCH   1  13
ATOM     13  C13 <0> d   1      19.774  -0.191  13.459  0.00  0.00     0.204 C 
ATOM     14  O14 <0> d   1      19.718   0.571  14.408  0.00  0.00    -0.646 OA
ATOM     15  O15 <0> d   1      19.502  -1.371  13.608  0.00  0.00    -0.646 OA
ENDBRANCH   1  13
TORSDOF 4
ENDMDL
MODEL 8
REMARK VINA RESULT:      -4.1      3.535      4.986
REMARK  4 active torsions:
REMARK  status: ('A' for Active; 'I' for Inactive)
REMARK    1  A    between atoms: N1_1  and  C5_5 
REMARK    2  A    between atoms: C5_5  and  C7_6 
REMARK    3  A    between atoms: C5_5  and  C13_12 
REMARK    4  A    between atoms: C7_6  and  C8_7 
ROOT
ATOM      1  C5  <0> d   1      20.102  -0.697  11.163  0.00  0.00     0.289 C 
ENDROOT
BRANCH   1   2
ATOM      2  N1  <0> d   1      21.553  -0.596  10.963  0.00  0.00    -0.065 N 
ATOM      3  H2  <0> d   1      21.747   0.063  10.224  0.00  0.00     0.275 HD
ATOM      4  H3  <0> d   1      21.922  -1.501  10.711  0.00  0.00     0.275 HD
ATOM      5  H4  <0> d   1      21.990  -0.280  11.817  0.00  0.00     0.275 HD
ENDBRANCH   1   2
BRANCH   1   6
ATOM      6  C7  <0> d   1      19.379   0.073  10.057  0.00  0.00     0.104 C 
BRANCH   6   7
ATOM      7  C8  <0> d   1      19.216   1.513  10.472  0.00  0.00     0.053 A 
ATOM      8  N12 <0> d   1      19.826   2.109  11.507  0.00  0.00    -0.247 NA
ATOM      9  C11 <0> d   1      19.452   3.358  11.567  0.00  0.00     0.207 A 
ATOM     10  N10 <0> d   1      18.576   3.595  10.567  0.00  0.00    -0.359 N 
ATOM     11  C9  <0> d   1      18.427   2.425   9.872  0.00  0.00     0.116 A 
ATOM     12  H19 <0> d   1      18.135   4.438  10.376  0.00  0.00     0.166 HD
ENDBRANCH   6   7
ENDBRANCH   1   6
BRANCH   1  13
ATOM     13  C13 <0> d   1      19.689  -2.146  11.119  0.00  0.00     0.204 C 
ATOM     14  O14 <0> d   1      19.762  -2.831  12.123  0.00  0.00    -0.646 OA
ATOM     15  O15 <0> d   1      19.281  -2.632  10.077  0.00  0.00    -0.646 OA
ENDBRANCH   1  13
TORSDOF 4
ENDMDL
MODEL 9
REMARK VINA RESULT:      -4.1      3.372      4.539
REMARK  4 active torsions:
REMARK  status: ('A' for Active; 'I' for Inactive)
REMARK    1  A    between atoms: N1_1  and  C5_5 
REMARK    2  A    between atoms: C5_5  and  C7_6 
REMARK    3  A    between atoms: C5_5  and  C13_12 
REMARK    4  A    between atoms: C7_6  and  C8_7 
ROOT
ATOM      1  C5  <0> d   1      20.113  -0.354  11.528  0.00  0.00     0.289 C 
ENDROOT
BRANCH   1   2
ATOM      2  N1  <0> d   1      21.506  -0.524  11.095  0.00  0.00    -0.065 N 
ATOM      3  H2  <0> d   1      22.099   0.111  11.609  0.00  0.00     0.275 HD
ATOM      4  H3  <0> d   1      21.579  -0.327  10.108  0.00  0.00     0.275 HD
ATOM      5  H4  <0> d   1      21.800  -1.474  11.271  0.00  0.00     0.275 HD
ENDBRANCH   1   2
BRANCH   1   6
ATOM      6  C7  <0> d   1      19.639  -1.625  12.234  0.00  0.00     0.104 C 
BRANCH   6   7
ATOM      7  C8  <0> d   1      19.593  -2.762  11.245  0.00  0.00     0.053 A 
ATOM      8  N12 <0> d   1      19.173  -2.683   9.974  0.00  0.00    -0.247 NA
ATOM      9  C11 <0> d   1      19.273  -3.857   9.414  0.00  0.00     0.207 A 
ATOM     10  N10 <0> d   1      19.757  -4.731  10.324  0.00  0.00    -0.359 N 
ATOM     11  C9  <0> d   1      19.960  -4.035  11.485  0.00  0.00     0.116 A 
ATOM     12  H19 <0> d   1      19.929  -5.675  10.180  0.00  0.00     0.166 HD
ENDBRANCH   6   7
ENDBRANCH   1   6
BRANCH   1  13
ATOM     13  C13 <0> d   1      20.022   0.812  12.478  0.00  0.00     0.204 C 
ATOM     14  O14 <0> d   1      20.038   0.621  13.681  0.00  0.00    -0.646 OA
ATOM     15  O15 <0> d   1      19.930   1.947  12.042  0.00  0.00    -0.646 OA
ENDBRANCH   1  13
TORSDOF 4
ENDMDL
