MODEL 1
REMARK VINA RESULT:      -6.1      0.000      0.000
REMARK  3 active torsions:
REMARK  status: ('A' for Active; 'I' for Inactive)
REMARK       I    between atoms: N2_2  and  C4_4 
REMARK    1  A    between atoms: C4_4  and  O6_6 
REMARK    2  A    between atoms: O6_6  and  C7_7 
REMARK    3  A    between atoms: C11_11  and  N12_12 
ROOT
ATOM      1  C7  <0> d   1      17.460   0.960  10.297  0.00  0.00     0.083 A 
ATOM      2  C8  <0> d   1      18.216   2.114  10.441  0.00  0.00     0.037 A 
ATOM      3  C9  <0> d   1      19.017   2.548   9.401  0.00  0.00     0.005 A 
ATOM      4  C10 <0> d   1      19.063   1.833   8.219  0.00  0.00     0.037 A 
ATOM      5  C11 <0> d   1      18.310   0.683   8.073  0.00  0.00     0.138 A 
ATOM      6  C16 <0> d   1      17.513   0.242   9.111  0.00  0.00     0.074 A 
ENDROOT
BRANCH   1   7
ATOM      7  O6  <0> d   1      16.672   0.531  11.319  0.00  0.00    -0.261 OA
BRANCH   7   8
ATOM      8  C4  <0> d   1      17.156  -0.459  12.092  0.00  0.00     0.367 C 
ATOM      9  N2  <0> d   1      17.708  -0.172  13.287  0.00  0.00    -0.336 N 
ATOM     10  C1  <0> d   1      18.235  -1.250  14.129  0.00  0.00     0.154 C 
ATOM     11  C3  <0> d   1      17.780   1.217  13.747  0.00  0.00     0.154 C 
ATOM     12  O5  <0> d   1      17.097  -1.611  11.711  0.00  0.00    -0.238 OA
ENDBRANCH   7   8
ENDBRANCH   1   7
BRANCH   5  13
ATOM     13  N12 <0> d   1      18.359  -0.038   6.875  0.00  0.00    -0.049 N 
ATOM     14  C13 <0> d   1      16.994  -0.236   6.368  0.00  0.00     0.278 C 
ATOM     15  C14 <0> d   1      19.145   0.709   5.886  0.00  0.00     0.278 C 
ATOM     16  C15 <0> d   1      18.986  -1.344   7.115  0.00  0.00     0.278 C 
ENDBRANCH   5  13
TORSDOF 3
ENDMDL
MODEL 2
REMARK VINA RESULT:      -6.0      3.610      5.928
REMARK  3 active torsions:
REMARK  status: ('A' for Active; 'I' for Inactive)
REMARK       I    between atoms: N2_2  and  C4_4 
REMARK    1  A    between atoms: C4_4  and  O6_6 
REMARK    2  A    between atoms: O6_6  and  C7_7 
REMARK    3  A    between atoms: C11_11  and  N12_12 
ROOT
ATOM      1  C7  <0> d   1      19.354  -1.967   5.672  0.00  0.00     0.083 A 
ATOM      2  C8  <0> d   1      19.055  -1.143   4.598  0.00  0.00     0.037 A 
ATOM      3  C9  <0> d   1      18.702   0.175   4.818  0.00  0.00     0.005 A 
ATOM      4  C10 <0> d   1      18.649   0.671   6.107  0.00  0.00     0.037 A 
ATOM      5  C11 <0> d   1      18.948  -0.149   7.179  0.00  0.00     0.138 A 
ATOM      6  C16 <0> d   1      19.295  -1.468   6.965  0.00  0.00     0.074 A 
ENDROOT
BRANCH   1   7
ATOM      7  O6  <0> d   1      19.702  -3.265   5.457  0.00  0.00    -0.261 OA
BRANCH   7   8
ATOM      8  C4  <0> d   1      18.789  -4.203   5.771  0.00  0.00     0.367 C 
ATOM      9  N2  <0> d   1      19.109  -5.196   6.623  0.00  0.00    -0.336 N 
ATOM     10  C1  <0> d   1      18.115  -6.218   6.964  0.00  0.00     0.154 C 
ATOM     11  C3  <0> d   1      20.450  -5.255   7.209  0.00  0.00     0.154 C 
ATOM     12  O5  <0> d   1      17.677  -4.155   5.284  0.00  0.00    -0.238 OA
ENDBRANCH   7   8
ENDBRANCH   1   7
BRANCH   5  13
ATOM     13  N12 <0> d   1      18.893   0.356   8.482  0.00  0.00    -0.049 N 
ATOM     14  C13 <0> d   1      19.242   1.784   8.469  0.00  0.00     0.278 C 
ATOM     15  C14 <0> d   1      17.536   0.188   9.016  0.00  0.00     0.278 C 
ATOM     16  C15 <0> d   1      19.847  -0.372   9.329  0.00  0.00     0.278 C 
ENDBRANCH   5  13
TORSDOF 3
ENDMDL
MODEL 3
REMARK VINA RESULT:      -5.9      1.968      2.541
REMARK  3 active torsions:
REMARK  status: ('A' for Active; 'I' for Inactive)
REMARK       I    between atoms: N2_2  and  C4_4 
REMARK    1  A    between atoms: C4_4  and  O6_6 
REMARK    2  A    between atoms: O6_6  and  C7_7 
REMARK    3  A    between atoms: C11_11  and  N12_12 
ROOT
ATOM      1  C7  <0> d   1      19.069  -0.101  10.166  0.00  0.00     0.083 A 
ATOM      2  C8  <0> d   1      19.226   1.259  10.386  0.00  0.00     0.037 A 
ATOM      3  C9  <0> d   1      19.187   2.139   9.321  0.00  0.00     0.005 A 
ATOM      4  C10 <0> d   1      18.990   1.664   8.038  0.00  0.00     0.037 A 
ATOM      5  C11 <0> d   1      18.832   0.308   7.816  0.00  0.00     0.138 A 
ATOM      6  C16 <0> d   1      18.876  -0.576   8.877  0.00  0.00     0.074 A 
ENDROOT
BRANCH   1   7
ATOM      7  O6  <0> d   1      19.107  -0.969  11.213  0.00  0.00    -0.261 OA
BRANCH   7   8
ATOM      8  C4  <0> d   1      18.065  -1.811  11.347  0.00  0.00     0.367 C 
ATOM      9  N2  <0> d   1      18.255  -3.141  11.235  0.00  0.00    -0.336 N 
ATOM     10  C1  <0> d   1      17.121  -4.058  11.381  0.00  0.00     0.154 C 
ATOM     11  C3  <0> d   1      19.594  -3.670  10.966  0.00  0.00     0.154 C 
ATOM     12  O5  <0> d   1      16.954  -1.373  11.569  0.00  0.00    -0.238 OA
ENDBRANCH   7   8
ENDBRANCH   1   7
BRANCH   5  13
ATOM     13  N12 <0> d   1      18.633  -0.169   6.517  0.00  0.00    -0.049 N 
ATOM     14  C13 <0> d   1      19.350   0.690   5.565  0.00  0.00     0.278 C 
ATOM     15  C14 <0> d   1      19.142  -1.543   6.417  0.00  0.00     0.278 C 
ATOM     16  C15 <0> d   1      17.198  -0.155   6.205  0.00  0.00     0.278 C 
ENDBRANCH   5  13
TORSDOF 3
ENDMDL
MODEL 4
REMARK VINA RESULT:      -5.7      4.184      7.080
REMARK  3 active torsions:
REMARK  status: ('A' for Active; 'I' for Inactive)
REMARK       I    between atoms: N2_2  and  C4_4 
REMARK    1  A    between atoms: C4_4  and  O6_6 
REMARK    2  A    between atoms: O6_6  and  C7_7 
REMARK    3  A    between atoms: C11_11  and  N12_12 
ROOT
ATOM      1  C7  <0> d   1      19.266   0.876  13.420  0.00  0.00     0.083 A 
ATOM      2  C8  <0> d   1      19.498  -0.443  13.059  0.00  0.00     0.037 A 
ATOM      3  C9  <0> d   1      19.386  -1.446  14.004  0.00  0.00     0.005 A 
ATOM      4  C10 <0> d   1      19.042  -1.134  15.306  0.00  0.00     0.037 A 
ATOM      5  C11 <0> d   1      18.810   0.180  15.667  0.00  0.00     0.138 A 
ATOM      6  C16 <0> d   1      18.926   1.186  14.728  0.00  0.00     0.074 A 
ENDROOT
BRANCH   1   7
ATOM      7  O6  <0> d   1      19.376   1.864  12.492  0.00  0.00    -0.261 OA
BRANCH   7   8
ATOM      8  C4  <0> d   1      18.255   2.548  12.191  0.00  0.00     0.367 C 
ATOM      9  N2  <0> d   1      18.223   3.887  12.340  0.00  0.00    -0.336 N 
ATOM     10  C1  <0> d   1      17.004   4.631  12.013  0.00  0.00     0.154 C 
ATOM     11  C3  <0> d   1      19.406   4.599  12.830  0.00  0.00     0.154 C 
ATOM     12  O5  <0> d   1      17.274   1.958  11.786  0.00  0.00    -0.238 OA
ENDBRANCH   7   8
ENDBRANCH   1   7
BRANCH   5  13
ATOM     13  N12 <0> d   1      18.462   0.492  16.985  0.00  0.00    -0.049 N 
ATOM     14  C13 <0> d   1      18.588   1.941  17.195  0.00  0.00     0.278 C 
ATOM     15  C14 <0> d   1      17.075   0.080  17.236  0.00  0.00     0.278 C 
ATOM     16  C15 <0> d   1      19.358  -0.216  17.909  0.00  0.00     0.278 C 
ENDBRANCH   5  13
TORSDOF 3
ENDMDL
MODEL 5
REMARK VINA RESULT:      -5.7      2.582      4.123
REMARK  3 active torsions:
REMARK  status: ('A' for Active; 'I' for Inactive)
REMARK       I    between atoms: N2_2  and  C4_4 
REMARK    1  A    between atoms: C4_4  and  O6_6 
REMARK    2  A    between atoms: O6_6  and  C7_7 
REMARK    3  A    between atoms: C11_11  and  N12_12 
ROOT
ATOM      1  C7  <0> d   1      19.363  -0.186   9.464  0.00  0.00     0.083 A 
ATOM      2  C8  <0> d   1      19.422   0.319   8.174  0.00  0.00     0.037 A 
ATOM      3  C9  <0> d   1      19.159   1.656   7.944  0.00  0.00     0.005 A 
ATOM      4  C10 <0> d   1      18.837   2.490   8.999  0.00  0.00     0.037 A 
ATOM      5  C11 <0> d   1      18.778   1.988  10.286  0.00  0.00     0.138 A 
ATOM      6  C16 <0> d   1      19.034   0.651  10.520  0.00  0.00     0.074 A 
ENDROOT
BRANCH   1   7
ATOM      7  O6  <0> d   1      19.622  -1.501   9.692  0.00  0.00    -0.261 OA
BRANCH   7   8
ATOM      8  C4  <0> d   1      18.563  -2.306   9.905  0.00  0.00     0.367 C 
ATOM      9  N2  <0> d   1      18.419  -2.931  11.089  0.00  0.00    -0.336 N 
ATOM     10  C1  <0> d   1      17.268  -3.807  11.320  0.00  0.00     0.154 C 
ATOM     11  C3  <0> d   1      19.414  -2.736  12.147  0.00  0.00     0.154 C 
ATOM     12  O5  <0> d   1      17.739  -2.469   9.027  0.00  0.00    -0.238 OA
ENDBRANCH   7   8
ENDBRANCH   1   7
BRANCH   5  13
ATOM     13  N12 <0> d   1      18.452   2.834  11.352  0.00  0.00    -0.049 N 
ATOM     14  C13 <0> d   1      17.868   2.042  12.443  0.00  0.00     0.278 C 
ATOM     15  C14 <0> d   1      19.666   3.508  11.831  0.00  0.00     0.278 C 
ATOM     16  C15 <0> d   1      17.480   3.838  10.900  0.00  0.00     0.278 C 
ENDBRANCH   5  13
TORSDOF 3
ENDMDL
MODEL 6
REMARK VINA RESULT:      -5.7      2.171      6.771
REMARK  3 active torsions:
REMARK  status: ('A' for Active; 'I' for Inactive)
REMARK       I    between atoms: N2_2  and  C4_4 
REMARK    1  A    between atoms: C4_4  and  O6_6 
REMARK    2  A    between atoms: O6_6  and  C7_7 
REMARK    3  A    between atoms: C11_11  and  N12_12 
ROOT
ATOM      1  C7  <0> d   1      17.678   0.158  12.951  0.00  0.00     0.083 A 
ATOM      2  C8  <0> d   1      18.459  -0.924  12.574  0.00  0.00     0.037 A 
ATOM      3  C9  <0> d   1      19.144  -1.648  13.531  0.00  0.00     0.005 A 
ATOM      4  C10 <0> d   1      19.049  -1.294  14.865  0.00  0.00     0.037 A 
ATOM      5  C11 <0> d   1      18.270  -0.216  15.243  0.00  0.00     0.138 A 
ATOM      6  C16 <0> d   1      17.588   0.514  14.288  0.00  0.00     0.074 A 
ENDROOT
BRANCH   1   7
ATOM      7  O6  <0> d   1      17.003   0.871  12.009  0.00  0.00    -0.261 OA
BRANCH   7   8
ATOM      8  C4  <0> d   1      17.713   1.760  11.289  0.00  0.00     0.367 C 
ATOM      9  N2  <0> d   1      17.966   1.522   9.987  0.00  0.00    -0.336 N 
ATOM     10  C1  <0> d   1      18.739   2.489   9.203  0.00  0.00     0.154 C 
ATOM     11  C3  <0> d   1      17.469   0.298   9.355  0.00  0.00     0.154 C 
ATOM     12  O5  <0> d   1      18.126   2.774  11.814  0.00  0.00    -0.238 OA
ENDBRANCH   7   8
ENDBRANCH   1   7
BRANCH   5  13
ATOM     13  N12 <0> d   1      18.175   0.139  16.592  0.00  0.00    -0.049 N 
ATOM     14  C13 <0> d   1      19.118  -0.670  17.378  0.00  0.00     0.278 C 
ATOM     15  C14 <0> d   1      18.503   1.562  16.748  0.00  0.00     0.278 C 
ATOM     16  C15 <0> d   1      16.807  -0.104  17.068  0.00  0.00     0.278 C 
ENDBRANCH   5  13
TORSDOF 3
ENDMDL
MODEL 7
REMARK VINA RESULT:      -5.7      3.844      4.862
REMARK  3 active torsions:
REMARK  status: ('A' for Active; 'I' for Inactive)
REMARK       I    between atoms: N2_2  and  C4_4 
REMARK    1  A    between atoms: C4_4  and  O6_6 
REMARK    2  A    between atoms: O6_6  and  C7_7 
REMARK    3  A    between atoms: C11_11  and  N12_12 
ROOT
ATOM      1  C7  <0> d   1      18.726  -0.806  13.711  0.00  0.00     0.083 A 
ATOM      2  C8  <0> d   1      17.726   0.015  13.211  0.00  0.00     0.037 A 
ATOM      3  C9  <0> d   1      17.044  -0.347  12.066  0.00  0.00     0.005 A 
ATOM      4  C10 <0> d   1      17.357  -1.528  11.418  0.00  0.00     0.037 A 
ATOM      5  C11 <0> d   1      18.353  -2.348  11.915  0.00  0.00     0.138 A 
ATOM      6  C16 <0> d   1      19.042  -1.987  13.056  0.00  0.00     0.074 A 
ENDROOT
BRANCH   1   7
ATOM      7  O6  <0> d   1      19.399  -0.450  14.838  0.00  0.00    -0.261 OA
BRANCH   7   8
ATOM      8  C4  <0> d   1      18.710  -0.475  15.995  0.00  0.00     0.367 C 
ATOM      9  N2  <0> d   1      18.544   0.658  16.705  0.00  0.00    -0.336 N 
ATOM     10  C1  <0> d   1      17.795   0.631  17.964  0.00  0.00     0.154 C 
ATOM     11  C3  <0> d   1      19.113   1.917  16.218  0.00  0.00     0.154 C 
ATOM     12  O5  <0> d   1      18.239  -1.520  16.399  0.00  0.00    -0.238 OA
ENDBRANCH   7   8
ENDBRANCH   1   7
BRANCH   5  13
ATOM     13  N12 <0> d   1      18.668  -3.542  11.258  0.00  0.00    -0.049 N 
ATOM     14  C13 <0> d   1      20.089  -3.856  11.467  0.00  0.00     0.278 C 
ATOM     15  C14 <0> d   1      17.842  -4.630  11.797  0.00  0.00     0.278 C 
ATOM     16  C15 <0> d   1      18.406  -3.394   9.821  0.00  0.00     0.278 C 
ENDBRANCH   5  13
TORSDOF 3
ENDMDL
MODEL 8
REMARK VINA RESULT:      -5.6      2.716      4.586
REMARK  3 active torsions:
REMARK  status: ('A' for Active; 'I' for Inactive)
REMARK       I    between atoms: N2_2  and  C4_4 
REMARK    1  A    between atoms: C4_4  and  O6_6 
REMARK    2  A    between atoms: O6_6  and  C7_7 
REMARK    3  A    between atoms: C11_11  and  N12_12 
ROOT
ATOM      1  C7  <0> d   1      18.257  -0.402   8.519  0.00  0.00     0.083 A 
ATOM      2  C8  <0> d   1      18.543   0.481   7.489  0.00  0.00     0.037 A 
ATOM      3  C9  <0> d   1      19.039   1.739   7.776  0.00  0.00     0.005 A 
ATOM      4  C10 <0> d   1      19.252   2.115   9.089  0.00  0.00     0.037 A 
ATOM      5  C11 <0> d   1      18.969   1.236  10.118  0.00  0.00     0.138 A 
ATOM      6  C16 <0> d   1      18.467  -0.020   9.836  0.00  0.00     0.074 A 
ENDROOT
BRANCH   1   7
ATOM      7  O6  <0> d   1      17.769  -1.640   8.239  0.00  0.00    -0.261 OA
BRANCH   7   8
ATOM      8  C4  <0> d   1      18.654  -2.655   8.212  0.00  0.00     0.367 C 
ATOM      9  N2  <0> d   1      18.575  -3.641   9.127  0.00  0.00    -0.336 N 
ATOM     10  C1  <0> d   1      19.538  -4.746   9.098  0.00  0.00     0.154 C 
ATOM     11  C3  <0> d   1      17.529  -3.609  10.152  0.00  0.00     0.154 C 
ATOM     12  O5  <0> d   1      19.522  -2.681   7.364  0.00  0.00    -0.238 OA
ENDBRANCH   7   8
ENDBRANCH   1   7
BRANCH   5  13
ATOM     13  N12 <0> d   1      19.186   1.620  11.445  0.00  0.00    -0.049 N 
ATOM     14  C13 <0> d   1      17.932   1.494  12.201  0.00  0.00     0.278 C 
ATOM     15  C14 <0> d   1      20.209   0.753  12.045  0.00  0.00     0.278 C 
ATOM     16  C15 <0> d   1      19.642   3.015  11.483  0.00  0.00     0.278 C 
ENDBRANCH   5  13
TORSDOF 3
ENDMDL
MODEL 9
REMARK VINA RESULT:      -5.6      2.699      4.363
REMARK  3 active torsions:
REMARK  status: ('A' for Active; 'I' for Inactive)
REMARK       I    between atoms: N2_2  and  C4_4 
REMARK    1  A    between atoms: C4_4  and  O6_6 
REMARK    2  A    between atoms: O6_6  and  C7_7 
REMARK    3  A    between atoms: C11_11  and  N12_12 
ROOT
ATOM      1  C7  <0> d   1      18.826   2.673  10.224  0.00  0.00     0.083 A 
ATOM      2  C8  <0> d   1      18.877   2.490   8.850  0.00  0.00     0.037 A 
ATOM      3  C9  <0> d   1      18.890   1.211   8.325  0.00  0.00     0.005 A 
ATOM      4  C10 <0> d   1      18.851   0.117   9.168  0.00  0.00     0.037 A 
ATOM      5  C11 <0> d   1      18.800   0.297  10.538  0.00  0.00     0.138 A 
ATOM      6  C16 <0> d   1      18.793   1.573  11.068  0.00  0.00     0.074 A 
ENDROOT
BRANCH   1   7
ATOM      7  O6  <0> d   1      18.813   3.930  10.743  0.00  0.00    -0.261 OA
BRANCH   7   8
ATOM      8  C4  <0> d   1      17.756   4.266  11.506  0.00  0.00     0.367 C 
ATOM      9  N2  <0> d   1      17.946   4.688  12.771  0.00  0.00    -0.336 N 
ATOM     10  C1  <0> d   1      16.796   5.054  13.602  0.00  0.00     0.154 C 
ATOM     11  C3  <0> d   1      19.302   4.781  13.317  0.00  0.00     0.154 C 
ATOM     12  O5  <0> d   1      16.631   4.188  11.054  0.00  0.00    -0.238 OA
ENDBRANCH   7   8
ENDBRANCH   1   7
BRANCH   5  13
ATOM     13  N12 <0> d   1      18.761  -0.812  11.389  0.00  0.00    -0.049 N 
ATOM     14  C13 <0> d   1      19.611  -0.560  12.560  0.00  0.00     0.278 C 
ATOM     15  C14 <0> d   1      17.379  -1.045  11.827  0.00  0.00     0.278 C 
ATOM     16  C15 <0> d   1      19.253  -1.996  10.672  0.00  0.00     0.278 C 
ENDBRANCH   5  13
TORSDOF 3
ENDMDL
