MODEL 1
REMARK VINA RESULT:      -8.3      0.000      0.000
REMARK  4 active torsions:
REMARK  status: ('A' for Active; 'I' for Inactive)
REMARK    1  A    between atoms: C5_5  and  C6_6 
REMARK    2  A    between atoms: C14_13  and  C16_14 
REMARK    3  A    between atoms: C16_14  and  O17_15 
REMARK    4  A    between atoms: O17_15  and  C18_16 
ROOT
ATOM      1  C6  ZIN A   1      18.745   1.311   9.450  0.00  0.00     0.028 C 
ATOM      2  C8  ZIN A   1      19.135   1.836   8.065  0.00  0.00     0.037 C 
ATOM      3  C9  ZIN A   1      19.097   0.684   7.059  0.00  0.00     0.233 C 
ATOM      4  N10 ZIN A   1      17.742   0.120   7.008  0.00  0.00    -0.075 N 
ATOM      5  H11 ZIN A   1      17.085   0.848   6.770  0.00  0.00     0.277 HD
ATOM      6  H12 ZIN A   1      17.707  -0.605   6.306  0.00  0.00     0.277 HD
ATOM      7  C13 ZIN A   1      17.390  -0.450   8.313  0.00  0.00     0.239 C 
ATOM      8  C14 ZIN A   1      17.362   0.657   9.369  0.00  0.00     0.044 C 
ENDROOT
BRANCH   8   9
ATOM      9  C16 ZIN A   1      16.996   0.059  10.728  0.00  0.00     0.182 C 
BRANCH   9  10
ATOM     10  O17 ZIN A   1      18.040  -0.815  11.160  0.00  0.00    -0.351 OA
BRANCH  10  11
ATOM     11  C18 ZIN A   1      18.324  -0.828  12.489  0.00  0.00     0.071 A 
ATOM     12  C26 ZIN A   1      17.579  -0.053  13.365  0.00  0.00     0.076 A 
ATOM     13  C25 ZIN A   1      17.866  -0.069  14.720  0.00  0.00     0.107 A 
ATOM     14  C21 ZIN A   1      18.910  -0.856  15.199  0.00  0.00     0.105 A 
ATOM     15  O24 ZIN A   1      17.292   0.584  15.773  0.00  0.00    -0.323 OA
ATOM     16  C20 ZIN A   1      19.655  -1.625  14.321  0.00  0.00     0.042 A 
ATOM     17  O22 ZIN A   1      18.991  -0.696  16.553  0.00  0.00    -0.323 OA
ATOM     18  C19 ZIN A   1      19.364  -1.610  12.969  0.00  0.00     0.039 A 
ATOM     19  C23 ZIN A   1      18.254   0.506  16.842  0.00  0.00     0.352 C 
ENDBRANCH  10  11
ENDBRANCH   9  10
ENDBRANCH   8   9
BRANCH   1  20
ATOM     20  C5  ZIN A   1      18.705   2.455  10.430  0.00  0.00    -0.053 A 
ATOM     21  C4  ZIN A   1      17.746   3.442  10.301  0.00  0.00     0.010 A 
ATOM     22  C3  ZIN A   1      17.708   4.491  11.201  0.00  0.00     0.043 A 
ATOM     23  C2  ZIN A   1      18.631   4.553  12.230  0.00  0.00     0.116 A 
ATOM     24  F1  ZIN A   1      18.595   5.578  13.109  0.00  0.00    -0.206 F 
ATOM     25  C28 ZIN A   1      19.595   3.567  12.355  0.00  0.00     0.043 A 
ATOM     26  C27 ZIN A   1      19.628   2.516  11.458  0.00  0.00     0.010 A 
ENDBRANCH   1  20
TORSDOF 4
ENDMDL
MODEL 2
REMARK VINA RESULT:      -8.3      3.618      5.637
REMARK  4 active torsions:
REMARK  status: ('A' for Active; 'I' for Inactive)
REMARK    1  A    between atoms: C5_5  and  C6_6 
REMARK    2  A    between atoms: C14_13  and  C16_14 
REMARK    3  A    between atoms: C16_14  and  O17_15 
REMARK    4  A    between atoms: O17_15  and  C18_16 
ROOT
ATOM      1  C6  ZIN A   1      18.250   1.288  10.513  0.00  0.00     0.028 C 
ATOM      2  C8  ZIN A   1      17.831   2.737  10.782  0.00  0.00     0.037 C 
ATOM      3  C9  ZIN A   1      17.922   3.018  12.283  0.00  0.00     0.233 C 
ATOM      4  N10 ZIN A   1      19.301   2.812  12.741  0.00  0.00    -0.075 N 
ATOM      5  H11 ZIN A   1      19.922   3.405  12.210  0.00  0.00     0.277 HD
ATOM      6  H12 ZIN A   1      19.369   3.049  13.720  0.00  0.00     0.277 HD
ATOM      7  C13 ZIN A   1      19.685   1.408  12.552  0.00  0.00     0.239 C 
ATOM      8  C14 ZIN A   1      19.663   1.063  11.062  0.00  0.00     0.044 C 
ENDROOT
BRANCH   8   9
ATOM      9  C16 ZIN A   1      20.062  -0.401  10.869  0.00  0.00     0.182 C 
BRANCH   9  10
ATOM     10  O17 ZIN A   1      19.174  -1.237  11.614  0.00  0.00    -0.351 OA
BRANCH  10  11
ATOM     11  C18 ZIN A   1      18.981  -2.500  11.149  0.00  0.00     0.071 A 
ATOM     12  C26 ZIN A   1      17.803  -2.826  10.495  0.00  0.00     0.076 A 
ATOM     13  C25 ZIN A   1      17.608  -4.111  10.017  0.00  0.00     0.107 A 
ATOM     14  C21 ZIN A   1      18.593  -5.078  10.204  0.00  0.00     0.105 A 
ATOM     15  O24 ZIN A   1      16.562  -4.678   9.347  0.00  0.00    -0.323 OA
ATOM     16  C20 ZIN A   1      19.766  -4.750  10.863  0.00  0.00     0.042 A 
ATOM     17  O22 ZIN A   1      18.164  -6.251   9.652  0.00  0.00    -0.323 OA
ATOM     18  C19 ZIN A   1      19.960  -3.465  11.335  0.00  0.00     0.039 A 
ATOM     19  C23 ZIN A   1      16.742  -6.100   9.487  0.00  0.00     0.352 C 
ENDBRANCH  10  11
ENDBRANCH   9  10
ENDBRANCH   8   9
BRANCH   1  20
ATOM     20  C5  ZIN A   1      18.239   1.027   9.029  0.00  0.00    -0.053 A 
ATOM     21  C4  ZIN A   1      17.387   0.074   8.501  0.00  0.00     0.010 A 
ATOM     22  C3  ZIN A   1      17.376  -0.165   7.140  0.00  0.00     0.043 A 
ATOM     23  C2  ZIN A   1      18.218   0.549   6.305  0.00  0.00     0.116 A 
ATOM     24  F1  ZIN A   1      18.208   0.315   4.974  0.00  0.00    -0.206 F 
ATOM     25  C28 ZIN A   1      19.075   1.499   6.835  0.00  0.00     0.043 A 
ATOM     26  C27 ZIN A   1      19.080   1.741   8.196  0.00  0.00     0.010 A 
ENDBRANCH   1  20
TORSDOF 4
ENDMDL
MODEL 3
REMARK VINA RESULT:      -8.2      3.909      7.577
REMARK  4 active torsions:
REMARK  status: ('A' for Active; 'I' for Inactive)
REMARK    1  A    between atoms: C5_5  and  C6_6 
REMARK    2  A    between atoms: C14_13  and  C16_14 
REMARK    3  A    between atoms: C16_14  and  O17_15 
REMARK    4  A    between atoms: O17_15  and  C18_16 
ROOT
ATOM      1  C6  ZIN A   1      19.296  -1.222  13.171  0.00  0.00     0.028 C 
ATOM      2  C8  ZIN A   1      18.561  -1.322  14.511  0.00  0.00     0.037 C 
ATOM      3  C9  ZIN A   1      18.801  -0.043  15.315  0.00  0.00     0.233 C 
ATOM      4  N10 ZIN A   1      18.299   1.114  14.563  0.00  0.00    -0.075 N 
ATOM      5  H11 ZIN A   1      17.321   0.979  14.356  0.00  0.00     0.277 HD
ATOM      6  H12 ZIN A   1      18.411   1.949  15.118  0.00  0.00     0.277 HD
ATOM      7  C13 ZIN A   1      19.049   1.258  13.310  0.00  0.00     0.239 C 
ATOM      8  C14 ZIN A   1      18.820   0.029  12.427  0.00  0.00     0.044 C 
ENDROOT
BRANCH   8   9
ATOM      9  C16 ZIN A   1      19.604   0.182  11.123  0.00  0.00     0.182 C 
BRANCH   9  10
ATOM     10  O17 ZIN A   1      18.708   0.538  10.068  0.00  0.00    -0.351 OA
BRANCH  10  11
ATOM     11  C18 ZIN A   1      18.894  -0.075   8.869  0.00  0.00     0.071 A 
ATOM     12  C26 ZIN A   1      18.825   0.662   7.696  0.00  0.00     0.076 A 
ATOM     13  C25 ZIN A   1      19.019   0.039   6.474  0.00  0.00     0.107 A 
ATOM     14  C21 ZIN A   1      19.272  -1.330   6.426  0.00  0.00     0.105 A 
ATOM     15  O24 ZIN A   1      19.010   0.527   5.199  0.00  0.00    -0.323 OA
ATOM     16  C20 ZIN A   1      19.334  -2.063   7.599  0.00  0.00     0.042 A 
ATOM     17  O22 ZIN A   1      19.420  -1.700   5.119  0.00  0.00    -0.323 OA
ATOM     18  C19 ZIN A   1      19.145  -1.438   8.817  0.00  0.00     0.039 A 
ATOM     19  C23 ZIN A   1      18.852  -0.624   4.349  0.00  0.00     0.352 C 
ENDBRANCH  10  11
ENDBRANCH   9  10
ENDBRANCH   8   9
BRANCH   1  20
ATOM     20  C5  ZIN A   1      19.001  -2.445  12.341  0.00  0.00    -0.053 A 
ATOM     21  C4  ZIN A   1      17.698  -2.739  11.983  0.00  0.00     0.010 A 
ATOM     22  C3  ZIN A   1      17.427  -3.859  11.221  0.00  0.00     0.043 A 
ATOM     23  C2  ZIN A   1      18.460  -4.687  10.816  0.00  0.00     0.116 A 
ATOM     24  F1  ZIN A   1      18.195  -5.783  10.072  0.00  0.00    -0.206 F 
ATOM     25  C28 ZIN A   1      19.763  -4.395  11.180  0.00  0.00     0.043 A 
ATOM     26  C27 ZIN A   1      20.033  -3.271  11.937  0.00  0.00     0.010 A 
ENDBRANCH   1  20
TORSDOF 4
ENDMDL
MODEL 4
REMARK VINA RESULT:      -8.2      3.389      6.794
REMARK  4 active torsions:
REMARK  status: ('A' for Active; 'I' for Inactive)
REMARK    1  A    between atoms: C5_5  and  C6_6 
REMARK    2  A    between atoms: C14_13  and  C16_14 
REMARK    3  A    between atoms: C16_14  and  O17_15 
REMARK    4  A    between atoms: O17_15  and  C18_16 
ROOT
ATOM      1  C6  ZIN A   1      18.843  -0.370  14.017  0.00  0.00     0.028 C 
ATOM      2  C8  ZIN A   1      18.449  -1.314  15.156  0.00  0.00     0.037 C 
ATOM      3  C9  ZIN A   1      18.313  -0.513  16.451  0.00  0.00     0.233 C 
ATOM      4  N10 ZIN A   1      17.281   0.518  16.288  0.00  0.00    -0.075 N 
ATOM      5  H11 ZIN A   1      16.411   0.081  16.024  0.00  0.00     0.277 HD
ATOM      6  H12 ZIN A   1      17.157   1.010  17.161  0.00  0.00     0.277 HD
ATOM      7  C13 ZIN A   1      17.686   1.468  15.247  0.00  0.00     0.239 C 
ATOM      8  C14 ZIN A   1      17.799   0.745  13.903  0.00  0.00     0.044 C 
ENDROOT
BRANCH   8   9
ATOM      9  C16 ZIN A   1      18.223   1.739  12.820  0.00  0.00     0.182 C 
BRANCH   9  10
ATOM     10  O17 ZIN A   1      17.267   1.721  11.758  0.00  0.00    -0.351 OA
BRANCH  10  11
ATOM     11  C18 ZIN A   1      17.742   1.485  10.506  0.00  0.00     0.071 A 
ATOM     12  C26 ZIN A   1      17.167   0.497   9.721  0.00  0.00     0.076 A 
ATOM     13  C25 ZIN A   1      17.647   0.260   8.443  0.00  0.00     0.107 A 
ATOM     14  C21 ZIN A   1      18.714   1.010   7.954  0.00  0.00     0.105 A 
ATOM     15  O24 ZIN A   1      17.262  -0.631   7.484  0.00  0.00    -0.323 OA
ATOM     16  C20 ZIN A   1      19.289   1.992   8.742  0.00  0.00     0.042 A 
ATOM     17  O22 ZIN A   1      18.999   0.586   6.687  0.00  0.00    -0.323 OA
ATOM     18  C19 ZIN A   1      18.805   2.229  10.015  0.00  0.00     0.039 A 
ATOM     19  C23 ZIN A   1      18.365  -0.701   6.560  0.00  0.00     0.352 C 
ENDBRANCH  10  11
ENDBRANCH   9  10
ENDBRANCH   8   9
BRANCH   1  20
ATOM     20  C5  ZIN A   1      18.903  -1.138  12.721  0.00  0.00    -0.053 A 
ATOM     21  C4  ZIN A   1      17.885  -2.013  12.389  0.00  0.00     0.010 A 
ATOM     22  C3  ZIN A   1      17.938  -2.717  11.201  0.00  0.00     0.043 A 
ATOM     23  C2  ZIN A   1      19.012  -2.546  10.344  0.00  0.00     0.116 A 
ATOM     24  F1  ZIN A   1      19.065  -3.235   9.183  0.00  0.00    -0.206 F 
ATOM     25  C28 ZIN A   1      20.033  -1.675  10.680  0.00  0.00     0.043 A 
ATOM     26  C27 ZIN A   1      19.975  -0.967  11.866  0.00  0.00     0.010 A 
ENDBRANCH   1  20
TORSDOF 4
ENDMDL
MODEL 5
REMARK VINA RESULT:      -8.2      3.003      5.587
REMARK  4 active torsions:
REMARK  status: ('A' for Active; 'I' for Inactive)
REMARK    1  A    between atoms: C5_5  and  C6_6 
REMARK    2  A    between atoms: C14_13  and  C16_14 
REMARK    3  A    between atoms: C16_14  and  O17_15 
REMARK    4  A    between atoms: O17_15  and  C18_16 
ROOT
ATOM      1  C6  ZIN A   1      18.508  -1.086  12.712  0.00  0.00     0.028 C 
ATOM      2  C8  ZIN A   1      18.282  -2.565  12.384  0.00  0.00     0.037 C 
ATOM      3  C9  ZIN A   1      18.450  -2.779  10.879  0.00  0.00     0.233 C 
ATOM      4  N10 ZIN A   1      19.806  -2.387  10.474  0.00  0.00    -0.075 N 
ATOM      5  H11 ZIN A   1      20.480  -2.916  11.006  0.00  0.00     0.277 HD
ATOM      6  H12 ZIN A   1      19.931  -2.579   9.490  0.00  0.00     0.277 HD
ATOM      7  C13 ZIN A   1      20.005  -0.954  10.719  0.00  0.00     0.239 C 
ATOM      8  C14 ZIN A   1      19.896  -0.668  12.218  0.00  0.00     0.044 C 
ENDROOT
BRANCH   8   9
ATOM      9  C16 ZIN A   1      20.103   0.827  12.470  0.00  0.00     0.182 C 
BRANCH   9  10
ATOM     10  O17 ZIN A   1      19.631   1.568  11.343  0.00  0.00    -0.351 OA
BRANCH  10  11
ATOM     11  C18 ZIN A   1      18.817   2.627  11.597  0.00  0.00     0.071 A 
ATOM     12  C26 ZIN A   1      18.600   3.036  12.904  0.00  0.00     0.076 A 
ATOM     13  C25 ZIN A   1      17.774   4.117  13.163  0.00  0.00     0.107 A 
ATOM     14  C21 ZIN A   1      17.153   4.784  12.110  0.00  0.00     0.105 A 
ATOM     15  O24 ZIN A   1      17.406   4.714  14.335  0.00  0.00    -0.323 OA
ATOM     16  C20 ZIN A   1      17.368   4.368  10.807  0.00  0.00     0.042 A 
ATOM     17  O22 ZIN A   1      16.395   5.799  12.622  0.00  0.00    -0.323 OA
ATOM     18  C19 ZIN A   1      18.196   3.292  10.550  0.00  0.00     0.039 A 
ATOM     19  C23 ZIN A   1      16.236   5.491  14.020  0.00  0.00     0.352 C 
ENDBRANCH  10  11
ENDBRANCH   9  10
ENDBRANCH   8   9
BRANCH   1  20
ATOM     20  C5  ZIN A   1      18.421  -0.881  14.203  0.00  0.00    -0.053 A 
ATOM     21  C4  ZIN A   1      19.248  -1.597  15.048  0.00  0.00     0.010 A 
ATOM     22  C3  ZIN A   1      19.169  -1.409  16.415  0.00  0.00     0.043 A 
ATOM     23  C2  ZIN A   1      18.262  -0.503  16.938  0.00  0.00     0.116 A 
ATOM     24  F1  ZIN A   1      18.184  -0.319  18.274  0.00  0.00    -0.206 F 
ATOM     25  C28 ZIN A   1      17.430   0.209  16.091  0.00  0.00     0.043 A 
ATOM     26  C27 ZIN A   1      17.514   0.023  14.723  0.00  0.00     0.010 A 
ENDBRANCH   1  20
TORSDOF 4
ENDMDL
MODEL 6
REMARK VINA RESULT:      -8.2      2.599      4.534
REMARK  4 active torsions:
REMARK  status: ('A' for Active; 'I' for Inactive)
REMARK    1  A    between atoms: C5_5  and  C6_6 
REMARK    2  A    between atoms: C14_13  and  C16_14 
REMARK    3  A    between atoms: C16_14  and  O17_15 
REMARK    4  A    between atoms: O17_15  and  C18_16 
ROOT
ATOM      1  C6  ZIN A   1      18.382  -1.190  10.339  0.00  0.00     0.028 C 
ATOM      2  C8  ZIN A   1      19.010  -2.584  10.408  0.00  0.00     0.037 C 
ATOM      3  C9  ZIN A   1      18.892  -3.259   9.040  0.00  0.00     0.233 C 
ATOM      4  N10 ZIN A   1      19.591  -2.455   8.031  0.00  0.00    -0.075 N 
ATOM      5  H11 ZIN A   1      20.554  -2.334   8.308  0.00  0.00     0.277 HD
ATOM      6  H12 ZIN A   1      19.557  -2.929   7.140  0.00  0.00     0.277 HD
ATOM      7  C13 ZIN A   1      18.949  -1.141   7.908  0.00  0.00     0.239 C 
ATOM      8  C14 ZIN A   1      19.069  -0.383   9.232  0.00  0.00     0.044 C 
ENDROOT
BRANCH   8   9
ATOM      9  C16 ZIN A   1      18.397   0.985   9.101  0.00  0.00     0.182 C 
BRANCH   9  10
ATOM     10  O17 ZIN A   1      19.338   2.010   9.427  0.00  0.00    -0.351 OA
BRANCH  10  11
ATOM     11  C18 ZIN A   1      19.003   2.857  10.437  0.00  0.00     0.071 A 
ATOM     12  C26 ZIN A   1      17.713   3.358  10.522  0.00  0.00     0.076 A 
ATOM     13  C25 ZIN A   1      17.370   4.217  11.553  0.00  0.00     0.107 A 
ATOM     14  C21 ZIN A   1      18.326   4.583  12.498  0.00  0.00     0.105 A 
ATOM     15  O24 ZIN A   1      16.192   4.834  11.862  0.00  0.00    -0.323 OA
ATOM     16  C20 ZIN A   1      19.614   4.084  12.406  0.00  0.00     0.042 A 
ATOM     17  O22 ZIN A   1      17.747   5.431  13.398  0.00  0.00    -0.323 OA
ATOM     18  C19 ZIN A   1      19.953   3.224  11.378  0.00  0.00     0.039 A 
ATOM     19  C23 ZIN A   1      16.543   5.901  12.764  0.00  0.00     0.352 C 
ENDBRANCH  10  11
ENDBRANCH   9  10
ENDBRANCH   8   9
BRANCH   1  20
ATOM     20  C5  ZIN A   1      18.564  -0.488  11.660  0.00  0.00    -0.053 A 
ATOM     21  C4  ZIN A   1      17.471   0.051  12.313  0.00  0.00     0.010 A 
ATOM     22  C3  ZIN A   1      17.637   0.694  13.525  0.00  0.00     0.043 A 
ATOM     23  C2  ZIN A   1      18.899   0.798  14.085  0.00  0.00     0.116 A 
ATOM     24  F1  ZIN A   1      19.063   1.427  15.270  0.00  0.00    -0.206 F 
ATOM     25  C28 ZIN A   1      19.994   0.263  13.428  0.00  0.00     0.043 A 
ATOM     26  C27 ZIN A   1      19.825  -0.384  12.219  0.00  0.00     0.010 A 
ENDBRANCH   1  20
TORSDOF 4
ENDMDL
MODEL 7
REMARK VINA RESULT:      -8.2      3.066      5.445
REMARK  4 active torsions:
REMARK  status: ('A' for Active; 'I' for Inactive)
REMARK    1  A    between atoms: C5_5  and  C6_6 
REMARK    2  A    between atoms: C14_13  and  C16_14 
REMARK    3  A    between atoms: C16_14  and  O17_15 
REMARK    4  A    between atoms: O17_15  and  C18_16 
ROOT
ATOM      1  C6  ZIN A   1      18.955   4.418  14.043  0.00  0.00     0.028 C 
ATOM      2  C8  ZIN A   1      20.073   5.465  14.074  0.00  0.00     0.037 C 
ATOM      3  C9  ZIN A   1      20.295   5.922  15.517  0.00  0.00     0.233 C 
ATOM      4  N10 ZIN A   1      20.676   4.772  16.346  0.00  0.00    -0.075 N 
ATOM      5  H11 ZIN A   1      21.500   4.339  15.958  0.00  0.00     0.277 HD
ATOM      6  H12 ZIN A   1      20.873   5.085  17.285  0.00  0.00     0.277 HD
ATOM      7  C13 ZIN A   1      19.580   3.796  16.378  0.00  0.00     0.239 C 
ATOM      8  C14 ZIN A   1      19.329   3.256  14.969  0.00  0.00     0.044 C 
ENDROOT
BRANCH   8   9
ATOM      9  C16 ZIN A   1      18.185   2.241  15.006  0.00  0.00     0.182 C 
BRANCH   9  10
ATOM     10  O17 ZIN A   1      18.723   0.917  14.976  0.00  0.00    -0.351 OA
BRANCH  10  11
ATOM     11  C18 ZIN A   1      18.377   0.134  13.920  0.00  0.00     0.071 A 
ATOM     12  C26 ZIN A   1      19.037  -1.065  13.700  0.00  0.00     0.076 A 
ATOM     13  C25 ZIN A   1      18.681  -1.865  12.627  0.00  0.00     0.107 A 
ATOM     14  C21 ZIN A   1      17.667  -1.457  11.763  0.00  0.00     0.105 A 
ATOM     15  O24 ZIN A   1      19.160  -3.070  12.199  0.00  0.00    -0.323 OA
ATOM     16  C20 ZIN A   1      17.014  -0.256  11.984  0.00  0.00     0.042 A 
ATOM     17  O22 ZIN A   1      17.511  -2.407  10.794  0.00  0.00    -0.323 OA
ATOM     18  C19 ZIN A   1      17.368   0.539  13.058  0.00  0.00     0.039 A 
ATOM     19  C23 ZIN A   1      18.712  -3.200  10.837  0.00  0.00     0.352 C 
ENDBRANCH  10  11
ENDBRANCH   9  10
ENDBRANCH   8   9
BRANCH   1  20
ATOM     20  C5  ZIN A   1      18.784   3.905  12.636  0.00  0.00    -0.053 A 
ATOM     21  C4  ZIN A   1      19.792   3.170  12.040  0.00  0.00     0.010 A 
ATOM     22  C3  ZIN A   1      19.635   2.700  10.750  0.00  0.00     0.043 A 
ATOM     23  C2  ZIN A   1      18.467   2.964  10.055  0.00  0.00     0.116 A 
ATOM     24  F1  ZIN A   1      18.314   2.505   8.793  0.00  0.00    -0.206 F 
ATOM     25  C28 ZIN A   1      17.461   3.705  10.650  0.00  0.00     0.043 A 
ATOM     26  C27 ZIN A   1      17.618   4.170  11.942  0.00  0.00     0.010 A 
ENDBRANCH   1  20
TORSDOF 4
ENDMDL
MODEL 8
REMARK VINA RESULT:      -8.1      1.037      1.832
REMARK  4 active torsions:
REMARK  status: ('A' for Active; 'I' for Inactive)
REMARK    1  A    between atoms: C5_5  and  C6_6 
REMARK    2  A    between atoms: C14_13  and  C16_14 
REMARK    3  A    between atoms: C16_14  and  O17_15 
REMARK    4  A    between atoms: O17_15  and  C18_16 
ROOT
ATOM      1  C6  ZIN A   1      19.442   1.372   9.296  0.00  0.00     0.028 C 
ATOM      2  C8  ZIN A   1      18.885   1.765   7.924  0.00  0.00     0.037 C 
ATOM      3  C9  ZIN A   1      19.218   0.668   6.911  0.00  0.00     0.233 C 
ATOM      4  N10 ZIN A   1      18.614  -0.599   7.341  0.00  0.00    -0.075 N 
ATOM      5  H11 ZIN A   1      17.618  -0.476   7.448  0.00  0.00     0.277 HD
ATOM      6  H12 ZIN A   1      18.791  -1.308   6.645  0.00  0.00     0.277 HD
ATOM      7  C13 ZIN A   1      19.196  -1.019   8.621  0.00  0.00     0.239 C 
ATOM      8  C14 ZIN A   1      18.864   0.013   9.702  0.00  0.00     0.044 C 
ENDROOT
BRANCH   8   9
ATOM      9  C16 ZIN A   1      19.473  -0.428  11.034  0.00  0.00     0.182 C 
BRANCH   9  10
ATOM     10  O17 ZIN A   1      18.444  -0.951  11.877  0.00  0.00    -0.351 OA
BRANCH  10  11
ATOM     11  C18 ZIN A   1      18.384  -0.470  13.148  0.00  0.00     0.071 A 
ATOM     12  C26 ZIN A   1      18.888  -1.223  14.198  0.00  0.00     0.076 A 
ATOM     13  C25 ZIN A   1      18.831  -0.732  15.492  0.00  0.00     0.107 A 
ATOM     14  C21 ZIN A   1      18.258   0.514  15.736  0.00  0.00     0.105 A 
ATOM     15  O24 ZIN A   1      19.252  -1.260  16.679  0.00  0.00    -0.323 OA
ATOM     16  C20 ZIN A   1      17.752   1.260  14.685  0.00  0.00     0.042 A 
ATOM     17  O22 ZIN A   1      18.319   0.766  17.077  0.00  0.00    -0.323 OA
ATOM     18  C19 ZIN A   1      17.813   0.769  13.395  0.00  0.00     0.039 A 
ATOM     19  C23 ZIN A   1      18.564  -0.510  17.697  0.00  0.00     0.352 C 
ENDBRANCH  10  11
ENDBRANCH   9  10
ENDBRANCH   8   9
BRANCH   1  20
ATOM     20  C5  ZIN A   1      19.051   2.410  10.316  0.00  0.00    -0.053 A 
ATOM     21  C4  ZIN A   1      19.992   2.891  11.208  0.00  0.00     0.010 A 
ATOM     22  C3  ZIN A   1      19.634   3.844  12.143  0.00  0.00     0.043 A 
ATOM     23  C2  ZIN A   1      18.333   4.316  12.186  0.00  0.00     0.116 A 
ATOM     24  F1  ZIN A   1      17.983   5.247  13.101  0.00  0.00    -0.206 F 
ATOM     25  C28 ZIN A   1      17.391   3.830  11.296  0.00  0.00     0.043 A 
ATOM     26  C27 ZIN A   1      17.752   2.882  10.358  0.00  0.00     0.010 A 
ENDBRANCH   1  20
TORSDOF 4
ENDMDL
MODEL 9
REMARK VINA RESULT:      -8.0      2.628      4.689
REMARK  4 active torsions:
REMARK  status: ('A' for Active; 'I' for Inactive)
REMARK    1  A    between atoms: C5_5  and  C6_6 
REMARK    2  A    between atoms: C14_13  and  C16_14 
REMARK    3  A    between atoms: C16_14  and  O17_15 
REMARK    4  A    between atoms: O17_15  and  C18_16 
ROOT
ATOM      1  C6  ZIN A   1      17.766   0.443   8.886  0.00  0.00     0.028 C 
ATOM      2  C8  ZIN A   1      17.363  -0.650   7.892  0.00  0.00     0.037 C 
ATOM      3  C9  ZIN A   1      17.313  -0.057   6.483  0.00  0.00     0.233 C 
ATOM      4  N10 ZIN A   1      18.635   0.471   6.123  0.00  0.00    -0.075 N 
ATOM      5  H11 ZIN A   1      19.321  -0.265   6.197  0.00  0.00     0.277 HD
ATOM      6  H12 ZIN A   1      18.612   0.814   5.174  0.00  0.00     0.277 HD
ATOM      7  C13 ZIN A   1      18.996   1.568   7.028  0.00  0.00     0.239 C 
ATOM      8  C14 ZIN A   1      19.111   1.040   8.459  0.00  0.00     0.044 C 
ENDROOT
BRANCH   8   9
ATOM      9  C16 ZIN A   1      19.486   2.187   9.400  0.00  0.00     0.182 C 
BRANCH   9  10
ATOM     10  O17 ZIN A   1      18.460   3.180   9.371  0.00  0.00    -0.351 OA
BRANCH  10  11
ATOM     11  C18 ZIN A   1      18.110   3.741  10.560  0.00  0.00     0.071 A 
ATOM     12  C26 ZIN A   1      18.812   3.419  11.711  0.00  0.00     0.076 A 
ATOM     13  C25 ZIN A   1      18.459   3.993  12.921  0.00  0.00     0.107 A 
ATOM     14  C21 ZIN A   1      17.391   4.885  12.980  0.00  0.00     0.105 A 
ATOM     15  O24 ZIN A   1      18.980   3.853  14.175  0.00  0.00    -0.323 OA
ATOM     16  C20 ZIN A   1      16.689   5.200  11.829  0.00  0.00     0.042 A 
ATOM     17  O22 ZIN A   1      17.243   5.303  14.272  0.00  0.00    -0.323 OA
ATOM     18  C19 ZIN A   1      17.046   4.628  10.622  0.00  0.00     0.039 A 
ATOM     19  C23 ZIN A   1      17.967   4.348  15.070  0.00  0.00     0.352 C 
ENDBRANCH  10  11
ENDBRANCH   9  10
ENDBRANCH   8   9
BRANCH   1  20
ATOM     20  C5  ZIN A   1      17.893  -0.151  10.265  0.00  0.00    -0.053 A 
ATOM     21  C4  ZIN A   1      16.997   0.205  11.256  0.00  0.00     0.010 A 
ATOM     22  C3  ZIN A   1      17.113  -0.340  12.521  0.00  0.00     0.043 A 
ATOM     23  C2  ZIN A   1      18.127  -1.242  12.795  0.00  0.00     0.116 A 
ATOM     24  F1  ZIN A   1      18.241  -1.774  14.032  0.00  0.00    -0.206 F 
ATOM     25  C28 ZIN A   1      19.027  -1.593  11.804  0.00  0.00     0.043 A 
ATOM     26  C27 ZIN A   1      18.906  -1.051  10.538  0.00  0.00     0.010 A 
ENDBRANCH   1  20
TORSDOF 4
ENDMDL
