MODEL 1
REMARK VINA RESULT:      -8.0      0.000      0.000
REMARK  3 active torsions:
REMARK  status: ('A' for Active; 'I' for Inactive)
REMARK    1  A    between atoms: C5_5  and  S6_6 
REMARK    2  A    between atoms: S6_6  and  N9_9 
REMARK       I    between atoms: N9_9  and  C10_10 
REMARK       I    between atoms: C10_10  and  N12_12 
REMARK    3  A    between atoms: N12_12  and  N13_13 
ROOT
ATOM      1  N9  ZIN A   1      18.098   2.898  12.842  0.00  0.00    -0.101 NA
ATOM      2  C10 ZIN A   1      17.711   3.542  13.960  0.00  0.00     0.367 C 
ATOM      3  O11 ZIN A   1      17.219   4.650  13.883  0.00  0.00    -0.243 OA
ATOM      4  N12 ZIN A   1      17.869   2.957  15.165  0.00  0.00    -0.269 N 
ATOM      5  H27 ZIN A   1      17.590   3.421  15.970  0.00  0.00     0.185 HD
ENDROOT
BRANCH   1   6
ATOM      6  S6  ZIN A   1      17.905   3.616  11.362  0.00  0.00     0.287 S 
ATOM      7  O7  ZIN A   1      18.977   4.539  11.222  0.00  0.00    -0.198 OA
ATOM      8  O8  ZIN A   1      16.538   3.994  11.277  0.00  0.00    -0.198 OA
BRANCH   6   9
ATOM      9  C5  ZIN A   1      18.155   2.371  10.141  0.00  0.00     0.081 A 
ATOM     10  C4  ZIN A   1      18.976   2.622   9.058  0.00  0.00     0.026 A 
ATOM     11  C3  ZIN A   1      19.174   1.645   8.100  0.00  0.00     0.008 A 
ATOM     12  C2  ZIN A   1      18.550   0.418   8.225  0.00  0.00    -0.062 A 
ATOM     13  C1  ZIN A   1      18.765  -0.647   7.180  0.00  0.00     0.048 C 
ATOM     14  C21 ZIN A   1      17.724   0.170   9.306  0.00  0.00     0.008 A 
ATOM     15  C20 ZIN A   1      17.530   1.145  10.266  0.00  0.00     0.026 A 
ENDBRANCH   6   9
ENDBRANCH   1   6
BRANCH   4  16
ATOM     16  N13 ZIN A   1      18.421   1.710  15.251  0.00  0.00    -0.227 NA
ATOM     17  C19 ZIN A   1      17.386   0.661  15.123  0.00  0.00     0.113 C 
ATOM     18  C18 ZIN A   1      17.895  -0.708  15.480  0.00  0.00     0.016 C 
ATOM     19  C17 ZIN A   1      17.585  -0.974  16.968  0.00  0.00     0.001 C 
ATOM     20  C16 ZIN A   1      18.527  -0.304  17.857  0.00  0.00     0.001 C 
ATOM     21  C15 ZIN A   1      18.496   1.229  17.689  0.00  0.00     0.016 C 
ATOM     22  C14 ZIN A   1      19.275   1.591  16.455  0.00  0.00     0.113 C 
ENDBRANCH   4  16
TORSDOF 3
ENDMDL
MODEL 2
REMARK VINA RESULT:      -7.9      1.010      1.820
REMARK  3 active torsions:
REMARK  status: ('A' for Active; 'I' for Inactive)
REMARK    1  A    between atoms: C5_5  and  S6_6 
REMARK    2  A    between atoms: S6_6  and  N9_9 
REMARK       I    between atoms: N9_9  and  C10_10 
REMARK       I    between atoms: C10_10  and  N12_12 
REMARK    3  A    between atoms: N12_12  and  N13_13 
ROOT
ATOM      1  N9  ZIN A   1      18.217   2.573  12.646  0.00  0.00    -0.101 NA
ATOM      2  C10 ZIN A   1      19.365   1.908  12.884  0.00  0.00     0.367 C 
ATOM      3  O11 ZIN A   1      20.238   1.881  12.039  0.00  0.00    -0.243 OA
ATOM      4  N12 ZIN A   1      19.545   1.272  14.060  0.00  0.00    -0.269 N 
ATOM      5  H27 ZIN A   1      20.370   0.793  14.231  0.00  0.00     0.185 HD
ENDROOT
BRANCH   1   6
ATOM      6  S6  ZIN A   1      17.996   3.354  11.203  0.00  0.00     0.287 S 
ATOM      7  O7  ZIN A   1      19.100   4.237  11.051  0.00  0.00    -0.198 OA
ATOM      8  O8  ZIN A   1      16.644   3.791  11.187  0.00  0.00    -0.198 OA
BRANCH   6   9
ATOM      9  C5  ZIN A   1      18.145   2.147   9.928  0.00  0.00     0.081 A 
ATOM     10  C4  ZIN A   1      18.986   2.375   8.856  0.00  0.00     0.026 A 
ATOM     11  C3  ZIN A   1      19.104   1.428   7.856  0.00  0.00     0.008 A 
ATOM     12  C2  ZIN A   1      18.380   0.253   7.928  0.00  0.00    -0.062 A 
ATOM     13  C1  ZIN A   1      18.508  -0.779   6.837  0.00  0.00     0.048 C 
ATOM     14  C21 ZIN A   1      17.533   0.028   8.998  0.00  0.00     0.008 A 
ATOM     15  C20 ZIN A   1      17.419   0.973  10.000  0.00  0.00     0.026 A 
ENDBRANCH   6   9
ENDBRANCH   1   6
BRANCH   4  16
ATOM     16  N13 ZIN A   1      18.564   1.303  15.009  0.00  0.00    -0.227 NA
ATOM     17  C19 ZIN A   1      19.137   1.519  16.357  0.00  0.00     0.113 C 
ATOM     18  C18 ZIN A   1      18.139   1.291  17.459  0.00  0.00     0.016 C 
ATOM     19  C17 ZIN A   1      18.268  -0.168  17.942  0.00  0.00     0.001 C 
ATOM     20  C16 ZIN A   1      17.609  -1.108  17.043  0.00  0.00     0.001 C 
ATOM     21  C15 ZIN A   1      18.218  -1.081  15.625  0.00  0.00     0.016 C 
ATOM     22  C14 ZIN A   1      17.679   0.121  14.897  0.00  0.00     0.113 C 
ENDBRANCH   4  16
TORSDOF 3
ENDMDL
MODEL 3
REMARK VINA RESULT:      -7.6      2.552      7.415
REMARK  3 active torsions:
REMARK  status: ('A' for Active; 'I' for Inactive)
REMARK    1  A    between atoms: C5_5  and  S6_6 
REMARK    2  A    between atoms: S6_6  and  N9_9 
REMARK       I    between atoms: N9_9  and  C10_10 
REMARK       I    between atoms: C10_10  and  N12_12 
REMARK    3  A    between atoms: N12_12  and  N13_13 
ROOT
ATOM      1  N9  ZIN A   1      18.520   1.348  10.237  0.00  0.00    -0.101 NA
ATOM      2  C10 ZIN A   1      17.518   0.487   9.971  0.00  0.00     0.367 C 
ATOM      3  O11 ZIN A   1      16.597   0.367  10.756  0.00  0.00    -0.243 OA
ATOM      4  N12 ZIN A   1      17.536  -0.241   8.836  0.00  0.00    -0.269 N 
ATOM      5  H27 ZIN A   1      16.814  -0.860   8.646  0.00  0.00     0.185 HD
ENDROOT
BRANCH   1   6
ATOM      6  S6  ZIN A   1      18.498   2.242  11.631  0.00  0.00     0.287 S 
ATOM      7  O7  ZIN A   1      17.220   2.861  11.689  0.00  0.00    -0.198 OA
ATOM      8  O8  ZIN A   1      19.717   2.971  11.657  0.00  0.00    -0.198 OA
BRANCH   6   9
ATOM      9  C5  ZIN A   1      18.566   1.109  12.979  0.00  0.00     0.081 A 
ATOM     10  C4  ZIN A   1      17.634   1.190  13.995  0.00  0.00     0.026 A 
ATOM     11  C3  ZIN A   1      17.685   0.301  15.053  0.00  0.00     0.008 A 
ATOM     12  C2  ZIN A   1      18.670  -0.669  15.093  0.00  0.00    -0.062 A 
ATOM     13  C1  ZIN A   1      18.727  -1.638  16.246  0.00  0.00     0.048 C 
ATOM     14  C21 ZIN A   1      19.606  -0.745  14.078  0.00  0.00     0.008 A 
ATOM     15  C20 ZIN A   1      19.552   0.141  13.019  0.00  0.00     0.026 A 
ENDBRANCH   6   9
ENDBRANCH   1   6
BRANCH   4  16
ATOM     16  N13 ZIN A   1      18.570  -0.105   7.955  0.00  0.00    -0.227 NA
ATOM     17  C19 ZIN A   1      18.134   0.603   6.731  0.00  0.00     0.113 C 
ATOM     18  C18 ZIN A   1      19.153   0.539   5.626  0.00  0.00     0.016 C 
ATOM     19  C17 ZIN A   1      18.814  -0.661   4.717  0.00  0.00     0.001 C 
ATOM     20  C16 ZIN A   1      19.243  -1.930   5.295  0.00  0.00     0.001 C 
ATOM     21  C15 ZIN A   1      18.553  -2.217   6.644  0.00  0.00     0.016 C 
ATOM     22  C14 ZIN A   1      19.234  -1.406   7.712  0.00  0.00     0.113 C 
ENDBRANCH   4  16
TORSDOF 3
ENDMDL
MODEL 4
REMARK VINA RESULT:      -7.6      2.724      4.293
REMARK  3 active torsions:
REMARK  status: ('A' for Active; 'I' for Inactive)
REMARK    1  A    between atoms: C5_5  and  S6_6 
REMARK    2  A    between atoms: S6_6  and  N9_9 
REMARK       I    between atoms: N9_9  and  C10_10 
REMARK       I    between atoms: C10_10  and  N12_12 
REMARK    3  A    between atoms: N12_12  and  N13_13 
ROOT
ATOM      1  N9  ZIN A   1      17.781   1.595  12.647  0.00  0.00    -0.101 NA
ATOM      2  C10 ZIN A   1      17.600   1.627  13.982  0.00  0.00     0.367 C 
ATOM      3  O11 ZIN A   1      17.229   0.629  14.568  0.00  0.00    -0.243 OA
ATOM      4  N12 ZIN A   1      17.830   2.765  14.668  0.00  0.00    -0.269 N 
ATOM      5  H27 ZIN A   1      17.699   2.787  15.628  0.00  0.00     0.185 HD
ENDROOT
BRANCH   1   6
ATOM      6  S6  ZIN A   1      17.499   0.197  11.805  0.00  0.00     0.287 S 
ATOM      7  O7  ZIN A   1      16.090   0.008  11.804  0.00  0.00    -0.198 OA
ATOM      8  O8  ZIN A   1      18.412  -0.766  12.311  0.00  0.00    -0.198 OA
BRANCH   6   9
ATOM      9  C5  ZIN A   1      17.963   0.494  10.131  0.00  0.00     0.081 A 
ATOM     10  C4  ZIN A   1      17.355  -0.212   9.111  0.00  0.00     0.026 A 
ATOM     11  C3  ZIN A   1      17.718   0.020   7.798  0.00  0.00     0.008 A 
ATOM     12  C2  ZIN A   1      18.690   0.959   7.505  0.00  0.00    -0.062 A 
ATOM     13  C1  ZIN A   1      19.087   1.213   6.073  0.00  0.00     0.048 C 
ATOM     14  C21 ZIN A   1      19.302   1.661   8.527  0.00  0.00     0.008 A 
ATOM     15  C20 ZIN A   1      18.936   1.431   9.840  0.00  0.00     0.026 A 
ENDBRANCH   6   9
ENDBRANCH   1   6
BRANCH   4  16
ATOM     16  N13 ZIN A   1      18.247   3.886  14.009  0.00  0.00    -0.227 NA
ATOM     17  C19 ZIN A   1      19.293   4.595  14.779  0.00  0.00     0.113 C 
ATOM     18  C18 ZIN A   1      19.589   5.966  14.235  0.00  0.00     0.016 C 
ATOM     19  C17 ZIN A   1      18.725   6.992  14.997  0.00  0.00     0.001 C 
ATOM     20  C16 ZIN A   1      17.346   7.014  14.521  0.00  0.00     0.001 C 
ATOM     21  C15 ZIN A   1      16.644   5.653  14.709  0.00  0.00     0.016 C 
ATOM     22  C14 ZIN A   1      17.095   4.728  13.612  0.00  0.00     0.113 C 
ENDBRANCH   4  16
TORSDOF 3
ENDMDL
MODEL 5
REMARK VINA RESULT:      -7.5      3.315      3.871
REMARK  3 active torsions:
REMARK  status: ('A' for Active; 'I' for Inactive)
REMARK    1  A    between atoms: C5_5  and  S6_6 
REMARK    2  A    between atoms: S6_6  and  N9_9 
REMARK       I    between atoms: N9_9  and  C10_10 
REMARK       I    between atoms: C10_10  and  N12_12 
REMARK    3  A    between atoms: N12_12  and  N13_13 
ROOT
ATOM      1  N9  ZIN A   1      18.514  -1.691  12.573  0.00  0.00    -0.101 NA
ATOM      2  C10 ZIN A   1      17.564  -0.776  12.850  0.00  0.00     0.367 C 
ATOM      3  O11 ZIN A   1      16.653  -0.592  12.068  0.00  0.00    -0.243 OA
ATOM      4  N12 ZIN A   1      17.624  -0.066  13.994  0.00  0.00    -0.269 N 
ATOM      5  H27 ZIN A   1      16.940   0.593  14.193  0.00  0.00     0.185 HD
ENDROOT
BRANCH   1   6
ATOM      6  S6  ZIN A   1      18.441  -2.564  11.168  0.00  0.00     0.287 S 
ATOM      7  O7  ZIN A   1      17.128  -3.106  11.101  0.00  0.00    -0.198 OA
ATOM      8  O8  ZIN A   1      19.615  -3.363  11.131  0.00  0.00    -0.198 OA
BRANCH   6   9
ATOM      9  C5  ZIN A   1      18.575  -1.420   9.835  0.00  0.00     0.081 A 
ATOM     10  C4  ZIN A   1      19.589  -0.480   9.831  0.00  0.00     0.026 A 
ATOM     11  C3  ZIN A   1      19.696   0.417   8.785  0.00  0.00     0.008 A 
ATOM     12  C2  ZIN A   1      18.789   0.375   7.742  0.00  0.00    -0.062 A 
ATOM     13  C1  ZIN A   1      18.904   1.353   6.602  0.00  0.00     0.048 C 
ATOM     14  C21 ZIN A   1      17.771  -0.561   7.750  0.00  0.00     0.008 A 
ATOM     15  C20 ZIN A   1      17.667  -1.461   8.794  0.00  0.00     0.026 A 
ENDBRANCH   6   9
ENDBRANCH   1   6
BRANCH   4  16
ATOM     16  N13 ZIN A   1      18.649  -0.273  14.873  0.00  0.00    -0.227 NA
ATOM     17  C19 ZIN A   1      18.214  -1.125  16.003  0.00  0.00     0.113 C 
ATOM     18  C18 ZIN A   1      19.214  -1.159  17.126  0.00  0.00     0.016 C 
ATOM     19  C17 ZIN A   1      18.829  -0.077  18.157  0.00  0.00     0.001 C 
ATOM     20  C16 ZIN A   1      19.233   1.258  17.732  0.00  0.00     0.001 C 
ATOM     21  C15 ZIN A   1      18.556   1.678  16.411  0.00  0.00     0.016 C 
ATOM     22  C14 ZIN A   1      19.274   1.008  15.272  0.00  0.00     0.113 C 
ENDBRANCH   4  16
TORSDOF 3
ENDMDL
MODEL 6
REMARK VINA RESULT:      -7.5      4.406      7.672
REMARK  3 active torsions:
REMARK  status: ('A' for Active; 'I' for Inactive)
REMARK    1  A    between atoms: C5_5  and  S6_6 
REMARK    2  A    between atoms: S6_6  and  N9_9 
REMARK       I    between atoms: N9_9  and  C10_10 
REMARK       I    between atoms: C10_10  and  N12_12 
REMARK    3  A    between atoms: N12_12  and  N13_13 
ROOT
ATOM      1  N9  ZIN A   1      17.755  -1.441  10.526  0.00  0.00    -0.101 NA
ATOM      2  C10 ZIN A   1      17.580  -1.464   9.190  0.00  0.00     0.367 C 
ATOM      3  O11 ZIN A   1      17.241  -0.454   8.604  0.00  0.00    -0.243 OA
ATOM      4  N12 ZIN A   1      17.780  -2.606   8.503  0.00  0.00    -0.269 N 
ATOM      5  H27 ZIN A   1      17.653  -2.623   7.541  0.00  0.00     0.185 HD
ENDROOT
BRANCH   1   6
ATOM      6  S6  ZIN A   1      17.509  -0.038  11.370  0.00  0.00     0.287 S 
ATOM      7  O7  ZIN A   1      16.104   0.177  11.390  0.00  0.00    -0.198 OA
ATOM      8  O8  ZIN A   1      18.433   0.909  10.852  0.00  0.00    -0.198 OA
BRANCH   6   9
ATOM      9  C5  ZIN A   1      17.990  -0.341  13.038  0.00  0.00     0.081 A 
ATOM     10  C4  ZIN A   1      17.382   0.349  14.069  0.00  0.00     0.026 A 
ATOM     11  C3  ZIN A   1      17.758   0.111  15.377  0.00  0.00     0.008 A 
ATOM     12  C2  ZIN A   1      18.744  -0.819  15.655  0.00  0.00    -0.062 A 
ATOM     13  C1  ZIN A   1      19.155  -1.078  17.081  0.00  0.00     0.048 C 
ATOM     14  C21 ZIN A   1      19.356  -1.505  14.623  0.00  0.00     0.008 A 
ATOM     15  C20 ZIN A   1      18.977  -1.269  13.315  0.00  0.00     0.026 A 
ENDBRANCH   6   9
ENDBRANCH   1   6
BRANCH   4  16
ATOM     16  N13 ZIN A   1      18.160  -3.741   9.161  0.00  0.00    -0.227 NA
ATOM     17  C19 ZIN A   1      19.039  -4.577   8.312  0.00  0.00     0.113 C 
ATOM     18  C18 ZIN A   1      19.263  -5.951   8.880  0.00  0.00     0.016 C 
ATOM     19  C17 ZIN A   1      18.223  -6.911   8.264  0.00  0.00     0.001 C 
ATOM     20  C16 ZIN A   1      16.912  -6.779   8.889  0.00  0.00     0.001 C 
ATOM     21  C15 ZIN A   1      16.327  -5.361   8.720  0.00  0.00     0.016 C 
ATOM     22  C14 ZIN A   1      16.986  -4.450   9.719  0.00  0.00     0.113 C 
ENDBRANCH   4  16
TORSDOF 3
ENDMDL
MODEL 7
REMARK VINA RESULT:      -7.3      4.213      8.242
REMARK  3 active torsions:
REMARK  status: ('A' for Active; 'I' for Inactive)
REMARK    1  A    between atoms: C5_5  and  S6_6 
REMARK    2  A    between atoms: S6_6  and  N9_9 
REMARK       I    between atoms: N9_9  and  C10_10 
REMARK       I    between atoms: C10_10  and  N12_12 
REMARK    3  A    between atoms: N12_12  and  N13_13 
ROOT
ATOM      1  N9  ZIN A   1      18.550  -2.143  10.145  0.00  0.00    -0.101 NA
ATOM      2  C10 ZIN A   1      19.607  -1.347   9.887  0.00  0.00     0.367 C 
ATOM      3  O11 ZIN A   1      20.445  -1.154  10.746  0.00  0.00    -0.243 OA
ATOM      4  N12 ZIN A   1      19.734  -0.764   8.678  0.00  0.00    -0.269 N 
ATOM      5  H27 ZIN A   1      20.494  -0.191   8.493  0.00  0.00     0.185 HD
ENDROOT
BRANCH   1   6
ATOM      6  S6  ZIN A   1      18.394  -2.859  11.630  0.00  0.00     0.287 S 
ATOM      7  O7  ZIN A   1      19.586  -3.603  11.843  0.00  0.00    -0.198 OA
ATOM      8  O8  ZIN A   1      17.098  -3.441  11.659  0.00  0.00    -0.198 OA
BRANCH   6   9
ATOM      9  C5  ZIN A   1      18.388  -1.571  12.832  0.00  0.00     0.081 A 
ATOM     10  C4  ZIN A   1      19.241  -1.636  13.918  0.00  0.00     0.026 A 
ATOM     11  C3  ZIN A   1      19.238  -0.626  14.861  0.00  0.00     0.008 A 
ATOM     12  C2  ZIN A   1      18.382   0.450  14.718  0.00  0.00    -0.062 A 
ATOM     13  C1  ZIN A   1      18.378   1.552  15.747  0.00  0.00     0.048 C 
ATOM     14  C21 ZIN A   1      17.525   0.512  13.635  0.00  0.00     0.008 A 
ATOM     15  C20 ZIN A   1      17.531  -0.496  12.690  0.00  0.00     0.026 A 
ENDBRANCH   6   9
ENDBRANCH   1   6
BRANCH   4  16
ATOM     16  N13 ZIN A   1      18.792  -0.981   7.713  0.00  0.00    -0.227 NA
ATOM     17  C19 ZIN A   1      19.251  -1.999   6.743  0.00  0.00     0.113 C 
ATOM     18  C18 ZIN A   1      18.377  -2.077   5.521  0.00  0.00     0.016 C 
ATOM     19  C17 ZIN A   1      18.980  -1.168   4.430  0.00  0.00     0.001 C 
ATOM     20  C16 ZIN A   1      18.677   0.241   4.655  0.00  0.00     0.001 C 
ATOM     21  C15 ZIN A   1      19.252   0.753   5.992  0.00  0.00     0.016 C 
ATOM     22  C14 ZIN A   1      18.351   0.296   7.106  0.00  0.00     0.113 C 
ENDBRANCH   4  16
TORSDOF 3
ENDMDL
MODEL 8
REMARK VINA RESULT:      -7.3      4.802      8.535
REMARK  3 active torsions:
REMARK  status: ('A' for Active; 'I' for Inactive)
REMARK    1  A    between atoms: C5_5  and  S6_6 
REMARK    2  A    between atoms: S6_6  and  N9_9 
REMARK       I    between atoms: N9_9  and  C10_10 
REMARK       I    between atoms: C10_10  and  N12_12 
REMARK    3  A    between atoms: N12_12  and  N13_13 
ROOT
ATOM      1  N9  ZIN A   1      18.750  -2.650  10.207  0.00  0.00    -0.101 NA
ATOM      2  C10 ZIN A   1      17.870  -3.164   9.327  0.00  0.00     0.367 C 
ATOM      3  O11 ZIN A   1      17.172  -4.107   9.646  0.00  0.00    -0.243 OA
ATOM      4  N12 ZIN A   1      17.762  -2.633   8.092  0.00  0.00    -0.269 N 
ATOM      5  H27 ZIN A   1      17.128  -3.004   7.458  0.00  0.00     0.185 HD
ENDROOT
BRANCH   1   6
ATOM      6  S6  ZIN A   1      18.883  -3.302  11.724  0.00  0.00     0.287 S 
ATOM      7  O7  ZIN A   1      20.230  -3.737  11.856  0.00  0.00    -0.198 OA
ATOM      8  O8  ZIN A   1      17.767  -4.166  11.888  0.00  0.00    -0.198 OA
BRANCH   6   9
ATOM      9  C5  ZIN A   1      18.669  -1.987  12.878  0.00  0.00     0.081 A 
ATOM     10  C4  ZIN A   1      17.735  -0.999  12.633  0.00  0.00     0.026 A 
ATOM     11  C3  ZIN A   1      17.565   0.032  13.538  0.00  0.00     0.008 A 
ATOM     12  C2  ZIN A   1      18.331   0.075  14.688  0.00  0.00    -0.062 A 
ATOM     13  C1  ZIN A   1      18.147   1.199  15.675  0.00  0.00     0.048 C 
ATOM     14  C21 ZIN A   1      19.269  -0.911  14.930  0.00  0.00     0.008 A 
ATOM     15  C20 ZIN A   1      19.436  -1.944  14.027  0.00  0.00     0.026 A 
ENDBRANCH   6   9
ENDBRANCH   1   6
BRANCH   4  16
ATOM     16  N13 ZIN A   1      18.546  -1.574   7.734  0.00  0.00    -0.227 NA
ATOM     17  C19 ZIN A   1      17.721  -0.385   7.424  0.00  0.00     0.113 C 
ATOM     18  C18 ZIN A   1      18.507   0.717   6.769  0.00  0.00     0.016 C 
ATOM     19  C17 ZIN A   1      18.373   0.571   5.239  0.00  0.00     0.001 C 
ATOM     20  C16 ZIN A   1      19.240  -0.474   4.706  0.00  0.00     0.001 C 
ATOM     21  C15 ZIN A   1      18.905  -1.862   5.291  0.00  0.00     0.016 C 
ATOM     22  C14 ZIN A   1      19.501  -1.956   6.669  0.00  0.00     0.113 C 
ENDBRANCH   4  16
TORSDOF 3
ENDMDL
MODEL 9
REMARK VINA RESULT:      -7.2      3.958      7.296
REMARK  3 active torsions:
REMARK  status: ('A' for Active; 'I' for Inactive)
REMARK    1  A    between atoms: C5_5  and  S6_6 
REMARK    2  A    between atoms: S6_6  and  N9_9 
REMARK       I    between atoms: N9_9  and  C10_10 
REMARK       I    between atoms: C10_10  and  N12_12 
REMARK    3  A    between atoms: N12_12  and  N13_13 
ROOT
ATOM      1  N9  ZIN A   1      18.307  -0.836  11.268  0.00  0.00    -0.101 NA
ATOM      2  C10 ZIN A   1      17.813  -0.926  10.017  0.00  0.00     0.367 C 
ATOM      3  O11 ZIN A   1      17.376   0.063   9.463  0.00  0.00    -0.243 OA
ATOM      4  N12 ZIN A   1      17.804  -2.115   9.380  0.00  0.00    -0.269 N 
ATOM      5  H27 ZIN A   1      17.448  -2.180   8.480  0.00  0.00     0.185 HD
ENDROOT
BRANCH   1   6
ATOM      6  S6  ZIN A   1      18.319   0.624  12.051  0.00  0.00     0.287 S 
ATOM      7  O7  ZIN A   1      17.012   1.165  11.908  0.00  0.00    -0.198 OA
ATOM      8  O8  ZIN A   1      19.492   1.300  11.620  0.00  0.00    -0.198 OA
BRANCH   6   9
ATOM      9  C5  ZIN A   1      18.536   0.293  13.768  0.00  0.00     0.081 A 
ATOM     10  C4  ZIN A   1      18.539  -1.011  14.225  0.00  0.00     0.026 A 
ATOM     11  C3  ZIN A   1      18.711  -1.271  15.571  0.00  0.00     0.008 A 
ATOM     12  C2  ZIN A   1      18.879  -0.226  16.461  0.00  0.00    -0.062 A 
ATOM     13  C1  ZIN A   1      19.065  -0.509  17.930  0.00  0.00     0.048 C 
ATOM     14  C21 ZIN A   1      18.869   1.079  16.004  0.00  0.00     0.008 A 
ATOM     15  C20 ZIN A   1      18.702   1.339  14.657  0.00  0.00     0.026 A 
ENDBRANCH   6   9
ENDBRANCH   1   6
BRANCH   4  16
ATOM     16  N13 ZIN A   1      18.295  -3.227  10.003  0.00  0.00    -0.227 NA
ATOM     17  C19 ZIN A   1      19.256  -3.941   9.132  0.00  0.00     0.113 C 
ATOM     18  C18 ZIN A   1      19.616  -5.304   9.656  0.00  0.00     0.016 C 
ATOM     19  C17 ZIN A   1      18.679  -6.342   9.003  0.00  0.00     0.001 C 
ATOM     20  C16 ZIN A   1      17.360  -6.364   9.624  0.00  0.00     0.001 C 
ATOM     21  C15 ZIN A   1      16.635  -5.007   9.499  0.00  0.00     0.016 C 
ATOM     22  C14 ZIN A   1      17.197  -4.068  10.530  0.00  0.00     0.113 C 
ENDBRANCH   4  16
TORSDOF 3
ENDMDL
