MODEL 1
REMARK VINA RESULT:      -9.2      0.000      0.000
REMARK  11 active torsions:
REMARK  status: ('A' for Active; 'I' for Inactive)
REMARK    1  A    between atoms: O2_2  and  C3_3 
REMARK    2  A    between atoms: C12_12  and  O13_13 
REMARK    3  A    between atoms: C17_17  and  O18_18 
REMARK    4  A    between atoms: C17_17  and  C19_19 
REMARK    5  A    between atoms: C19_19  and  C21_21 
REMARK    6  A    between atoms: C21_21  and  O22_22 
REMARK    7  A    between atoms: C24_24  and  O26_25 
REMARK    8  A    between atoms: O26_25  and  C27_26 
REMARK    9  A    between atoms: C30_28  and  N32_29 
REMARK   10  A    between atoms: C36_33  and  O38_34 
REMARK   11  A    between atoms: C43_38  and  O44_39 
ROOT
ATOM      1  C3  ZIN A   1      17.434   3.501  12.309  0.00  0.00     0.083 A 
ATOM      2  C4  ZIN A   1      17.589   4.244  13.476  0.00  0.00     0.038 A 
ATOM      3  C5  ZIN A   1      18.336   3.751  14.525  0.00  0.00     0.004 A 
ATOM      4  C6  ZIN A   1      18.943   2.508  14.434  0.00  0.00     0.017 A 
ATOM      5  C7  ZIN A   1      18.800   1.748  13.279  0.00  0.00     0.032 A 
ATOM      6  C8  ZIN A   1      18.035   2.244  12.208  0.00  0.00     0.062 A 
ATOM      7  C9  ZIN A   1      17.883   1.436  10.981  0.00  0.00     0.200 C 
ATOM      8  O10 ZIN A   1      17.446   1.938   9.963  0.00  0.00    -0.286 OA
ATOM      9  C11 ZIN A   1      18.268   0.012  11.006  0.00  0.00     0.066 A 
ATOM     10  C12 ZIN A   1      17.880  -0.850   9.984  0.00  0.00     0.090 A 
ATOM     11  C14 ZIN A   1      18.253  -2.202  10.016  0.00  0.00     0.014 A 
ATOM     12  C15 ZIN A   1      19.004  -2.685  11.057  0.00  0.00    -0.009 A 
ATOM     13  C16 ZIN A   1      19.441  -4.124  11.142  0.00  0.00     0.088 C 
ATOM     14  C17 ZIN A   1      18.599  -4.999  10.215  0.00  0.00     0.127 C 
ATOM     15  C23 ZIN A   1      18.602  -4.363   8.819  0.00  0.00     0.083 C 
ATOM     16  C24 ZIN A   1      17.788  -3.073   8.877  0.00  0.00     0.164 C 
ATOM     17  C43 ZIN A   1      19.400  -1.830  12.094  0.00  0.00     0.088 A 
ATOM     18  C45 ZIN A   1      19.037  -0.486  12.078  0.00  0.00     0.066 A 
ATOM     19  C46 ZIN A   1      19.441   0.419  13.169  0.00  0.00     0.197 C 
ATOM     20  O47 ZIN A   1      20.294   0.080  13.966  0.00  0.00    -0.286 OA
ENDROOT
BRANCH  16  21
ATOM     21  O26 ZIN A   1      17.944  -2.362   7.647  0.00  0.00    -0.351 OA
BRANCH  21  22
ATOM     22  C27 ZIN A   1      19.292  -2.304   7.176  0.00  0.00     0.263 C 
ATOM     23  O42 ZIN A   1      19.617  -0.956   6.828  0.00  0.00    -0.354 OA
ATOM     24  C39 ZIN A   1      18.771  -0.395   5.821  0.00  0.00     0.151 C 
ATOM     25  C36 ZIN A   1      18.899  -1.212   4.533  0.00  0.00     0.177 C 
ATOM     26  C41 ZIN A   1      19.192   1.051   5.551  0.00  0.00     0.042 C 
ATOM     27  C30 ZIN A   1      18.533  -2.670   4.826  0.00  0.00     0.219 C 
ATOM     28  C29 ZIN A   1      19.440  -3.199   5.942  0.00  0.00     0.096 C 
BRANCH  25  29
ATOM     29  O38 ZIN A   1      18.012  -0.687   3.543  0.00  0.00    -0.391 OA
ATOM     30  H65 ZIN A   1      17.103  -1.006   3.622  0.00  0.00     0.210 HD
ENDBRANCH  25  29
BRANCH  27  31
ATOM     31  N32 ZIN A   1      18.723  -3.479   3.615  0.00  0.00    -0.072 N 
ATOM     32  H33 ZIN A   1      18.210  -3.065   2.850  0.00  0.00     0.274 HD
ATOM     33  H34 ZIN A   1      19.705  -3.512   3.382  0.00  0.00     0.274 HD
ATOM     34  H35 ZIN A   1      18.385  -4.416   3.779  0.00  0.00     0.274 HD
ENDBRANCH  27  31
ENDBRANCH  21  22
ENDBRANCH  16  21
BRANCH  10  35
ATOM     35  O13 ZIN A   1      17.138  -0.379   8.951  0.00  0.00    -0.359 OA
ATOM     36  H54 ZIN A   1      16.406   0.191   9.221  0.00  0.00     0.217 HD
ENDBRANCH  10  35
BRANCH  14  37
ATOM     37  O18 ZIN A   1      19.162  -6.310  10.149  0.00  0.00    -0.382 OA
ATOM     38  H57 ZIN A   1      18.897  -6.813   9.367  0.00  0.00     0.211 HD
ENDBRANCH  14  37
BRANCH  14  39
ATOM     39  C19 ZIN A   1      17.187  -5.077  10.736  0.00  0.00     0.184 C 
ATOM     40  O20 ZIN A   1      16.259  -5.090   9.964  0.00  0.00    -0.292 OA
BRANCH  39  41
ATOM     41  C21 ZIN A   1      16.934  -5.139  12.220  0.00  0.00     0.245 C 
BRANCH  41  42
ATOM     42  O22 ZIN A   1      17.413  -6.384  12.734  0.00  0.00    -0.393 OA
ATOM     43  H60 ZIN A   1      18.241  -6.681  12.334  0.00  0.00     0.209 HD
ENDBRANCH  41  42
ENDBRANCH  39  41
ENDBRANCH  14  39
BRANCH  17  44
ATOM     44  O44 ZIN A   1      20.141  -2.315  13.121  0.00  0.00    -0.359 OA
ATOM     45  H69 ZIN A   1      20.970  -1.840  13.266  0.00  0.00     0.217 HD
ENDBRANCH  17  44
BRANCH   1  46
ATOM     46  O2  ZIN A   1      16.699   3.991  11.280  0.00  0.00    -0.355 OA
ATOM     47  C1  ZIN A   1      17.075   5.270  10.766  0.00  0.00     0.210 C 
ENDBRANCH   1  46
TORSDOF 11
ENDMDL
MODEL 2
REMARK VINA RESULT:      -7.4      1.543      2.174
REMARK  11 active torsions:
REMARK  status: ('A' for Active; 'I' for Inactive)
REMARK    1  A    between atoms: O2_2  and  C3_3 
REMARK    2  A    between atoms: C12_12  and  O13_13 
REMARK    3  A    between atoms: C17_17  and  O18_18 
REMARK    4  A    between atoms: C17_17  and  C19_19 
REMARK    5  A    between atoms: C19_19  and  C21_21 
REMARK    6  A    between atoms: C21_21  and  O22_22 
REMARK    7  A    between atoms: C24_24  and  O26_25 
REMARK    8  A    between atoms: O26_25  and  C27_26 
REMARK    9  A    between atoms: C30_28  and  N32_29 
REMARK   10  A    between atoms: C36_33  and  O38_34 
REMARK   11  A    between atoms: C43_38  and  O44_39 
ROOT
ATOM      1  C3  ZIN A   1      17.422   4.268  13.883  0.00  0.00     0.083 A 
ATOM      2  C4  ZIN A   1      17.391   4.811  15.164  0.00  0.00     0.038 A 
ATOM      3  C5  ZIN A   1      17.968   4.140  16.222  0.00  0.00     0.004 A 
ATOM      4  C6  ZIN A   1      18.586   2.914  16.026  0.00  0.00     0.017 A 
ATOM      5  C7  ZIN A   1      18.626   2.353  14.755  0.00  0.00     0.032 A 
ATOM      6  C8  ZIN A   1      18.035   3.030  13.673  0.00  0.00     0.062 A 
ATOM      7  C9  ZIN A   1      18.078   2.432  12.323  0.00  0.00     0.200 C 
ATOM      8  O10 ZIN A   1      17.803   3.100  11.345  0.00  0.00    -0.286 OA
ATOM      9  C11 ZIN A   1      18.458   1.015  12.177  0.00  0.00     0.066 A 
ATOM     10  C12 ZIN A   1      18.236   0.336  10.982  0.00  0.00     0.090 A 
ATOM     11  C14 ZIN A   1      18.603  -1.011  10.852  0.00  0.00     0.014 A 
ATOM     12  C15 ZIN A   1      19.185  -1.671  11.904  0.00  0.00    -0.009 A 
ATOM     13  C16 ZIN A   1      19.609  -3.115  11.822  0.00  0.00     0.088 C 
ATOM     14  C17 ZIN A   1      18.923  -3.811  10.648  0.00  0.00     0.127 C 
ATOM     15  C23 ZIN A   1      19.141  -2.961   9.390  0.00  0.00     0.083 C 
ATOM     16  C24 ZIN A   1      18.324  -1.679   9.530  0.00  0.00     0.164 C 
ATOM     17  C43 ZIN A   1      19.413  -1.002  13.115  0.00  0.00     0.088 A 
ATOM     18  C45 ZIN A   1      19.053   0.335  13.260  0.00  0.00     0.066 A 
ATOM     19  C46 ZIN A   1      19.281   1.045  14.532  0.00  0.00     0.197 C 
ATOM     20  O47 ZIN A   1      20.000   0.563  15.385  0.00  0.00    -0.286 OA
ENDROOT
BRANCH  16  21
ATOM     21  O26 ZIN A   1      18.666  -0.784   8.470  0.00  0.00    -0.351 OA
BRANCH  21  22
ATOM     22  C27 ZIN A   1      17.589  -0.510   7.570  0.00  0.00     0.263 C 
ATOM     23  O42 ZIN A   1      17.269  -1.694   6.835  0.00  0.00    -0.354 OA
ATOM     24  C39 ZIN A   1      18.360  -2.219   6.074  0.00  0.00     0.151 C 
ATOM     25  C36 ZIN A   1      18.807  -1.181   5.042  0.00  0.00     0.177 C 
ATOM     26  C41 ZIN A   1      17.912  -3.494   5.356  0.00  0.00     0.042 C 
ATOM     27  C30 ZIN A   1      19.196   0.111   5.765  0.00  0.00     0.219 C 
ATOM     28  C29 ZIN A   1      18.006   0.596   6.598  0.00  0.00     0.096 C 
BRANCH  25  29
ATOM     29  O38 ZIN A   1      19.932  -1.681   4.317  0.00  0.00    -0.391 OA
ATOM     30  H65 ZIN A   1      20.589  -1.006   4.098  0.00  0.00     0.210 HD
ENDBRANCH  25  29
BRANCH  27  31
ATOM     31  N32 ZIN A   1      19.556   1.139   4.779  0.00  0.00    -0.072 N 
ATOM     32  H33 ZIN A   1      20.103   1.859   5.228  0.00  0.00     0.274 HD
ATOM     33  H34 ZIN A   1      20.097   0.719   4.037  0.00  0.00     0.274 HD
ATOM     34  H35 ZIN A   1      18.716   1.545   4.394  0.00  0.00     0.274 HD
ENDBRANCH  27  31
ENDBRANCH  21  22
ENDBRANCH  16  21
BRANCH  10  35
ATOM     35  O13 ZIN A   1      17.662   0.982   9.938  0.00  0.00    -0.359 OA
ATOM     36  H54 ZIN A   1      16.793   1.356  10.136  0.00  0.00     0.217 HD
ENDBRANCH  10  35
BRANCH  14  37
ATOM     37  O18 ZIN A   1      19.493  -5.108  10.458  0.00  0.00    -0.382 OA
ATOM     38  H57 ZIN A   1      19.357  -5.710  11.202  0.00  0.00     0.211 HD
ENDBRANCH  14  37
BRANCH  14  39
ATOM     39  C19 ZIN A   1      17.448  -3.941  10.926  0.00  0.00     0.184 C 
ATOM     40  O20 ZIN A   1      16.978  -3.466  11.933  0.00  0.00    -0.292 OA
BRANCH  39  41
ATOM     41  C21 ZIN A   1      16.558  -4.663   9.948  0.00  0.00     0.245 C 
BRANCH  41  42
ATOM     42  O22 ZIN A   1      16.834  -6.064   9.997  0.00  0.00    -0.393 OA
ATOM     43  H60 ZIN A   1      17.777  -6.280   9.978  0.00  0.00     0.209 HD
ENDBRANCH  41  42
ENDBRANCH  39  41
ENDBRANCH  14  39
BRANCH  17  44
ATOM     44  O44 ZIN A   1      19.987  -1.662  14.152  0.00  0.00    -0.359 OA
ATOM     45  H69 ZIN A   1      19.827  -1.254  15.013  0.00  0.00     0.217 HD
ENDBRANCH  17  44
BRANCH   1  46
ATOM     46  O2  ZIN A   1      16.854   4.932  12.846  0.00  0.00    -0.355 OA
ATOM     47  C1  ZIN A   1      16.642   6.336  13.013  0.00  0.00     0.210 C 
ENDBRANCH   1  46
TORSDOF 11
ENDMDL
MODEL 3
REMARK VINA RESULT:      -7.4      4.201      9.475
REMARK  11 active torsions:
REMARK  status: ('A' for Active; 'I' for Inactive)
REMARK    1  A    between atoms: O2_2  and  C3_3 
REMARK    2  A    between atoms: C12_12  and  O13_13 
REMARK    3  A    between atoms: C17_17  and  O18_18 
REMARK    4  A    between atoms: C17_17  and  C19_19 
REMARK    5  A    between atoms: C19_19  and  C21_21 
REMARK    6  A    between atoms: C21_21  and  O22_22 
REMARK    7  A    between atoms: C24_24  and  O26_25 
REMARK    8  A    between atoms: O26_25  and  C27_26 
REMARK    9  A    between atoms: C30_28  and  N32_29 
REMARK   10  A    between atoms: C36_33  and  O38_34 
REMARK   11  A    between atoms: C43_38  and  O44_39 
ROOT
ATOM      1  C3  ZIN A   1      14.076  -9.000   6.522  0.00  0.00     0.083 A 
ATOM      2  C4  ZIN A   1      13.452  -9.921   5.686  0.00  0.00     0.038 A 
ATOM      3  C5  ZIN A   1      13.828 -10.032   4.364  0.00  0.00     0.004 A 
ATOM      4  C6  ZIN A   1      14.832  -9.229   3.847  0.00  0.00     0.017 A 
ATOM      5  C7  ZIN A   1      15.467  -8.300   4.663  0.00  0.00     0.032 A 
ATOM      6  C8  ZIN A   1      15.084  -8.178   6.012  0.00  0.00     0.062 A 
ATOM      7  C9  ZIN A   1      15.760  -7.191   6.878  0.00  0.00     0.200 C 
ATOM      8  O10 ZIN A   1      15.627  -7.239   8.086  0.00  0.00    -0.286 OA
ATOM      9  C11 ZIN A   1      16.599  -6.147   6.260  0.00  0.00     0.066 A 
ATOM     10  C12 ZIN A   1      17.013  -5.038   6.992  0.00  0.00     0.090 A 
ATOM     11  C14 ZIN A   1      17.812  -4.052   6.396  0.00  0.00     0.014 A 
ATOM     12  C15 ZIN A   1      18.191  -4.173   5.083  0.00  0.00    -0.009 A 
ATOM     13  C16 ZIN A   1      19.054  -3.150   4.390  0.00  0.00     0.088 C 
ATOM     14  C17 ZIN A   1      19.056  -1.834   5.165  0.00  0.00     0.127 C 
ATOM     15  C23 ZIN A   1      19.395  -2.137   6.630  0.00  0.00     0.083 C 
ATOM     16  C24 ZIN A   1      18.214  -2.878   7.252  0.00  0.00     0.164 C 
ATOM     17  C43 ZIN A   1      17.779  -5.282   4.332  0.00  0.00     0.088 A 
ATOM     18  C45 ZIN A   1      16.985  -6.269   4.909  0.00  0.00     0.066 A 
ATOM     19  C46 ZIN A   1      16.539  -7.435   4.124  0.00  0.00     0.197 C 
ATOM     20  O47 ZIN A   1      17.049  -7.685   3.049  0.00  0.00    -0.286 OA
ENDROOT
BRANCH  16  21
ATOM     21  O26 ZIN A   1      18.584  -3.348   8.550  0.00  0.00    -0.351 OA
BRANCH  21  22
ATOM     22  C27 ZIN A   1      17.882  -2.712   9.620  0.00  0.00     0.263 C 
ATOM     23  O42 ZIN A   1      18.009  -1.293   9.497  0.00  0.00    -0.354 OA
ATOM     24  C39 ZIN A   1      19.360  -0.826   9.514  0.00  0.00     0.151 C 
ATOM     25  C36 ZIN A   1      20.012  -1.201  10.848  0.00  0.00     0.177 C 
ATOM     26  C41 ZIN A   1      19.376   0.695   9.348  0.00  0.00     0.042 C 
ATOM     27  C30 ZIN A   1      19.938  -2.719  11.034  0.00  0.00     0.219 C 
ATOM     28  C29 ZIN A   1      18.474  -3.162  10.958  0.00  0.00     0.096 C 
BRANCH  25  29
ATOM     29  O38 ZIN A   1      21.378  -0.785  10.847  0.00  0.00    -0.391 OA
ATOM     30  H65 ZIN A   1      21.649  -0.326  10.040  0.00  0.00     0.210 HD
ENDBRANCH  25  29
BRANCH  27  31
ATOM     31  N32 ZIN A   1      20.493  -3.083  12.345  0.00  0.00    -0.072 N 
ATOM     32  H33 ZIN A   1      20.282  -4.050  12.543  0.00  0.00     0.274 HD
ATOM     33  H34 ZIN A   1      21.494  -2.953  12.334  0.00  0.00     0.274 HD
ATOM     34  H35 ZIN A   1      20.086  -2.496  13.058  0.00  0.00     0.274 HD
ENDBRANCH  27  31
ENDBRANCH  21  22
ENDBRANCH  16  21
BRANCH  10  35
ATOM     35  O13 ZIN A   1      16.643  -4.913   8.291  0.00  0.00    -0.359 OA
ATOM     36  H54 ZIN A   1      16.164  -5.676   8.639  0.00  0.00     0.217 HD
ENDBRANCH  10  35
BRANCH  14  37
ATOM     37  O18 ZIN A   1      20.038  -0.954   4.615  0.00  0.00    -0.382 OA
ATOM     38  H57 ZIN A   1      19.751  -0.033   4.554  0.00  0.00     0.211 HD
ENDBRANCH  14  37
BRANCH  14  39
ATOM     39  C19 ZIN A   1      17.695  -1.192   5.079  0.00  0.00     0.184 C 
ATOM     40  O20 ZIN A   1      16.908  -1.554   4.237  0.00  0.00    -0.292 OA
BRANCH  39  41
ATOM     41  C21 ZIN A   1      17.316  -0.099   6.044  0.00  0.00     0.245 C 
BRANCH  41  42
ATOM     42  O22 ZIN A   1      18.263   0.967   5.952  0.00  0.00    -0.393 OA
ATOM     43  H60 ZIN A   1      17.862   1.841   5.851  0.00  0.00     0.209 HD
ENDBRANCH  41  42
ENDBRANCH  39  41
ENDBRANCH  14  39
BRANCH  17  44
ATOM     44  O44 ZIN A   1      18.155  -5.393   3.034  0.00  0.00    -0.359 OA
ATOM     45  H69 ZIN A   1      18.357  -6.298   2.759  0.00  0.00     0.217 HD
ENDBRANCH  17  44
BRANCH   1  46
ATOM     46  O2  ZIN A   1      13.703  -8.894   7.822  0.00  0.00    -0.355 OA
ATOM     47  C1  ZIN A   1      12.320  -8.649   8.082  0.00  0.00     0.210 C 
ENDBRANCH   1  46
TORSDOF 11
ENDMDL
MODEL 4
REMARK VINA RESULT:      -6.4      2.412      5.128
REMARK  11 active torsions:
REMARK  status: ('A' for Active; 'I' for Inactive)
REMARK    1  A    between atoms: O2_2  and  C3_3 
REMARK    2  A    between atoms: C12_12  and  O13_13 
REMARK    3  A    between atoms: C17_17  and  O18_18 
REMARK    4  A    between atoms: C17_17  and  C19_19 
REMARK    5  A    between atoms: C19_19  and  C21_21 
REMARK    6  A    between atoms: C21_21  and  O22_22 
REMARK    7  A    between atoms: C24_24  and  O26_25 
REMARK    8  A    between atoms: O26_25  and  C27_26 
REMARK    9  A    between atoms: C30_28  and  N32_29 
REMARK   10  A    between atoms: C36_33  and  O38_34 
REMARK   11  A    between atoms: C43_38  and  O44_39 
ROOT
ATOM      1  C3  ZIN A   1      18.973   0.954  16.900  0.00  0.00     0.083 A 
ATOM      2  C4  ZIN A   1      19.266   2.054  17.702  0.00  0.00     0.038 A 
ATOM      3  C5  ZIN A   1      19.110   3.335  17.217  0.00  0.00     0.004 A 
ATOM      4  C6  ZIN A   1      18.659   3.548  15.923  0.00  0.00     0.017 A 
ATOM      5  C7  ZIN A   1      18.362   2.465  15.105  0.00  0.00     0.032 A 
ATOM      6  C8  ZIN A   1      18.525   1.156  15.592  0.00  0.00     0.062 A 
ATOM      7  C9  ZIN A   1      18.209   0.005  14.721  0.00  0.00     0.200 C 
ATOM      8  O10 ZIN A   1      18.101  -1.111  15.191  0.00  0.00    -0.286 OA
ATOM      9  C11 ZIN A   1      18.026   0.228  13.275  0.00  0.00     0.066 A 
ATOM     10  C12 ZIN A   1      18.017  -0.841  12.383  0.00  0.00     0.090 A 
ATOM     11  C14 ZIN A   1      17.840  -0.619  11.010  0.00  0.00     0.014 A 
ATOM     12  C15 ZIN A   1      17.675   0.656  10.534  0.00  0.00    -0.009 A 
ATOM     13  C16 ZIN A   1      17.473   0.957   9.071  0.00  0.00     0.088 C 
ATOM     14  C17 ZIN A   1      17.913  -0.227   8.213  0.00  0.00     0.127 C 
ATOM     15  C23 ZIN A   1      17.233  -1.492   8.753  0.00  0.00     0.083 C 
ATOM     16  C24 ZIN A   1      17.849  -1.827  10.108  0.00  0.00     0.164 C 
ATOM     17  C43 ZIN A   1      17.685   1.744  11.419  0.00  0.00     0.088 A 
ATOM     18  C45 ZIN A   1      17.860   1.540  12.785  0.00  0.00     0.066 A 
ATOM     19  C46 ZIN A   1      17.881   2.678  13.722  0.00  0.00     0.197 C 
ATOM     20  O47 ZIN A   1      17.504   3.777  13.364  0.00  0.00    -0.286 OA
ENDROOT
BRANCH  16  21
ATOM     21  O26 ZIN A   1      17.098  -2.877  10.721  0.00  0.00    -0.351 OA
BRANCH  21  22
ATOM     22  C27 ZIN A   1      17.807  -4.114  10.825  0.00  0.00     0.263 C 
ATOM     23  O42 ZIN A   1      18.796  -4.184   9.796  0.00  0.00    -0.354 OA
ATOM     24  C39 ZIN A   1      18.267  -4.086   8.471  0.00  0.00     0.151 C 
ATOM     25  C36 ZIN A   1      17.305  -5.249   8.219  0.00  0.00     0.177 C 
ATOM     26  C41 ZIN A   1      19.413  -4.144   7.459  0.00  0.00     0.042 C 
ATOM     27  C30 ZIN A   1      16.194  -5.219   9.273  0.00  0.00     0.219 C 
ATOM     28  C29 ZIN A   1      16.825  -5.278  10.667  0.00  0.00     0.096 C 
BRANCH  25  29
ATOM     29  O38 ZIN A   1      16.731  -5.123   6.917  0.00  0.00    -0.391 OA
ATOM     30  H65 ZIN A   1      17.316  -4.706   6.269  0.00  0.00     0.210 HD
ENDBRANCH  25  29
BRANCH  27  31
ATOM     31  N32 ZIN A   1      15.305  -6.374   9.086  0.00  0.00    -0.072 N 
ATOM     32  H33 ZIN A   1      15.172  -6.539   8.099  0.00  0.00     0.274 HD
ATOM     33  H34 ZIN A   1      15.721  -7.190   9.510  0.00  0.00     0.274 HD
ATOM     34  H35 ZIN A   1      14.414  -6.186   9.520  0.00  0.00     0.274 HD
ENDBRANCH  27  31
ENDBRANCH  21  22
ENDBRANCH  16  21
BRANCH  10  35
ATOM     35  O13 ZIN A   1      18.179  -2.105  12.847  0.00  0.00    -0.359 OA
ATOM     36  H54 ZIN A   1      19.101  -2.384  12.915  0.00  0.00     0.217 HD
ENDBRANCH  10  35
BRANCH  14  37
ATOM     37  O18 ZIN A   1      17.519  -0.011   6.856  0.00  0.00    -0.382 OA
ATOM     38  H57 ZIN A   1      18.193   0.422   6.316  0.00  0.00     0.211 HD
ENDBRANCH  14  37
BRANCH  14  39
ATOM     39  C19 ZIN A   1      19.410  -0.382   8.289  0.00  0.00     0.184 C 
ATOM     40  O20 ZIN A   1      19.958  -1.264   7.672  0.00  0.00    -0.292 OA
BRANCH  39  41
ATOM     41  C21 ZIN A   1      20.222   0.563   9.136  0.00  0.00     0.245 C 
BRANCH  41  42
ATOM     42  O22 ZIN A   1      21.099  -0.187   9.980  0.00  0.00    -0.393 OA
ATOM     43  H60 ZIN A   1      21.877   0.305  10.274  0.00  0.00     0.209 HD
ENDBRANCH  41  42
ENDBRANCH  39  41
ENDBRANCH  14  39
BRANCH  17  44
ATOM     44  O44 ZIN A   1      17.523   3.003  10.940  0.00  0.00    -0.359 OA
ATOM     45  H69 ZIN A   1      17.093   3.607  11.561  0.00  0.00     0.217 HD
ENDBRANCH  17  44
BRANCH   1  46
ATOM     46  O2  ZIN A   1      19.128  -0.303  17.382  0.00  0.00    -0.355 OA
ATOM     47  C1  ZIN A   1      18.875  -0.500  18.775  0.00  0.00     0.210 C 
ENDBRANCH   1  46
TORSDOF 11
ENDMDL
MODEL 5
REMARK VINA RESULT:      -6.4      1.776      2.631
REMARK  11 active torsions:
REMARK  status: ('A' for Active; 'I' for Inactive)
REMARK    1  A    between atoms: O2_2  and  C3_3 
REMARK    2  A    between atoms: C12_12  and  O13_13 
REMARK    3  A    between atoms: C17_17  and  O18_18 
REMARK    4  A    between atoms: C17_17  and  C19_19 
REMARK    5  A    between atoms: C19_19  and  C21_21 
REMARK    6  A    between atoms: C21_21  and  O22_22 
REMARK    7  A    between atoms: C24_24  and  O26_25 
REMARK    8  A    between atoms: O26_25  and  C27_26 
REMARK    9  A    between atoms: C30_28  and  N32_29 
REMARK   10  A    between atoms: C36_33  and  O38_34 
REMARK   11  A    between atoms: C43_38  and  O44_39 
ROOT
ATOM      1  C3  ZIN A   1      18.072   1.480  12.060  0.00  0.00     0.083 A 
ATOM      2  C4  ZIN A   1      17.717   1.893  13.341  0.00  0.00     0.038 A 
ATOM      3  C5  ZIN A   1      17.620   0.978  14.369  0.00  0.00     0.004 A 
ATOM      4  C6  ZIN A   1      17.872  -0.366  14.142  0.00  0.00     0.017 A 
ATOM      5  C7  ZIN A   1      18.226  -0.801  12.870  0.00  0.00     0.032 A 
ATOM      6  C8  ZIN A   1      18.322   0.127  11.817  0.00  0.00     0.062 A 
ATOM      7  C9  ZIN A   1      18.698  -0.336  10.466  0.00  0.00     0.200 C 
ATOM      8  O10 ZIN A   1      19.028   0.463   9.611  0.00  0.00    -0.286 OA
ATOM      9  C11 ZIN A   1      18.668  -1.780  10.166  0.00  0.00     0.066 A 
ATOM     10  C12 ZIN A   1      18.728  -2.238   8.853  0.00  0.00     0.090 A 
ATOM     11  C14 ZIN A   1      18.701  -3.613   8.579  0.00  0.00     0.014 A 
ATOM     12  C15 ZIN A   1      18.613  -4.518   9.605  0.00  0.00    -0.009 A 
ATOM     13  C16 ZIN A   1      18.588  -6.007   9.374  0.00  0.00     0.088 C 
ATOM     14  C17 ZIN A   1      18.230  -6.321   7.923  0.00  0.00     0.127 C 
ATOM     15  C23 ZIN A   1      19.152  -5.502   7.011  0.00  0.00     0.083 C 
ATOM     16  C24 ZIN A   1      18.763  -4.031   7.132  0.00  0.00     0.164 C 
ATOM     17  C43 ZIN A   1      18.549  -4.073  10.933  0.00  0.00     0.088 A 
ATOM     18  C45 ZIN A   1      18.574  -2.711  11.222  0.00  0.00     0.066 A 
ATOM     19  C46 ZIN A   1      18.498  -2.232  12.613  0.00  0.00     0.197 C 
ATOM     20  O47 ZIN A   1      18.659  -3.003  13.539  0.00  0.00    -0.286 OA
ENDROOT
BRANCH  16  21
ATOM     21  O26 ZIN A   1      19.732  -3.229   6.453  0.00  0.00    -0.351 OA
BRANCH  21  22
ATOM     22  C27 ZIN A   1      19.698  -3.358   5.030  0.00  0.00     0.263 C 
ATOM     23  O42 ZIN A   1      19.733  -2.059   4.433  0.00  0.00    -0.354 OA
ATOM     24  C39 ZIN A   1      18.653  -1.209   4.827  0.00  0.00     0.151 C 
ATOM     25  C36 ZIN A   1      17.325  -1.841   4.402  0.00  0.00     0.177 C 
ATOM     26  C41 ZIN A   1      18.807   0.156   4.153  0.00  0.00     0.042 C 
ATOM     27  C30 ZIN A   1      17.206  -3.231   5.033  0.00  0.00     0.219 C 
ATOM     28  C29 ZIN A   1      18.412  -4.076   4.613  0.00  0.00     0.096 C 
BRANCH  25  29
ATOM     29  O38 ZIN A   1      16.242  -1.021   4.843  0.00  0.00    -0.391 OA
ATOM     30  H65 ZIN A   1      16.519  -0.205   5.282  0.00  0.00     0.210 HD
ENDBRANCH  25  29
BRANCH  27  31
ATOM     31  N32 ZIN A   1      15.969  -3.877   4.572  0.00  0.00    -0.072 N 
ATOM     32  H33 ZIN A   1      15.350  -4.017   5.358  0.00  0.00     0.274 HD
ATOM     33  H34 ZIN A   1      15.517  -3.289   3.888  0.00  0.00     0.274 HD
ATOM     34  H35 ZIN A   1      16.191  -4.769   4.156  0.00  0.00     0.274 HD
ENDBRANCH  27  31
ENDBRANCH  21  22
ENDBRANCH  16  21
BRANCH  10  35
ATOM     35  O13 ZIN A   1      18.816  -1.349   7.833  0.00  0.00    -0.359 OA
ATOM     36  H54 ZIN A   1      18.906  -1.757   6.962  0.00  0.00     0.217 HD
ENDBRANCH  10  35
BRANCH  14  37
ATOM     37  O18 ZIN A   1      18.418  -7.715   7.671  0.00  0.00    -0.382 OA
ATOM     38  H57 ZIN A   1      17.597  -8.201   7.517  0.00  0.00     0.211 HD
ENDBRANCH  14  37
BRANCH  14  39
ATOM     39  C19 ZIN A   1      16.794  -5.947   7.662  0.00  0.00     0.184 C 
ATOM     40  O20 ZIN A   1      16.392  -5.843   6.528  0.00  0.00    -0.292 OA
BRANCH  39  41
ATOM     41  C21 ZIN A   1      15.858  -5.700   8.818  0.00  0.00     0.245 C 
BRANCH  41  42
ATOM     42  O22 ZIN A   1      14.557  -5.382   8.318  0.00  0.00    -0.393 OA
ATOM     43  H60 ZIN A   1      14.137  -6.104   7.831  0.00  0.00     0.209 HD
ENDBRANCH  41  42
ENDBRANCH  39  41
ENDBRANCH  14  39
BRANCH  17  44
ATOM     44  O44 ZIN A   1      18.460  -4.974  11.943  0.00  0.00    -0.359 OA
ATOM     45  H69 ZIN A   1      19.026  -5.749  11.828  0.00  0.00     0.217 HD
ENDBRANCH  17  44
BRANCH   1  46
ATOM     46  O2  ZIN A   1      18.167   2.383  11.054  0.00  0.00    -0.355 OA
ATOM     47  C1  ZIN A   1      18.899   3.580  11.323  0.00  0.00     0.210 C 
ENDBRANCH   1  46
TORSDOF 11
ENDMDL
MODEL 6
REMARK VINA RESULT:      -6.4      4.990      8.549
REMARK  11 active torsions:
REMARK  status: ('A' for Active; 'I' for Inactive)
REMARK    1  A    between atoms: O2_2  and  C3_3 
REMARK    2  A    between atoms: C12_12  and  O13_13 
REMARK    3  A    between atoms: C17_17  and  O18_18 
REMARK    4  A    between atoms: C17_17  and  C19_19 
REMARK    5  A    between atoms: C19_19  and  C21_21 
REMARK    6  A    between atoms: C21_21  and  O22_22 
REMARK    7  A    between atoms: C24_24  and  O26_25 
REMARK    8  A    between atoms: O26_25  and  C27_26 
REMARK    9  A    between atoms: C30_28  and  N32_29 
REMARK   10  A    between atoms: C36_33  and  O38_34 
REMARK   11  A    between atoms: C43_38  and  O44_39 
ROOT
ATOM      1  C3  ZIN A   1      14.759   8.705  16.902  0.00  0.00     0.083 A 
ATOM      2  C4  ZIN A   1      14.207   9.615  17.799  0.00  0.00     0.038 A 
ATOM      3  C5  ZIN A   1      14.575   9.599  19.128  0.00  0.00     0.004 A 
ATOM      4  C6  ZIN A   1      15.499   8.676  19.592  0.00  0.00     0.017 A 
ATOM      5  C7  ZIN A   1      16.062   7.756  18.715  0.00  0.00     0.032 A 
ATOM      6  C8  ZIN A   1      15.687   7.764  17.359  0.00  0.00     0.062 A 
ATOM      7  C9  ZIN A   1      16.285   6.787  16.428  0.00  0.00     0.200 C 
ATOM      8  O10 ZIN A   1      16.172   6.932  15.226  0.00  0.00    -0.286 OA
ATOM      9  C11 ZIN A   1      17.023   5.632  16.974  0.00  0.00     0.066 A 
ATOM     10  C12 ZIN A   1      17.349   4.546  16.167  0.00  0.00     0.090 A 
ATOM     11  C14 ZIN A   1      18.052   3.454  16.695  0.00  0.00     0.014 A 
ATOM     12  C15 ZIN A   1      18.424   3.448  18.015  0.00  0.00    -0.009 A 
ATOM     13  C16 ZIN A   1      19.187   2.307  18.638  0.00  0.00     0.088 C 
ATOM     14  C17 ZIN A   1      19.085   1.054  17.771  0.00  0.00     0.127 C 
ATOM     15  C23 ZIN A   1      19.467   1.430  16.334  0.00  0.00     0.083 C 
ATOM     16  C24 ZIN A   1      18.362   2.314  15.760  0.00  0.00     0.164 C 
ATOM     17  C43 ZIN A   1      18.100   4.532  18.842  0.00  0.00     0.088 A 
ATOM     18  C45 ZIN A   1      17.401   5.623  18.333  0.00  0.00     0.066 A 
ATOM     19  C46 ZIN A   1      17.049   6.765  19.197  0.00  0.00     0.197 C 
ATOM     20  O47 ZIN A   1      17.565   6.892  20.290  0.00  0.00    -0.286 OA
ENDROOT
BRANCH  16  21
ATOM     21  O26 ZIN A   1      18.787   2.841  14.501  0.00  0.00    -0.351 OA
BRANCH  21  22
ATOM     22  C27 ZIN A   1      18.052   2.338  13.383  0.00  0.00     0.263 C 
ATOM     23  O42 ZIN A   1      18.117   0.910  13.373  0.00  0.00    -0.354 OA
ATOM     24  C39 ZIN A   1      19.446   0.388  13.301  0.00  0.00     0.151 C 
ATOM     25  C36 ZIN A   1      20.108   0.855  12.002  0.00  0.00     0.177 C 
ATOM     26  C41 ZIN A   1      19.395  -1.141  13.326  0.00  0.00     0.042 C 
ATOM     27  C30 ZIN A   1      20.101   2.386  11.958  0.00  0.00     0.219 C 
ATOM     28  C29 ZIN A   1      18.658   2.884  12.087  0.00  0.00     0.096 C 
BRANCH  25  29
ATOM     29  O38 ZIN A   1      21.455   0.382  11.954  0.00  0.00    -0.391 OA
ATOM     30  H65 ZIN A   1      22.068   0.885  12.507  0.00  0.00     0.210 HD
ENDBRANCH  25  29
BRANCH  27  31
ATOM     31  N32 ZIN A   1      20.667   2.845  10.682  0.00  0.00    -0.072 N 
ATOM     32  H33 ZIN A   1      20.957   3.808  10.770  0.00  0.00     0.274 HD
ATOM     33  H34 ZIN A   1      21.464   2.274  10.442  0.00  0.00     0.274 HD
ATOM     34  H35 ZIN A   1      19.968   2.769   9.958  0.00  0.00     0.274 HD
ENDBRANCH  27  31
ENDBRANCH  21  22
ENDBRANCH  16  21
BRANCH  10  35
ATOM     35  O13 ZIN A   1      16.986   4.546  14.860  0.00  0.00    -0.359 OA
ATOM     36  H54 ZIN A   1      17.578   4.041  14.288  0.00  0.00     0.217 HD
ENDBRANCH  10  35
BRANCH  14  37
ATOM     37  O18 ZIN A   1      19.980   0.055  18.262  0.00  0.00    -0.382 OA
ATOM     38  H57 ZIN A   1      20.748   0.410  18.729  0.00  0.00     0.211 HD
ENDBRANCH  14  37
BRANCH  14  39
ATOM     39  C19 ZIN A   1      17.672   0.529  17.802  0.00  0.00     0.184 C 
ATOM     40  O20 ZIN A   1      16.896   0.933  18.634  0.00  0.00    -0.292 OA
BRANCH  39  41
ATOM     41  C21 ZIN A   1      17.229  -0.499  16.794  0.00  0.00     0.245 C 
BRANCH  41  42
ATOM     42  O22 ZIN A   1      18.155  -1.588  16.786  0.00  0.00    -0.393 OA
ATOM     43  H60 ZIN A   1      17.978  -2.260  17.458  0.00  0.00     0.209 HD
ENDBRANCH  41  42
ENDBRANCH  39  41
ENDBRANCH  14  39
BRANCH  17  44
ATOM     44  O44 ZIN A   1      18.469   4.518  20.147  0.00  0.00    -0.359 OA
ATOM     45  H69 ZIN A   1      19.422   4.435  20.286  0.00  0.00     0.217 HD
ENDBRANCH  17  44
BRANCH   1  46
ATOM     46  O2  ZIN A   1      14.395   8.725  15.597  0.00  0.00    -0.355 OA
ATOM     47  C1  ZIN A   1      12.995   8.768  15.315  0.00  0.00     0.210 C 
ENDBRANCH   1  46
TORSDOF 11
ENDMDL
MODEL 7
REMARK VINA RESULT:      -6.3      3.618      8.296
REMARK  11 active torsions:
REMARK  status: ('A' for Active; 'I' for Inactive)
REMARK    1  A    between atoms: O2_2  and  C3_3 
REMARK    2  A    between atoms: C12_12  and  O13_13 
REMARK    3  A    between atoms: C17_17  and  O18_18 
REMARK    4  A    between atoms: C17_17  and  C19_19 
REMARK    5  A    between atoms: C19_19  and  C21_21 
REMARK    6  A    between atoms: C21_21  and  O22_22 
REMARK    7  A    between atoms: C24_24  and  O26_25 
REMARK    8  A    between atoms: O26_25  and  C27_26 
REMARK    9  A    between atoms: C30_28  and  N32_29 
REMARK   10  A    between atoms: C36_33  and  O38_34 
REMARK   11  A    between atoms: C43_38  and  O44_39 
ROOT
ATOM      1  C3  ZIN A   1      17.179  -7.577   3.222  0.00  0.00     0.083 A 
ATOM      2  C4  ZIN A   1      16.565  -8.749   2.790  0.00  0.00     0.038 A 
ATOM      3  C5  ZIN A   1      15.611  -9.368   3.570  0.00  0.00     0.004 A 
ATOM      4  C6  ZIN A   1      15.248  -8.833   4.796  0.00  0.00     0.017 A 
ATOM      5  C7  ZIN A   1      15.849  -7.664   5.249  0.00  0.00     0.032 A 
ATOM      6  C8  ZIN A   1      16.827  -7.031   4.460  0.00  0.00     0.062 A 
ATOM      7  C9  ZIN A   1      17.465  -5.789   4.941  0.00  0.00     0.200 C 
ATOM      8  O10 ZIN A   1      18.117  -5.098   4.183  0.00  0.00    -0.286 OA
ATOM      9  C11 ZIN A   1      17.302  -5.399   6.354  0.00  0.00     0.066 A 
ATOM     10  C12 ZIN A   1      18.106  -4.414   6.920  0.00  0.00     0.090 A 
ATOM     11  C14 ZIN A   1      17.942  -4.048   8.264  0.00  0.00     0.014 A 
ATOM     12  C15 ZIN A   1      16.985  -4.660   9.032  0.00  0.00    -0.009 A 
ATOM     13  C16 ZIN A   1      16.756  -4.304  10.479  0.00  0.00     0.088 C 
ATOM     14  C17 ZIN A   1      17.960  -3.556  11.047  0.00  0.00     0.127 C 
ATOM     15  C23 ZIN A   1      18.296  -2.396  10.101  0.00  0.00     0.083 C 
ATOM     16  C24 ZIN A   1      18.856  -2.979   8.806  0.00  0.00     0.164 C 
ATOM     17  C43 ZIN A   1      16.168  -5.655   8.478  0.00  0.00     0.088 A 
ATOM     18  C45 ZIN A   1      16.320  -6.031   7.146  0.00  0.00     0.066 A 
ATOM     19  C46 ZIN A   1      15.472  -7.082   6.556  0.00  0.00     0.197 C 
ATOM     20  O47 ZIN A   1      14.474  -7.465   7.134  0.00  0.00    -0.286 OA
ENDROOT
BRANCH  16  21
ATOM     21  O26 ZIN A   1      18.987  -1.937   7.837  0.00  0.00    -0.351 OA
BRANCH  21  22
ATOM     22  C27 ZIN A   1      17.792  -1.180   7.633  0.00  0.00     0.263 C 
ATOM     23  O42 ZIN A   1      17.565  -1.018   6.231  0.00  0.00    -0.354 OA
ATOM     24  C39 ZIN A   1      18.629  -0.358   5.541  0.00  0.00     0.151 C 
ATOM     25  C36 ZIN A   1      18.812   1.050   6.112  0.00  0.00     0.177 C 
ATOM     26  C41 ZIN A   1      18.292  -0.265   4.052  0.00  0.00     0.042 C 
ATOM     27  C30 ZIN A   1      19.090   0.951   7.615  0.00  0.00     0.219 C 
ATOM     28  C29 ZIN A   1      17.940   0.195   8.288  0.00  0.00     0.096 C 
BRANCH  25  29
ATOM     29  O38 ZIN A   1      19.912   1.691   5.464  0.00  0.00    -0.391 OA
ATOM     30  H65 ZIN A   1      20.562   1.078   5.095  0.00  0.00     0.210 HD
ENDBRANCH  25  29
BRANCH  27  31
ATOM     31  N32 ZIN A   1      19.193   2.300   8.187  0.00  0.00    -0.072 N 
ATOM     32  H33 ZIN A   1      20.166   2.546   8.295  0.00  0.00     0.274 HD
ATOM     33  H34 ZIN A   1      18.745   2.962   7.571  0.00  0.00     0.274 HD
ATOM     34  H35 ZIN A   1      18.740   2.319   9.089  0.00  0.00     0.274 HD
ENDBRANCH  27  31
ENDBRANCH  21  22
ENDBRANCH  16  21
BRANCH  10  35
ATOM     35  O13 ZIN A   1      19.055  -3.804   6.167  0.00  0.00    -0.359 OA
ATOM     36  H54 ZIN A   1      19.011  -2.839   6.186  0.00  0.00     0.217 HD
ENDBRANCH  10  35
BRANCH  14  37
ATOM     37  O18 ZIN A   1      17.641  -3.044  12.342  0.00  0.00    -0.382 OA
ATOM     38  H57 ZIN A   1      18.414  -2.806  12.872  0.00  0.00     0.211 HD
ENDBRANCH  14  37
BRANCH  14  39
ATOM     39  C19 ZIN A   1      19.138  -4.490  11.145  0.00  0.00     0.184 C 
ATOM     40  O20 ZIN A   1      18.987  -5.674  10.960  0.00  0.00    -0.292 OA
BRANCH  39  41
ATOM     41  C21 ZIN A   1      20.504  -3.947  11.474  0.00  0.00     0.245 C 
BRANCH  41  42
ATOM     42  O22 ZIN A   1      20.388  -2.949  12.491  0.00  0.00    -0.393 OA
ATOM     43  H60 ZIN A   1      19.860  -3.224  13.253  0.00  0.00     0.209 HD
ENDBRANCH  41  42
ENDBRANCH  39  41
ENDBRANCH  14  39
BRANCH  17  44
ATOM     44  O44 ZIN A   1      15.225  -6.258   9.244  0.00  0.00    -0.359 OA
ATOM     45  H69 ZIN A   1      14.865  -5.692   9.940  0.00  0.00     0.217 HD
ENDBRANCH  17  44
BRANCH   1  46
ATOM     46  O2  ZIN A   1      18.116  -6.972   2.452  0.00  0.00    -0.355 OA
ATOM     47  C1  ZIN A   1      17.800  -6.788   1.071  0.00  0.00     0.210 C 
ENDBRANCH   1  46
TORSDOF 11
ENDMDL
