MODEL 1
REMARK VINA RESULT:      -5.8      0.000      0.000
REMARK  10 active torsions:
REMARK  status: ('A' for Active; 'I' for Inactive)
REMARK    1  A    between atoms: C2_2  and  C3_3 
REMARK    2  A    between atoms: C3_3  and  C4_4 
REMARK    3  A    between atoms: C4_4  and  C5_5 
REMARK    4  A    between atoms: C5_5  and  N6_6 
REMARK    5  A    between atoms: N6_6  and  C9_9 
REMARK    6  A    between atoms: C9_9  and  C10_10 
REMARK    7  A    between atoms: C10_10  and  C11_11 
REMARK    8  A    between atoms: C11_11  and  O12_12 
REMARK    9  A    between atoms: C11_11  and  P13_13 
REMARK   10  A    between atoms: C11_11  and  P17_17 
ROOT
ATOM      1  C11 ZIN A   1      18.810   0.996  11.065  0.00  0.00     0.286 C 
ENDROOT
BRANCH   1   2
ATOM      2  C10 ZIN A   1      18.809   0.864  12.590  0.00  0.00     0.096 C 
BRANCH   2   3
ATOM      3  C9  ZIN A   1      20.163   0.324  13.055  0.00  0.00     0.238 C 
BRANCH   3   4
ATOM      4  N6  ZIN A   1      19.951  -0.729  14.057  0.00  0.00    -0.075 N 
ATOM      5  H7  ZIN A   1      20.842  -1.028  14.424  0.00  0.00     0.279 HD
ATOM      6  C8  ZIN A   1      19.270  -1.870  13.432  0.00  0.00     0.269 C 
BRANCH   4   7
ATOM      7  C5  ZIN A   1      19.123  -0.204  15.151  0.00  0.00     0.234 C 
BRANCH   7   8
ATOM      8  C4  ZIN A   1      18.738  -1.346  16.094  0.00  0.00     0.028 C 
BRANCH   8   9
ATOM      9  C3  ZIN A   1      17.401  -1.025  16.766  0.00  0.00     0.001 C 
BRANCH   9  10
ATOM     10  C2  ZIN A   1      17.479   0.357  17.419  0.00  0.00    -0.005 C 
ATOM     11  C1  ZIN A   1      18.348   0.278  18.676  0.00  0.00     0.005 C 
ENDBRANCH   9  10
ENDBRANCH   8   9
ENDBRANCH   7   8
ENDBRANCH   4   7
ENDBRANCH   3   4
ENDBRANCH   2   3
ENDBRANCH   1   2
BRANCH   1  12
ATOM     12  O12 ZIN A   1      20.072   0.570  10.551  0.00  0.00    -0.365 OA
ATOM     13  H39 ZIN A   1      20.113   0.536   9.585  0.00  0.00     0.212 HD
ENDBRANCH   1  12
BRANCH   1  14
ATOM     14  P13 ZIN A   1      17.486  -0.043  10.365  0.00  0.00     0.310 P 
ATOM     15  O14 ZIN A   1      16.194   0.098  11.239  0.00  0.00    -0.637 OA
ATOM     16  O15 ZIN A   1      17.179   0.417   8.900  0.00  0.00    -0.637 OA
ATOM     17  O16 ZIN A   1      17.948  -1.541  10.355  0.00  0.00    -0.637 OA
ENDBRANCH   1  14
BRANCH   1  18
ATOM     18  P17 ZIN A   1      18.522   2.737  10.606  0.00  0.00     0.310 P 
ATOM     19  O18 ZIN A   1      17.032   3.117  10.907  0.00  0.00    -0.637 OA
ATOM     20  O19 ZIN A   1      19.475   3.661  11.440  0.00  0.00    -0.637 OA
ATOM     21  O20 ZIN A   1      18.812   2.930   9.080  0.00  0.00    -0.637 OA
ENDBRANCH   1  18
TORSDOF 10
ENDMDL
MODEL 2
REMARK VINA RESULT:      -5.6      1.487      2.474
REMARK  10 active torsions:
REMARK  status: ('A' for Active; 'I' for Inactive)
REMARK    1  A    between atoms: C2_2  and  C3_3 
REMARK    2  A    between atoms: C3_3  and  C4_4 
REMARK    3  A    between atoms: C4_4  and  C5_5 
REMARK    4  A    between atoms: C5_5  and  N6_6 
REMARK    5  A    between atoms: N6_6  and  C9_9 
REMARK    6  A    between atoms: C9_9  and  C10_10 
REMARK    7  A    between atoms: C10_10  and  C11_11 
REMARK    8  A    between atoms: C11_11  and  O12_12 
REMARK    9  A    between atoms: C11_11  and  P13_13 
REMARK   10  A    between atoms: C11_11  and  P17_17 
ROOT
ATOM      1  C11 ZIN A   1      19.335   2.128  12.251  0.00  0.00     0.286 C 
ENDROOT
BRANCH   1   2
ATOM      2  C10 ZIN A   1      18.930   1.007  13.212  0.00  0.00     0.096 C 
BRANCH   2   3
ATOM      3  C9  ZIN A   1      20.153   0.145  13.533  0.00  0.00     0.238 C 
BRANCH   3   4
ATOM      4  N6  ZIN A   1      19.736  -1.254  13.696  0.00  0.00    -0.075 N 
ATOM      5  H7  ZIN A   1      20.474  -1.775  14.143  0.00  0.00     0.279 HD
ATOM      6  C8  ZIN A   1      19.451  -1.838  12.379  0.00  0.00     0.269 C 
BRANCH   4   7
ATOM      7  C5  ZIN A   1      18.526  -1.309  14.528  0.00  0.00     0.234 C 
BRANCH   7   8
ATOM      8  C4  ZIN A   1      18.921  -1.507  15.993  0.00  0.00     0.028 C 
BRANCH   8   9
ATOM      9  C3  ZIN A   1      17.973  -0.708  16.890  0.00  0.00     0.001 C 
BRANCH   9  10
ATOM     10  C2  ZIN A   1      18.455   0.741  16.977  0.00  0.00    -0.005 C 
ATOM     11  C1  ZIN A   1      19.225   0.945  18.283  0.00  0.00     0.005 C 
ENDBRANCH   9  10
ENDBRANCH   8   9
ENDBRANCH   7   8
ENDBRANCH   4   7
ENDBRANCH   3   4
ENDBRANCH   2   3
ENDBRANCH   1   2
BRANCH   1  12
ATOM     12  O12 ZIN A   1      20.748   2.091  12.045  0.00  0.00    -0.365 OA
ATOM     13  H39 ZIN A   1      21.265   2.067  12.862  0.00  0.00     0.212 HD
ENDBRANCH   1  12
BRANCH   1  14
ATOM     14  P13 ZIN A   1      18.482   1.900  10.657  0.00  0.00     0.310 P 
ATOM     15  O14 ZIN A   1      19.224   0.805   9.819  0.00  0.00    -0.637 OA
ATOM     16  O15 ZIN A   1      17.004   1.448  10.914  0.00  0.00    -0.637 OA
ATOM     17  O16 ZIN A   1      18.483   3.253   9.866  0.00  0.00    -0.637 OA
ENDBRANCH   1  14
BRANCH   1  18
ATOM     18  P17 ZIN A   1      18.867   3.739  12.966  0.00  0.00     0.310 P 
ATOM     19  O18 ZIN A   1      19.804   4.856  12.394  0.00  0.00    -0.637 OA
ATOM     20  O19 ZIN A   1      17.380   4.063  12.593  0.00  0.00    -0.637 OA
ATOM     21  O20 ZIN A   1      19.013   3.681  14.524  0.00  0.00    -0.637 OA
ENDBRANCH   1  18
TORSDOF 10
ENDMDL
MODEL 3
REMARK VINA RESULT:      -5.6      1.254      2.042
REMARK  10 active torsions:
REMARK  status: ('A' for Active; 'I' for Inactive)
REMARK    1  A    between atoms: C2_2  and  C3_3 
REMARK    2  A    between atoms: C3_3  and  C4_4 
REMARK    3  A    between atoms: C4_4  and  C5_5 
REMARK    4  A    between atoms: C5_5  and  N6_6 
REMARK    5  A    between atoms: N6_6  and  C9_9 
REMARK    6  A    between atoms: C9_9  and  C10_10 
REMARK    7  A    between atoms: C10_10  and  C11_11 
REMARK    8  A    between atoms: C11_11  and  O12_12 
REMARK    9  A    between atoms: C11_11  and  P13_13 
REMARK   10  A    between atoms: C11_11  and  P17_17 
ROOT
ATOM      1  C11 ZIN A   1      19.231   1.225  10.977  0.00  0.00     0.286 C 
ENDROOT
BRANCH   1   2
ATOM      2  C10 ZIN A   1      19.578  -0.131  11.596  0.00  0.00     0.096 C 
BRANCH   2   3
ATOM      3  C9  ZIN A   1      20.148   0.082  13.000  0.00  0.00     0.238 C 
BRANCH   3   4
ATOM      4  N6  ZIN A   1      19.824  -1.079  13.840  0.00  0.00    -0.075 N 
ATOM      5  H7  ZIN A   1      20.649  -1.646  13.964  0.00  0.00     0.279 HD
ATOM      6  C8  ZIN A   1      18.775  -1.876  13.190  0.00  0.00     0.269 C 
BRANCH   4   7
ATOM      7  C5  ZIN A   1      19.346  -0.616  15.150  0.00  0.00     0.234 C 
BRANCH   7   8
ATOM      8  C4  ZIN A   1      17.817  -0.550  15.141  0.00  0.00     0.028 C 
BRANCH   8   9
ATOM      9  C3  ZIN A   1      17.307  -0.343  16.568  0.00  0.00     0.001 C 
BRANCH   9  10
ATOM     10  C2  ZIN A   1      18.488  -0.370  17.540  0.00  0.00    -0.005 C 
ATOM     11  C1  ZIN A   1      18.231   0.614  18.683  0.00  0.00     0.005 C 
ENDBRANCH   9  10
ENDBRANCH   8   9
ENDBRANCH   7   8
ENDBRANCH   4   7
ENDBRANCH   3   4
ENDBRANCH   2   3
ENDBRANCH   1   2
BRANCH   1  12
ATOM     12  O12 ZIN A   1      20.314   2.133  11.180  0.00  0.00    -0.365 OA
ATOM     13  H39 ZIN A   1      20.812   2.339  10.376  0.00  0.00     0.212 HD
ENDBRANCH   1  12
BRANCH   1  14
ATOM     14  P13 ZIN A   1      18.937   1.019   9.189  0.00  0.00     0.310 P 
ATOM     15  O14 ZIN A   1      19.944  -0.033   8.612  0.00  0.00    -0.637 OA
ATOM     16  O15 ZIN A   1      17.471   0.523   8.953  0.00  0.00    -0.637 OA
ATOM     17  O16 ZIN A   1      19.146   2.393   8.464  0.00  0.00    -0.637 OA
ENDBRANCH   1  14
BRANCH   1  18
ATOM     18  P17 ZIN A   1      17.726   1.886  11.767  0.00  0.00     0.310 P 
ATOM     19  O18 ZIN A   1      16.682   0.733  11.948  0.00  0.00    -0.637 OA
ATOM     20  O19 ZIN A   1      18.093   2.484  13.168  0.00  0.00    -0.637 OA
ATOM     21  O20 ZIN A   1      17.113   3.009  10.864  0.00  0.00    -0.637 OA
ENDBRANCH   1  18
TORSDOF 10
ENDMDL
MODEL 4
REMARK VINA RESULT:      -5.6      1.706      2.597
REMARK  10 active torsions:
REMARK  status: ('A' for Active; 'I' for Inactive)
REMARK    1  A    between atoms: C2_2  and  C3_3 
REMARK    2  A    between atoms: C3_3  and  C4_4 
REMARK    3  A    between atoms: C4_4  and  C5_5 
REMARK    4  A    between atoms: C5_5  and  N6_6 
REMARK    5  A    between atoms: N6_6  and  C9_9 
REMARK    6  A    between atoms: C9_9  and  C10_10 
REMARK    7  A    between atoms: C10_10  and  C11_11 
REMARK    8  A    between atoms: C11_11  and  O12_12 
REMARK    9  A    between atoms: C11_11  and  P13_13 
REMARK   10  A    between atoms: C11_11  and  P17_17 
ROOT
ATOM      1  C11 ZIN A   1      19.407   1.131  11.821  0.00  0.00     0.286 C 
ENDROOT
BRANCH   1   2
ATOM      2  C10 ZIN A   1      18.592   0.919  13.098  0.00  0.00     0.096 C 
BRANCH   2   3
ATOM      3  C9  ZIN A   1      19.247   1.680  14.253  0.00  0.00     0.238 C 
BRANCH   3   4
ATOM      4  N6  ZIN A   1      18.205   2.292  15.088  0.00  0.00    -0.075 N 
ATOM      5  H7  ZIN A   1      17.364   1.738  15.037  0.00  0.00     0.279 HD
ATOM      6  C8  ZIN A   1      17.926   3.651  14.607  0.00  0.00     0.269 C 
BRANCH   4   7
ATOM      7  C5  ZIN A   1      18.667   2.352  16.481  0.00  0.00     0.234 C 
BRANCH   7   8
ATOM      8  C4  ZIN A   1      18.902   0.932  17.003  0.00  0.00     0.028 C 
BRANCH   8   9
ATOM      9  C3  ZIN A   1      17.586   0.361  17.535  0.00  0.00     0.001 C 
BRANCH   9  10
ATOM     10  C2  ZIN A   1      17.226  -0.904  16.753  0.00  0.00    -0.005 C 
ATOM     11  C1  ZIN A   1      18.493  -1.494  16.129  0.00  0.00     0.005 C 
ENDBRANCH   9  10
ENDBRANCH   8   9
ENDBRANCH   7   8
ENDBRANCH   4   7
ENDBRANCH   3   4
ENDBRANCH   2   3
ENDBRANCH   1   2
BRANCH   1  12
ATOM     12  O12 ZIN A   1      20.769   1.392  12.163  0.00  0.00    -0.365 OA
ATOM     13  H39 ZIN A   1      20.881   1.889  12.986  0.00  0.00     0.212 HD
ENDBRANCH   1  12
BRANCH   1  14
ATOM     14  P13 ZIN A   1      19.317  -0.368  10.787  0.00  0.00     0.310 P 
ATOM     15  O14 ZIN A   1      17.905  -0.454  10.115  0.00  0.00    -0.637 OA
ATOM     16  O15 ZIN A   1      20.420  -0.306   9.677  0.00  0.00    -0.637 OA
ATOM     17  O16 ZIN A   1      19.548  -1.634  11.681  0.00  0.00    -0.637 OA
ENDBRANCH   1  14
BRANCH   1  18
ATOM     18  P17 ZIN A   1      18.730   2.549  10.896  0.00  0.00     0.310 P 
ATOM     19  O18 ZIN A   1      19.353   3.877  11.446  0.00  0.00    -0.637 OA
ATOM     20  O19 ZIN A   1      19.082   2.397   9.376  0.00  0.00    -0.637 OA
ATOM     21  O20 ZIN A   1      17.174   2.590  11.069  0.00  0.00    -0.637 OA
ENDBRANCH   1  18
TORSDOF 10
ENDMDL
MODEL 5
REMARK VINA RESULT:      -5.6      4.460      7.506
REMARK  10 active torsions:
REMARK  status: ('A' for Active; 'I' for Inactive)
REMARK    1  A    between atoms: C2_2  and  C3_3 
REMARK    2  A    between atoms: C3_3  and  C4_4 
REMARK    3  A    between atoms: C4_4  and  C5_5 
REMARK    4  A    between atoms: C5_5  and  N6_6 
REMARK    5  A    between atoms: N6_6  and  C9_9 
REMARK    6  A    between atoms: C9_9  and  C10_10 
REMARK    7  A    between atoms: C10_10  and  C11_11 
REMARK    8  A    between atoms: C11_11  and  O12_12 
REMARK    9  A    between atoms: C11_11  and  P13_13 
REMARK   10  A    between atoms: C11_11  and  P17_17 
ROOT
ATOM      1  C11 ZIN A   1      19.469  -2.038  10.723  0.00  0.00     0.286 C 
ENDROOT
BRANCH   1   2
ATOM      2  C10 ZIN A   1      18.938  -1.635   9.346  0.00  0.00     0.096 C 
BRANCH   2   3
ATOM      3  C9  ZIN A   1      19.690  -0.397   8.853  0.00  0.00     0.238 C 
BRANCH   3   4
ATOM      4  N6  ZIN A   1      18.726   0.663   8.529  0.00  0.00    -0.075 N 
ATOM      5  H7  ZIN A   1      18.727   1.355   9.263  0.00  0.00     0.279 HD
ATOM      6  C8  ZIN A   1      17.383   0.083   8.404  0.00  0.00     0.269 C 
BRANCH   4   7
ATOM      7  C5  ZIN A   1      19.105   1.297   7.259  0.00  0.00     0.234 C 
BRANCH   7   8
ATOM      8  C4  ZIN A   1      18.315   0.659   6.114  0.00  0.00     0.028 C 
BRANCH   8   9
ATOM      9  C3  ZIN A   1      19.281   0.215   5.013  0.00  0.00     0.001 C 
BRANCH   9  10
ATOM     10  C2  ZIN A   1      19.068  -1.271   4.718  0.00  0.00    -0.005 C 
ATOM     11  C1  ZIN A   1      17.591  -1.522   4.406  0.00  0.00     0.005 C 
ENDBRANCH   9  10
ENDBRANCH   8   9
ENDBRANCH   7   8
ENDBRANCH   4   7
ENDBRANCH   3   4
ENDBRANCH   2   3
ENDBRANCH   1   2
BRANCH   1  12
ATOM     12  O12 ZIN A   1      20.822  -1.599  10.860  0.00  0.00    -0.365 OA
ATOM     13  H39 ZIN A   1      21.153  -1.621  11.769  0.00  0.00     0.212 HD
ENDBRANCH   1  12
BRANCH   1  14
ATOM     14  P13 ZIN A   1      18.446  -1.266  12.019  0.00  0.00     0.310 P 
ATOM     15  O14 ZIN A   1      18.781   0.261  12.109  0.00  0.00    -0.637 OA
ATOM     16  O15 ZIN A   1      16.931  -1.448  11.667  0.00  0.00    -0.637 OA
ATOM     17  O16 ZIN A   1      18.746  -1.949  13.398  0.00  0.00    -0.637 OA
ENDBRANCH   1  14
BRANCH   1  18
ATOM     18  P17 ZIN A   1      19.399  -3.853  10.894  0.00  0.00     0.310 P 
ATOM     19  O18 ZIN A   1      20.557  -4.335  11.833  0.00  0.00    -0.637 OA
ATOM     20  O19 ZIN A   1      18.019  -4.265  11.513  0.00  0.00    -0.637 OA
ATOM     21  O20 ZIN A   1      19.558  -4.517   9.485  0.00  0.00    -0.637 OA
ENDBRANCH   1  18
TORSDOF 10
ENDMDL
MODEL 6
REMARK VINA RESULT:      -5.5      2.199      2.819
REMARK  10 active torsions:
REMARK  status: ('A' for Active; 'I' for Inactive)
REMARK    1  A    between atoms: C2_2  and  C3_3 
REMARK    2  A    between atoms: C3_3  and  C4_4 
REMARK    3  A    between atoms: C4_4  and  C5_5 
REMARK    4  A    between atoms: C5_5  and  N6_6 
REMARK    5  A    between atoms: N6_6  and  C9_9 
REMARK    6  A    between atoms: C9_9  and  C10_10 
REMARK    7  A    between atoms: C10_10  and  C11_11 
REMARK    8  A    between atoms: C11_11  and  O12_12 
REMARK    9  A    between atoms: C11_11  and  P13_13 
REMARK   10  A    between atoms: C11_11  and  P17_17 
ROOT
ATOM      1  C11 ZIN A   1      19.360  -0.293   9.612  0.00  0.00     0.286 C 
ENDROOT
BRANCH   1   2
ATOM      2  C10 ZIN A   1      18.947   0.881  10.502  0.00  0.00     0.096 C 
BRANCH   2   3
ATOM      3  C9  ZIN A   1      19.859   0.935  11.729  0.00  0.00     0.238 C 
BRANCH   3   4
ATOM      4  N6  ZIN A   1      19.064   0.689  12.940  0.00  0.00    -0.075 N 
ATOM      5  H7  ZIN A   1      18.154   0.343  12.680  0.00  0.00     0.279 HD
ATOM      6  C8  ZIN A   1      18.917   1.941  13.692  0.00  0.00     0.269 C 
BRANCH   4   7
ATOM      7  C5  ZIN A   1      19.745  -0.308  13.778  0.00  0.00     0.234 C 
BRANCH   7   8
ATOM      8  C4  ZIN A   1      18.707  -1.233  14.416  0.00  0.00     0.028 C 
BRANCH   8   9
ATOM      9  C3  ZIN A   1      18.999  -1.373  15.912  0.00  0.00     0.001 C 
BRANCH   9  10
ATOM     10  C2  ZIN A   1      17.681  -1.422  16.686  0.00  0.00    -0.005 C 
ATOM     11  C1  ZIN A   1      17.024  -0.040  16.662  0.00  0.00     0.005 C 
ENDBRANCH   9  10
ENDBRANCH   8   9
ENDBRANCH   7   8
ENDBRANCH   4   7
ENDBRANCH   3   4
ENDBRANCH   2   3
ENDBRANCH   1   2
BRANCH   1  12
ATOM     12  O12 ZIN A   1      20.784  -0.401   9.596  0.00  0.00    -0.365 OA
ATOM     13  H39 ZIN A   1      21.217  -0.011  10.368  0.00  0.00     0.212 HD
ENDBRANCH   1  12
BRANCH   1  14
ATOM     14  P13 ZIN A   1      18.641  -1.835  10.267  0.00  0.00     0.310 P 
ATOM     15  O14 ZIN A   1      17.405  -1.493  11.167  0.00  0.00    -0.637 OA
ATOM     16  O15 ZIN A   1      18.185  -2.746   9.078  0.00  0.00    -0.637 OA
ATOM     17  O16 ZIN A   1      19.715  -2.591  11.121  0.00  0.00    -0.637 OA
ENDBRANCH   1  14
BRANCH   1  18
ATOM     18  P17 ZIN A   1      18.753  -0.013   7.915  0.00  0.00     0.310 P 
ATOM     19  O18 ZIN A   1      17.189  -0.107   7.898  0.00  0.00    -0.637 OA
ATOM     20  O19 ZIN A   1      19.196   1.410   7.431  0.00  0.00    -0.637 OA
ATOM     21  O20 ZIN A   1      19.351  -1.099   6.960  0.00  0.00    -0.637 OA
ENDBRANCH   1  18
TORSDOF 10
ENDMDL
MODEL 7
REMARK VINA RESULT:      -5.5      6.143      8.008
REMARK  10 active torsions:
REMARK  status: ('A' for Active; 'I' for Inactive)
REMARK    1  A    between atoms: C2_2  and  C3_3 
REMARK    2  A    between atoms: C3_3  and  C4_4 
REMARK    3  A    between atoms: C4_4  and  C5_5 
REMARK    4  A    between atoms: C5_5  and  N6_6 
REMARK    5  A    between atoms: N6_6  and  C9_9 
REMARK    6  A    between atoms: C9_9  and  C10_10 
REMARK    7  A    between atoms: C10_10  and  C11_11 
REMARK    8  A    between atoms: C11_11  and  O12_12 
REMARK    9  A    between atoms: C11_11  and  P13_13 
REMARK   10  A    between atoms: C11_11  and  P17_17 
ROOT
ATOM      1  C11 ZIN A   1      18.927  -4.334   8.519  0.00  0.00     0.286 C 
ENDROOT
BRANCH   1   2
ATOM      2  C10 ZIN A   1      18.055  -3.085   8.369  0.00  0.00     0.096 C 
BRANCH   2   3
ATOM      3  C9  ZIN A   1      18.400  -2.088   9.477  0.00  0.00     0.238 C 
BRANCH   3   4
ATOM      4  N6  ZIN A   1      19.163  -0.970   8.906  0.00  0.00    -0.075 N 
ATOM      5  H7  ZIN A   1      19.651  -1.282   8.080  0.00  0.00     0.279 HD
ATOM      6  C8  ZIN A   1      20.135  -0.484   9.894  0.00  0.00     0.269 C 
BRANCH   4   7
ATOM      7  C5  ZIN A   1      18.243   0.119   8.549  0.00  0.00     0.234 C 
BRANCH   7   8
ATOM      8  C4  ZIN A   1      18.443   0.494   7.079  0.00  0.00     0.028 C 
BRANCH   8   9
ATOM      9  C3  ZIN A   1      17.274  -0.045   6.252  0.00  0.00     0.001 C 
BRANCH   9  10
ATOM     10  C2  ZIN A   1      17.816  -0.835   5.059  0.00  0.00    -0.005 C 
ATOM     11  C1  ZIN A   1      19.222  -0.338   4.716  0.00  0.00     0.005 C 
ENDBRANCH   9  10
ENDBRANCH   8   9
ENDBRANCH   7   8
ENDBRANCH   4   7
ENDBRANCH   3   4
ENDBRANCH   2   3
ENDBRANCH   1   2
BRANCH   1  12
ATOM     12  O12 ZIN A   1      19.908  -4.112   9.533  0.00  0.00    -0.365 OA
ATOM     13  H39 ZIN A   1      20.432  -3.309   9.404  0.00  0.00     0.212 HD
ENDBRANCH   1  12
BRANCH   1  14
ATOM     14  P13 ZIN A   1      17.881  -5.752   8.987  0.00  0.00     0.310 P 
ATOM     15  O14 ZIN A   1      17.734  -5.802  10.545  0.00  0.00    -0.637 OA
ATOM     16  O15 ZIN A   1      16.466  -5.597   8.334  0.00  0.00    -0.637 OA
ATOM     17  O16 ZIN A   1      18.545  -7.079   8.482  0.00  0.00    -0.637 OA
ENDBRANCH   1  14
BRANCH   1  18
ATOM     18  P17 ZIN A   1      19.758  -4.689   6.935  0.00  0.00     0.310 P 
ATOM     19  O18 ZIN A   1      18.742  -5.367   5.953  0.00  0.00    -0.637 OA
ATOM     20  O19 ZIN A   1      20.277  -3.350   6.307  0.00  0.00    -0.637 OA
ATOM     21  O20 ZIN A   1      20.967  -5.652   7.184  0.00  0.00    -0.637 OA
ENDBRANCH   1  18
TORSDOF 10
ENDMDL
MODEL 8
REMARK VINA RESULT:      -5.5      6.275      8.046
REMARK  10 active torsions:
REMARK  status: ('A' for Active; 'I' for Inactive)
REMARK    1  A    between atoms: C2_2  and  C3_3 
REMARK    2  A    between atoms: C3_3  and  C4_4 
REMARK    3  A    between atoms: C4_4  and  C5_5 
REMARK    4  A    between atoms: C5_5  and  N6_6 
REMARK    5  A    between atoms: N6_6  and  C9_9 
REMARK    6  A    between atoms: C9_9  and  C10_10 
REMARK    7  A    between atoms: C10_10  and  C11_11 
REMARK    8  A    between atoms: C11_11  and  O12_12 
REMARK    9  A    between atoms: C11_11  and  P13_13 
REMARK   10  A    between atoms: C11_11  and  P17_17 
ROOT
ATOM      1  C11 ZIN A   1      18.608  -4.301   7.492  0.00  0.00     0.286 C 
ENDROOT
BRANCH   1   2
ATOM      2  C10 ZIN A   1      19.639  -3.353   6.874  0.00  0.00     0.096 C 
BRANCH   2   3
ATOM      3  C9  ZIN A   1      19.355  -1.922   7.334  0.00  0.00     0.238 C 
BRANCH   3   4
ATOM      4  N6  ZIN A   1      18.495  -1.254   6.348  0.00  0.00    -0.075 N 
ATOM      5  H7  ZIN A   1      17.750  -1.877   6.075  0.00  0.00     0.279 HD
ATOM      6  C8  ZIN A   1      19.290  -0.892   5.168  0.00  0.00     0.269 C 
BRANCH   4   7
ATOM      7  C5  ZIN A   1      17.922  -0.039   6.943  0.00  0.00     0.234 C 
BRANCH   7   8
ATOM      8  C4  ZIN A   1      18.867   1.141   6.703  0.00  0.00     0.028 C 
BRANCH   8   9
ATOM      9  C3  ZIN A   1      19.344   1.694   8.047  0.00  0.00     0.001 C 
BRANCH   9  10
ATOM     10  C2  ZIN A   1      18.329   1.338   9.135  0.00  0.00    -0.005 C 
ATOM     11  C1  ZIN A   1      18.149   2.531  10.075  0.00  0.00     0.005 C 
ENDBRANCH   9  10
ENDBRANCH   8   9
ENDBRANCH   7   8
ENDBRANCH   4   7
ENDBRANCH   3   4
ENDBRANCH   2   3
ENDBRANCH   1   2
BRANCH   1  12
ATOM     12  O12 ZIN A   1      17.560  -3.538   8.093  0.00  0.00    -0.365 OA
ATOM     13  H39 ZIN A   1      17.817  -3.093   8.913  0.00  0.00     0.212 HD
ENDBRANCH   1  12
BRANCH   1  14
ATOM     14  P13 ZIN A   1      17.912  -5.372   6.191  0.00  0.00     0.310 P 
ATOM     15  O14 ZIN A   1      18.850  -6.607   5.975  0.00  0.00    -0.637 OA
ATOM     16  O15 ZIN A   1      16.490  -5.865   6.625  0.00  0.00    -0.637 OA
ATOM     17  O16 ZIN A   1      17.797  -4.563   4.854  0.00  0.00    -0.637 OA
ENDBRANCH   1  14
BRANCH   1  18
ATOM     18  P17 ZIN A   1      19.415  -5.332   8.761  0.00  0.00     0.310 P 
ATOM     19  O18 ZIN A   1      20.759  -5.902   8.194  0.00  0.00    -0.637 OA
ATOM     20  O19 ZIN A   1      19.711  -4.462  10.030  0.00  0.00    -0.637 OA
ATOM     21  O20 ZIN A   1      18.468  -6.517   9.150  0.00  0.00    -0.637 OA
ENDBRANCH   1  18
TORSDOF 10
ENDMDL
MODEL 9
REMARK VINA RESULT:      -5.4      1.592      2.090
REMARK  10 active torsions:
REMARK  status: ('A' for Active; 'I' for Inactive)
REMARK    1  A    between atoms: C2_2  and  C3_3 
REMARK    2  A    between atoms: C3_3  and  C4_4 
REMARK    3  A    between atoms: C4_4  and  C5_5 
REMARK    4  A    between atoms: C5_5  and  N6_6 
REMARK    5  A    between atoms: N6_6  and  C9_9 
REMARK    6  A    between atoms: C9_9  and  C10_10 
REMARK    7  A    between atoms: C10_10  and  C11_11 
REMARK    8  A    between atoms: C11_11  and  O12_12 
REMARK    9  A    between atoms: C11_11  and  P13_13 
REMARK   10  A    between atoms: C11_11  and  P17_17 
ROOT
ATOM      1  C11 ZIN A   1      19.266  -0.048   9.707  0.00  0.00     0.286 C 
ENDROOT
BRANCH   1   2
ATOM      2  C10 ZIN A   1      18.798  -0.686  11.017  0.00  0.00     0.096 C 
BRANCH   2   3
ATOM      3  C9  ZIN A   1      19.959  -0.709  12.014  0.00  0.00     0.238 C 
BRANCH   3   4
ATOM      4  N6  ZIN A   1      19.752  -1.796  12.981  0.00  0.00    -0.075 N 
ATOM      5  H7  ZIN A   1      20.542  -2.422  12.958  0.00  0.00     0.279 HD
ATOM      6  C8  ZIN A   1      18.531  -2.535  12.633  0.00  0.00     0.269 C 
BRANCH   4   7
ATOM      7  C5  ZIN A   1      19.613  -1.231  14.330  0.00  0.00     0.234 C 
BRANCH   7   8
ATOM      8  C4  ZIN A   1      18.131  -1.165  14.706  0.00  0.00     0.028 C 
BRANCH   8   9
ATOM      9  C3  ZIN A   1      17.980  -0.479  16.065  0.00  0.00     0.001 C 
BRANCH   9  10
ATOM     10  C2  ZIN A   1      19.002  -1.059  17.045  0.00  0.00    -0.005 C 
ATOM     11  C1  ZIN A   1      19.304  -0.029  18.136  0.00  0.00     0.005 C 
ENDBRANCH   9  10
ENDBRANCH   8   9
ENDBRANCH   7   8
ENDBRANCH   4   7
ENDBRANCH   3   4
ENDBRANCH   2   3
ENDBRANCH   1   2
BRANCH   1  12
ATOM     12  O12 ZIN A   1      20.680  -0.202   9.580  0.00  0.00    -0.365 OA
ATOM     13  H39 ZIN A   1      21.056   0.238   8.804  0.00  0.00     0.212 HD
ENDBRANCH   1  12
BRANCH   1  14
ATOM     14  P13 ZIN A   1      18.437  -0.866   8.304  0.00  0.00     0.310 P 
ATOM     15  O14 ZIN A   1      17.005  -0.259   8.118  0.00  0.00    -0.637 OA
ATOM     16  O15 ZIN A   1      19.273  -0.641   6.999  0.00  0.00    -0.637 OA
ATOM     17  O16 ZIN A   1      18.320  -2.402   8.590  0.00  0.00    -0.637 OA
ENDBRANCH   1  14
BRANCH   1  18
ATOM     18  P17 ZIN A   1      18.844   1.726   9.711  0.00  0.00     0.310 P 
ATOM     19  O18 ZIN A   1      18.990   2.301   8.261  0.00  0.00    -0.637 OA
ATOM     20  O19 ZIN A   1      17.366   1.910  10.199  0.00  0.00    -0.637 OA
ATOM     21  O20 ZIN A   1      19.812   2.490  10.675  0.00  0.00    -0.637 OA
ENDBRANCH   1  18
TORSDOF 10
ENDMDL
