MODEL 1
REMARK VINA RESULT:      -6.2      0.000      0.000
REMARK  8 active torsions:
REMARK  status: ('A' for Active; 'I' for Inactive)
REMARK    1  A    between atoms: N1_1  and  C2_2 
REMARK    2  A    between atoms: N8_8  and  C9_9 
REMARK    3  A    between atoms: C9_9  and  C10_10 
REMARK    4  A    between atoms: C10_10  and  C11_11 
REMARK    5  A    between atoms: C11_11  and  C12_12 
REMARK    6  A    between atoms: C11_11  and  C14_14 
REMARK    7  A    between atoms: C12_12  and  O13_13 
REMARK    8  A    between atoms: C14_14  and  O15_15 
ROOT
ATOM      1  C2  ZIN A   1      19.057   3.194  15.627  0.00  0.00     0.703 A 
ATOM      2  N3  ZIN A   1      18.782   2.082  14.982  0.00  0.00    -0.044 NA
ATOM      3  C4  ZIN A   1      18.784   0.900  15.608  0.00  0.00     0.184 A 
ATOM      4  C5  ZIN A   1      19.084   0.840  16.974  0.00  0.00     0.173 A 
ATOM      5  N6  ZIN A   1      19.014  -0.462  17.344  0.00  0.00    -0.234 NA
ATOM      6  C7  ZIN A   1      18.697  -1.187  16.312  0.00  0.00     0.212 A 
ATOM      7  N8  ZIN A   1      18.544  -0.388  15.216  0.00  0.00    -0.324 N 
ATOM      8  C16 ZIN A   1      19.379   2.044  17.656  0.00  0.00     0.292 A 
ATOM      9  O17 ZIN A   1      19.645   2.039  18.846  0.00  0.00    -0.265 OA
ATOM     10  N18 ZIN A   1      19.362   3.199  16.955  0.00  0.00    -0.152 N 
ATOM     11  H33 ZIN A   1      19.561   4.038  17.401  0.00  0.00     0.187 HD
ENDROOT
BRANCH   7  12
ATOM     12  C9  ZIN A   1      18.189  -0.831  13.865  0.00  0.00     0.132 C 
BRANCH  12  13
ATOM     13  C10 ZIN A   1      19.463  -1.155  13.083  0.00  0.00     0.029 C 
BRANCH  13  14
ATOM     14  C11 ZIN A   1      19.490  -0.336  11.790  0.00  0.00     0.034 C 
BRANCH  14  15
ATOM     15  C12 ZIN A   1      20.329   0.925  12.002  0.00  0.00     0.170 C 
BRANCH  15  16
ATOM     16  O13 ZIN A   1      21.694   0.559  12.210  0.00  0.00    -0.400 OA
ATOM     17  H29 ZIN A   1      21.821  -0.371  12.444  0.00  0.00     0.209 HD
ENDBRANCH  15  16
ENDBRANCH  14  15
BRANCH  14  18
ATOM     18  C14 ZIN A   1      20.105  -1.176  10.668  0.00  0.00     0.170 C 
BRANCH  18  19
ATOM     19  O15 ZIN A   1      20.809  -0.321   9.765  0.00  0.00    -0.400 OA
ATOM     20  H32 ZIN A   1      20.464   0.581   9.727  0.00  0.00     0.209 HD
ENDBRANCH  18  19
ENDBRANCH  14  18
ENDBRANCH  13  14
ENDBRANCH  12  13
ENDBRANCH   7  12
BRANCH   1  21
ATOM     21  N1  ZIN A   1      19.042   4.383  14.942  0.00  0.00    -0.233 N 
ATOM     22  H19 ZIN A   1      18.875   4.389  13.986  0.00  0.00     0.174 HD
ATOM     23  H20 ZIN A   1      19.194   5.217  15.413  0.00  0.00     0.174 HD
ENDBRANCH   1  21
TORSDOF 8
ENDMDL
MODEL 2
REMARK VINA RESULT:      -6.1      5.984      8.527
REMARK  8 active torsions:
REMARK  status: ('A' for Active; 'I' for Inactive)
REMARK    1  A    between atoms: N1_1  and  C2_2 
REMARK    2  A    between atoms: N8_8  and  C9_9 
REMARK    3  A    between atoms: C9_9  and  C10_10 
REMARK    4  A    between atoms: C10_10  and  C11_11 
REMARK    5  A    between atoms: C11_11  and  C12_12 
REMARK    6  A    between atoms: C11_11  and  C14_14 
REMARK    7  A    between atoms: C12_12  and  O13_13 
REMARK    8  A    between atoms: C14_14  and  O15_15 
ROOT
ATOM      1  C2  ZIN A   1      18.166  -0.676   7.874  0.00  0.00     0.703 A 
ATOM      2  N3  ZIN A   1      18.250  -1.884   8.383  0.00  0.00    -0.044 NA
ATOM      3  C4  ZIN A   1      18.877  -2.870   7.729  0.00  0.00     0.184 A 
ATOM      4  C5  ZIN A   1      19.455  -2.613   6.480  0.00  0.00     0.173 A 
ATOM      5  N6  ZIN A   1      20.014  -3.771   6.052  0.00  0.00    -0.234 NA
ATOM      6  C7  ZIN A   1      19.817  -4.700   6.940  0.00  0.00     0.212 A 
ATOM      7  N8  ZIN A   1      19.119  -4.189   7.996  0.00  0.00    -0.324 N 
ATOM      8  C16 ZIN A   1      19.358  -1.308   5.944  0.00  0.00     0.292 A 
ATOM      9  O17 ZIN A   1      19.848  -1.040   4.860  0.00  0.00    -0.265 OA
ATOM     10  N18 ZIN A   1      18.705  -0.367   6.661  0.00  0.00    -0.152 N 
ATOM     11  H33 ZIN A   1      18.626   0.536   6.313  0.00  0.00     0.187 HD
ENDROOT
BRANCH   7  12
ATOM     12  C9  ZIN A   1      18.703  -4.921   9.195  0.00  0.00     0.132 C 
BRANCH  12  13
ATOM     13  C10 ZIN A   1      19.717  -4.684  10.315  0.00  0.00     0.029 C 
BRANCH  13  14
ATOM     14  C11 ZIN A   1      18.994  -4.149  11.553  0.00  0.00     0.034 C 
BRANCH  14  15
ATOM     15  C12 ZIN A   1      19.618  -2.817  11.973  0.00  0.00     0.170 C 
BRANCH  15  16
ATOM     16  O13 ZIN A   1      20.185  -2.176  10.829  0.00  0.00    -0.400 OA
ATOM     17  H29 ZIN A   1      20.635  -2.779  10.222  0.00  0.00     0.209 HD
ENDBRANCH  15  16
ENDBRANCH  14  15
BRANCH  14  18
ATOM     18  C14 ZIN A   1      17.514  -3.939  11.227  0.00  0.00     0.170 C 
BRANCH  18  19
ATOM     19  O15 ZIN A   1      17.199  -2.548  11.320  0.00  0.00    -0.400 OA
ATOM     20  H32 ZIN A   1      17.719  -2.070  11.980  0.00  0.00     0.209 HD
ENDBRANCH  18  19
ENDBRANCH  14  18
ENDBRANCH  13  14
ENDBRANCH  12  13
ENDBRANCH   7  12
BRANCH   1  21
ATOM     21  N1  ZIN A   1      17.514   0.302   8.583  0.00  0.00    -0.233 N 
ATOM     22  H19 ZIN A   1      17.118   1.055   8.116  0.00  0.00     0.174 HD
ATOM     23  H20 ZIN A   1      17.445   0.238   9.548  0.00  0.00     0.174 HD
ENDBRANCH   1  21
TORSDOF 8
ENDMDL
MODEL 3
REMARK VINA RESULT:      -6.1      3.730      5.591
REMARK  8 active torsions:
REMARK  status: ('A' for Active; 'I' for Inactive)
REMARK    1  A    between atoms: N1_1  and  C2_2 
REMARK    2  A    between atoms: N8_8  and  C9_9 
REMARK    3  A    between atoms: C9_9  and  C10_10 
REMARK    4  A    between atoms: C10_10  and  C11_11 
REMARK    5  A    between atoms: C11_11  and  C12_12 
REMARK    6  A    between atoms: C11_11  and  C14_14 
REMARK    7  A    between atoms: C12_12  and  O13_13 
REMARK    8  A    between atoms: C14_14  and  O15_15 
ROOT
ATOM      1  C2  ZIN A   1      20.605  -0.124  12.024  0.00  0.00     0.703 A 
ATOM      2  N3  ZIN A   1      20.215  -0.643  10.882  0.00  0.00    -0.044 NA
ATOM      3  C4  ZIN A   1      19.224  -1.541  10.832  0.00  0.00     0.184 A 
ATOM      4  C5  ZIN A   1      18.589  -1.938  12.014  0.00  0.00     0.173 A 
ATOM      5  N6  ZIN A   1      17.638  -2.843  11.675  0.00  0.00    -0.234 NA
ATOM      6  C7  ZIN A   1      17.653  -3.021  10.387  0.00  0.00     0.212 A 
ATOM      7  N8  ZIN A   1      18.617  -2.236   9.822  0.00  0.00    -0.324 N 
ATOM      8  C16 ZIN A   1      19.019  -1.372  13.237  0.00  0.00     0.292 A 
ATOM      9  O17 ZIN A   1      18.493  -1.688  14.291  0.00  0.00    -0.265 OA
ATOM     10  N18 ZIN A   1      20.029  -0.475  13.208  0.00  0.00    -0.152 N 
ATOM     11  H33 ZIN A   1      20.341  -0.072  14.035  0.00  0.00     0.187 HD
ENDROOT
BRANCH   7  12
ATOM     12  C9  ZIN A   1      18.942  -2.155   8.396  0.00  0.00     0.132 C 
BRANCH  12  13
ATOM     13  C10 ZIN A   1      18.207  -0.968   7.772  0.00  0.00     0.029 C 
BRANCH  13  14
ATOM     14  C11 ZIN A   1      19.198  -0.116   6.976  0.00  0.00     0.034 C 
BRANCH  14  15
ATOM     15  C12 ZIN A   1      18.812  -0.135   5.495  0.00  0.00     0.170 C 
BRANCH  15  16
ATOM     16  O13 ZIN A   1      19.975  -0.385   4.704  0.00  0.00    -0.400 OA
ATOM     17  H29 ZIN A   1      20.699   0.237   4.860  0.00  0.00     0.209 HD
ENDBRANCH  15  16
ENDBRANCH  14  15
BRANCH  14  18
ATOM     18  C14 ZIN A   1      19.162   1.324   7.494  0.00  0.00     0.170 C 
BRANCH  18  19
ATOM     19  O15 ZIN A   1      19.931   1.416   8.695  0.00  0.00    -0.400 OA
ATOM     20  H32 ZIN A   1      19.759   2.215   9.212  0.00  0.00     0.209 HD
ENDBRANCH  18  19
ENDBRANCH  14  18
ENDBRANCH  13  14
ENDBRANCH  12  13
ENDBRANCH   7  12
BRANCH   1  21
ATOM     21  N1  ZIN A   1      21.625   0.794  12.025  0.00  0.00    -0.233 N 
ATOM     22  H19 ZIN A   1      21.683   1.455  11.317  0.00  0.00     0.174 HD
ATOM     23  H20 ZIN A   1      22.285   0.786  12.736  0.00  0.00     0.174 HD
ENDBRANCH   1  21
TORSDOF 8
ENDMDL
MODEL 4
REMARK VINA RESULT:      -6.1      5.324      8.745
REMARK  8 active torsions:
REMARK  status: ('A' for Active; 'I' for Inactive)
REMARK    1  A    between atoms: N1_1  and  C2_2 
REMARK    2  A    between atoms: N8_8  and  C9_9 
REMARK    3  A    between atoms: C9_9  and  C10_10 
REMARK    4  A    between atoms: C10_10  and  C11_11 
REMARK    5  A    between atoms: C11_11  and  C12_12 
REMARK    6  A    between atoms: C11_11  and  C14_14 
REMARK    7  A    between atoms: C12_12  and  O13_13 
REMARK    8  A    between atoms: C14_14  and  O15_15 
ROOT
ATOM      1  C2  ZIN A   1      18.551  -3.054   7.315  0.00  0.00     0.703 A 
ATOM      2  N3  ZIN A   1      18.365  -1.968   8.031  0.00  0.00    -0.044 NA
ATOM      3  C4  ZIN A   1      18.598  -0.753   7.521  0.00  0.00     0.184 A 
ATOM      4  C5  ZIN A   1      19.049  -0.631   6.202  0.00  0.00     0.173 A 
ATOM      5  N6  ZIN A   1      19.201   0.693   5.950  0.00  0.00    -0.234 NA
ATOM      6  C7  ZIN A   1      18.879   1.373   7.011  0.00  0.00     0.212 A 
ATOM      7  N8  ZIN A   1      18.499   0.522   8.009  0.00  0.00    -0.324 N 
ATOM      8  C16 ZIN A   1      19.245  -1.807   5.441  0.00  0.00     0.292 A 
ATOM      9  O17 ZIN A   1      19.636  -1.747   4.288  0.00  0.00    -0.265 OA
ATOM     10  N18 ZIN A   1      18.993  -2.998   6.027  0.00  0.00    -0.152 N 
ATOM     11  H33 ZIN A   1      19.120  -3.819   5.524  0.00  0.00     0.187 HD
ENDROOT
BRANCH   7  12
ATOM     12  C9  ZIN A   1      18.066   0.904   9.355  0.00  0.00     0.132 C 
BRANCH  12  13
ATOM     13  C10 ZIN A   1      19.282   1.326  10.182  0.00  0.00     0.029 C 
BRANCH  13  14
ATOM     14  C11 ZIN A   1      19.490   0.331  11.326  0.00  0.00     0.034 C 
BRANCH  14  15
ATOM     15  C12 ZIN A   1      20.266  -0.883  10.812  0.00  0.00     0.170 C 
BRANCH  15  16
ATOM     16  O13 ZIN A   1      21.258  -0.453   9.878  0.00  0.00    -0.400 OA
ATOM     17  H29 ZIN A   1      21.072  -0.703   8.963  0.00  0.00     0.209 HD
ENDBRANCH  15  16
ENDBRANCH  14  15
BRANCH  14  18
ATOM     18  C14 ZIN A   1      20.283   1.005  12.448  0.00  0.00     0.170 C 
BRANCH  18  19
ATOM     19  O15 ZIN A   1      21.673   0.715  12.290  0.00  0.00    -0.400 OA
ATOM     20  H32 ZIN A   1      22.073   0.276  13.053  0.00  0.00     0.209 HD
ENDBRANCH  18  19
ENDBRANCH  14  18
ENDBRANCH  13  14
ENDBRANCH  12  13
ENDBRANCH   7  12
BRANCH   1  21
ATOM     21  N1  ZIN A   1      18.297  -4.277   7.881  0.00  0.00    -0.233 N 
ATOM     22  H19 ZIN A   1      18.051  -4.336   8.818  0.00  0.00     0.174 HD
ATOM     23  H20 ZIN A   1      18.358  -5.083   7.344  0.00  0.00     0.174 HD
ENDBRANCH   1  21
TORSDOF 8
ENDMDL
MODEL 5
REMARK VINA RESULT:      -6.0      4.166      6.458
REMARK  8 active torsions:
REMARK  status: ('A' for Active; 'I' for Inactive)
REMARK    1  A    between atoms: N1_1  and  C2_2 
REMARK    2  A    between atoms: N8_8  and  C9_9 
REMARK    3  A    between atoms: C9_9  and  C10_10 
REMARK    4  A    between atoms: C10_10  and  C11_11 
REMARK    5  A    between atoms: C11_11  and  C12_12 
REMARK    6  A    between atoms: C11_11  and  C14_14 
REMARK    7  A    between atoms: C12_12  and  O13_13 
REMARK    8  A    between atoms: C14_14  and  O15_15 
ROOT
ATOM      1  C2  ZIN A   1      20.152  -1.332  11.052  0.00  0.00     0.703 A 
ATOM      2  N3  ZIN A   1      19.867  -0.764   9.902  0.00  0.00    -0.044 NA
ATOM      3  C4  ZIN A   1      19.470   0.513   9.839  0.00  0.00     0.184 A 
ATOM      4  C5  ZIN A   1      19.353   1.260  11.017  0.00  0.00     0.173 A 
ATOM      5  N6  ZIN A   1      18.939   2.502  10.665  0.00  0.00    -0.234 NA
ATOM      6  C7  ZIN A   1      18.797   2.559   9.373  0.00  0.00     0.212 A 
ATOM      7  N8  ZIN A   1      19.114   1.352   8.819  0.00  0.00    -0.324 N 
ATOM      8  C16 ZIN A   1      19.663   0.637  12.248  0.00  0.00     0.292 A 
ATOM      9  O17 ZIN A   1      19.576   1.250  13.298  0.00  0.00    -0.265 OA
ATOM     10  N18 ZIN A   1      20.052  -0.657  12.232  0.00  0.00    -0.152 N 
ATOM     11  H33 ZIN A   1      20.270  -1.106  13.065  0.00  0.00     0.187 HD
ENDROOT
BRANCH   7  12
ATOM     12  C9  ZIN A   1      19.080   1.018   7.393  0.00  0.00     0.132 C 
BRANCH  12  13
ATOM     13  C10 ZIN A   1      17.762   0.313   7.066  0.00  0.00     0.029 C 
BRANCH  13  14
ATOM     14  C11 ZIN A   1      18.008  -0.762   6.006  0.00  0.00     0.034 C 
BRANCH  14  15
ATOM     15  C12 ZIN A   1      18.984  -0.229   4.956  0.00  0.00     0.170 C 
BRANCH  15  16
ATOM     16  O13 ZIN A   1      19.856  -1.282   4.539  0.00  0.00    -0.400 OA
ATOM     17  H29 ZIN A   1      20.782  -1.018   4.458  0.00  0.00     0.209 HD
ENDBRANCH  15  16
ENDBRANCH  14  15
BRANCH  14  18
ATOM     18  C14 ZIN A   1      18.602  -2.006   6.671  0.00  0.00     0.170 C 
BRANCH  18  19
ATOM     19  O15 ZIN A   1      17.881  -2.294   7.871  0.00  0.00    -0.400 OA
ATOM     20  H32 ZIN A   1      17.185  -2.957   7.764  0.00  0.00     0.209 HD
ENDBRANCH  18  19
ENDBRANCH  14  18
ENDBRANCH  13  14
ENDBRANCH  12  13
ENDBRANCH   7  12
BRANCH   1  21
ATOM     21  N1  ZIN A   1      20.556  -2.643  11.066  0.00  0.00    -0.233 N 
ATOM     22  H19 ZIN A   1      21.479  -2.863  11.268  0.00  0.00     0.174 HD
ATOM     23  H20 ZIN A   1      19.919  -3.350  10.880  0.00  0.00     0.174 HD
ENDBRANCH   1  21
TORSDOF 8
ENDMDL
MODEL 6
REMARK VINA RESULT:      -6.0      3.142      6.028
REMARK  8 active torsions:
REMARK  status: ('A' for Active; 'I' for Inactive)
REMARK    1  A    between atoms: N1_1  and  C2_2 
REMARK    2  A    between atoms: N8_8  and  C9_9 
REMARK    3  A    between atoms: C9_9  and  C10_10 
REMARK    4  A    between atoms: C10_10  and  C11_11 
REMARK    5  A    between atoms: C11_11  and  C12_12 
REMARK    6  A    between atoms: C11_11  and  C14_14 
REMARK    7  A    between atoms: C12_12  and  O13_13 
REMARK    8  A    between atoms: C14_14  and  O15_15 
ROOT
ATOM      1  C2  ZIN A   1      20.575   0.152  10.803  0.00  0.00     0.703 A 
ATOM      2  N3  ZIN A   1      19.989   0.596  11.893  0.00  0.00    -0.044 NA
ATOM      3  C4  ZIN A   1      19.014   1.511  11.831  0.00  0.00     0.184 A 
ATOM      4  C5  ZIN A   1      18.608   2.007  10.587  0.00  0.00     0.173 A 
ATOM      5  N6  ZIN A   1      17.620   2.906  10.817  0.00  0.00    -0.234 NA
ATOM      6  C7  ZIN A   1      17.402   2.990  12.096  0.00  0.00     0.212 A 
ATOM      7  N8  ZIN A   1      18.241   2.145  12.764  0.00  0.00    -0.324 N 
ATOM      8  C16 ZIN A   1      19.247   1.521   9.422  0.00  0.00     0.292 A 
ATOM      9  O17 ZIN A   1      18.924   1.925   8.318  0.00  0.00    -0.265 OA
ATOM     10  N18 ZIN A   1      20.226   0.601   9.565  0.00  0.00    -0.152 N 
ATOM     11  H33 ZIN A   1      20.679   0.252   8.780  0.00  0.00     0.187 HD
ENDROOT
BRANCH   7  12
ATOM     12  C9  ZIN A   1      18.301   1.953  14.215  0.00  0.00     0.132 C 
BRANCH  12  13
ATOM     13  C10 ZIN A   1      17.420   0.767  14.610  0.00  0.00     0.029 C 
BRANCH  13  14
ATOM     14  C11 ZIN A   1      18.253  -0.246  15.399  0.00  0.00     0.034 C 
BRANCH  14  15
ATOM     15  C12 ZIN A   1      17.431  -0.777  16.576  0.00  0.00     0.170 C 
BRANCH  15  16
ATOM     16  O13 ZIN A   1      16.587   0.264  17.074  0.00  0.00    -0.400 OA
ATOM     17  H29 ZIN A   1      15.738  -0.047  17.414  0.00  0.00     0.209 HD
ENDBRANCH  15  16
ENDBRANCH  14  15
BRANCH  14  18
ATOM     18  C14 ZIN A   1      18.643  -1.408  14.483  0.00  0.00     0.170 C 
BRANCH  18  19
ATOM     19  O15 ZIN A   1      20.042  -1.341  14.198  0.00  0.00    -0.400 OA
ATOM     20  H32 ZIN A   1      20.442  -2.195  13.986  0.00  0.00     0.209 HD
ENDBRANCH  18  19
ENDBRANCH  14  18
ENDBRANCH  13  14
ENDBRANCH  12  13
ENDBRANCH   7  12
BRANCH   1  21
ATOM     21  N1  ZIN A   1      21.569  -0.787  10.917  0.00  0.00    -0.233 N 
ATOM     22  H19 ZIN A   1      21.642  -1.320  11.724  0.00  0.00     0.174 HD
ATOM     23  H20 ZIN A   1      22.195  -0.922  10.189  0.00  0.00     0.174 HD
ENDBRANCH   1  21
TORSDOF 8
ENDMDL
MODEL 7
REMARK VINA RESULT:      -6.0      4.739      6.252
REMARK  8 active torsions:
REMARK  status: ('A' for Active; 'I' for Inactive)
REMARK    1  A    between atoms: N1_1  and  C2_2 
REMARK    2  A    between atoms: N8_8  and  C9_9 
REMARK    3  A    between atoms: C9_9  and  C10_10 
REMARK    4  A    between atoms: C10_10  and  C11_11 
REMARK    5  A    between atoms: C11_11  and  C12_12 
REMARK    6  A    between atoms: C11_11  and  C14_14 
REMARK    7  A    between atoms: C12_12  and  O13_13 
REMARK    8  A    between atoms: C14_14  and  O15_15 
ROOT
ATOM      1  C2  ZIN A   1      20.547   0.571  11.202  0.00  0.00     0.703 A 
ATOM      2  N3  ZIN A   1      20.153  -0.545  10.631  0.00  0.00    -0.044 NA
ATOM      3  C4  ZIN A   1      19.225  -0.539   9.667  0.00  0.00     0.184 A 
ATOM      4  C5  ZIN A   1      18.661   0.674   9.257  0.00  0.00     0.173 A 
ATOM      5  N6  ZIN A   1      17.763   0.389   8.281  0.00  0.00    -0.234 NA
ATOM      6  C7  ZIN A   1      17.743  -0.894   8.075  0.00  0.00     0.212 A 
ATOM      7  N8  ZIN A   1      18.631  -1.511   8.908  0.00  0.00    -0.324 N 
ATOM      8  C16 ZIN A   1      19.093   1.868   9.880  0.00  0.00     0.292 A 
ATOM      9  O17 ZIN A   1      18.629   2.947   9.553  0.00  0.00    -0.265 OA
ATOM     10  N18 ZIN A   1      20.030   1.782  10.849  0.00  0.00    -0.152 N 
ATOM     11  H33 ZIN A   1      20.343   2.587  11.291  0.00  0.00     0.187 HD
ENDROOT
BRANCH   7  12
ATOM     12  C9  ZIN A   1      18.898  -2.949   8.978  0.00  0.00     0.132 C 
BRANCH  12  13
ATOM     13  C10 ZIN A   1      17.829  -3.626   9.836  0.00  0.00     0.029 C 
BRANCH  13  14
ATOM     14  C11 ZIN A   1      18.441  -4.052  11.173  0.00  0.00     0.034 C 
BRANCH  14  15
ATOM     15  C12 ZIN A   1      19.958  -4.182  11.020  0.00  0.00     0.170 C 
BRANCH  15  16
ATOM     16  O13 ZIN A   1      20.605  -3.295  11.935  0.00  0.00    -0.400 OA
ATOM     17  H29 ZIN A   1      19.998  -2.802  12.502  0.00  0.00     0.209 HD
ENDBRANCH  15  16
ENDBRANCH  14  15
BRANCH  14  18
ATOM     18  C14 ZIN A   1      18.123  -2.998  12.236  0.00  0.00     0.170 C 
BRANCH  18  19
ATOM     19  O15 ZIN A   1      17.025  -2.196  11.798  0.00  0.00    -0.400 OA
ATOM     20  H32 ZIN A   1      16.260  -2.705  11.496  0.00  0.00     0.209 HD
ENDBRANCH  18  19
ENDBRANCH  14  18
ENDBRANCH  13  14
ENDBRANCH  12  13
ENDBRANCH   7  12
BRANCH   1  21
ATOM     21  N1  ZIN A   1      21.503   0.515  12.186  0.00  0.00    -0.233 N 
ATOM     22  H19 ZIN A   1      22.274  -0.064  12.079  0.00  0.00     0.174 HD
ATOM     23  H20 ZIN A   1      21.410   1.057  12.984  0.00  0.00     0.174 HD
ENDBRANCH   1  21
TORSDOF 8
ENDMDL
MODEL 8
REMARK VINA RESULT:      -5.9      2.320      5.456
REMARK  8 active torsions:
REMARK  status: ('A' for Active; 'I' for Inactive)
REMARK    1  A    between atoms: N1_1  and  C2_2 
REMARK    2  A    between atoms: N8_8  and  C9_9 
REMARK    3  A    between atoms: C9_9  and  C10_10 
REMARK    4  A    between atoms: C10_10  and  C11_11 
REMARK    5  A    between atoms: C11_11  and  C12_12 
REMARK    6  A    between atoms: C11_11  and  C14_14 
REMARK    7  A    between atoms: C12_12  and  O13_13 
REMARK    8  A    between atoms: C14_14  and  O15_15 
ROOT
ATOM      1  C2  ZIN A   1      20.075   1.687  11.760  0.00  0.00     0.703 A 
ATOM      2  N3  ZIN A   1      19.847   0.963  12.833  0.00  0.00    -0.044 NA
ATOM      3  C4  ZIN A   1      19.392  -0.292  12.737  0.00  0.00     0.184 A 
ATOM      4  C5  ZIN A   1      19.153  -0.847  11.475  0.00  0.00     0.173 A 
ATOM      5  N6  ZIN A   1      18.705  -2.112  11.670  0.00  0.00    -0.234 NA
ATOM      6  C7  ZIN A   1      18.654  -2.358  12.946  0.00  0.00     0.212 A 
ATOM      7  N8  ZIN A   1      19.071  -1.263  13.646  0.00  0.00    -0.324 N 
ATOM      8  C16 ZIN A   1      19.403  -0.057  10.328  0.00  0.00     0.292 A 
ATOM      9  O17 ZIN A   1      19.209  -0.500   9.209  0.00  0.00    -0.265 OA
ATOM     10  N18 ZIN A   1      19.856   1.203  10.505  0.00  0.00    -0.152 N 
ATOM     11  H33 ZIN A   1      20.035   1.765   9.734  0.00  0.00     0.187 HD
ENDROOT
BRANCH   7  12
ATOM     12  C9  ZIN A   1      19.157  -1.147  15.104  0.00  0.00     0.132 C 
BRANCH  12  13
ATOM     13  C10 ZIN A   1      17.832  -0.615  15.653  0.00  0.00     0.029 C 
BRANCH  13  14
ATOM     14  C11 ZIN A   1      18.111   0.388  16.774  0.00  0.00     0.034 C 
BRANCH  14  15
ATOM     15  C12 ZIN A   1      19.169  -0.185  17.719  0.00  0.00     0.170 C 
BRANCH  15  16
ATOM     16  O13 ZIN A   1      19.856   0.886  18.370  0.00  0.00    -0.400 OA
ATOM     17  H29 ZIN A   1      19.850   0.828  19.335  0.00  0.00     0.209 HD
ENDBRANCH  15  16
ENDBRANCH  14  15
BRANCH  14  18
ATOM     18  C14 ZIN A   1      18.622   1.698  16.170  0.00  0.00     0.170 C 
BRANCH  18  19
ATOM     19  O15 ZIN A   1      17.816   2.048  15.043  0.00  0.00    -0.400 OA
ATOM     20  H32 ZIN A   1      18.277   2.580  14.379  0.00  0.00     0.209 HD
ENDBRANCH  18  19
ENDBRANCH  14  18
ENDBRANCH  13  14
ENDBRANCH  12  13
ENDBRANCH   7  12
BRANCH   1  21
ATOM     21  N1  ZIN A   1      20.542   2.969  11.909  0.00  0.00    -0.233 N 
ATOM     22  H19 ZIN A   1      21.479   3.165  11.751  0.00  0.00     0.174 HD
ATOM     23  H20 ZIN A   1      19.935   3.680  12.167  0.00  0.00     0.174 HD
ENDBRANCH   1  21
TORSDOF 8
ENDMDL
MODEL 9
REMARK VINA RESULT:      -5.8      2.605      6.256
REMARK  8 active torsions:
REMARK  status: ('A' for Active; 'I' for Inactive)
REMARK    1  A    between atoms: N1_1  and  C2_2 
REMARK    2  A    between atoms: N8_8  and  C9_9 
REMARK    3  A    between atoms: C9_9  and  C10_10 
REMARK    4  A    between atoms: C10_10  and  C11_11 
REMARK    5  A    between atoms: C11_11  and  C12_12 
REMARK    6  A    between atoms: C11_11  and  C14_14 
REMARK    7  A    between atoms: C12_12  and  O13_13 
REMARK    8  A    between atoms: C14_14  and  O15_15 
ROOT
ATOM      1  C2  ZIN A   1      20.529   0.339  11.241  0.00  0.00     0.703 A 
ATOM      2  N3  ZIN A   1      20.185   0.774  12.433  0.00  0.00    -0.044 NA
ATOM      3  C4  ZIN A   1      19.252   1.721  12.582  0.00  0.00     0.184 A 
ATOM      4  C5  ZIN A   1      18.628   2.262  11.452  0.00  0.00     0.173 A 
ATOM      5  N6  ZIN A   1      17.739   3.188  11.888  0.00  0.00    -0.234 NA
ATOM      6  C7  ZIN A   1      17.780   3.246  13.187  0.00  0.00     0.212 A 
ATOM      7  N8  ZIN A   1      18.701   2.356  13.661  0.00  0.00    -0.324 N 
ATOM      8  C16 ZIN A   1      19.007   1.785  10.175  0.00  0.00     0.292 A 
ATOM      9  O17 ZIN A   1      18.490   2.228   9.163  0.00  0.00    -0.265 OA
ATOM     10  N18 ZIN A   1      19.961   0.831  10.104  0.00  0.00    -0.152 N 
ATOM     11  H33 ZIN A   1      20.237   0.488   9.239  0.00  0.00     0.187 HD
ENDROOT
BRANCH   7  12
ATOM     12  C9  ZIN A   1      19.037   2.125  15.068  0.00  0.00     0.132 C 
BRANCH  12  13
ATOM     13  C10 ZIN A   1      18.136   1.027  15.634  0.00  0.00     0.029 C 
BRANCH  13  14
ATOM     14  C11 ZIN A   1      18.234   1.024  17.162  0.00  0.00     0.034 C 
BRANCH  14  15
ATOM     15  C12 ZIN A   1      18.383  -0.415  17.660  0.00  0.00     0.170 C 
BRANCH  15  16
ATOM     16  O13 ZIN A   1      19.644  -0.564  18.314  0.00  0.00    -0.400 OA
ATOM     17  H29 ZIN A   1      19.951   0.235  18.764  0.00  0.00     0.209 HD
ENDBRANCH  15  16
ENDBRANCH  14  15
BRANCH  14  18
ATOM     18  C14 ZIN A   1      19.452   1.843  17.595  0.00  0.00     0.170 C 
BRANCH  18  19
ATOM     19  O15 ZIN A   1      19.407   2.050  19.009  0.00  0.00    -0.400 OA
ATOM     20  H32 ZIN A   1      19.983   2.761  19.321  0.00  0.00     0.209 HD
ENDBRANCH  18  19
ENDBRANCH  14  18
ENDBRANCH  13  14
ENDBRANCH  12  13
ENDBRANCH   7  12
BRANCH   1  21
ATOM     21  N1  ZIN A   1      21.490  -0.635  11.139  0.00  0.00    -0.233 N 
ATOM     22  H19 ZIN A   1      22.427  -0.387  11.092  0.00  0.00     0.174 HD
ATOM     23  H20 ZIN A   1      21.234  -1.570  11.120  0.00  0.00     0.174 HD
ENDBRANCH   1  21
TORSDOF 8
ENDMDL
