MODEL 1
REMARK VINA RESULT:      -3.4      0.000      0.000
REMARK  4 active torsions:
REMARK  status: ('A' for Active; 'I' for Inactive)
REMARK    1  A    between atoms: N1_1  and  C5_5 
REMARK    2  A    between atoms: C5_5  and  C7_6 
REMARK    3  A    between atoms: C5_5  and  C9_8 
REMARK    4  A    between atoms: C7_6  and  O8_7 
ROOT
ATOM      1  C5  <0> d   1      20.170   0.379  12.250  0.00  0.00     0.306 C 
ENDROOT
BRANCH   1   2
ATOM      2  N1  <0> d   1      21.615   0.625  12.162  0.00  0.00    -0.063 N 
ATOM      3  H2  <0> d   1      21.780   1.606  11.997  0.00  0.00     0.275 HD
ATOM      4  H3  <0> d   1      22.002   0.086  11.401  0.00  0.00     0.275 HD
ATOM      5  H4  <0> d   1      22.056   0.350  13.027  0.00  0.00     0.275 HD
ENDBRANCH   1   2
BRANCH   1   6
ATOM      6  C7  <0> d   1      19.784  -0.746  11.286  0.00  0.00     0.208 C 
BRANCH   6   7
ATOM      7  O8  <0> d   1      20.869  -1.668  11.173  0.00  0.00    -0.398 OA
ATOM      8  H14 <0> d   1      20.865  -2.182  10.354  0.00  0.00     0.209 HD
ENDBRANCH   6   7
ENDBRANCH   1   6
BRANCH   1   9
ATOM      9  C9  <0> d   1      19.814  -0.022  13.659  0.00  0.00     0.206 C 
ATOM     10  O10 <0> d   1      19.665  -1.200  13.937  0.00  0.00    -0.646 OA
ATOM     11  O11 <0> d   1      19.674   0.829  14.519  0.00  0.00    -0.646 OA
ENDBRANCH   1   9
TORSDOF 4
ENDMDL
MODEL 2
REMARK VINA RESULT:      -3.4      6.587      7.463
REMARK  4 active torsions:
REMARK  status: ('A' for Active; 'I' for Inactive)
REMARK    1  A    between atoms: N1_1  and  C5_5 
REMARK    2  A    between atoms: C5_5  and  C7_6 
REMARK    3  A    between atoms: C5_5  and  C9_8 
REMARK    4  A    between atoms: C7_6  and  O8_7 
ROOT
ATOM      1  C5  <0> d   1      18.073  -1.428   5.467  0.00  0.00     0.306 C 
ENDROOT
BRANCH   1   2
ATOM      2  N1  <0> d   1      17.205  -0.710   6.409  0.00  0.00    -0.063 N 
ATOM      3  H2  <0> d   1      17.771  -0.240   7.099  0.00  0.00     0.275 HD
ATOM      4  H3  <0> d   1      16.592  -1.367   6.870  0.00  0.00     0.275 HD
ATOM      5  H4  <0> d   1      16.652  -0.031   5.908  0.00  0.00     0.275 HD
ENDBRANCH   1   2
BRANCH   1   6
ATOM      6  C7  <0> d   1      18.670  -0.435   4.467  0.00  0.00     0.208 C 
BRANCH   6   7
ATOM      7  O8  <0> d   1      20.088  -0.390   4.629  0.00  0.00    -0.398 OA
ATOM      8  H14 <0> d   1      20.500  -1.260   4.726  0.00  0.00     0.209 HD
ENDBRANCH   6   7
ENDBRANCH   1   6
BRANCH   1   9
ATOM      9  C9  <0> d   1      19.185  -2.105   6.226  0.00  0.00     0.206 C 
ATOM     10  O10 <0> d   1      19.803  -3.022   5.712  0.00  0.00    -0.646 OA
ATOM     11  O11 <0> d   1      19.467  -1.737   7.353  0.00  0.00    -0.646 OA
ENDBRANCH   1   9
TORSDOF 4
ENDMDL
MODEL 3
REMARK VINA RESULT:      -3.4      2.393      3.849
REMARK  4 active torsions:
REMARK  status: ('A' for Active; 'I' for Inactive)
REMARK    1  A    between atoms: N1_1  and  C5_5 
REMARK    2  A    between atoms: C5_5  and  C7_6 
REMARK    3  A    between atoms: C5_5  and  C9_8 
REMARK    4  A    between atoms: C7_6  and  O8_7 
ROOT
ATOM      1  C5  <0> d   1      20.170  -0.359  10.870  0.00  0.00     0.306 C 
ENDROOT
BRANCH   1   2
ATOM      2  N1  <0> d   1      21.613  -0.623  10.937  0.00  0.00    -0.063 N 
ATOM      3  H2  <0> d   1      21.773  -1.619  10.959  0.00  0.00     0.275 HD
ATOM      4  H3  <0> d   1      21.994  -0.203  11.773  0.00  0.00     0.275 HD
ATOM      5  H4  <0> d   1      22.066  -0.227  10.127  0.00  0.00     0.275 HD
ENDBRANCH   1   2
BRANCH   1   6
ATOM      6  C7  <0> d   1      19.815   0.779  11.830  0.00  0.00     0.208 C 
BRANCH   6   7
ATOM      7  O8  <0> d   1      20.897   1.711  11.884  0.00  0.00    -0.398 OA
ATOM      8  H14 <0> d   1      20.786   2.404  12.550  0.00  0.00     0.209 HD
ENDBRANCH   6   7
ENDBRANCH   1   6
BRANCH   1   9
ATOM      9  C9  <0> d   1      19.797   0.035   9.464  0.00  0.00     0.206 C 
ATOM     10  O10 <0> d   1      19.523   1.196   9.209  0.00  0.00    -0.646 OA
ATOM     11  O11 <0> d   1      19.768  -0.805   8.582  0.00  0.00    -0.646 OA
ENDBRANCH   1   9
TORSDOF 4
ENDMDL
MODEL 4
REMARK VINA RESULT:      -3.4      2.131      3.151
REMARK  4 active torsions:
REMARK  status: ('A' for Active; 'I' for Inactive)
REMARK    1  A    between atoms: N1_1  and  C5_5 
REMARK    2  A    between atoms: C5_5  and  C7_6 
REMARK    3  A    between atoms: C5_5  and  C9_8 
REMARK    4  A    between atoms: C7_6  and  O8_7 
ROOT
ATOM      1  C5  <0> d   1      20.137   0.545  12.363  0.00  0.00     0.306 C 
ENDROOT
BRANCH   1   2
ATOM      2  N1  <0> d   1      21.580   0.618  12.105  0.00  0.00    -0.063 N 
ATOM      3  H2  <0> d   1      21.752   1.225  11.318  0.00  0.00     0.275 HD
ATOM      4  H3  <0> d   1      21.933  -0.306  11.899  0.00  0.00     0.275 HD
ATOM      5  H4  <0> d   1      22.050   0.983  12.920  0.00  0.00     0.275 HD
ENDBRANCH   1   2
BRANCH   1   6
ATOM      6  C7  <0> d   1      19.896   0.346  13.861  0.00  0.00     0.208 C 
BRANCH   6   7
ATOM      7  O8  <0> d   1      19.686   1.616  14.482  0.00  0.00    -0.398 OA
ATOM      8  H14 <0> d   1      20.379   1.867  15.109  0.00  0.00     0.209 HD
ENDBRANCH   6   7
ENDBRANCH   1   6
BRANCH   1   9
ATOM      9  C9  <0> d   1      19.482   1.827  11.915  0.00  0.00     0.206 C 
ATOM     10  O10 <0> d   1      20.165   2.807  11.672  0.00  0.00    -0.646 OA
ATOM     11  O11 <0> d   1      18.270   1.883  11.795  0.00  0.00    -0.646 OA
ENDBRANCH   1   9
TORSDOF 4
ENDMDL
MODEL 5
REMARK VINA RESULT:      -3.4      7.659      8.098
REMARK  4 active torsions:
REMARK  status: ('A' for Active; 'I' for Inactive)
REMARK    1  A    between atoms: N1_1  and  C5_5 
REMARK    2  A    between atoms: C5_5  and  C7_6 
REMARK    3  A    between atoms: C5_5  and  C9_8 
REMARK    4  A    between atoms: C7_6  and  O8_7 
ROOT
ATOM      1  C5  <0> d   1      18.555  -3.111   5.181  0.00  0.00     0.306 C 
ENDROOT
BRANCH   1   2
ATOM      2  N1  <0> d   1      18.702  -3.529   3.781  0.00  0.00    -0.063 N 
ATOM      3  H2  <0> d   1      18.394  -4.485   3.681  0.00  0.00     0.275 HD
ATOM      4  H3  <0> d   1      19.671  -3.458   3.508  0.00  0.00     0.275 HD
ATOM      5  H4  <0> d   1      18.142  -2.932   3.191  0.00  0.00     0.275 HD
ENDBRANCH   1   2
BRANCH   1   6
ATOM      6  C7  <0> d   1      19.251  -4.125   6.092  0.00  0.00     0.208 C 
BRANCH   6   7
ATOM      7  O8  <0> d   1      20.484  -3.575   6.560  0.00  0.00    -0.398 OA
ATOM      8  H14 <0> d   1      21.263  -3.894   6.082  0.00  0.00     0.209 HD
ENDBRANCH   6   7
ENDBRANCH   1   6
BRANCH   1   9
ATOM      9  C9  <0> d   1      19.183  -1.753   5.368  0.00  0.00     0.206 C 
ATOM     10  O10 <0> d   1      18.959  -1.113   6.381  0.00  0.00    -0.646 OA
ATOM     11  O11 <0> d   1      19.915  -1.296   4.507  0.00  0.00    -0.646 OA
ENDBRANCH   1   9
TORSDOF 4
ENDMDL
MODEL 6
REMARK VINA RESULT:      -3.4      5.155      5.514
REMARK  4 active torsions:
REMARK  status: ('A' for Active; 'I' for Inactive)
REMARK    1  A    between atoms: N1_1  and  C5_5 
REMARK    2  A    between atoms: C5_5  and  C7_6 
REMARK    3  A    between atoms: C5_5  and  C9_8 
REMARK    4  A    between atoms: C7_6  and  O8_7 
ROOT
ATOM      1  C5  <0> d   1      19.033   1.611  16.574  0.00  0.00     0.306 C 
ENDROOT
BRANCH   1   2
ATOM      2  N1  <0> d   1      17.690   1.126  16.232  0.00  0.00    -0.063 N 
ATOM      3  H2  <0> d   1      17.568   0.190  16.590  0.00  0.00     0.275 HD
ATOM      4  H3  <0> d   1      17.581   1.118  15.229  0.00  0.00     0.275 HD
ATOM      5  H4  <0> d   1      16.998   1.735  16.641  0.00  0.00     0.275 HD
ENDBRANCH   1   2
BRANCH   1   6
ATOM      6  C7  <0> d   1      19.048   3.141  16.537  0.00  0.00     0.208 C 
BRANCH   6   7
ATOM      7  O8  <0> d   1      20.399   3.603  16.504  0.00  0.00    -0.398 OA
ATOM      8  H14 <0> d   1      20.491   4.559  16.623  0.00  0.00     0.209 HD
ENDBRANCH   6   7
ENDBRANCH   1   6
BRANCH   1   9
ATOM      9  C9  <0> d   1      19.400   1.139  17.958  0.00  0.00     0.206 C 
ATOM     10  O10 <0> d   1      19.377  -0.052  18.222  0.00  0.00    -0.646 OA
ATOM     11  O11 <0> d   1      19.718   1.946  18.814  0.00  0.00    -0.646 OA
ENDBRANCH   1   9
TORSDOF 4
ENDMDL
MODEL 7
REMARK VINA RESULT:      -3.4      2.588      2.959
REMARK  4 active torsions:
REMARK  status: ('A' for Active; 'I' for Inactive)
REMARK    1  A    between atoms: N1_1  and  C5_5 
REMARK    2  A    between atoms: C5_5  and  C7_6 
REMARK    3  A    between atoms: C5_5  and  C9_8 
REMARK    4  A    between atoms: C7_6  and  O8_7 
ROOT
ATOM      1  C5  <0> d   1      20.136  -0.548  10.679  0.00  0.00     0.306 C 
ENDROOT
BRANCH   1   2
ATOM      2  N1  <0> d   1      21.570  -0.584  10.993  0.00  0.00    -0.063 N 
ATOM      3  H2  <0> d   1      21.968  -1.448  10.656  0.00  0.00     0.275 HD
ATOM      4  H3  <0> d   1      21.698  -0.523  11.993  0.00  0.00     0.275 HD
ATOM      5  H4  <0> d   1      22.033   0.195  10.548  0.00  0.00     0.275 HD
ENDBRANCH   1   2
BRANCH   1   6
ATOM      6  C7  <0> d   1      19.949  -0.400   9.167  0.00  0.00     0.208 C 
BRANCH   6   7
ATOM      7  O8  <0> d   1      19.707  -1.685   8.590  0.00  0.00    -0.398 OA
ATOM      8  H14 <0> d   1      18.957  -1.706   7.980  0.00  0.00     0.209 HD
ENDBRANCH   6   7
ENDBRANCH   1   6
BRANCH   1   9
ATOM      9  C9  <0> d   1      19.489  -1.827  11.143  0.00  0.00     0.206 C 
ATOM     10  O10 <0> d   1      18.279  -1.879  11.290  0.00  0.00    -0.646 OA
ATOM     11  O11 <0> d   1      20.173  -2.810  11.371  0.00  0.00    -0.646 OA
ENDBRANCH   1   9
TORSDOF 4
ENDMDL
MODEL 8
REMARK VINA RESULT:      -3.3      6.671      7.622
REMARK  4 active torsions:
REMARK  status: ('A' for Active; 'I' for Inactive)
REMARK    1  A    between atoms: N1_1  and  C5_5 
REMARK    2  A    between atoms: C5_5  and  C7_6 
REMARK    3  A    between atoms: C5_5  and  C9_8 
REMARK    4  A    between atoms: C7_6  and  O8_7 
ROOT
ATOM      1  C5  <0> d   1      18.851  -1.310   6.564  0.00  0.00     0.306 C 
ENDROOT
BRANCH   1   2
ATOM      2  N1  <0> d   1      17.412  -1.109   6.775  0.00  0.00    -0.063 N 
ATOM      3  H2  <0> d   1      16.935  -1.132   5.886  0.00  0.00     0.275 HD
ATOM      4  H3  <0> d   1      17.258  -0.214   7.216  0.00  0.00     0.275 HD
ATOM      5  H4  <0> d   1      17.053  -1.842   7.368  0.00  0.00     0.275 HD
ENDBRANCH   1   2
BRANCH   1   6
ATOM      6  C7  <0> d   1      19.315  -2.539   7.349  0.00  0.00     0.208 C 
BRANCH   6   7
ATOM      7  O8  <0> d   1      20.269  -3.267   6.573  0.00  0.00    -0.398 OA
ATOM      8  H14 <0> d   1      21.127  -3.377   7.007  0.00  0.00     0.209 HD
ENDBRANCH   6   7
ENDBRANCH   1   6
BRANCH   1   9
ATOM      9  C9  <0> d   1      19.119  -1.521   5.096  0.00  0.00     0.206 C 
ATOM     10  O10 <0> d   1      20.022  -0.912   4.548  0.00  0.00    -0.646 OA
ATOM     11  O11 <0> d   1      18.434  -2.301   4.457  0.00  0.00    -0.646 OA
ENDBRANCH   1   9
TORSDOF 4
ENDMDL
MODEL 9
REMARK VINA RESULT:      -3.3      2.655      3.105
REMARK  4 active torsions:
REMARK  status: ('A' for Active; 'I' for Inactive)
REMARK    1  A    between atoms: N1_1  and  C5_5 
REMARK    2  A    between atoms: C5_5  and  C7_6 
REMARK    3  A    between atoms: C5_5  and  C9_8 
REMARK    4  A    between atoms: C7_6  and  O8_7 
ROOT
ATOM      1  C5  <0> d   1      19.736   1.998  11.543  0.00  0.00     0.306 C 
ENDROOT
BRANCH   1   2
ATOM      2  N1  <0> d   1      20.725   3.050  11.808  0.00  0.00    -0.063 N 
ATOM      3  H2  <0> d   1      20.515   3.496  12.688  0.00  0.00     0.275 HD
ATOM      4  H3  <0> d   1      20.695   3.735  11.068  0.00  0.00     0.275 HD
ATOM      5  H4  <0> d   1      21.648   2.641  11.851  0.00  0.00     0.275 HD
ENDBRANCH   1   2
BRANCH   1   6
ATOM      6  C7  <0> d   1      20.175   0.700  12.226  0.00  0.00     0.208 C 
BRANCH   6   7
ATOM      7  O8  <0> d   1      21.602   0.623  12.227  0.00  0.00    -0.398 OA
ATOM      8  H14 <0> d   1      21.988   0.477  11.352  0.00  0.00     0.209 HD
ENDBRANCH   6   7
ENDBRANCH   1   6
BRANCH   1   9
ATOM      9  C9  <0> d   1      18.395   2.422  12.085  0.00  0.00     0.206 C 
ATOM     10  O10 <0> d   1      18.334   3.098  13.098  0.00  0.00    -0.646 OA
ATOM     11  O11 <0> d   1      17.372   2.089  11.512  0.00  0.00    -0.646 OA
ENDBRANCH   1   9
TORSDOF 4
ENDMDL
