MODEL 1
REMARK VINA RESULT:      -4.8      0.000      0.000
REMARK  7 active torsions:
REMARK  status: ('A' for Active; 'I' for Inactive)
REMARK    1  A    between atoms: N1_1  and  C5_5 
REMARK    2  A    between atoms: C5_5  and  C6_6 
REMARK    3  A    between atoms: C6_6  and  C7_7 
REMARK    4  A    between atoms: C7_7  and  C8_8 
REMARK    5  A    between atoms: C8_8  and  N9_9 
REMARK    6  A    between atoms: C8_8  and  C13_13 
REMARK    7  A    between atoms: C8_8  and  C16_16 
ROOT
ATOM      1  C8  <0> d   1      18.355   0.103  16.641  0.00  0.00     0.267 C 
ENDROOT
BRANCH   1   2
ATOM      2  C7  <0> d   1      19.122   0.917  15.598  0.00  0.00     0.058 C 
BRANCH   2   3
ATOM      3  C6  <0> d   1      19.468   0.023  14.406  0.00  0.00     0.030 C 
BRANCH   3   4
ATOM      4  C5  <0> d   1      19.774   0.895  13.185  0.00  0.00     0.230 C 
BRANCH   4   5
ATOM      5  N1  <0> d   1      21.084   0.523  12.635  0.00  0.00    -0.079 N 
ATOM      6  H2  <0> d   1      21.298   1.113  11.845  0.00  0.00     0.274 HD
ATOM      7  H3  <0> d   1      21.064  -0.441  12.339  0.00  0.00     0.274 HD
ATOM      8  H4  <0> d   1      21.793   0.642  13.344  0.00  0.00     0.274 HD
ENDBRANCH   4   5
ENDBRANCH   3   4
ENDBRANCH   2   3
ENDBRANCH   1   2
BRANCH   1   9
ATOM      9  N9  <0> d   1      16.922   0.416  16.550  0.00  0.00    -0.055 N 
ATOM     10  H10 <0> d   1      16.733   0.873  15.671  0.00  0.00     0.276 HD
ATOM     11  H11 <0> d   1      16.387  -0.438  16.607  0.00  0.00     0.276 HD
ATOM     12  H12 <0> d   1      16.663   1.026  17.310  0.00  0.00     0.276 HD
ENDBRANCH   1   9
BRANCH   1  13
ATOM     13  C13 <0> d   1      18.858   0.449  18.018  0.00  0.00     0.216 C 
ATOM     14  O14 <0> d   1      18.227   0.102  19.002  0.00  0.00    -0.646 OA
ATOM     15  O15 <0> d   1      19.896   1.076  18.149  0.00  0.00    -0.646 OA
ENDBRANCH   1  13
BRANCH   1  16
ATOM     16  C16 <0> d   1      18.568  -1.390  16.380  0.00  0.00     0.399 C 
ATOM     17  F17 <0> d   1      19.660  -1.842  17.128  0.00  0.00    -0.211 F 
ATOM     18  F18 <0> d   1      17.420  -2.097  16.754  0.00  0.00    -0.211 F 
ENDBRANCH   1  16
TORSDOF 7
ENDMDL
MODEL 2
REMARK VINA RESULT:      -4.8      8.373      9.839
REMARK  7 active torsions:
REMARK  status: ('A' for Active; 'I' for Inactive)
REMARK    1  A    between atoms: N1_1  and  C5_5 
REMARK    2  A    between atoms: C5_5  and  C6_6 
REMARK    3  A    between atoms: C6_6  and  C7_7 
REMARK    4  A    between atoms: C7_7  and  C8_8 
REMARK    5  A    between atoms: C8_8  and  N9_9 
REMARK    6  A    between atoms: C8_8  and  C13_13 
REMARK    7  A    between atoms: C8_8  and  C16_16 
ROOT
ATOM      1  C8  <0> d   1      18.611  -0.974   6.848  0.00  0.00     0.267 C 
ENDROOT
BRANCH   1   2
ATOM      2  C7  <0> d   1      19.466  -0.306   7.925  0.00  0.00     0.058 C 
BRANCH   2   3
ATOM      3  C6  <0> d   1      19.432  -1.150   9.201  0.00  0.00     0.030 C 
BRANCH   3   4
ATOM      4  C5  <0> d   1      19.903  -0.304  10.386  0.00  0.00     0.230 C 
BRANCH   4   5
ATOM      5  N1  <0> d   1      21.326  -0.565  10.637  0.00  0.00    -0.079 N 
ATOM      6  H2  <0> d   1      21.420  -1.209  11.409  0.00  0.00     0.274 HD
ATOM      7  H3  <0> d   1      21.792   0.301  10.864  0.00  0.00     0.274 HD
ATOM      8  H4  <0> d   1      21.746  -0.966   9.812  0.00  0.00     0.274 HD
ENDBRANCH   4   5
ENDBRANCH   3   4
ENDBRANCH   2   3
ENDBRANCH   1   2
BRANCH   1   9
ATOM      9  N9  <0> d   1      17.671  -1.910   7.479  0.00  0.00    -0.055 N 
ATOM     10  H10 <0> d   1      17.457  -1.594   8.412  0.00  0.00     0.276 HD
ATOM     11  H11 <0> d   1      16.822  -1.952   6.935  0.00  0.00     0.276 HD
ATOM     12  H12 <0> d   1      18.088  -2.827   7.522  0.00  0.00     0.276 HD
ENDBRANCH   1   9
BRANCH   1  13
ATOM     13  C13 <0> d   1      19.502  -1.724   5.893  0.00  0.00     0.216 C 
ATOM     14  O14 <0> d   1      19.902  -1.181   4.877  0.00  0.00    -0.646 OA
ATOM     15  O15 <0> d   1      19.825  -2.875   6.135  0.00  0.00    -0.646 OA
ENDBRANCH   1  13
BRANCH   1  16
ATOM     16  C16 <0> d   1      17.828   0.096   6.082  0.00  0.00     0.399 C 
ATOM     17  F17 <0> d   1      16.489   0.071   6.485  0.00  0.00    -0.211 F 
ATOM     18  F18 <0> d   1      18.374   1.356   6.352  0.00  0.00    -0.211 F 
ENDBRANCH   1  16
TORSDOF 7
ENDMDL
MODEL 3
REMARK VINA RESULT:      -4.7      1.839      2.175
REMARK  7 active torsions:
REMARK  status: ('A' for Active; 'I' for Inactive)
REMARK    1  A    between atoms: N1_1  and  C5_5 
REMARK    2  A    between atoms: C5_5  and  C6_6 
REMARK    3  A    between atoms: C6_6  and  C7_7 
REMARK    4  A    between atoms: C7_7  and  C8_8 
REMARK    5  A    between atoms: C8_8  and  N9_9 
REMARK    6  A    between atoms: C8_8  and  C13_13 
REMARK    7  A    between atoms: C8_8  and  C16_16 
ROOT
ATOM      1  C8  <0> d   1      18.577   0.251  16.430  0.00  0.00     0.267 C 
ENDROOT
BRANCH   1   2
ATOM      2  C7  <0> d   1      19.021   0.781  15.066  0.00  0.00     0.058 C 
BRANCH   2   3
ATOM      3  C6  <0> d   1      17.823   1.400  14.344  0.00  0.00     0.030 C 
BRANCH   3   4
ATOM      4  C5  <0> d   1      18.100   2.881  14.072  0.00  0.00     0.230 C 
BRANCH   4   5
ATOM      5  N1  <0> d   1      17.806   3.663  15.279  0.00  0.00    -0.079 N 
ATOM      6  H2  <0> d   1      17.974   4.641  15.096  0.00  0.00     0.274 HD
ATOM      7  H3  <0> d   1      18.401   3.356  16.034  0.00  0.00     0.274 HD
ATOM      8  H4  <0> d   1      16.839   3.532  15.539  0.00  0.00     0.274 HD
ENDBRANCH   4   5
ENDBRANCH   3   4
ENDBRANCH   2   3
ENDBRANCH   1   2
BRANCH   1   9
ATOM      9  N9  <0> d   1      17.131   0.457  16.589  0.00  0.00    -0.055 N 
ATOM     10  H10 <0> d   1      16.964   1.112  17.338  0.00  0.00     0.276 HD
ATOM     11  H11 <0> d   1      16.746   0.822  15.730  0.00  0.00     0.276 HD
ATOM     12  H12 <0> d   1      16.688  -0.423  16.807  0.00  0.00     0.276 HD
ENDBRANCH   1   9
BRANCH   1  13
ATOM     13  C13 <0> d   1      19.312   0.987  17.520  0.00  0.00     0.216 C 
ATOM     14  O14 <0> d   1      19.709   0.384  18.503  0.00  0.00    -0.646 OA
ATOM     15  O15 <0> d   1      19.510   2.186  17.419  0.00  0.00    -0.646 OA
ENDBRANCH   1  13
BRANCH   1  16
ATOM     16  C16 <0> d   1      18.891  -1.244  16.524  0.00  0.00     0.399 C 
ATOM     17  F17 <0> d   1      17.697  -1.972  16.545  0.00  0.00    -0.211 F 
ATOM     18  F18 <0> d   1      19.654  -1.630  15.415  0.00  0.00    -0.211 F 
ENDBRANCH   1  16
TORSDOF 7
ENDMDL
MODEL 4
REMARK VINA RESULT:      -4.6      7.260      8.274
REMARK  7 active torsions:
REMARK  status: ('A' for Active; 'I' for Inactive)
REMARK    1  A    between atoms: N1_1  and  C5_5 
REMARK    2  A    between atoms: C5_5  and  C6_6 
REMARK    3  A    between atoms: C6_6  and  C7_7 
REMARK    4  A    between atoms: C7_7  and  C8_8 
REMARK    5  A    between atoms: C8_8  and  N9_9 
REMARK    6  A    between atoms: C8_8  and  C13_13 
REMARK    7  A    between atoms: C8_8  and  C16_16 
ROOT
ATOM      1  C8  <0> d   1      18.714   0.599   8.475  0.00  0.00     0.267 C 
ENDROOT
BRANCH   1   2
ATOM      2  C7  <0> d   1      19.340   1.929   8.896  0.00  0.00     0.058 C 
BRANCH   2   3
ATOM      3  C6  <0> d   1      18.576   2.496  10.094  0.00  0.00     0.030 C 
BRANCH   3   4
ATOM      4  C5  <0> d   1      19.569   3.073  11.106  0.00  0.00     0.230 C 
BRANCH   4   5
ATOM      5  N1  <0> d   1      20.407   1.992  11.640  0.00  0.00    -0.079 N 
ATOM      6  H2  <0> d   1      21.206   2.387  12.113  0.00  0.00     0.274 HD
ATOM      7  H3  <0> d   1      20.723   1.405  10.882  0.00  0.00     0.274 HD
ATOM      8  H4  <0> d   1      19.870   1.440  12.292  0.00  0.00     0.274 HD
ENDBRANCH   4   5
ENDBRANCH   3   4
ENDBRANCH   2   3
ENDBRANCH   1   2
BRANCH   1   9
ATOM      9  N9  <0> d   1      17.427   0.424   9.163  0.00  0.00    -0.055 N 
ATOM     10  H10 <0> d   1      17.385  -0.500   9.567  0.00  0.00     0.276 HD
ATOM     11  H11 <0> d   1      17.338   1.115   9.893  0.00  0.00     0.276 HD
ATOM     12  H12 <0> d   1      16.674   0.535   8.500  0.00  0.00     0.276 HD
ENDBRANCH   1   9
BRANCH   1  13
ATOM     13  C13 <0> d   1      19.639  -0.532   8.844  0.00  0.00     0.216 C 
ATOM     14  O14 <0> d   1      19.570  -1.594   8.250  0.00  0.00    -0.646 OA
ATOM     15  O15 <0> d   1      20.456  -0.384   9.737  0.00  0.00    -0.646 OA
ENDBRANCH   1  13
BRANCH   1  16
ATOM     16  C16 <0> d   1      18.486   0.598   6.962  0.00  0.00     0.399 C 
ATOM     17  F17 <0> d   1      17.149   0.290   6.691  0.00  0.00    -0.211 F 
ATOM     18  F18 <0> d   1      18.787   1.864   6.445  0.00  0.00    -0.211 F 
ENDBRANCH   1  16
TORSDOF 7
ENDMDL
MODEL 5
REMARK VINA RESULT:      -4.6      5.755      6.276
REMARK  7 active torsions:
REMARK  status: ('A' for Active; 'I' for Inactive)
REMARK    1  A    between atoms: N1_1  and  C5_5 
REMARK    2  A    between atoms: C5_5  and  C6_6 
REMARK    3  A    between atoms: C6_6  and  C7_7 
REMARK    4  A    between atoms: C7_7  and  C8_8 
REMARK    5  A    between atoms: C8_8  and  N9_9 
REMARK    6  A    between atoms: C8_8  and  C13_13 
REMARK    7  A    between atoms: C8_8  and  C16_16 
ROOT
ATOM      1  C8  <0> d   1      19.269   2.839  11.642  0.00  0.00     0.267 C 
ENDROOT
BRANCH   1   2
ATOM      2  C7  <0> d   1      18.994   1.521  12.367  0.00  0.00     0.058 C 
BRANCH   2   3
ATOM      3  C6  <0> d   1      20.283   0.699  12.436  0.00  0.00     0.030 C 
BRANCH   3   4
ATOM      4  C5  <0> d   1      20.193  -0.475  11.458  0.00  0.00     0.230 C 
BRANCH   4   5
ATOM      5  N1  <0> d   1      21.475  -0.629  10.759  0.00  0.00    -0.079 N 
ATOM      6  H2  <0> d   1      21.890   0.279  10.612  0.00  0.00     0.274 HD
ATOM      7  H3  <0> d   1      21.321  -1.076   9.867  0.00  0.00     0.274 HD
ATOM      8  H4  <0> d   1      22.096  -1.196  11.316  0.00  0.00     0.274 HD
ENDBRANCH   4   5
ENDBRANCH   3   4
ENDBRANCH   2   3
ENDBRANCH   1   2
BRANCH   1   9
ATOM      9  N9  <0> d   1      20.719   3.054  11.547  0.00  0.00    -0.055 N 
ATOM     10  H10 <0> d   1      21.088   2.524  10.771  0.00  0.00     0.276 HD
ATOM     11  H11 <0> d   1      20.906   4.035  11.404  0.00  0.00     0.276 HD
ATOM     12  H12 <0> d   1      21.160   2.749  12.402  0.00  0.00     0.276 HD
ENDBRANCH   1   9
BRANCH   1  13
ATOM     13  C13 <0> d   1      18.642   3.974  12.408  0.00  0.00     0.216 C 
ATOM     14  O14 <0> d   1      17.472   3.908  12.747  0.00  0.00    -0.646 OA
ATOM     15  O15 <0> d   1      19.303   4.960  12.689  0.00  0.00    -0.646 OA
ENDBRANCH   1  13
BRANCH   1  16
ATOM     16  C16 <0> d   1      18.670   2.781  10.234  0.00  0.00     0.399 C 
ATOM     17  F17 <0> d   1      18.330   4.072   9.819  0.00  0.00    -0.211 F 
ATOM     18  F18 <0> d   1      19.608   2.237   9.350  0.00  0.00    -0.211 F 
ENDBRANCH   1  16
TORSDOF 7
ENDMDL
MODEL 6
REMARK VINA RESULT:      -4.5      5.944      6.877
REMARK  7 active torsions:
REMARK  status: ('A' for Active; 'I' for Inactive)
REMARK    1  A    between atoms: N1_1  and  C5_5 
REMARK    2  A    between atoms: C5_5  and  C6_6 
REMARK    3  A    between atoms: C6_6  and  C7_7 
REMARK    4  A    between atoms: C7_7  and  C8_8 
REMARK    5  A    between atoms: C8_8  and  N9_9 
REMARK    6  A    between atoms: C8_8  and  C13_13 
REMARK    7  A    between atoms: C8_8  and  C16_16 
ROOT
ATOM      1  C8  <0> d   1      18.489   2.681  10.650  0.00  0.00     0.267 C 
ENDROOT
BRANCH   1   2
ATOM      2  C7  <0> d   1      18.258   1.959   9.321  0.00  0.00     0.058 C 
BRANCH   2   3
ATOM      3  C6  <0> d   1      19.592   1.434   8.787  0.00  0.00     0.030 C 
BRANCH   3   4
ATOM      4  C5  <0> d   1      19.649  -0.086   8.962  0.00  0.00     0.230 C 
BRANCH   4   5
ATOM      5  N1  <0> d   1      20.791  -0.438   9.814  0.00  0.00    -0.079 N 
ATOM      6  H2  <0> d   1      20.775   0.128  10.650  0.00  0.00     0.274 HD
ATOM      7  H3  <0> d   1      21.650  -0.272   9.312  0.00  0.00     0.274 HD
ATOM      8  H4  <0> d   1      20.734  -1.414  10.068  0.00  0.00     0.274 HD
ENDBRANCH   4   5
ENDBRANCH   3   4
ENDBRANCH   2   3
ENDBRANCH   1   2
BRANCH   1   9
ATOM      9  N9  <0> d   1      19.932   2.796  10.901  0.00  0.00    -0.055 N 
ATOM     10  H10 <0> d   1      20.085   3.305  11.758  0.00  0.00     0.276 HD
ATOM     11  H11 <0> d   1      20.334   1.873  10.981  0.00  0.00     0.276 HD
ATOM     12  H12 <0> d   1      20.368   3.286  10.135  0.00  0.00     0.276 HD
ENDBRANCH   1   9
BRANCH   1  13
ATOM     13  C13 <0> d   1      17.845   1.900  11.765  0.00  0.00     0.216 C 
ATOM     14  O14 <0> d   1      16.900   1.166  11.529  0.00  0.00    -0.646 OA
ATOM     15  O15 <0> d   1      18.268   2.002  12.904  0.00  0.00    -0.646 OA
ENDBRANCH   1  13
BRANCH   1  16
ATOM     16  C16 <0> d   1      17.871   4.080  10.583  0.00  0.00     0.399 C 
ATOM     17  F17 <0> d   1      18.530   4.924  11.484  0.00  0.00    -0.211 F 
ATOM     18  F18 <0> d   1      18.004   4.588   9.286  0.00  0.00    -0.211 F 
ENDBRANCH   1  16
TORSDOF 7
ENDMDL
MODEL 7
REMARK VINA RESULT:      -4.5      9.811     10.625
REMARK  7 active torsions:
REMARK  status: ('A' for Active; 'I' for Inactive)
REMARK    1  A    between atoms: N1_1  and  C5_5 
REMARK    2  A    between atoms: C5_5  and  C6_6 
REMARK    3  A    between atoms: C6_6  and  C7_7 
REMARK    4  A    between atoms: C7_7  and  C8_8 
REMARK    5  A    between atoms: C8_8  and  N9_9 
REMARK    6  A    between atoms: C8_8  and  C13_13 
REMARK    7  A    between atoms: C8_8  and  C16_16 
ROOT
ATOM      1  C8  <0> d   1      18.466  -0.477   6.361  0.00  0.00     0.267 C 
ENDROOT
BRANCH   1   2
ATOM      2  C7  <0> d   1      19.263  -1.290   7.381  0.00  0.00     0.058 C 
BRANCH   2   3
ATOM      3  C6  <0> d   1      18.359  -2.356   8.004  0.00  0.00     0.030 C 
BRANCH   3   4
ATOM      4  C5  <0> d   1      19.055  -3.717   7.939  0.00  0.00     0.230 C 
BRANCH   4   5
ATOM      5  N1  <0> d   1      20.184  -3.645   7.003  0.00  0.00    -0.079 N 
ATOM      6  H2  <0> d   1      21.051  -3.712   7.515  0.00  0.00     0.274 HD
ATOM      7  H3  <0> d   1      20.154  -2.768   6.506  0.00  0.00     0.274 HD
ATOM      8  H4  <0> d   1      20.124  -4.407   6.344  0.00  0.00     0.274 HD
ENDBRANCH   4   5
ENDBRANCH   3   4
ENDBRANCH   2   3
ENDBRANCH   1   2
BRANCH   1   9
ATOM      9  N9  <0> d   1      17.029  -0.640   6.620  0.00  0.00    -0.055 N 
ATOM     10  H10 <0> d   1      16.898  -1.171   7.468  0.00  0.00     0.276 HD
ATOM     11  H11 <0> d   1      16.599   0.268   6.721  0.00  0.00     0.276 HD
ATOM     12  H12 <0> d   1      16.602  -1.130   5.847  0.00  0.00     0.276 HD
ENDBRANCH   1   9
BRANCH   1  13
ATOM     13  C13 <0> d   1      18.785  -0.962   4.971  0.00  0.00     0.216 C 
ATOM     14  O14 <0> d   1      17.994  -0.771   4.062  0.00  0.00    -0.646 OA
ATOM     15  O15 <0> d   1      19.833  -1.546   4.754  0.00  0.00    -0.646 OA
ENDBRANCH   1  13
BRANCH   1  16
ATOM     16  C16 <0> d   1      18.840   1.003   6.484  0.00  0.00     0.399 C 
ATOM     17  F17 <0> d   1      19.467   1.224   7.714  0.00  0.00    -0.211 F 
ATOM     18  F18 <0> d   1      19.713   1.350   5.446  0.00  0.00    -0.211 F 
ENDBRANCH   1  16
TORSDOF 7
ENDMDL
MODEL 8
REMARK VINA RESULT:      -4.5      9.125     10.532
REMARK  7 active torsions:
REMARK  status: ('A' for Active; 'I' for Inactive)
REMARK    1  A    between atoms: N1_1  and  C5_5 
REMARK    2  A    between atoms: C5_5  and  C6_6 
REMARK    3  A    between atoms: C6_6  and  C7_7 
REMARK    4  A    between atoms: C7_7  and  C8_8 
REMARK    5  A    between atoms: C8_8  and  N9_9 
REMARK    6  A    between atoms: C8_8  and  C13_13 
REMARK    7  A    between atoms: C8_8  and  C16_16 
ROOT
ATOM      1  C8  <0> d   1      18.230  -0.734   5.943  0.00  0.00     0.267 C 
ENDROOT
BRANCH   1   2
ATOM      2  C7  <0> d   1      17.952   0.117   7.183  0.00  0.00     0.058 C 
BRANCH   2   3
ATOM      3  C6  <0> d   1      18.847   1.358   7.161  0.00  0.00     0.030 C 
BRANCH   3   4
ATOM      4  C5  <0> d   1      19.308   1.680   8.585  0.00  0.00     0.230 C 
BRANCH   4   5
ATOM      5  N1  <0> d   1      20.031   0.528   9.137  0.00  0.00    -0.079 N 
ATOM      6  H2  <0> d   1      19.965  -0.250   8.497  0.00  0.00     0.274 HD
ATOM      7  H3  <0> d   1      19.625   0.268  10.024  0.00  0.00     0.274 HD
ATOM      8  H4  <0> d   1      21.002   0.772   9.271  0.00  0.00     0.274 HD
ENDBRANCH   4   5
ENDBRANCH   3   4
ENDBRANCH   2   3
ENDBRANCH   1   2
BRANCH   1   9
ATOM      9  N9  <0> d   1      16.964  -1.269   5.423  0.00  0.00    -0.055 N 
ATOM     10  H10 <0> d   1      17.029  -1.372   4.421  0.00  0.00     0.276 HD
ATOM     11  H11 <0> d   1      16.781  -2.168   5.842  0.00  0.00     0.276 HD
ATOM     12  H12 <0> d   1      16.214  -0.633   5.648  0.00  0.00     0.276 HD
ENDBRANCH   1   9
BRANCH   1  13
ATOM     13  C13 <0> d   1      19.144  -1.874   6.311  0.00  0.00     0.216 C 
ATOM     14  O14 <0> d   1      19.479  -2.684   5.464  0.00  0.00    -0.646 OA
ATOM     15  O15 <0> d   1      19.548  -1.987   7.456  0.00  0.00    -0.646 OA
ENDBRANCH   1  13
BRANCH   1  16
ATOM     16  C16 <0> d   1      18.898   0.129   4.871  0.00  0.00     0.399 C 
ATOM     17  F17 <0> d   1      20.247  -0.224   4.761  0.00  0.00    -0.211 F 
ATOM     18  F18 <0> d   1      18.260  -0.077   3.642  0.00  0.00    -0.211 F 
ENDBRANCH   1  16
TORSDOF 7
ENDMDL
MODEL 9
REMARK VINA RESULT:      -4.4      5.378      6.333
REMARK  7 active torsions:
REMARK  status: ('A' for Active; 'I' for Inactive)
REMARK    1  A    between atoms: N1_1  and  C5_5 
REMARK    2  A    between atoms: C5_5  and  C6_6 
REMARK    3  A    between atoms: C6_6  and  C7_7 
REMARK    4  A    between atoms: C7_7  and  C8_8 
REMARK    5  A    between atoms: C8_8  and  N9_9 
REMARK    6  A    between atoms: C8_8  and  C13_13 
REMARK    7  A    between atoms: C8_8  and  C16_16 
ROOT
ATOM      1  C8  <0> d   1      19.171  -2.109  10.937  0.00  0.00     0.267 C 
ENDROOT
BRANCH   1   2
ATOM      2  C7  <0> d   1      18.634  -1.148  11.999  0.00  0.00     0.058 C 
BRANCH   2   3
ATOM      3  C6  <0> d   1      19.725  -0.870  13.034  0.00  0.00     0.030 C 
BRANCH   3   4
ATOM      4  C5  <0> d   1      20.214   0.573  12.886  0.00  0.00     0.230 C 
BRANCH   4   5
ATOM      5  N1  <0> d   1      21.490   0.584  12.160  0.00  0.00    -0.079 N 
ATOM      6  H2  <0> d   1      22.218   0.937  12.764  0.00  0.00     0.274 HD
ATOM      7  H3  <0> d   1      21.411   1.178  11.348  0.00  0.00     0.274 HD
ATOM      8  H4  <0> d   1      21.721  -0.354  11.869  0.00  0.00     0.274 HD
ENDBRANCH   4   5
ENDBRANCH   3   4
ENDBRANCH   2   3
ENDBRANCH   1   2
BRANCH   1   9
ATOM      9  N9  <0> d   1      20.477  -2.630  11.363  0.00  0.00    -0.055 N 
ATOM     10  H10 <0> d   1      20.670  -3.492  10.876  0.00  0.00     0.276 HD
ATOM     11  H11 <0> d   1      21.195  -1.954  11.150  0.00  0.00     0.276 HD
ATOM     12  H12 <0> d   1      20.461  -2.801  12.358  0.00  0.00     0.276 HD
ENDBRANCH   1   9
BRANCH   1  13
ATOM     13  C13 <0> d   1      19.324  -1.379   9.628  0.00  0.00     0.216 C 
ATOM     14  O14 <0> d   1      20.162  -0.501   9.515  0.00  0.00    -0.646 OA
ATOM     15  O15 <0> d   1      18.609  -1.665   8.683  0.00  0.00    -0.646 OA
ENDBRANCH   1  13
BRANCH   1  16
ATOM     16  C16 <0> d   1      18.191  -3.272  10.761  0.00  0.00     0.399 C 
ATOM     17  F17 <0> d   1      18.807  -4.464  11.157  0.00  0.00    -0.211 F 
ATOM     18  F18 <0> d   1      17.056  -3.049  11.548  0.00  0.00    -0.211 F 
ENDBRANCH   1  16
TORSDOF 7
ENDMDL
