MODEL 1
REMARK VINA RESULT:      -3.6      0.000      0.000
REMARK  2 active torsions:
REMARK  status: ('A' for Active; 'I' for Inactive)
REMARK    1  A    between atoms: N2_2  and  C5_5 
REMARK    2  A    between atoms: C5_5  and  C6_6 
ROOT
ATOM      1  C1  <0> d   1      17.183  -0.182   7.989  0.00  0.00     0.272 C 
ATOM      2  N2  <0> d   1      18.389  -0.349   7.168  0.00  0.00    -0.069 N 
ATOM      3  C3  <0> d   1      18.942   0.971   6.835  0.00  0.00     0.272 C 
ATOM      4  C4  <0> d   1      19.389  -1.122   7.916  0.00  0.00     0.272 C 
ENDROOT
BRANCH   2   5
ATOM      5  C5  <0> d   1      18.044  -1.061   5.930  0.00  0.00     0.348 C 
BRANCH   5   6
ATOM      6  C6  <0> d   1      19.305  -1.543   5.259  0.00  0.00     0.199 C 
ATOM      7  O7  <0> d   1      19.960  -0.778   4.572  0.00  0.00    -0.647 OA
ATOM      8  O8  <0> d   1      19.669  -2.698   5.402  0.00  0.00    -0.647 OA
ENDBRANCH   5   6
ENDBRANCH   2   5
TORSDOF 2
ENDMDL
MODEL 2
REMARK VINA RESULT:      -3.6      0.051      1.467
REMARK  2 active torsions:
REMARK  status: ('A' for Active; 'I' for Inactive)
REMARK    1  A    between atoms: N2_2  and  C5_5 
REMARK    2  A    between atoms: C5_5  and  C6_6 
ROOT
ATOM      1  C1  <0> d   1      19.381  -1.141   7.946  0.00  0.00     0.272 C 
ATOM      2  N2  <0> d   1      18.386  -0.376   7.182  0.00  0.00    -0.069 N 
ATOM      3  C3  <0> d   1      17.175  -0.201   7.993  0.00  0.00     0.272 C 
ATOM      4  C4  <0> d   1      18.938   0.941   6.838  0.00  0.00     0.272 C 
ENDROOT
BRANCH   2   5
ATOM      5  C5  <0> d   1      18.050  -1.103   5.951  0.00  0.00     0.348 C 
BRANCH   5   6
ATOM      6  C6  <0> d   1      19.316  -1.587   5.291  0.00  0.00     0.199 C 
ATOM      7  O7  <0> d   1      19.952  -0.838   4.570  0.00  0.00    -0.647 OA
ATOM      8  O8  <0> d   1      19.702  -2.728   5.478  0.00  0.00    -0.647 OA
ENDBRANCH   5   6
ENDBRANCH   2   5
TORSDOF 2
ENDMDL
MODEL 3
REMARK VINA RESULT:      -3.5     10.565     11.414
REMARK  2 active torsions:
REMARK  status: ('A' for Active; 'I' for Inactive)
REMARK    1  A    between atoms: N2_2  and  C5_5 
REMARK    2  A    between atoms: C5_5  and  C6_6 
ROOT
ATOM      1  C1  <0> d   1      17.141  -0.434  16.507  0.00  0.00     0.272 C 
ATOM      2  N2  <0> d   1      18.598  -0.268  16.416  0.00  0.00    -0.069 N 
ATOM      3  C3  <0> d   1      19.160  -1.334  15.577  0.00  0.00     0.272 C 
ATOM      4  C4  <0> d   1      18.907   1.038  15.820  0.00  0.00     0.272 C 
ENDROOT
BRANCH   2   5
ATOM      5  C5  <0> d   1      19.184  -0.344  17.761  0.00  0.00     0.348 C 
BRANCH   5   6
ATOM      6  C6  <0> d   1      18.892   0.932  18.509  0.00  0.00     0.199 C 
ATOM      7  O7  <0> d   1      17.778   1.132  18.961  0.00  0.00    -0.647 OA
ATOM      8  O8  <0> d   1      19.771   1.763  18.662  0.00  0.00    -0.647 OA
ENDBRANCH   5   6
ENDBRANCH   2   5
TORSDOF 2
ENDMDL
MODEL 4
REMARK VINA RESULT:      -3.2      6.106      6.941
REMARK  2 active torsions:
REMARK  status: ('A' for Active; 'I' for Inactive)
REMARK    1  A    between atoms: N2_2  and  C5_5 
REMARK    2  A    between atoms: C5_5  and  C6_6 
ROOT
ATOM      1  C1  <0> d   1      17.541   2.012  11.544  0.00  0.00     0.272 C 
ATOM      2  N2  <0> d   1      18.678   2.802  11.053  0.00  0.00    -0.069 N 
ATOM      3  C3  <0> d   1      19.920   2.298  11.654  0.00  0.00     0.272 C 
ATOM      4  C4  <0> d   1      18.761   2.687   9.591  0.00  0.00     0.272 C 
ENDROOT
BRANCH   2   5
ATOM      5  C5  <0> d   1      18.492   4.211  11.424  0.00  0.00     0.348 C 
BRANCH   5   6
ATOM      6  C6  <0> d   1      17.323   4.781  10.662  0.00  0.00     0.199 C 
ATOM      7  O7  <0> d   1      17.510   5.375   9.614  0.00  0.00    -0.647 OA
ATOM      8  O8  <0> d   1      16.191   4.650  11.095  0.00  0.00    -0.647 OA
ENDBRANCH   5   6
ENDBRANCH   2   5
TORSDOF 2
ENDMDL
MODEL 5
REMARK VINA RESULT:      -3.2      4.485      5.367
REMARK  2 active torsions:
REMARK  status: ('A' for Active; 'I' for Inactive)
REMARK    1  A    between atoms: N2_2  and  C5_5 
REMARK    2  A    between atoms: C5_5  and  C6_6 
ROOT
ATOM      1  C1  <0> d   1      17.642   0.396   9.331  0.00  0.00     0.272 C 
ATOM      2  N2  <0> d   1      19.019   0.906   9.300  0.00  0.00    -0.069 N 
ATOM      3  C3  <0> d   1      19.959  -0.216   9.417  0.00  0.00     0.272 C 
ATOM      4  C4  <0> d   1      19.254   1.609   8.032  0.00  0.00     0.272 C 
ENDROOT
BRANCH   2   5
ATOM      5  C5  <0> d   1      19.223   1.835  10.419  0.00  0.00     0.348 C 
BRANCH   5   6
ATOM      6  C6  <0> d   1      18.094   2.832  10.458  0.00  0.00     0.199 C 
ATOM      7  O7  <0> d   1      17.121   2.625  11.164  0.00  0.00    -0.647 OA
ATOM      8  O8  <0> d   1      18.152   3.846   9.783  0.00  0.00    -0.647 OA
ENDBRANCH   5   6
ENDBRANCH   2   5
TORSDOF 2
ENDMDL
MODEL 6
REMARK VINA RESULT:      -3.1      5.179      5.995
REMARK  2 active torsions:
REMARK  status: ('A' for Active; 'I' for Inactive)
REMARK    1  A    between atoms: N2_2  and  C5_5 
REMARK    2  A    between atoms: C5_5  and  C6_6 
ROOT
ATOM      1  C1  <0> d   1      18.351   0.959  10.191  0.00  0.00     0.272 C 
ATOM      2  N2  <0> d   1      19.045   0.719  11.463  0.00  0.00    -0.069 N 
ATOM      3  C3  <0> d   1      19.958  -0.422  11.314  0.00  0.00     0.272 C 
ATOM      4  C4  <0> d   1      19.813   1.914  11.837  0.00  0.00     0.272 C 
ENDROOT
BRANCH   2   5
ATOM      5  C5  <0> d   1      18.059   0.423  12.510  0.00  0.00     0.348 C 
BRANCH   5   6
ATOM      6  C6  <0> d   1      16.942  -0.405  11.929  0.00  0.00     0.199 C 
ATOM      7  O7  <0> d   1      15.913   0.134  11.559  0.00  0.00    -0.647 OA
ATOM      8  O8  <0> d   1      17.066  -1.614  11.831  0.00  0.00    -0.647 OA
ENDBRANCH   5   6
ENDBRANCH   2   5
TORSDOF 2
ENDMDL
MODEL 7
REMARK VINA RESULT:      -3.0      4.510      5.280
REMARK  2 active torsions:
REMARK  status: ('A' for Active; 'I' for Inactive)
REMARK    1  A    between atoms: N2_2  and  C5_5 
REMARK    2  A    between atoms: C5_5  and  C6_6 
ROOT
ATOM      1  C1  <0> d   1      17.608  -0.667   8.912  0.00  0.00     0.272 C 
ATOM      2  N2  <0> d   1      18.747  -0.793   9.830  0.00  0.00    -0.069 N 
ATOM      3  C3  <0> d   1      19.015  -2.214  10.086  0.00  0.00     0.272 C 
ATOM      4  C4  <0> d   1      19.935  -0.173   9.228  0.00  0.00     0.272 C 
ENDROOT
BRANCH   2   5
ATOM      5  C5  <0> d   1      18.432  -0.118  11.096  0.00  0.00     0.348 C 
BRANCH   5   6
ATOM      6  C6  <0> d   1      17.101  -0.607  11.609  0.00  0.00     0.199 C 
ATOM      7  O7  <0> d   1      16.133   0.134  11.591  0.00  0.00    -0.647 OA
ATOM      8  O8  <0> d   1      16.993  -1.741  12.041  0.00  0.00    -0.647 OA
ENDBRANCH   5   6
ENDBRANCH   2   5
TORSDOF 2
ENDMDL
MODEL 8
REMARK VINA RESULT:      -3.0      4.631      5.502
REMARK  2 active torsions:
REMARK  status: ('A' for Active; 'I' for Inactive)
REMARK    1  A    between atoms: N2_2  and  C5_5 
REMARK    2  A    between atoms: C5_5  and  C6_6 
ROOT
ATOM      1  C1  <0> d   1      17.455   0.028   8.878  0.00  0.00     0.272 C 
ATOM      2  N2  <0> d   1      18.401   0.834   9.661  0.00  0.00    -0.069 N 
ATOM      3  C3  <0> d   1      19.406  -0.047  10.271  0.00  0.00     0.272 C 
ATOM      4  C4  <0> d   1      19.069   1.800   8.779  0.00  0.00     0.272 C 
ENDROOT
BRANCH   2   5
ATOM      5  C5  <0> d   1      17.675   1.553  10.715  0.00  0.00     0.348 C 
BRANCH   5   6
ATOM      6  C6  <0> d   1      17.141   0.566  11.721  0.00  0.00     0.199 C 
ATOM      7  O7  <0> d   1      17.806   0.274  12.701  0.00  0.00    -0.647 OA
ATOM      8  O8  <0> d   1      16.045   0.058  11.555  0.00  0.00    -0.647 OA
ENDBRANCH   5   6
ENDBRANCH   2   5
TORSDOF 2
ENDMDL
MODEL 9
REMARK VINA RESULT:      -2.9      5.634      6.340
REMARK  2 active torsions:
REMARK  status: ('A' for Active; 'I' for Inactive)
REMARK    1  A    between atoms: N2_2  and  C5_5 
REMARK    2  A    between atoms: C5_5  and  C6_6 
ROOT
ATOM      1  C1  <0> d   1      19.634   0.766  11.358  0.00  0.00     0.272 C 
ATOM      2  N2  <0> d   1      18.557   1.720  11.651  0.00  0.00    -0.069 N 
ATOM      3  C3  <0> d   1      19.135   2.966  12.173  0.00  0.00     0.272 C 
ATOM      4  C4  <0> d   1      17.807   2.008  10.422  0.00  0.00     0.272 C 
ENDROOT
BRANCH   2   5
ATOM      5  C5  <0> d   1      17.652   1.143  12.653  0.00  0.00     0.348 C 
BRANCH   5   6
ATOM      6  C6  <0> d   1      16.933  -0.041  12.060  0.00  0.00     0.199 C 
ATOM      7  O7  <0> d   1      17.425  -1.154  12.137  0.00  0.00    -0.647 OA
ATOM      8  O8  <0> d   1      15.860   0.114  11.502  0.00  0.00    -0.647 OA
ENDBRANCH   5   6
ENDBRANCH   2   5
TORSDOF 2
ENDMDL
