MODEL 1
REMARK VINA RESULT:      -6.4      0.000      0.000
REMARK  10 active torsions:
REMARK  status: ('A' for Active; 'I' for Inactive)
REMARK    1  A    between atoms: C2_2  and  C3_3 
REMARK    2  A    between atoms: C3_3  and  C4_4 
REMARK    3  A    between atoms: C4_4  and  C5_5 
REMARK    4  A    between atoms: C5_5  and  C7_6 
REMARK    5  A    between atoms: C5_5  and  C9_8 
REMARK    6  A    between atoms: C9_8  and  O10_9 
REMARK    7  A    between atoms: O10_9  and  C11_10 
REMARK    8  A    between atoms: C11_10  and  C13_12 
REMARK    9  A    between atoms: C14_13  and  C15_14 
REMARK   10  A    between atoms: C18_17  and  O19_18 
ROOT
ATOM      1  C11 ZIN A   1      19.647   2.242  12.020  0.00  0.00     0.282 C 
ATOM      2  O12 ZIN A   1      20.509   3.030  11.680  0.00  0.00    -0.260 OA
ENDROOT
BRANCH   1   3
ATOM      3  O10 ZIN A   1      19.981   0.976  12.347  0.00  0.00    -0.318 OA
BRANCH   3   4
ATOM      4  C9  ZIN A   1      19.785   0.584  13.706  0.00  0.00     0.183 C 
BRANCH   4   5
ATOM      5  C5  ZIN A   1      19.385  -0.893  13.758  0.00  0.00     0.010 C 
BRANCH   5   6
ATOM      6  C4  ZIN A   1      18.052  -1.086  13.033  0.00  0.00     0.007 C 
BRANCH   6   7
ATOM      7  C3  ZIN A   1      18.129  -2.332  12.149  0.00  0.00     0.000 C 
BRANCH   7   8
ATOM      8  C2  ZIN A   1      19.517  -2.422  11.513  0.00  0.00    -0.005 C 
ATOM      9  C1  ZIN A   1      19.979  -3.881  11.502  0.00  0.00     0.005 C 
ENDBRANCH   7   8
ENDBRANCH   6   7
ENDBRANCH   5   6
BRANCH   5  10
ATOM     10  C7  ZIN A   1      19.240  -1.330  15.218  0.00  0.00     0.002 C 
ATOM     11  C8  ZIN A   1      17.915  -0.809  15.777  0.00  0.00     0.005 C 
ENDBRANCH   5  10
ENDBRANCH   4   5
ENDBRANCH   3   4
ENDBRANCH   1   3
BRANCH   1  12
ATOM     12  C13 ZIN A   1      18.291   2.654  12.073  0.00  0.00     0.083 C 
ATOM     13  C14 ZIN A   1      17.506   2.540  10.979  0.00  0.00     0.017 C 
BRANCH  13  14
ATOM     14  C15 ZIN A   1      17.955   1.734   9.835  0.00  0.00    -0.036 A 
ATOM     15  C22 ZIN A   1      17.552   0.398   9.716  0.00  0.00     0.014 A 
ATOM     16  C21 ZIN A   1      17.971  -0.350   8.640  0.00  0.00     0.037 A 
ATOM     17  C18 ZIN A   1      18.802   0.213   7.679  0.00  0.00     0.068 A 
ATOM     18  C17 ZIN A   1      19.210   1.537   7.795  0.00  0.00     0.037 A 
ATOM     19  C16 ZIN A   1      18.792   2.297   8.864  0.00  0.00     0.014 A 
BRANCH  17  20
ATOM     20  O19 ZIN A   1      19.217  -0.531   6.622  0.00  0.00    -0.356 OA
ATOM     21  C20 ZIN A   1      19.248   0.114   5.347  0.00  0.00     0.210 C 
ENDBRANCH  17  20
ENDBRANCH  13  14
ENDBRANCH   1  12
TORSDOF 10
ENDMDL
MODEL 2
REMARK VINA RESULT:      -6.3      2.116      4.994
REMARK  10 active torsions:
REMARK  status: ('A' for Active; 'I' for Inactive)
REMARK    1  A    between atoms: C2_2  and  C3_3 
REMARK    2  A    between atoms: C3_3  and  C4_4 
REMARK    3  A    between atoms: C4_4  and  C5_5 
REMARK    4  A    between atoms: C5_5  and  C7_6 
REMARK    5  A    between atoms: C5_5  and  C9_8 
REMARK    6  A    between atoms: C9_8  and  O10_9 
REMARK    7  A    between atoms: O10_9  and  C11_10 
REMARK    8  A    between atoms: C11_10  and  C13_12 
REMARK    9  A    between atoms: C14_13  and  C15_14 
REMARK   10  A    between atoms: C18_17  and  O19_18 
ROOT
ATOM      1  C11 ZIN A   1      18.791   0.169  10.811  0.00  0.00     0.282 C 
ATOM      2  O12 ZIN A   1      17.595  -0.022  10.925  0.00  0.00    -0.260 OA
ENDROOT
BRANCH   1   3
ATOM      3  O10 ZIN A   1      19.624  -0.132  11.829  0.00  0.00    -0.318 OA
BRANCH   3   4
ATOM      4  C9  ZIN A   1      19.175  -1.114  12.765  0.00  0.00     0.183 C 
BRANCH   4   5
ATOM      5  C5  ZIN A   1      19.440  -0.621  14.189  0.00  0.00     0.010 C 
BRANCH   5   6
ATOM      6  C4  ZIN A   1      18.423  -1.248  15.144  0.00  0.00     0.007 C 
BRANCH   6   7
ATOM      7  C3  ZIN A   1      19.062  -1.428  16.522  0.00  0.00     0.000 C 
BRANCH   7   8
ATOM      8  C2  ZIN A   1      18.355  -0.525  17.534  0.00  0.00    -0.005 C 
ATOM      9  C1  ZIN A   1      19.360   0.472  18.117  0.00  0.00     0.005 C 
ENDBRANCH   7   8
ENDBRANCH   6   7
ENDBRANCH   5   6
BRANCH   5  10
ATOM     10  C7  ZIN A   1      19.309   0.904  14.233  0.00  0.00     0.002 C 
ATOM     11  C8  ZIN A   1      17.829   1.287  14.289  0.00  0.00     0.005 C 
ENDBRANCH   5  10
ENDBRANCH   4   5
ENDBRANCH   3   4
ENDBRANCH   1   3
BRANCH   1  12
ATOM     12  C13 ZIN A   1      19.309   0.710   9.607  0.00  0.00     0.083 C 
ATOM     13  C14 ZIN A   1      19.231   2.038   9.373  0.00  0.00     0.017 C 
BRANCH  13  14
ATOM     14  C15 ZIN A   1      18.883   2.956  10.466  0.00  0.00    -0.036 A 
ATOM     15  C22 ZIN A   1      19.850   3.325  11.409  0.00  0.00     0.014 A 
ATOM     16  C21 ZIN A   1      19.520   4.190  12.428  0.00  0.00     0.037 A 
ATOM     17  C18 ZIN A   1      18.226   4.687  12.530  0.00  0.00     0.068 A 
ATOM     18  C17 ZIN A   1      17.259   4.318  11.600  0.00  0.00     0.037 A 
ATOM     19  C16 ZIN A   1      17.580   3.460  10.573  0.00  0.00     0.014 A 
BRANCH  17  20
ATOM     20  O19 ZIN A   1      17.903   5.534  13.540  0.00  0.00    -0.356 OA
ATOM     21  C20 ZIN A   1      17.403   4.947  14.743  0.00  0.00     0.210 C 
ENDBRANCH  17  20
ENDBRANCH  13  14
ENDBRANCH   1  12
TORSDOF 10
ENDMDL
MODEL 3
REMARK VINA RESULT:      -6.2      0.812      2.620
REMARK  10 active torsions:
REMARK  status: ('A' for Active; 'I' for Inactive)
REMARK    1  A    between atoms: C2_2  and  C3_3 
REMARK    2  A    between atoms: C3_3  and  C4_4 
REMARK    3  A    between atoms: C4_4  and  C5_5 
REMARK    4  A    between atoms: C5_5  and  C7_6 
REMARK    5  A    between atoms: C5_5  and  C9_8 
REMARK    6  A    between atoms: C9_8  and  O10_9 
REMARK    7  A    between atoms: O10_9  and  C11_10 
REMARK    8  A    between atoms: C11_10  and  C13_12 
REMARK    9  A    between atoms: C14_13  and  C15_14 
REMARK   10  A    between atoms: C18_17  and  O19_18 
ROOT
ATOM      1  C11 ZIN A   1      19.554   2.172  12.018  0.00  0.00     0.282 C 
ATOM      2  O12 ZIN A   1      20.546   2.826  11.758  0.00  0.00    -0.260 OA
ENDROOT
BRANCH   1   3
ATOM      3  O10 ZIN A   1      19.674   0.875  12.374  0.00  0.00    -0.318 OA
BRANCH   3   4
ATOM      4  C9  ZIN A   1      19.722   0.589  13.773  0.00  0.00     0.183 C 
BRANCH   4   5
ATOM      5  C5  ZIN A   1      18.504  -0.251  14.163  0.00  0.00     0.010 C 
BRANCH   5   6
ATOM      6  C4  ZIN A   1      18.922  -1.309  15.186  0.00  0.00     0.007 C 
BRANCH   6   7
ATOM      7  C3  ZIN A   1      17.947  -1.290  16.366  0.00  0.00     0.000 C 
BRANCH   7   8
ATOM      8  C2  ZIN A   1      18.137   0.001  17.164  0.00  0.00    -0.005 C 
ATOM      9  C1  ZIN A   1      19.222  -0.209  18.223  0.00  0.00     0.005 C 
ENDBRANCH   7   8
ENDBRANCH   6   7
ENDBRANCH   5   6
BRANCH   5  10
ATOM     10  C7  ZIN A   1      17.940  -0.940  12.918  0.00  0.00     0.002 C 
ATOM     11  C8  ZIN A   1      18.586  -2.318  12.761  0.00  0.00     0.005 C 
ENDBRANCH   5  10
ENDBRANCH   4   5
ENDBRANCH   3   4
ENDBRANCH   1   3
BRANCH   1  12
ATOM     12  C13 ZIN A   1      18.271   2.771  11.945  0.00  0.00     0.083 C 
ATOM     13  C14 ZIN A   1      17.569   2.729  10.791  0.00  0.00     0.017 C 
BRANCH  13  14
ATOM     14  C15 ZIN A   1      17.989   1.828   9.710  0.00  0.00    -0.036 A 
ATOM     15  C22 ZIN A   1      17.492   0.520   9.653  0.00  0.00     0.014 A 
ATOM     16  C21 ZIN A   1      17.885  -0.319   8.635  0.00  0.00     0.037 A 
ATOM     17  C18 ZIN A   1      18.781   0.126   7.670  0.00  0.00     0.068 A 
ATOM     18  C17 ZIN A   1      19.282   1.422   7.725  0.00  0.00     0.037 A 
ATOM     19  C16 ZIN A   1      18.892   2.271   8.735  0.00  0.00     0.014 A 
BRANCH  17  20
ATOM     20  O19 ZIN A   1      19.170  -0.707   6.672  0.00  0.00    -0.356 OA
ATOM     21  C20 ZIN A   1      19.279  -0.143   5.363  0.00  0.00     0.210 C 
ENDBRANCH  17  20
ENDBRANCH  13  14
ENDBRANCH   1  12
TORSDOF 10
ENDMDL
MODEL 4
REMARK VINA RESULT:      -6.2      2.374      5.161
REMARK  10 active torsions:
REMARK  status: ('A' for Active; 'I' for Inactive)
REMARK    1  A    between atoms: C2_2  and  C3_3 
REMARK    2  A    between atoms: C3_3  and  C4_4 
REMARK    3  A    between atoms: C4_4  and  C5_5 
REMARK    4  A    between atoms: C5_5  and  C7_6 
REMARK    5  A    between atoms: C5_5  and  C9_8 
REMARK    6  A    between atoms: C9_8  and  O10_9 
REMARK    7  A    between atoms: O10_9  and  C11_10 
REMARK    8  A    between atoms: C11_10  and  C13_12 
REMARK    9  A    between atoms: C14_13  and  C15_14 
REMARK   10  A    between atoms: C18_17  and  O19_18 
ROOT
ATOM      1  C11 ZIN A   1      17.550   0.431  11.000  0.00  0.00     0.282 C 
ATOM      2  O12 ZIN A   1      16.347   0.435  11.181  0.00  0.00    -0.260 OA
ENDROOT
BRANCH   1   3
ATOM      3  O10 ZIN A   1      18.381   0.051  11.993  0.00  0.00    -0.318 OA
BRANCH   3   4
ATOM      4  C9  ZIN A   1      17.853  -0.847  12.971  0.00  0.00     0.183 C 
BRANCH   4   5
ATOM      5  C5  ZIN A   1      17.935  -0.199  14.355  0.00  0.00     0.010 C 
BRANCH   5   6
ATOM      6  C4  ZIN A   1      18.878   1.004  14.300  0.00  0.00     0.007 C 
BRANCH   6   7
ATOM      7  C3  ZIN A   1      18.292   2.150  15.127  0.00  0.00     0.000 C 
BRANCH   7   8
ATOM      8  C2  ZIN A   1      19.358   2.687  16.083  0.00  0.00    -0.005 C 
ATOM      9  C1  ZIN A   1      19.071   2.186  17.501  0.00  0.00     0.005 C 
ENDBRANCH   7   8
ENDBRANCH   6   7
ENDBRANCH   5   6
BRANCH   5  10
ATOM     10  C7  ZIN A   1      18.466  -1.219  15.365  0.00  0.00     0.002 C 
ATOM     11  C8  ZIN A   1      17.595  -1.194  16.622  0.00  0.00     0.005 C 
ENDBRANCH   5  10
ENDBRANCH   4   5
ENDBRANCH   3   4
ENDBRANCH   1   3
BRANCH   1  12
ATOM     12  C13 ZIN A   1      18.079   0.828   9.746  0.00  0.00     0.083 C 
ATOM     13  C14 ZIN A   1      18.396   2.123   9.524  0.00  0.00     0.017 C 
BRANCH  13  14
ATOM     14  C15 ZIN A   1      18.473   3.062  10.652  0.00  0.00    -0.036 A 
ATOM     15  C22 ZIN A   1      17.340   3.789  11.038  0.00  0.00     0.014 A 
ATOM     16  C21 ZIN A   1      17.416   4.664  12.098  0.00  0.00     0.037 A 
ATOM     17  C18 ZIN A   1      18.616   4.836  12.777  0.00  0.00     0.068 A 
ATOM     18  C17 ZIN A   1      19.746   4.121  12.393  0.00  0.00     0.037 A 
ATOM     19  C16 ZIN A   1      19.680   3.239  11.339  0.00  0.00     0.014 A 
BRANCH  17  20
ATOM     20  O19 ZIN A   1      18.688   5.705  13.817  0.00  0.00    -0.356 OA
ATOM     21  C20 ZIN A   1      19.982   5.942  14.376  0.00  0.00     0.210 C 
ENDBRANCH  17  20
ENDBRANCH  13  14
ENDBRANCH   1  12
TORSDOF 10
ENDMDL
MODEL 5
REMARK VINA RESULT:      -6.2      1.821      6.407
REMARK  10 active torsions:
REMARK  status: ('A' for Active; 'I' for Inactive)
REMARK    1  A    between atoms: C2_2  and  C3_3 
REMARK    2  A    between atoms: C3_3  and  C4_4 
REMARK    3  A    between atoms: C4_4  and  C5_5 
REMARK    4  A    between atoms: C5_5  and  C7_6 
REMARK    5  A    between atoms: C5_5  and  C9_8 
REMARK    6  A    between atoms: C9_8  and  O10_9 
REMARK    7  A    between atoms: O10_9  and  C11_10 
REMARK    8  A    between atoms: C11_10  and  C13_12 
REMARK    9  A    between atoms: C14_13  and  C15_14 
REMARK   10  A    between atoms: C18_17  and  O19_18 
ROOT
ATOM      1  C11 ZIN A   1      19.534  -1.615  10.862  0.00  0.00     0.282 C 
ATOM      2  O12 ZIN A   1      20.356  -2.416  11.266  0.00  0.00    -0.260 OA
ENDROOT
BRANCH   1   3
ATOM      3  O10 ZIN A   1      19.928  -0.388  10.461  0.00  0.00    -0.318 OA
BRANCH   3   4
ATOM      4  C9  ZIN A   1      19.800  -0.088   9.070  0.00  0.00     0.183 C 
BRANCH   4   5
ATOM      5  C5  ZIN A   1      19.343   1.363   8.901  0.00  0.00     0.010 C 
BRANCH   5   6
ATOM      6  C4  ZIN A   1      18.031   1.576   9.658  0.00  0.00     0.007 C 
BRANCH   6   7
ATOM      7  C3  ZIN A   1      18.092   2.902  10.419  0.00  0.00     0.000 C 
BRANCH   7   8
ATOM      8  C2  ZIN A   1      19.473   3.063  11.056  0.00  0.00    -0.005 C 
ATOM      9  C1  ZIN A   1      19.411   4.137  12.144  0.00  0.00     0.005 C 
ENDBRANCH   7   8
ENDBRANCH   6   7
ENDBRANCH   5   6
BRANCH   5  10
ATOM     10  C7  ZIN A   1      19.128   1.660   7.415  0.00  0.00     0.002 C 
ATOM     11  C8  ZIN A   1      18.367   0.501   6.768  0.00  0.00     0.005 C 
ENDBRANCH   5  10
ENDBRANCH   4   5
ENDBRANCH   3   4
ENDBRANCH   1   3
BRANCH   1  12
ATOM     12  C13 ZIN A   1      18.163  -1.971  10.813  0.00  0.00     0.083 C 
ATOM     13  C14 ZIN A   1      17.380  -1.797  11.901  0.00  0.00     0.017 C 
BRANCH  13  14
ATOM     14  C15 ZIN A   1      17.858  -0.982  13.026  0.00  0.00    -0.036 A 
ATOM     15  C22 ZIN A   1      18.609  -1.571  14.051  0.00  0.00     0.014 A 
ATOM     16  C21 ZIN A   1      19.059  -0.802  15.100  0.00  0.00     0.037 A 
ATOM     17  C18 ZIN A   1      18.759   0.554  15.150  0.00  0.00     0.068 A 
ATOM     18  C17 ZIN A   1      18.008   1.143  14.139  0.00  0.00     0.037 A 
ATOM     19  C16 ZIN A   1      17.559   0.385  13.082  0.00  0.00     0.014 A 
BRANCH  17  20
ATOM     20  O19 ZIN A   1      19.200   1.307  16.190  0.00  0.00    -0.356 OA
ATOM     21  C20 ZIN A   1      19.266   2.720  15.985  0.00  0.00     0.210 C 
ENDBRANCH  17  20
ENDBRANCH  13  14
ENDBRANCH   1  12
TORSDOF 10
ENDMDL
MODEL 6
REMARK VINA RESULT:      -6.0      1.636      2.202
REMARK  10 active torsions:
REMARK  status: ('A' for Active; 'I' for Inactive)
REMARK    1  A    between atoms: C2_2  and  C3_3 
REMARK    2  A    between atoms: C3_3  and  C4_4 
REMARK    3  A    between atoms: C4_4  and  C5_5 
REMARK    4  A    between atoms: C5_5  and  C7_6 
REMARK    5  A    between atoms: C5_5  and  C9_8 
REMARK    6  A    between atoms: C9_8  and  O10_9 
REMARK    7  A    between atoms: O10_9  and  C11_10 
REMARK    8  A    between atoms: C11_10  and  C13_12 
REMARK    9  A    between atoms: C14_13  and  C15_14 
REMARK   10  A    between atoms: C18_17  and  O19_18 
ROOT
ATOM      1  C11 ZIN A   1      17.778   1.651  11.745  0.00  0.00     0.282 C 
ATOM      2  O12 ZIN A   1      16.711   1.072  11.826  0.00  0.00    -0.260 OA
ENDROOT
BRANCH   1   3
ATOM      3  O10 ZIN A   1      18.788   1.323  12.578  0.00  0.00    -0.318 OA
BRANCH   3   4
ATOM      4  C9  ZIN A   1      18.430   0.773  13.846  0.00  0.00     0.183 C 
BRANCH   4   5
ATOM      5  C5  ZIN A   1      19.196  -0.533  14.070  0.00  0.00     0.010 C 
BRANCH   5   6
ATOM      6  C4  ZIN A   1      19.364  -1.261  12.735  0.00  0.00     0.007 C 
BRANCH   6   7
ATOM      7  C3  ZIN A   1      18.102  -2.073  12.435  0.00  0.00     0.000 C 
BRANCH   7   8
ATOM      8  C2  ZIN A   1      18.495  -3.432  11.854  0.00  0.00    -0.005 C 
ATOM      9  C1  ZIN A   1      20.016  -3.501  11.703  0.00  0.00     0.005 C 
ENDBRANCH   7   8
ENDBRANCH   6   7
ENDBRANCH   5   6
BRANCH   5  10
ATOM     10  C7  ZIN A   1      18.416  -1.422  15.041  0.00  0.00     0.002 C 
ATOM     11  C8  ZIN A   1      19.094  -1.397  16.413  0.00  0.00     0.005 C 
ENDBRANCH   5  10
ENDBRANCH   4   5
ENDBRANCH   3   4
ENDBRANCH   1   3
BRANCH   1  12
ATOM     12  C13 ZIN A   1      17.960   2.670  10.776  0.00  0.00     0.083 C 
ATOM     13  C14 ZIN A   1      18.496   2.371   9.572  0.00  0.00     0.017 C 
BRANCH  13  14
ATOM     14  C15 ZIN A   1      18.622   0.968   9.153  0.00  0.00    -0.036 A 
ATOM     15  C22 ZIN A   1      19.819   0.274   9.374  0.00  0.00     0.014 A 
ATOM     16  C21 ZIN A   1      19.929  -1.041   8.984  0.00  0.00     0.037 A 
ATOM     17  C18 ZIN A   1      18.862  -1.678   8.362  0.00  0.00     0.068 A 
ATOM     18  C17 ZIN A   1      17.674  -0.991   8.135  0.00  0.00     0.037 A 
ATOM     19  C16 ZIN A   1      17.549   0.322   8.526  0.00  0.00     0.014 A 
BRANCH  17  20
ATOM     20  O19 ZIN A   1      18.979  -2.973   7.974  0.00  0.00    -0.356 OA
ATOM     21  C20 ZIN A   1      17.909  -3.854   8.325  0.00  0.00     0.210 C 
ENDBRANCH  17  20
ENDBRANCH  13  14
ENDBRANCH   1  12
TORSDOF 10
ENDMDL
MODEL 7
REMARK VINA RESULT:      -6.0      1.675      4.758
REMARK  10 active torsions:
REMARK  status: ('A' for Active; 'I' for Inactive)
REMARK    1  A    between atoms: C2_2  and  C3_3 
REMARK    2  A    between atoms: C3_3  and  C4_4 
REMARK    3  A    between atoms: C4_4  and  C5_5 
REMARK    4  A    between atoms: C5_5  and  C7_6 
REMARK    5  A    between atoms: C5_5  and  C9_8 
REMARK    6  A    between atoms: C9_8  and  O10_9 
REMARK    7  A    between atoms: O10_9  and  C11_10 
REMARK    8  A    between atoms: C11_10  and  C13_12 
REMARK    9  A    between atoms: C14_13  and  C15_14 
REMARK   10  A    between atoms: C18_17  and  O19_18 
ROOT
ATOM      1  C11 ZIN A   1      18.275   0.027   8.826  0.00  0.00     0.282 C 
ATOM      2  O12 ZIN A   1      17.062   0.022   8.732  0.00  0.00    -0.260 OA
ENDROOT
BRANCH   1   3
ATOM      3  O10 ZIN A   1      18.895  -0.878   9.611  0.00  0.00    -0.318 OA
BRANCH   3   4
ATOM      4  C9  ZIN A   1      18.263  -2.151   9.757  0.00  0.00     0.183 C 
BRANCH   4   5
ATOM      5  C5  ZIN A   1      17.955  -2.401  11.235  0.00  0.00     0.010 C 
BRANCH   5   6
ATOM      6  C4  ZIN A   1      18.566  -1.281  12.080  0.00  0.00     0.007 C 
BRANCH   6   7
ATOM      7  C3  ZIN A   1      17.465  -0.592  12.888  0.00  0.00     0.000 C 
BRANCH   7   8
ATOM      8  C2  ZIN A   1      17.942  -0.382  14.326  0.00  0.00    -0.005 C 
ATOM      9  C1  ZIN A   1      19.157  -1.272  14.596  0.00  0.00     0.005 C 
ENDBRANCH   7   8
ENDBRANCH   6   7
ENDBRANCH   5   6
BRANCH   5  10
ATOM     10  C7  ZIN A   1      18.553  -3.744  11.660  0.00  0.00     0.002 C 
ATOM     11  C8  ZIN A   1      20.079  -3.671  11.583  0.00  0.00     0.005 C 
ENDBRANCH   5  10
ENDBRANCH   4   5
ENDBRANCH   3   4
ENDBRANCH   1   3
BRANCH   1  12
ATOM     12  C13 ZIN A   1      19.036   0.986   8.111  0.00  0.00     0.083 C 
ATOM     13  C14 ZIN A   1      19.224   2.221   8.626  0.00  0.00     0.017 C 
BRANCH  13  14
ATOM     14  C15 ZIN A   1      18.898   2.486  10.034  0.00  0.00    -0.036 A 
ATOM     15  C22 ZIN A   1      17.684   3.096  10.371  0.00  0.00     0.014 A 
ATOM     16  C21 ZIN A   1      17.381   3.337  11.692  0.00  0.00     0.037 A 
ATOM     17  C18 ZIN A   1      18.284   2.989  12.690  0.00  0.00     0.068 A 
ATOM     18  C17 ZIN A   1      19.495   2.389  12.360  0.00  0.00     0.037 A 
ATOM     19  C16 ZIN A   1      19.805   2.138  11.043  0.00  0.00     0.014 A 
BRANCH  17  20
ATOM     20  O19 ZIN A   1      17.984   3.235  13.991  0.00  0.00    -0.356 OA
ATOM     21  C20 ZIN A   1      17.952   4.604  14.401  0.00  0.00     0.210 C 
ENDBRANCH  17  20
ENDBRANCH  13  14
ENDBRANCH   1  12
TORSDOF 10
ENDMDL
MODEL 8
REMARK VINA RESULT:      -6.0      1.793      6.384
REMARK  10 active torsions:
REMARK  status: ('A' for Active; 'I' for Inactive)
REMARK    1  A    between atoms: C2_2  and  C3_3 
REMARK    2  A    between atoms: C3_3  and  C4_4 
REMARK    3  A    between atoms: C4_4  and  C5_5 
REMARK    4  A    between atoms: C5_5  and  C7_6 
REMARK    5  A    between atoms: C5_5  and  C9_8 
REMARK    6  A    between atoms: C9_8  and  O10_9 
REMARK    7  A    between atoms: O10_9  and  C11_10 
REMARK    8  A    between atoms: C11_10  and  C13_12 
REMARK    9  A    between atoms: C14_13  and  C15_14 
REMARK   10  A    between atoms: C18_17  and  O19_18 
ROOT
ATOM      1  C11 ZIN A   1      19.444  -2.055  10.668  0.00  0.00     0.282 C 
ATOM      2  O12 ZIN A   1      20.300  -2.648  11.297  0.00  0.00    -0.260 OA
ENDROOT
BRANCH   1   3
ATOM      3  O10 ZIN A   1      19.779  -0.990   9.910  0.00  0.00    -0.318 OA
BRANCH   3   4
ATOM      4  C9  ZIN A   1      19.317  -0.985   8.558  0.00  0.00     0.183 C 
BRANCH   4   5
ATOM      5  C5  ZIN A   1      18.510   0.289   8.299  0.00  0.00     0.010 C 
BRANCH   5   6
ATOM      6  C4  ZIN A   1      17.961   0.265   6.871  0.00  0.00     0.007 C 
BRANCH   6   7
ATOM      7  C3  ZIN A   1      18.963   0.935   5.928  0.00  0.00     0.000 C 
BRANCH   7   8
ATOM      8  C2  ZIN A   1      19.338  -0.037   4.808  0.00  0.00    -0.005 C 
ATOM      9  C1  ZIN A   1      18.121  -0.892   4.446  0.00  0.00     0.005 C 
ENDBRANCH   7   8
ENDBRANCH   6   7
ENDBRANCH   5   6
BRANCH   5  10
ATOM     10  C7  ZIN A   1      19.416   1.511   8.476  0.00  0.00     0.002 C 
ATOM     11  C8  ZIN A   1      18.752   2.503   9.432  0.00  0.00     0.005 C 
ENDBRANCH   5  10
ENDBRANCH   4   5
ENDBRANCH   3   4
ENDBRANCH   1   3
BRANCH   1  12
ATOM     12  C13 ZIN A   1      18.093  -2.483  10.732  0.00  0.00     0.083 C 
ATOM     13  C14 ZIN A   1      17.295  -2.056  11.735  0.00  0.00     0.017 C 
BRANCH  13  14
ATOM     14  C15 ZIN A   1      17.722  -0.936  12.586  0.00  0.00    -0.036 A 
ATOM     15  C22 ZIN A   1      17.455   0.382  12.197  0.00  0.00     0.014 A 
ATOM     16  C21 ZIN A   1      17.852   1.427  13.001  0.00  0.00     0.037 A 
ATOM     17  C18 ZIN A   1      18.527   1.177  14.189  0.00  0.00     0.068 A 
ATOM     18  C17 ZIN A   1      18.801  -0.131  14.576  0.00  0.00     0.037 A 
ATOM     19  C16 ZIN A   1      18.403  -1.184  13.784  0.00  0.00     0.014 A 
BRANCH  17  20
ATOM     20  O19 ZIN A   1      18.922   2.211  14.974  0.00  0.00    -0.356 OA
ATOM     21  C20 ZIN A   1      19.092   1.939  16.367  0.00  0.00     0.210 C 
ENDBRANCH  17  20
ENDBRANCH  13  14
ENDBRANCH   1  12
TORSDOF 10
ENDMDL
MODEL 9
REMARK VINA RESULT:      -6.0      1.816      4.796
REMARK  10 active torsions:
REMARK  status: ('A' for Active; 'I' for Inactive)
REMARK    1  A    between atoms: C2_2  and  C3_3 
REMARK    2  A    between atoms: C3_3  and  C4_4 
REMARK    3  A    between atoms: C4_4  and  C5_5 
REMARK    4  A    between atoms: C5_5  and  C7_6 
REMARK    5  A    between atoms: C5_5  and  C9_8 
REMARK    6  A    between atoms: C9_8  and  O10_9 
REMARK    7  A    between atoms: O10_9  and  C11_10 
REMARK    8  A    between atoms: C11_10  and  C13_12 
REMARK    9  A    between atoms: C14_13  and  C15_14 
REMARK   10  A    between atoms: C18_17  and  O19_18 
ROOT
ATOM      1  C11 ZIN A   1      18.144   0.212   9.478  0.00  0.00     0.282 C 
ATOM      2  O12 ZIN A   1      17.019   0.136   9.021  0.00  0.00    -0.260 OA
ENDROOT
BRANCH   1   3
ATOM      3  O10 ZIN A   1      18.412  -0.295  10.700  0.00  0.00    -0.318 OA
BRANCH   3   4
ATOM      4  C9  ZIN A   1      17.391  -0.171  11.692  0.00  0.00     0.183 C 
BRANCH   4   5
ATOM      5  C5  ZIN A   1      17.642  -1.184  12.811  0.00  0.00     0.010 C 
BRANCH   5   6
ATOM      6  C4  ZIN A   1      17.963  -0.441  14.109  0.00  0.00     0.007 C 
BRANCH   6   7
ATOM      7  C3  ZIN A   1      19.047  -1.199  14.877  0.00  0.00     0.000 C 
BRANCH   7   8
ATOM      8  C2  ZIN A   1      18.545  -1.522  16.285  0.00  0.00    -0.005 C 
ATOM      9  C1  ZIN A   1      17.307  -0.676  16.591  0.00  0.00     0.005 C 
ENDBRANCH   7   8
ENDBRANCH   6   7
ENDBRANCH   5   6
BRANCH   5  10
ATOM     10  C7  ZIN A   1      18.822  -2.081  12.432  0.00  0.00     0.002 C 
ATOM     11  C8  ZIN A   1      18.302  -3.455  12.004  0.00  0.00     0.005 C 
ENDBRANCH   5  10
ENDBRANCH   4   5
ENDBRANCH   3   4
ENDBRANCH   1   3
BRANCH   1  12
ATOM     12  C13 ZIN A   1      19.173   0.835   8.728  0.00  0.00     0.083 C 
ATOM     13  C14 ZIN A   1      19.481   2.131   8.948  0.00  0.00     0.017 C 
BRANCH  13  14
ATOM     14  C15 ZIN A   1      18.968   2.815  10.143  0.00  0.00    -0.036 A 
ATOM     15  C22 ZIN A   1      19.673   2.742  11.351  0.00  0.00     0.014 A 
ATOM     16  C21 ZIN A   1      19.190   3.389  12.466  0.00  0.00     0.037 A 
ATOM     17  C18 ZIN A   1      17.999   4.102  12.399  0.00  0.00     0.068 A 
ATOM     18  C17 ZIN A   1      17.291   4.171  11.204  0.00  0.00     0.037 A 
ATOM     19  C16 ZIN A   1      17.767   3.534  10.081  0.00  0.00     0.014 A 
BRANCH  17  20
ATOM     20  O19 ZIN A   1      17.523   4.732  13.503  0.00  0.00    -0.356 OA
ATOM     21  C20 ZIN A   1      16.384   5.577  13.327  0.00  0.00     0.210 C 
ENDBRANCH  17  20
ENDBRANCH  13  14
ENDBRANCH   1  12
TORSDOF 10
ENDMDL
