MODEL 1
REMARK VINA RESULT:     -10.4      0.000      0.000
REMARK  6 active torsions:
REMARK  status: ('A' for Active; 'I' for Inactive)
REMARK    1  A    between atoms: C2_2  and  C3_3 
REMARK    2  A    between atoms: C6_6  and  O7_7 
REMARK    3  A    between atoms: O7_7  and  C8_8 
REMARK       I    between atoms: C8_8  and  N10_10 
REMARK    4  A    between atoms: C13_13  and  N14_14 
REMARK    5  A    between atoms: C39_39  and  O40_40 
REMARK    6  A    between atoms: C39_39  and  C41_41 
ROOT
ATOM      1  C3  ZIN A   1      19.103  -2.908  10.334  0.00  0.00    -0.035 A 
ATOM      2  C4  ZIN A   1      19.096  -2.457   8.999  0.00  0.00     0.002 A 
ATOM      3  C5  ZIN A   1      19.132  -3.359   7.926  0.00  0.00     0.051 A 
ATOM      4  C6  ZIN A   1      19.125  -2.885   6.645  0.00  0.00     0.082 A 
ATOM      5  C23 ZIN A   1      19.081  -1.510   6.390  0.00  0.00     0.040 A 
ATOM      6  C24 ZIN A   1      19.046  -0.611   7.409  0.00  0.00     0.035 A 
ATOM      7  C25 ZIN A   1      19.052  -1.062   8.743  0.00  0.00     0.068 A 
ATOM      8  N26 ZIN A   1      19.016  -0.197   9.756  0.00  0.00    -0.245 NA
ATOM      9  C27 ZIN A   1      19.022  -0.608  11.016  0.00  0.00     0.093 A 
ATOM     10  C28 ZIN A   1      19.060  -1.978  11.325  0.00  0.00    -0.002 A 
ATOM     11  C29 ZIN A   1      19.054  -2.084  12.829  0.00  0.00     0.174 A 
ATOM     12  N30 ZIN A   1      19.010  -0.710  13.344  0.00  0.00    -0.307 N 
ATOM     13  C31 ZIN A   1      18.986   0.153  12.286  0.00  0.00     0.068 A 
ATOM     14  C32 ZIN A   1      18.941   1.513  12.511  0.00  0.00     0.043 A 
ATOM     15  C33 ZIN A   1      18.928   2.011  13.820  0.00  0.00     0.002 A 
ATOM     16  C34 ZIN A   1      18.961   1.142  14.867  0.00  0.00     0.044 A 
ATOM     17  C35 ZIN A   1      18.972   1.605  16.299  0.00  0.00     0.224 C 
ATOM     18  O36 ZIN A   1      18.566   2.995  16.392  0.00  0.00    -0.314 OA
ATOM     19  C37 ZIN A   1      19.136   3.814  15.479  0.00  0.00     0.298 C 
ATOM     20  O38 ZIN A   1      19.829   4.747  15.809  0.00  0.00    -0.261 OA
ATOM     21  C39 ZIN A   1      18.864   3.503  14.025  0.00  0.00     0.173 C 
ATOM     22  C43 ZIN A   1      18.988  -0.244  14.608  0.00  0.00     0.257 A 
ATOM     23  O44 ZIN A   1      18.999  -1.030  15.541  0.00  0.00    -0.267 OA
ENDROOT
BRANCH   4  24
ATOM     24  O7  ZIN A   1      19.159  -3.760   5.605  0.00  0.00    -0.261 OA
BRANCH  24  25
ATOM     25  C8  ZIN A   1      18.002  -3.978   4.951  0.00  0.00     0.368 C 
ATOM     26  O9  ZIN A   1      17.549  -3.123   4.217  0.00  0.00    -0.238 OA
ATOM     27  N10 ZIN A   1      17.348  -5.146   5.111  0.00  0.00    -0.328 N 
ATOM     28  C22 ZIN A   1      16.085  -5.399   4.404  0.00  0.00     0.130 C 
ATOM     29  C11 ZIN A   1      17.880  -6.187   6.001  0.00  0.00     0.130 C 
ATOM     30  C21 ZIN A   1      15.019  -5.807   5.419  0.00  0.00     0.053 C 
ATOM     31  C13 ZIN A   1      15.528  -6.993   6.241  0.00  0.00     0.191 C 
ATOM     32  C12 ZIN A   1      16.791  -6.584   7.002  0.00  0.00     0.053 C 
BRANCH  31  33
ATOM     33  N14 ZIN A   1      14.492  -7.406   7.197  0.00  0.00    -0.067 N 
ATOM     34  H15 ZIN A   1      14.883  -7.424   8.127  0.00  0.00     0.280 HD
ATOM     35  C20 ZIN A   1      13.379  -6.451   7.153  0.00  0.00     0.235 C 
ATOM     36  C19 ZIN A   1      12.335  -6.831   8.206  0.00  0.00     0.028 C 
ATOM     37  C18 ZIN A   1      11.812  -8.239   7.912  0.00  0.00     0.003 C 
ATOM     38  C17 ZIN A   1      12.991  -9.217   7.884  0.00  0.00     0.028 C 
ATOM     39  C16 ZIN A   1      14.011  -8.748   6.845  0.00  0.00     0.235 C 
ENDBRANCH  31  33
ENDBRANCH  24  25
ENDBRANCH   4  24
BRANCH   1  40
ATOM     40  C2  ZIN A   1      19.151  -4.379  10.655  0.00  0.00     0.036 C 
ATOM     41  C1  ZIN A   1      17.735  -4.887  10.932  0.00  0.00     0.010 C 
ENDBRANCH   1  40
BRANCH  21  42
ATOM     42  O40 ZIN A   1      19.848   4.140  13.208  0.00  0.00    -0.375 OA
ATOM     43  H77 ZIN A   1      19.758   3.952  12.264  0.00  0.00     0.211 HD
ENDBRANCH  21  42
BRANCH  21  44
ATOM     44  C41 ZIN A   1      17.473   4.013  13.645  0.00  0.00     0.049 C 
ATOM     45  C42 ZIN A   1      17.603   5.102  12.577  0.00  0.00     0.009 C 
ENDBRANCH  21  44
TORSDOF 6
ENDMDL
MODEL 2
REMARK VINA RESULT:     -10.2      2.337      3.144
REMARK  6 active torsions:
REMARK  status: ('A' for Active; 'I' for Inactive)
REMARK    1  A    between atoms: C2_2  and  C3_3 
REMARK    2  A    between atoms: C6_6  and  O7_7 
REMARK    3  A    between atoms: O7_7  and  C8_8 
REMARK       I    between atoms: C8_8  and  N10_10 
REMARK    4  A    between atoms: C13_13  and  N14_14 
REMARK    5  A    between atoms: C39_39  and  O40_40 
REMARK    6  A    between atoms: C39_39  and  C41_41 
ROOT
ATOM      1  C3  ZIN A   1      18.437  -1.261  10.477  0.00  0.00    -0.035 A 
ATOM      2  C4  ZIN A   1      18.728  -0.269   9.520  0.00  0.00     0.002 A 
ATOM      3  C5  ZIN A   1      18.748  -0.562   8.149  0.00  0.00     0.051 A 
ATOM      4  C6  ZIN A   1      19.034   0.427   7.251  0.00  0.00     0.082 A 
ATOM      5  C23 ZIN A   1      19.308   1.729   7.682  0.00  0.00     0.040 A 
ATOM      6  C24 ZIN A   1      19.297   2.045   9.004  0.00  0.00     0.035 A 
ATOM      7  C25 ZIN A   1      19.006   1.052   9.960  0.00  0.00     0.068 A 
ATOM      8  N26 ZIN A   1      18.988   1.341  11.261  0.00  0.00    -0.245 NA
ATOM      9  C27 ZIN A   1      18.715   0.417  12.170  0.00  0.00     0.093 A 
ATOM     10  C28 ZIN A   1      18.428  -0.904  11.789  0.00  0.00    -0.002 A 
ATOM     11  C29 ZIN A   1      18.169  -1.676  13.058  0.00  0.00     0.174 A 
ATOM     12  N30 ZIN A   1      18.323  -0.723  14.165  0.00  0.00    -0.307 N 
ATOM     13  C31 ZIN A   1      18.637   0.501  13.647  0.00  0.00     0.068 A 
ATOM     14  C32 ZIN A   1      18.832   1.573  14.492  0.00  0.00     0.043 A 
ATOM     15  C33 ZIN A   1      18.716   1.409  15.878  0.00  0.00     0.002 A 
ATOM     16  C34 ZIN A   1      18.412   0.183  16.384  0.00  0.00     0.044 A 
ATOM     17  C35 ZIN A   1      18.294  -0.074  17.862  0.00  0.00     0.224 C 
ATOM     18  O36 ZIN A   1      18.166   1.175  18.591  0.00  0.00    -0.314 OA
ATOM     19  C37 ZIN A   1      19.024   2.146  18.204  0.00  0.00     0.298 C 
ATOM     20  O38 ZIN A   1      19.830   2.621  18.968  0.00  0.00    -0.261 OA
ATOM     21  C39 ZIN A   1      18.923   2.608  16.768  0.00  0.00     0.173 C 
ATOM     22  C43 ZIN A   1      18.199  -0.892  15.495  0.00  0.00     0.257 A 
ATOM     23  O44 ZIN A   1      17.907  -1.990  15.939  0.00  0.00    -0.267 OA
ENDROOT
BRANCH   4  24
ATOM     24  O7  ZIN A   1      19.053   0.141   5.922  0.00  0.00    -0.261 OA
BRANCH  24  25
ATOM     25  C8  ZIN A   1      18.046  -0.615   5.445  0.00  0.00     0.368 C 
ATOM     26  O9  ZIN A   1      16.933  -0.142   5.328  0.00  0.00    -0.238 OA
ATOM     27  N10 ZIN A   1      18.273  -1.898   5.098  0.00  0.00    -0.328 N 
ATOM     28  C22 ZIN A   1      17.184  -2.735   4.575  0.00  0.00     0.130 C 
ATOM     29  C11 ZIN A   1      19.611  -2.487   5.240  0.00  0.00     0.130 C 
ATOM     30  C21 ZIN A   1      17.101  -4.016   5.403  0.00  0.00     0.053 C 
ATOM     31  C13 ZIN A   1      18.469  -4.701   5.419  0.00  0.00     0.191 C 
ATOM     32  C12 ZIN A   1      19.499  -3.772   6.066  0.00  0.00     0.053 C 
BRANCH  31  33
ATOM     33  N14 ZIN A   1      18.383  -5.949   6.189  0.00  0.00    -0.067 N 
ATOM     34  H15 ZIN A   1      19.278  -6.414   6.173  0.00  0.00     0.280 HD
ATOM     35  C20 ZIN A   1      18.016  -5.642   7.576  0.00  0.00     0.235 C 
ATOM     36  C19 ZIN A   1      18.007  -6.930   8.402  0.00  0.00     0.028 C 
ATOM     37  C18 ZIN A   1      16.985  -7.903   7.807  0.00  0.00     0.003 C 
ATOM     38  C17 ZIN A   1      17.333  -8.158   6.337  0.00  0.00     0.028 C 
ATOM     39  C16 ZIN A   1      17.369  -6.824   5.588  0.00  0.00     0.235 C 
ENDBRANCH  31  33
ENDBRANCH  24  25
ENDBRANCH   4  24
BRANCH   1  40
ATOM     40  C2  ZIN A   1      18.138  -2.678  10.058  0.00  0.00     0.036 C 
ATOM     41  C1  ZIN A   1      19.338  -3.570  10.382  0.00  0.00     0.010 C 
ENDBRANCH   1  40
BRANCH  21  42
ATOM     42  O40 ZIN A   1      20.130   3.277  16.396  0.00  0.00    -0.375 OA
ATOM     43  H77 ZIN A   1      20.426   3.084  15.496  0.00  0.00     0.211 HD
ENDBRANCH  21  42
BRANCH  21  44
ATOM     44  C41 ZIN A   1      17.739   3.565  16.620  0.00  0.00     0.049 C 
ATOM     45  C42 ZIN A   1      18.238   4.919  16.110  0.00  0.00     0.009 C 
ENDBRANCH  21  44
TORSDOF 6
ENDMDL
MODEL 3
REMARK VINA RESULT:     -10.0      3.170     11.534
REMARK  6 active torsions:
REMARK  status: ('A' for Active; 'I' for Inactive)
REMARK    1  A    between atoms: C2_2  and  C3_3 
REMARK    2  A    between atoms: C6_6  and  O7_7 
REMARK    3  A    between atoms: O7_7  and  C8_8 
REMARK       I    between atoms: C8_8  and  N10_10 
REMARK    4  A    between atoms: C13_13  and  N14_14 
REMARK    5  A    between atoms: C39_39  and  O40_40 
REMARK    6  A    between atoms: C39_39  and  C41_41 
ROOT
ATOM      1  C3  ZIN A   1      17.681   0.017  12.385  0.00  0.00    -0.035 A 
ATOM      2  C4  ZIN A   1      17.831   1.212  11.653  0.00  0.00     0.002 A 
ATOM      3  C5  ZIN A   1      17.828   2.462  12.289  0.00  0.00     0.051 A 
ATOM      4  C6  ZIN A   1      17.976   3.598  11.545  0.00  0.00     0.082 A 
ATOM      5  C23 ZIN A   1      18.129   3.531  10.157  0.00  0.00     0.040 A 
ATOM      6  C24 ZIN A   1      18.134   2.335   9.511  0.00  0.00     0.035 A 
ATOM      7  C25 ZIN A   1      17.986   1.141  10.244  0.00  0.00     0.068 A 
ATOM      8  N26 ZIN A   1      17.990  -0.042   9.630  0.00  0.00    -0.245 NA
ATOM      9  C27 ZIN A   1      17.851  -1.172  10.307  0.00  0.00     0.093 A 
ATOM     10  C28 ZIN A   1      17.700  -1.159  11.704  0.00  0.00    -0.002 A 
ATOM     11  C29 ZIN A   1      17.570  -2.597  12.141  0.00  0.00     0.174 A 
ATOM     12  N30 ZIN A   1      17.658  -3.412  10.923  0.00  0.00    -0.307 N 
ATOM     13  C31 ZIN A   1      17.828  -2.581   9.852  0.00  0.00     0.068 A 
ATOM     14  C32 ZIN A   1      17.940  -3.111   8.584  0.00  0.00     0.043 A 
ATOM     15  C33 ZIN A   1      17.874  -4.497   8.391  0.00  0.00     0.002 A 
ATOM     16  C34 ZIN A   1      17.696  -5.315   9.463  0.00  0.00     0.044 A 
ATOM     17  C35 ZIN A   1      17.592  -6.810   9.330  0.00  0.00     0.224 C 
ATOM     18  O36 ZIN A   1      18.077  -7.244   8.032  0.00  0.00    -0.314 OA
ATOM     19  C37 ZIN A   1      17.641  -6.503   6.988  0.00  0.00     0.298 C 
ATOM     20  O38 ZIN A   1      16.983  -6.989   6.098  0.00  0.00    -0.261 OA
ATOM     21  C39 ZIN A   1      18.015  -5.039   6.991  0.00  0.00     0.173 C 
ATOM     22  C43 ZIN A   1      17.602  -4.746  10.751  0.00  0.00     0.257 A 
ATOM     23  O44 ZIN A   1      17.462  -5.474  11.720  0.00  0.00    -0.267 OA
ENDROOT
BRANCH   4  24
ATOM     24  O7  ZIN A   1      17.974   4.809  12.163  0.00  0.00    -0.261 OA
BRANCH  24  25
ATOM     25  C8  ZIN A   1      19.050   5.115  12.912  0.00  0.00     0.368 C 
ATOM     26  O9  ZIN A   1      20.152   4.727  12.579  0.00  0.00    -0.238 OA
ATOM     27  N10 ZIN A   1      18.904   5.851  14.032  0.00  0.00    -0.328 N 
ATOM     28  C22 ZIN A   1      20.070   6.193  14.859  0.00  0.00     0.130 C 
ATOM     29  C11 ZIN A   1      17.577   6.321  14.451  0.00  0.00     0.130 C 
ATOM     30  C21 ZIN A   1      19.800   5.764  16.300  0.00  0.00     0.053 C 
ATOM     31  C13 ZIN A   1      18.486   6.385  16.777  0.00  0.00     0.191 C 
ATOM     32  C12 ZIN A   1      17.335   5.886  15.900  0.00  0.00     0.053 C 
BRANCH  31  33
ATOM     33  N14 ZIN A   1      18.240   5.998  18.174  0.00  0.00    -0.067 N 
ATOM     34  H15 ZIN A   1      19.097   6.081  18.700  0.00  0.00     0.280 HD
ATOM     35  C20 ZIN A   1      17.223   6.884  18.753  0.00  0.00     0.235 C 
ATOM     36  C19 ZIN A   1      17.024   6.538  20.230  0.00  0.00     0.028 C 
ATOM     37  C18 ZIN A   1      16.563   5.084  20.350  0.00  0.00     0.003 C 
ATOM     38  C17 ZIN A   1      17.594   4.173  19.675  0.00  0.00     0.028 C 
ATOM     39  C16 ZIN A   1      17.773   4.607  18.219  0.00  0.00     0.235 C 
ENDBRANCH  31  33
ENDBRANCH  24  25
ENDBRANCH   4  24
BRANCH   1  40
ATOM     40  C2  ZIN A   1      17.512   0.043  13.883  0.00  0.00     0.036 C 
ATOM     41  C1  ZIN A   1      18.854  -0.261  14.552  0.00  0.00     0.010 C 
ENDBRANCH   1  40
BRANCH  21  42
ATOM     42  O40 ZIN A   1      17.147  -4.323   6.111  0.00  0.00    -0.375 OA
ATOM     43  H77 ZIN A   1      17.609  -3.769   5.465  0.00  0.00     0.211 HD
ENDBRANCH  21  42
BRANCH  21  44
ATOM     44  C41 ZIN A   1      19.463  -4.881   6.524  0.00  0.00     0.049 C 
ATOM     45  C42 ZIN A   1      19.612  -3.562   5.762  0.00  0.00     0.009 C 
ENDBRANCH  21  44
TORSDOF 6
ENDMDL
MODEL 4
REMARK VINA RESULT:     -10.0      1.909      3.719
REMARK  6 active torsions:
REMARK  status: ('A' for Active; 'I' for Inactive)
REMARK    1  A    between atoms: C2_2  and  C3_3 
REMARK    2  A    between atoms: C6_6  and  O7_7 
REMARK    3  A    between atoms: O7_7  and  C8_8 
REMARK       I    between atoms: C8_8  and  N10_10 
REMARK    4  A    between atoms: C13_13  and  N14_14 
REMARK    5  A    between atoms: C39_39  and  O40_40 
REMARK    6  A    between atoms: C39_39  and  C41_41 
ROOT
ATOM      1  C3  ZIN A   1      18.202  -0.269   9.707  0.00  0.00    -0.035 A 
ATOM      2  C4  ZIN A   1      18.757  -1.404  10.333  0.00  0.00     0.002 A 
ATOM      3  C5  ZIN A   1      18.965  -2.597   9.627  0.00  0.00     0.051 A 
ATOM      4  C6  ZIN A   1      19.505  -3.676  10.269  0.00  0.00     0.082 A 
ATOM      5  C23 ZIN A   1      19.853  -3.604  11.622  0.00  0.00     0.040 A 
ATOM      6  C24 ZIN A   1      19.663  -2.462  12.334  0.00  0.00     0.035 A 
ATOM      7  C25 ZIN A   1      19.109  -1.328  11.707  0.00  0.00     0.068 A 
ATOM      8  N26 ZIN A   1      18.916  -0.198  12.386  0.00  0.00    -0.245 NA
ATOM      9  C27 ZIN A   1      18.396   0.875  11.808  0.00  0.00     0.093 A 
ATOM     10  C28 ZIN A   1      18.035   0.857  10.450  0.00  0.00    -0.002 A 
ATOM     11  C29 ZIN A   1      17.486   2.223  10.128  0.00  0.00     0.174 A 
ATOM     12  N30 ZIN A   1      17.558   3.005  11.369  0.00  0.00    -0.307 N 
ATOM     13  C31 ZIN A   1      18.095   2.220  12.350  0.00  0.00     0.068 A 
ATOM     14  C32 ZIN A   1      18.269   2.731  13.618  0.00  0.00     0.043 A 
ATOM     15  C33 ZIN A   1      17.893   4.049  13.905  0.00  0.00     0.002 A 
ATOM     16  C34 ZIN A   1      17.351   4.819  12.923  0.00  0.00     0.044 A 
ATOM     17  C35 ZIN A   1      16.902   6.235  13.164  0.00  0.00     0.224 C 
ATOM     18  O36 ZIN A   1      17.461   6.748  14.402  0.00  0.00    -0.314 OA
ATOM     19  C37 ZIN A   1      17.392   5.896  15.450  0.00  0.00     0.298 C 
ATOM     20  O38 ZIN A   1      16.783   6.176  16.455  0.00  0.00    -0.261 OA
ATOM     21  C39 ZIN A   1      18.113   4.576  15.301  0.00  0.00     0.173 C 
ATOM     22  C43 ZIN A   1      17.201   4.277  11.630  0.00  0.00     0.257 A 
ATOM     23  O44 ZIN A   1      16.733   4.967  10.739  0.00  0.00    -0.267 OA
ENDROOT
BRANCH   4  24
ATOM     24  O7  ZIN A   1      19.707  -4.832   9.584  0.00  0.00    -0.261 OA
BRANCH  24  25
ATOM     25  C8  ZIN A   1      19.325  -4.852   8.293  0.00  0.00     0.368 C 
ATOM     26  O9  ZIN A   1      19.747  -4.015   7.521  0.00  0.00    -0.238 OA
ATOM     27  N10 ZIN A   1      18.474  -5.802   7.857  0.00  0.00    -0.328 N 
ATOM     28  C22 ZIN A   1      18.048  -5.838   6.451  0.00  0.00     0.130 C 
ATOM     29  C11 ZIN A   1      17.949  -6.818   8.780  0.00  0.00     0.130 C 
ATOM     30  C21 ZIN A   1      16.522  -5.851   6.393  0.00  0.00     0.053 C 
ATOM     31  C13 ZIN A   1      15.992  -7.009   7.240  0.00  0.00     0.191 C 
ATOM     32  C12 ZIN A   1      16.419  -6.816   8.697  0.00  0.00     0.053 C 
BRANCH  31  33
ATOM     33  N14 ZIN A   1      14.524  -7.042   7.161  0.00  0.00    -0.067 N 
ATOM     34  H15 ZIN A   1      14.233  -6.774   6.232  0.00  0.00     0.280 HD
ATOM     35  C20 ZIN A   1      14.051  -8.401   7.449  0.00  0.00     0.235 C 
ATOM     36  C19 ZIN A   1      12.531  -8.459   7.287  0.00  0.00     0.028 C 
ATOM     37  C18 ZIN A   1      11.881  -7.475   8.262  0.00  0.00     0.003 C 
ATOM     38  C17 ZIN A   1      12.439  -6.071   8.003  0.00  0.00     0.028 C 
ATOM     39  C16 ZIN A   1      13.962  -6.101   8.137  0.00  0.00     0.235 C 
ENDBRANCH  31  33
ENDBRANCH  24  25
ENDBRANCH   4  24
BRANCH   1  40
ATOM     40  C2  ZIN A   1      17.812  -0.302   8.252  0.00  0.00     0.036 C 
ATOM     41  C1  ZIN A   1      18.911   0.355   7.414  0.00  0.00     0.010 C 
ENDBRANCH   1  40
BRANCH  21  42
ATOM     42  O40 ZIN A   1      17.599   3.641  16.252  0.00  0.00    -0.375 OA
ATOM     43  H77 ZIN A   1      17.404   2.769  15.881  0.00  0.00     0.211 HD
ENDBRANCH  21  42
BRANCH  21  44
ATOM     44  C41 ZIN A   1      19.610   4.782  15.540  0.00  0.00     0.049 C 
ATOM     45  C42 ZIN A   1      20.077   3.859  16.669  0.00  0.00     0.009 C 
ENDBRANCH  21  44
TORSDOF 6
ENDMDL
MODEL 5
REMARK VINA RESULT:      -9.9      3.295     12.015
REMARK  6 active torsions:
REMARK  status: ('A' for Active; 'I' for Inactive)
REMARK    1  A    between atoms: C2_2  and  C3_3 
REMARK    2  A    between atoms: C6_6  and  O7_7 
REMARK    3  A    between atoms: O7_7  and  C8_8 
REMARK       I    between atoms: C8_8  and  N10_10 
REMARK    4  A    between atoms: C13_13  and  N14_14 
REMARK    5  A    between atoms: C39_39  and  O40_40 
REMARK    6  A    between atoms: C39_39  and  C41_41 
ROOT
ATOM      1  C3  ZIN A   1      19.126   1.275  13.446  0.00  0.00    -0.035 A 
ATOM      2  C4  ZIN A   1      19.045   0.672  14.718  0.00  0.00     0.002 A 
ATOM      3  C5  ZIN A   1      19.074   1.439  15.891  0.00  0.00     0.051 A 
ATOM      4  C6  ZIN A   1      18.993   0.818  17.105  0.00  0.00     0.082 A 
ATOM      5  C23 ZIN A   1      18.880  -0.573  17.193  0.00  0.00     0.040 A 
ATOM      6  C24 ZIN A   1      18.850  -1.344  16.074  0.00  0.00     0.035 A 
ATOM      7  C25 ZIN A   1      18.931  -0.740  14.803  0.00  0.00     0.068 A 
ATOM      8  N26 ZIN A   1      18.901  -1.478  13.694  0.00  0.00    -0.245 NA
ATOM      9  C27 ZIN A   1      18.976  -0.923  12.493  0.00  0.00     0.093 A 
ATOM     10  C28 ZIN A   1      19.085   0.471  12.351  0.00  0.00    -0.002 A 
ATOM     11  C29 ZIN A   1      19.146   0.753  10.871  0.00  0.00     0.174 A 
ATOM     12  N30 ZIN A   1      19.066  -0.547  10.195  0.00  0.00    -0.307 N 
ATOM     13  C31 ZIN A   1      18.961  -1.527  11.141  0.00  0.00     0.068 A 
ATOM     14  C32 ZIN A   1      18.868  -2.847  10.754  0.00  0.00     0.043 A 
ATOM     15  C33 ZIN A   1      18.888  -3.187   9.395  0.00  0.00     0.002 A 
ATOM     16  C34 ZIN A   1      19.002  -2.204   8.461  0.00  0.00     0.044 A 
ATOM     17  C35 ZIN A   1      19.053  -2.495   6.986  0.00  0.00     0.224 C 
ATOM     18  O36 ZIN A   1      18.593  -3.844   6.713  0.00  0.00    -0.314 OA
ATOM     19  C37 ZIN A   1      19.089  -4.790   7.542  0.00  0.00     0.298 C 
ATOM     20  O38 ZIN A   1      19.755  -5.710   7.128  0.00  0.00    -0.261 OA
ATOM     21  C39 ZIN A   1      18.770  -4.640   9.012  0.00  0.00     0.173 C 
ATOM     22  C43 ZIN A   1      19.077  -0.861   8.885  0.00  0.00     0.257 A 
ATOM     23  O44 ZIN A   1      19.159   0.028   8.053  0.00  0.00    -0.267 OA
ENDROOT
BRANCH   4  24
ATOM     24  O7  ZIN A   1      19.021   1.563  18.243  0.00  0.00    -0.261 OA
BRANCH  24  25
ATOM     25  C8  ZIN A   1      17.871   2.159  18.612  0.00  0.00     0.368 C 
ATOM     26  O9  ZIN A   1      16.917   1.484  18.944  0.00  0.00    -0.238 OA
ATOM     27  N10 ZIN A   1      17.780   3.504  18.613  0.00  0.00    -0.328 N 
ATOM     28  C22 ZIN A   1      16.532   4.168  19.014  0.00  0.00     0.130 C 
ATOM     29  C11 ZIN A   1      18.923   4.332  18.207  0.00  0.00     0.130 C 
ATOM     30  C21 ZIN A   1      16.106   5.134  17.910  0.00  0.00     0.053 C 
ATOM     31  C13 ZIN A   1      17.258   6.092  17.601  0.00  0.00     0.191 C 
ATOM     32  C12 ZIN A   1      18.468   5.296  17.107  0.00  0.00     0.053 C 
BRANCH  31  33
ATOM     33  N14 ZIN A   1      16.839   7.042  16.560  0.00  0.00    -0.067 N 
ATOM     34  H15 ZIN A   1      15.835   7.009  16.462  0.00  0.00     0.280 HD
ATOM     35  C20 ZIN A   1      17.248   8.398  16.945  0.00  0.00     0.235 C 
ATOM     36  C19 ZIN A   1      16.742   9.400  15.906  0.00  0.00     0.028 C 
ATOM     37  C18 ZIN A   1      17.339   9.055  14.539  0.00  0.00     0.003 C 
ATOM     38  C17 ZIN A   1      16.970   7.612  14.181  0.00  0.00     0.028 C 
ATOM     39  C16 ZIN A   1      17.466   6.675  15.285  0.00  0.00     0.235 C 
ENDBRANCH  31  33
ENDBRANCH  24  25
ENDBRANCH   4  24
BRANCH   1  40
ATOM     40  C2  ZIN A   1      19.250   2.770  13.305  0.00  0.00     0.036 C 
ATOM     41  C1  ZIN A   1      17.864   3.377  13.073  0.00  0.00     0.010 C 
ENDBRANCH   1  40
BRANCH  21  42
ATOM     42  O40 ZIN A   1      19.692  -5.414   9.782  0.00  0.00    -0.375 OA
ATOM     43  H77 ZIN A   1      19.521  -6.366   9.760  0.00  0.00     0.211 HD
ENDBRANCH  21  42
BRANCH  21  44
ATOM     44  C41 ZIN A   1      17.344  -5.125   9.278  0.00  0.00     0.049 C 
ATOM     45  C42 ZIN A   1      17.361  -6.168  10.398  0.00  0.00     0.009 C 
ENDBRANCH  21  44
TORSDOF 6
ENDMDL
MODEL 6
REMARK VINA RESULT:      -9.8      3.198     10.744
REMARK  6 active torsions:
REMARK  status: ('A' for Active; 'I' for Inactive)
REMARK    1  A    between atoms: C2_2  and  C3_3 
REMARK    2  A    between atoms: C6_6  and  O7_7 
REMARK    3  A    between atoms: O7_7  and  C8_8 
REMARK       I    between atoms: C8_8  and  N10_10 
REMARK    4  A    between atoms: C13_13  and  N14_14 
REMARK    5  A    between atoms: C39_39  and  O40_40 
REMARK    6  A    between atoms: C39_39  and  C41_41 
ROOT
ATOM      1  C3  ZIN A   1      18.952   0.419  12.351  0.00  0.00    -0.035 A 
ATOM      2  C4  ZIN A   1      18.666   1.637  11.702  0.00  0.00     0.002 A 
ATOM      3  C5  ZIN A   1      18.650   2.851  12.405  0.00  0.00     0.051 A 
ATOM      4  C6  ZIN A   1      18.368   4.011  11.741  0.00  0.00     0.082 A 
ATOM      5  C23 ZIN A   1      18.095   4.004  10.369  0.00  0.00     0.040 A 
ATOM      6  C24 ZIN A   1      18.103   2.844   9.661  0.00  0.00     0.035 A 
ATOM      7  C25 ZIN A   1      18.390   1.627  10.310  0.00  0.00     0.068 A 
ATOM      8  N26 ZIN A   1      18.404   0.479   9.633  0.00  0.00    -0.245 NA
ATOM      9  C27 ZIN A   1      18.672  -0.672  10.231  0.00  0.00     0.093 A 
ATOM     10  C28 ZIN A   1      18.958  -0.718  11.606  0.00  0.00    -0.002 A 
ATOM     11  C29 ZIN A   1      19.212  -2.165  11.949  0.00  0.00     0.174 A 
ATOM     12  N30 ZIN A   1      19.056  -2.922  10.701  0.00  0.00    -0.307 N 
ATOM     13  C31 ZIN A   1      18.746  -2.051   9.696  0.00  0.00     0.068 A 
ATOM     14  C32 ZIN A   1      18.550  -2.523   8.415  0.00  0.00     0.043 A 
ATOM     15  C33 ZIN A   1      18.662  -3.893   8.144  0.00  0.00     0.002 A 
ATOM     16  C34 ZIN A   1      18.963  -4.753   9.154  0.00  0.00     0.044 A 
ATOM     17  C35 ZIN A   1      19.076  -6.238   8.942  0.00  0.00     0.224 C 
ATOM     18  O36 ZIN A   1      19.203  -6.547   7.529  0.00  0.00    -0.314 OA
ATOM     19  C37 ZIN A   1      18.349  -5.876   6.724  0.00  0.00     0.298 C 
ATOM     20  O38 ZIN A   1      17.541  -6.453   6.036  0.00  0.00    -0.261 OA
ATOM     21  C39 ZIN A   1      18.454  -4.368   6.728  0.00  0.00     0.173 C 
ATOM     22  C43 ZIN A   1      19.176  -4.240  10.451  0.00  0.00     0.257 A 
ATOM     23  O44 ZIN A   1      19.465  -5.003  11.359  0.00  0.00    -0.267 OA
ENDROOT
BRANCH   4  24
ATOM     24  O7  ZIN A   1      18.353   5.187  12.423  0.00  0.00    -0.261 OA
BRANCH  24  25
ATOM     25  C8  ZIN A   1      19.321   5.375  13.339  0.00  0.00     0.368 C 
ATOM     26  O9  ZIN A   1      20.447   5.660  12.984  0.00  0.00    -0.238 OA
ATOM     27  N10 ZIN A   1      19.041   5.246  14.652  0.00  0.00    -0.328 N 
ATOM     28  C22 ZIN A   1      20.087   5.449  15.663  0.00  0.00     0.130 C 
ATOM     29  C11 ZIN A   1      17.686   4.895  15.097  0.00  0.00     0.130 C 
ATOM     30  C21 ZIN A   1      20.142   4.224  16.574  0.00  0.00     0.053 C 
ATOM     31  C13 ZIN A   1      18.752   3.958  17.152  0.00  0.00     0.191 C 
ATOM     32  C12 ZIN A   1      17.770   3.671  16.014  0.00  0.00     0.053 C 
BRANCH  31  33
ATOM     33  N14 ZIN A   1      18.809   2.798  18.053  0.00  0.00    -0.067 N 
ATOM     34  H15 ZIN A   1      19.373   3.027  18.858  0.00  0.00     0.280 HD
ATOM     35  C20 ZIN A   1      17.451   2.453  18.490  0.00  0.00     0.235 C 
ATOM     36  C19 ZIN A   1      17.514   1.298  19.493  0.00  0.00     0.028 C 
ATOM     37  C18 ZIN A   1      18.159   0.083  18.823  0.00  0.00     0.003 C 
ATOM     38  C17 ZIN A   1      19.545   0.474  18.302  0.00  0.00     0.028 C 
ATOM     39  C16 ZIN A   1      19.408   1.660  17.345  0.00  0.00     0.235 C 
ENDBRANCH  31  33
ENDBRANCH  24  25
ENDBRANCH   4  24
BRANCH   1  40
ATOM     40  C2  ZIN A   1      19.250   0.380  13.828  0.00  0.00     0.036 C 
ATOM     41  C1  ZIN A   1      17.999  -0.064  14.589  0.00  0.00     0.010 C 
ENDBRANCH   1  40
BRANCH  21  42
ATOM     42  O40 ZIN A   1      17.250  -3.804   6.206  0.00  0.00    -0.375 OA
ATOM     43  H77 ZIN A   1      17.055  -4.064   5.295  0.00  0.00     0.211 HD
ENDBRANCH  21  42
BRANCH  21  44
ATOM     44  C41 ZIN A   1      19.641  -3.936   5.864  0.00  0.00     0.049 C 
ATOM     45  C42 ZIN A   1      19.172  -2.909   4.831  0.00  0.00     0.009 C 
ENDBRANCH  21  44
TORSDOF 6
ENDMDL
MODEL 7
REMARK VINA RESULT:      -9.8      3.797     12.145
REMARK  6 active torsions:
REMARK  status: ('A' for Active; 'I' for Inactive)
REMARK    1  A    between atoms: C2_2  and  C3_3 
REMARK    2  A    between atoms: C6_6  and  O7_7 
REMARK    3  A    between atoms: O7_7  and  C8_8 
REMARK       I    between atoms: C8_8  and  N10_10 
REMARK    4  A    between atoms: C13_13  and  N14_14 
REMARK    5  A    between atoms: C39_39  and  O40_40 
REMARK    6  A    between atoms: C39_39  and  C41_41 
ROOT
ATOM      1  C3  ZIN A   1      18.280   2.449  13.836  0.00  0.00    -0.035 A 
ATOM      2  C4  ZIN A   1      18.470   2.076  15.182  0.00  0.00     0.002 A 
ATOM      3  C5  ZIN A   1      18.506   3.033  16.205  0.00  0.00     0.051 A 
ATOM      4  C6  ZIN A   1      18.693   2.633  17.498  0.00  0.00     0.082 A 
ATOM      5  C23 ZIN A   1      18.849   1.280  17.813  0.00  0.00     0.040 A 
ATOM      6  C24 ZIN A   1      18.820   0.327  16.844  0.00  0.00     0.035 A 
ATOM      7  C25 ZIN A   1      18.629   0.701  15.499  0.00  0.00     0.068 A 
ATOM      8  N26 ZIN A   1      18.596  -0.216  14.533  0.00  0.00    -0.245 NA
ATOM      9  C27 ZIN A   1      18.416   0.121  13.265  0.00  0.00     0.093 A 
ATOM     10  C28 ZIN A   1      18.249   1.467  12.896  0.00  0.00    -0.002 A 
ATOM     11  C29 ZIN A   1      18.072   1.488  11.399  0.00  0.00     0.174 A 
ATOM     12  N30 ZIN A   1      18.147   0.093  10.950  0.00  0.00    -0.307 N 
ATOM     13  C31 ZIN A   1      18.343  -0.708  12.040  0.00  0.00     0.068 A 
ATOM     14  C32 ZIN A   1      18.446  -2.073  11.879  0.00  0.00     0.043 A 
ATOM     15  C33 ZIN A   1      18.357  -2.641  10.601  0.00  0.00     0.002 A 
ATOM     16  C34 ZIN A   1      18.171  -1.834   9.522  0.00  0.00     0.044 A 
ATOM     17  C35 ZIN A   1      18.089  -2.370   8.118  0.00  0.00     0.224 C 
ATOM     18  O36 ZIN A   1      17.854  -3.803   8.129  0.00  0.00    -0.314 OA
ATOM     19  C37 ZIN A   1      18.615  -4.495   9.006  0.00  0.00     0.298 C 
ATOM     20  O38 ZIN A   1      19.381  -5.355   8.640  0.00  0.00    -0.261 OA
ATOM     21  C39 ZIN A   1      18.461  -4.139  10.467  0.00  0.00     0.173 C 
ATOM     22  C43 ZIN A   1      18.050  -0.442   9.718  0.00  0.00     0.257 A 
ATOM     23  O44 ZIN A   1      17.864   0.287   8.757  0.00  0.00    -0.267 OA
ENDROOT
BRANCH   4  24
ATOM     24  O7  ZIN A   1      18.726   3.562  18.490  0.00  0.00    -0.261 OA
BRANCH  24  25
ATOM     25  C8  ZIN A   1      17.545   3.943  19.011  0.00  0.00     0.368 C 
ATOM     26  O9  ZIN A   1      16.940   3.198  19.755  0.00  0.00    -0.238 OA
ATOM     27  N10 ZIN A   1      17.032   5.152  18.706  0.00  0.00    -0.328 N 
ATOM     28  C22 ZIN A   1      15.744   5.582  19.268  0.00  0.00     0.130 C 
ATOM     29  C11 ZIN A   1      17.748   6.062  17.802  0.00  0.00     0.130 C 
ATOM     30  C21 ZIN A   1      14.822   6.010  18.128  0.00  0.00     0.053 C 
ATOM     31  C13 ZIN A   1      15.524   7.071  17.278  0.00  0.00     0.191 C 
ATOM     32  C12 ZIN A   1      16.801   6.482  16.674  0.00  0.00     0.053 C 
BRANCH  31  33
ATOM     33  N14 ZIN A   1      14.627   7.506  16.198  0.00  0.00    -0.067 N 
ATOM     34  H15 ZIN A   1      15.131   7.507  15.324  0.00  0.00     0.280 HD
ATOM     35  C20 ZIN A   1      13.491   6.581  16.106  0.00  0.00     0.235 C 
ATOM     36  C19 ZIN A   1      12.597   6.982  14.930  0.00  0.00     0.028 C 
ATOM     37  C18 ZIN A   1      12.080   8.405  15.152  0.00  0.00     0.003 C 
ATOM     38  C17 ZIN A   1      13.273   9.351  15.323  0.00  0.00     0.028 C 
ATOM     39  C16 ZIN A   1      14.143   8.862  16.483  0.00  0.00     0.235 C 
ENDBRANCH  31  33
ENDBRANCH  24  25
ENDBRANCH   4  24
BRANCH   1  40
ATOM     40  C2  ZIN A   1      18.108   3.896  13.450  0.00  0.00     0.036 C 
ATOM     41  C1  ZIN A   1      19.440   4.448  12.937  0.00  0.00     0.010 C 
ENDBRANCH   1  40
BRANCH  21  42
ATOM     42  O40 ZIN A   1      19.597  -4.607  11.195  0.00  0.00    -0.375 OA
ATOM     43  H77 ZIN A   1      19.415  -4.807  12.124  0.00  0.00     0.211 HD
ENDBRANCH  21  42
BRANCH  21  44
ATOM     44  C41 ZIN A   1      17.192  -4.791  11.021  0.00  0.00     0.049 C 
ATOM     45  C42 ZIN A   1      17.564  -5.741  12.163  0.00  0.00     0.009 C 
ENDBRANCH  21  44
TORSDOF 6
ENDMDL
MODEL 8
REMARK VINA RESULT:      -9.5      3.149      5.096
REMARK  6 active torsions:
REMARK  status: ('A' for Active; 'I' for Inactive)
REMARK    1  A    between atoms: C2_2  and  C3_3 
REMARK    2  A    between atoms: C6_6  and  O7_7 
REMARK    3  A    between atoms: O7_7  and  C8_8 
REMARK       I    between atoms: C8_8  and  N10_10 
REMARK    4  A    between atoms: C13_13  and  N14_14 
REMARK    5  A    between atoms: C39_39  and  O40_40 
REMARK    6  A    between atoms: C39_39  and  C41_41 
ROOT
ATOM      1  C3  ZIN A   1      18.678  -0.645  14.813  0.00  0.00    -0.035 A 
ATOM      2  C4  ZIN A   1      18.292  -1.053  13.520  0.00  0.00     0.002 A 
ATOM      3  C5  ZIN A   1      18.397  -2.392  13.117  0.00  0.00     0.051 A 
ATOM      4  C6  ZIN A   1      18.013  -2.749  11.855  0.00  0.00     0.082 A 
ATOM      5  C23 ZIN A   1      17.516  -1.795  10.961  0.00  0.00     0.040 A 
ATOM      6  C24 ZIN A   1      17.403  -0.490  11.322  0.00  0.00     0.035 A 
ATOM      7  C25 ZIN A   1      17.788  -0.083  12.614  0.00  0.00     0.068 A 
ATOM      8  N26 ZIN A   1      17.684   1.191  12.989  0.00  0.00    -0.245 NA
ATOM      9  C27 ZIN A   1      18.042   1.587  14.201  0.00  0.00     0.093 A 
ATOM     10  C28 ZIN A   1      18.542   0.668  15.139  0.00  0.00    -0.002 A 
ATOM     11  C29 ZIN A   1      18.845   1.448  16.394  0.00  0.00     0.174 A 
ATOM     12  N30 ZIN A   1      18.490   2.844  16.112  0.00  0.00    -0.307 N 
ATOM     13  C31 ZIN A   1      18.015   2.926  14.834  0.00  0.00     0.068 A 
ATOM     14  C32 ZIN A   1      17.611   4.143  14.329  0.00  0.00     0.043 A 
ATOM     15  C33 ZIN A   1      17.690   5.297  15.121  0.00  0.00     0.002 A 
ATOM     16  C34 ZIN A   1      18.172   5.205  16.390  0.00  0.00     0.044 A 
ATOM     17  C35 ZIN A   1      18.308   6.404  17.290  0.00  0.00     0.224 C 
ATOM     18  O36 ZIN A   1      17.531   7.519  16.780  0.00  0.00    -0.314 OA
ATOM     19  C37 ZIN A   1      17.653   7.733  15.450  0.00  0.00     0.298 C 
ATOM     20  O38 ZIN A   1      18.086   8.773  15.013  0.00  0.00    -0.261 OA
ATOM     21  C39 ZIN A   1      17.224   6.607  14.539  0.00  0.00     0.173 C 
ATOM     22  C43 ZIN A   1      18.562   3.944  16.886  0.00  0.00     0.257 A 
ATOM     23  O44 ZIN A   1      18.977   3.850  18.030  0.00  0.00    -0.267 OA
ENDROOT
BRANCH   4  24
ATOM     24  O7  ZIN A   1      18.115  -4.047  11.465  0.00  0.00    -0.261 OA
BRANCH  24  25
ATOM     25  C8  ZIN A   1      19.224  -4.397  10.787  0.00  0.00     0.368 C 
ATOM     26  O9  ZIN A   1      20.313  -4.014  11.166  0.00  0.00    -0.238 OA
ATOM     27  N10 ZIN A   1      19.127  -5.171   9.688  0.00  0.00    -0.328 N 
ATOM     28  C22 ZIN A   1      20.329  -5.561   8.939  0.00  0.00     0.130 C 
ATOM     29  C11 ZIN A   1      17.816  -5.636   9.214  0.00  0.00     0.130 C 
ATOM     30  C21 ZIN A   1      20.145  -5.182   7.471  0.00  0.00     0.053 C 
ATOM     31  C13 ZIN A   1      18.848  -5.798   6.945  0.00  0.00     0.191 C 
ATOM     32  C12 ZIN A   1      17.660  -5.250   7.740  0.00  0.00     0.053 C 
BRANCH  31  33
ATOM     33  N14 ZIN A   1      18.685  -5.459   5.524  0.00  0.00    -0.067 N 
ATOM     34  H15 ZIN A   1      19.519  -5.720   5.020  0.00  0.00     0.280 HD
ATOM     35  C20 ZIN A   1      17.536  -6.191   4.978  0.00  0.00     0.235 C 
ATOM     36  C19 ZIN A   1      17.412  -5.905   3.479  0.00  0.00     0.028 C 
ATOM     37  C18 ZIN A   1      17.209  -4.403   3.268  0.00  0.00     0.003 C 
ATOM     38  C17 ZIN A   1      18.375  -3.644   3.909  0.00  0.00     0.028 C 
ATOM     39  C16 ZIN A   1      18.465  -4.014   5.390  0.00  0.00     0.235 C 
ENDBRANCH  31  33
ENDBRANCH  24  25
ENDBRANCH   4  24
BRANCH   1  40
ATOM     40  C2  ZIN A   1      19.219  -1.638  15.809  0.00  0.00     0.036 C 
ATOM     41  C1  ZIN A   1      18.110  -2.040  16.783  0.00  0.00     0.010 C 
ENDBRANCH   1  40
BRANCH  21  42
ATOM     42  O40 ZIN A   1      17.806   6.790  13.246  0.00  0.00    -0.375 OA
ATOM     43  H77 ZIN A   1      17.838   7.712  12.955  0.00  0.00     0.211 HD
ENDBRANCH  21  42
BRANCH  21  44
ATOM     44  C41 ZIN A   1      15.699   6.600  14.418  0.00  0.00     0.049 C 
ATOM     45  C42 ZIN A   1      15.082   6.237  15.771  0.00  0.00     0.009 C 
ENDBRANCH  21  44
TORSDOF 6
ENDMDL
MODEL 9
REMARK VINA RESULT:      -9.5      2.677      4.710
REMARK  6 active torsions:
REMARK  status: ('A' for Active; 'I' for Inactive)
REMARK    1  A    between atoms: C2_2  and  C3_3 
REMARK    2  A    between atoms: C6_6  and  O7_7 
REMARK    3  A    between atoms: O7_7  and  C8_8 
REMARK       I    between atoms: C8_8  and  N10_10 
REMARK    4  A    between atoms: C13_13  and  N14_14 
REMARK    5  A    between atoms: C39_39  and  O40_40 
REMARK    6  A    between atoms: C39_39  and  C41_41 
ROOT
ATOM      1  C3  ZIN A   1      18.156   0.294  10.060  0.00  0.00    -0.035 A 
ATOM      2  C4  ZIN A   1      18.648  -0.882  10.662  0.00  0.00     0.002 A 
ATOM      3  C5  ZIN A   1      18.832  -2.057   9.920  0.00  0.00     0.051 A 
ATOM      4  C6  ZIN A   1      19.311  -3.178  10.538  0.00  0.00     0.082 A 
ATOM      5  C23 ZIN A   1      19.620  -3.167  11.902  0.00  0.00     0.040 A 
ATOM      6  C24 ZIN A   1      19.451  -2.044  12.648  0.00  0.00     0.035 A 
ATOM      7  C25 ZIN A   1      18.960  -0.869  12.046  0.00  0.00     0.068 A 
ATOM      8  N26 ZIN A   1      18.790   0.244  12.760  0.00  0.00    -0.245 NA
ATOM      9  C27 ZIN A   1      18.329   1.356  12.206  0.00  0.00     0.093 A 
ATOM     10  C28 ZIN A   1      18.009   1.399  10.839  0.00  0.00    -0.002 A 
ATOM     11  C29 ZIN A   1      17.522   2.797  10.550  0.00  0.00     0.174 A 
ATOM     12  N30 ZIN A   1      17.586   3.531  11.820  0.00  0.00    -0.307 N 
ATOM     13  C31 ZIN A   1      18.063   2.692  12.787  0.00  0.00     0.068 A 
ATOM     14  C32 ZIN A   1      18.218   3.151  14.078  0.00  0.00     0.043 A 
ATOM     15  C33 ZIN A   1      17.882   4.473  14.401  0.00  0.00     0.002 A 
ATOM     16  C34 ZIN A   1      17.401   5.297  13.432  0.00  0.00     0.044 A 
ATOM     17  C35 ZIN A   1      16.998   6.720  13.711  0.00  0.00     0.224 C 
ATOM     18  O36 ZIN A   1      17.538   7.167  14.982  0.00  0.00    -0.314 OA
ATOM     19  C37 ZIN A   1      17.405   6.282  15.996  0.00  0.00     0.298 C 
ATOM     20  O38 ZIN A   1      16.776   6.551  16.992  0.00  0.00    -0.261 OA
ATOM     21  C39 ZIN A   1      18.079   4.941  15.821  0.00  0.00     0.173 C 
ATOM     22  C43 ZIN A   1      17.269   4.806  12.117  0.00  0.00     0.257 A 
ATOM     23  O44 ZIN A   1      16.856   5.545  11.238  0.00  0.00    -0.267 OA
ENDROOT
BRANCH   4  24
ATOM     24  O7  ZIN A   1      19.490  -4.317   9.817  0.00  0.00    -0.261 OA
BRANCH  24  25
ATOM     25  C8  ZIN A   1      18.383  -4.996   9.463  0.00  0.00     0.368 C 
ATOM     26  O9  ZIN A   1      17.804  -5.684  10.281  0.00  0.00    -0.238 OA
ATOM     27  N10 ZIN A   1      17.917  -4.914   8.201  0.00  0.00    -0.328 N 
ATOM     28  C22 ZIN A   1      16.709  -5.650   7.800  0.00  0.00     0.130 C 
ATOM     29  C11 ZIN A   1      18.609  -4.093   7.199  0.00  0.00     0.130 C 
ATOM     30  C21 ZIN A   1      17.028  -6.494   6.568  0.00  0.00     0.053 C 
ATOM     31  C13 ZIN A   1      17.611  -5.598   5.474  0.00  0.00     0.191 C 
ATOM     32  C12 ZIN A   1      18.909  -4.960   5.972  0.00  0.00     0.053 C 
BRANCH  31  33
ATOM     33  N14 ZIN A   1      17.889  -6.404   4.277  0.00  0.00    -0.067 N 
ATOM     34  H15 ZIN A   1      18.872  -6.633   4.249  0.00  0.00     0.280 HD
ATOM     35  C20 ZIN A   1      17.101  -7.641   4.328  0.00  0.00     0.235 C 
ATOM     36  C19 ZIN A   1      17.449  -8.521   3.125  0.00  0.00     0.028 C 
ATOM     37  C18 ZIN A   1      17.128  -7.763   1.835  0.00  0.00     0.003 C 
ATOM     38  C17 ZIN A   1      17.897  -6.438   1.827  0.00  0.00     0.028 C 
ATOM     39  C16 ZIN A   1      17.534  -5.636   3.078  0.00  0.00     0.235 C 
ENDBRANCH  31  33
ENDBRANCH  24  25
ENDBRANCH   4  24
BRANCH   1  40
ATOM     40  C2  ZIN A   1      17.809   0.328   8.594  0.00  0.00     0.036 C 
ATOM     41  C1  ZIN A   1      18.945   0.996   7.817  0.00  0.00     0.010 C 
ENDBRANCH   1  40
BRANCH  21  42
ATOM     42  O40 ZIN A   1      17.502   3.995  16.722  0.00  0.00    -0.375 OA
ATOM     43  H77 ZIN A   1      18.074   3.759  17.466  0.00  0.00     0.211 HD
ENDBRANCH  21  42
BRANCH  21  44
ATOM     44  C41 ZIN A   1      19.575   5.080  16.111  0.00  0.00     0.049 C 
ATOM     45  C42 ZIN A   1      20.081   3.809  16.799  0.00  0.00     0.009 C 
ENDBRANCH  21  44
TORSDOF 6
ENDMDL
