MODEL 1
REMARK VINA RESULT:      -8.4      0.000      0.000
REMARK  6 active torsions:
REMARK  status: ('A' for Active; 'I' for Inactive)
REMARK    1  A    between atoms: C7_7  and  C9_8 
REMARK    2  A    between atoms: C9_8  and  C10_9 
REMARK    3  A    between atoms: C16_15  and  C17_16 
REMARK    4  A    between atoms: C17_16  and  C18_17 
REMARK    5  A    between atoms: C18_17  and  S19_18 
REMARK    6  A    between atoms: S19_18  and  C22_21 
ROOT
ATOM      1  C10 <0> d   1      19.638  -0.030   8.796  0.00  0.00    -0.028 A 
ATOM      2  C11 <0> d   1      19.410   1.278   8.600  0.00  0.00     0.096 A 
ATOM      3  N12 <0> d   1      18.927   1.484   7.336  0.00  0.00    -0.365 N 
ATOM      4  C13 <0> d   1      18.830   0.283   6.671  0.00  0.00     0.043 A 
ATOM      5  C14 <0> d   1      18.410  -0.073   5.394  0.00  0.00     0.031 A 
ATOM      6  C15 <0> d   1      18.430  -1.398   5.011  0.00  0.00     0.009 A 
ATOM      7  C16 <0> d   1      18.866  -2.381   5.888  0.00  0.00    -0.056 A 
ATOM      8  C28 <0> d   1      19.283  -2.053   7.148  0.00  0.00     0.021 A 
ATOM      9  C29 <0> d   1      19.277  -0.717   7.554  0.00  0.00    -0.001 A 
ATOM     10  H42 <0> d   1      18.688   2.348   6.965  0.00  0.00     0.165 HD
ENDROOT
BRANCH   7  11
ATOM     11  C17 <0> d   1      18.880  -3.822   5.448  0.00  0.00     0.054 C 
BRANCH  11  12
ATOM     12  C18 <0> d   1      17.942  -4.638   6.340  0.00  0.00     0.150 C 
BRANCH  12  13
ATOM     13  S19 <0> d   1      18.894  -5.908   7.216  0.00  0.00     0.175 S 
ATOM     14  O20 <0> d   1      18.303  -7.187   7.035  0.00  0.00    -0.223 OA
ATOM     15  O21 <0> d   1      20.288  -5.711   7.021  0.00  0.00    -0.223 OA
BRANCH  13  16
ATOM     16  C22 <0> d   1      18.639  -5.549   8.923  0.00  0.00     0.059 A 
ATOM     17  C27 <0> d   1      17.507  -6.013   9.565  0.00  0.00     0.023 A 
ATOM     18  C26 <0> d   1      17.309  -5.735  10.904  0.00  0.00     0.002 A 
ATOM     19  C25 <0> d   1      18.240  -4.986  11.600  0.00  0.00     0.000 A 
ATOM     20  C24 <0> d   1      19.371  -4.519  10.956  0.00  0.00     0.002 A 
ATOM     21  C23 <0> d   1      19.571  -4.800   9.618  0.00  0.00     0.023 A 
ENDBRANCH  13  16
ENDBRANCH  12  13
ENDBRANCH  11  12
ENDBRANCH   7  11
BRANCH   1  22
ATOM     22  C9  <0> d   1      20.170  -0.669  10.053  0.00  0.00     0.074 C 
BRANCH  22  23
ATOM     23  C7  <0> d   1      19.276  -0.288  11.235  0.00  0.00     0.192 C 
ATOM     24  N2  <0> d   1      19.920  -0.690  12.499  0.00  0.00    -0.070 N 
ATOM     25  C1  <0> d   1      20.099   0.489  13.358  0.00  0.00     0.270 C 
ATOM     26  H3  <0> d   1      20.816  -1.109  12.305  0.00  0.00     0.279 HD
ATOM     27  C4  <0> d   1      19.047  -1.671  13.178  0.00  0.00     0.235 C 
ATOM     28  C5  <0> d   1      17.629  -1.391  12.621  0.00  0.00     0.030 C 
ATOM     29  C6  <0> d   1      17.936  -1.042  11.141  0.00  0.00     0.035 C 
ENDBRANCH  22  23
ENDBRANCH   1  22
TORSDOF 6
ENDMDL
MODEL 2
REMARK VINA RESULT:      -8.2      6.074     10.004
REMARK  6 active torsions:
REMARK  status: ('A' for Active; 'I' for Inactive)
REMARK    1  A    between atoms: C7_7  and  C9_8 
REMARK    2  A    between atoms: C9_8  and  C10_9 
REMARK    3  A    between atoms: C16_15  and  C17_16 
REMARK    4  A    between atoms: C17_16  and  C18_17 
REMARK    5  A    between atoms: C18_17  and  S19_18 
REMARK    6  A    between atoms: S19_18  and  C22_21 
ROOT
ATOM      1  C10 <0> d   1      19.539  -0.108  13.773  0.00  0.00    -0.028 A 
ATOM      2  C11 <0> d   1      19.206  -1.387  14.011  0.00  0.00     0.096 A 
ATOM      3  N12 <0> d   1      18.642  -1.499  15.252  0.00  0.00    -0.365 N 
ATOM      4  C13 <0> d   1      18.597  -0.263  15.859  0.00  0.00     0.043 A 
ATOM      5  C14 <0> d   1      18.136   0.181  17.094  0.00  0.00     0.031 A 
ATOM      6  C15 <0> d   1      18.231   1.517  17.420  0.00  0.00     0.009 A 
ATOM      7  C16 <0> d   1      18.785   2.425  16.528  0.00  0.00    -0.056 A 
ATOM      8  C28 <0> d   1      19.244   2.010  15.309  0.00  0.00     0.021 A 
ATOM      9  C29 <0> d   1      19.163   0.660  14.961  0.00  0.00    -0.001 A 
ATOM     10  H42 <0> d   1      18.321  -2.325  15.647  0.00  0.00     0.165 HD
ENDROOT
BRANCH   7  11
ATOM     11  C17 <0> d   1      18.879   3.881  16.906  0.00  0.00     0.054 C 
BRANCH  11  12
ATOM     12  C18 <0> d   1      20.206   4.454  16.403  0.00  0.00     0.150 C 
BRANCH  12  13
ATOM     13  S19 <0> d   1      19.899   6.016  15.535  0.00  0.00     0.175 S 
ATOM     14  O20 <0> d   1      19.037   6.849  16.299  0.00  0.00    -0.223 OA
ATOM     15  O21 <0> d   1      21.104   6.523  14.979  0.00  0.00    -0.223 OA
BRANCH  13  16
ATOM     16  C22 <0> d   1      18.932   5.559  14.135  0.00  0.00     0.059 A 
ATOM     17  C27 <0> d   1      19.516   4.879  13.083  0.00  0.00     0.023 A 
ATOM     18  C26 <0> d   1      18.757   4.517  11.987  0.00  0.00     0.002 A 
ATOM     19  C25 <0> d   1      17.414   4.842  11.938  0.00  0.00     0.000 A 
ATOM     20  C24 <0> d   1      16.831   5.527  12.988  0.00  0.00     0.002 A 
ATOM     21  C23 <0> d   1      17.590   5.885  14.086  0.00  0.00     0.023 A 
ENDBRANCH  13  16
ENDBRANCH  12  13
ENDBRANCH  11  12
ENDBRANCH   7  11
BRANCH   1  22
ATOM     22  C9  <0> d   1      20.184   0.432  12.522  0.00  0.00     0.074 C 
BRANCH  22  23
ATOM     23  C7  <0> d   1      19.250   0.209  11.331  0.00  0.00     0.192 C 
ATOM     24  N2  <0> d   1      19.901   0.669  10.090  0.00  0.00    -0.070 N 
ATOM     25  C1  <0> d   1      19.989  -0.444   9.136  0.00  0.00     0.270 C 
ATOM     26  H3  <0> d   1      20.826   1.012  10.300  0.00  0.00     0.279 HD
ATOM     27  C4  <0> d   1      19.086   1.758   9.510  0.00  0.00     0.235 C 
ATOM     28  C5  <0> d   1      17.660   1.526  10.070  0.00  0.00     0.030 C 
ATOM     29  C6  <0> d   1      17.965   1.039  11.511  0.00  0.00     0.035 C 
ENDBRANCH  22  23
ENDBRANCH   1  22
TORSDOF 6
ENDMDL
MODEL 3
REMARK VINA RESULT:      -8.2      4.066      6.082
REMARK  6 active torsions:
REMARK  status: ('A' for Active; 'I' for Inactive)
REMARK    1  A    between atoms: C7_7  and  C9_8 
REMARK    2  A    between atoms: C9_8  and  C10_9 
REMARK    3  A    between atoms: C16_15  and  C17_16 
REMARK    4  A    between atoms: C17_16  and  C18_17 
REMARK    5  A    between atoms: C18_17  and  S19_18 
REMARK    6  A    between atoms: S19_18  and  C22_21 
ROOT
ATOM      1  C10 <0> d   1      18.371   3.125  14.276  0.00  0.00    -0.028 A 
ATOM      2  C11 <0> d   1      17.764   4.082  14.995  0.00  0.00     0.096 A 
ATOM      3  N12 <0> d   1      17.159   4.982  14.159  0.00  0.00    -0.365 N 
ATOM      4  C13 <0> d   1      17.367   4.615  12.848  0.00  0.00     0.043 A 
ATOM      5  C14 <0> d   1      16.984   5.162  11.629  0.00  0.00     0.031 A 
ATOM      6  C15 <0> d   1      17.357   4.546  10.454  0.00  0.00     0.009 A 
ATOM      7  C16 <0> d   1      18.115   3.383  10.475  0.00  0.00    -0.056 A 
ATOM      8  C28 <0> d   1      18.503   2.828  11.663  0.00  0.00     0.021 A 
ATOM      9  C29 <0> d   1      18.140   3.440  12.864  0.00  0.00    -0.001 A 
ATOM     10  H42 <0> d   1      16.658   5.761  14.447  0.00  0.00     0.165 HD
ENDROOT
BRANCH   7  11
ATOM     11  C17 <0> d   1      18.512   2.726   9.178  0.00  0.00     0.054 C 
BRANCH  11  12
ATOM     12  C18 <0> d   1      19.494   1.588   9.463  0.00  0.00     0.150 C 
BRANCH  12  13
ATOM     13  S19 <0> d   1      18.716   0.002   9.051  0.00  0.00     0.175 S 
ATOM     14  O20 <0> d   1      17.351   0.191   8.707  0.00  0.00    -0.223 OA
ATOM     15  O21 <0> d   1      19.577  -0.779   8.233  0.00  0.00    -0.223 OA
BRANCH  13  16
ATOM     16  C22 <0> d   1      18.661  -0.870  10.582  0.00  0.00     0.059 A 
ATOM     17  C27 <0> d   1      19.537  -0.540  11.598  0.00  0.00     0.023 A 
ATOM     18  C26 <0> d   1      19.490  -1.221  12.800  0.00  0.00     0.002 A 
ATOM     19  C25 <0> d   1      18.573  -2.239  12.982  0.00  0.00     0.000 A 
ATOM     20  C24 <0> d   1      17.700  -2.573  11.963  0.00  0.00     0.002 A 
ATOM     21  C23 <0> d   1      17.744  -1.889  10.763  0.00  0.00     0.023 A 
ENDBRANCH  13  16
ENDBRANCH  12  13
ENDBRANCH  11  12
ENDBRANCH   7  11
BRANCH   1  22
ATOM     22  C9  <0> d   1      19.146   1.952  14.819  0.00  0.00     0.074 C 
BRANCH  22  23
ATOM     23  C7  <0> d   1      18.362   1.310  15.964  0.00  0.00     0.192 C 
ATOM     24  N2  <0> d   1      19.282   0.577  16.853  0.00  0.00    -0.070 N 
ATOM     25  C1  <0> d   1      19.179   1.109  18.219  0.00  0.00     0.270 C 
ATOM     26  H3  <0> d   1      20.229   0.679  16.519  0.00  0.00     0.279 HD
ATOM     27  C4  <0> d   1      18.902  -0.852  16.847  0.00  0.00     0.235 C 
ATOM     28  C5  <0> d   1      17.407  -0.861  16.442  0.00  0.00     0.030 C 
ATOM     29  C6  <0> d   1      17.356   0.288  15.401  0.00  0.00     0.035 C 
ENDBRANCH  22  23
ENDBRANCH   1  22
TORSDOF 6
ENDMDL
MODEL 4
REMARK VINA RESULT:      -8.2      4.596      8.263
REMARK  6 active torsions:
REMARK  status: ('A' for Active; 'I' for Inactive)
REMARK    1  A    between atoms: C7_7  and  C9_8 
REMARK    2  A    between atoms: C9_8  and  C10_9 
REMARK    3  A    between atoms: C16_15  and  C17_16 
REMARK    4  A    between atoms: C17_16  and  C18_17 
REMARK    5  A    between atoms: C18_17  and  S19_18 
REMARK    6  A    between atoms: S19_18  and  C22_21 
ROOT
ATOM      1  C10 <0> d   1      18.856   2.464  17.160  0.00  0.00    -0.028 A 
ATOM      2  C11 <0> d   1      18.116   2.425  18.280  0.00  0.00     0.096 A 
ATOM      3  N12 <0> d   1      17.432   1.242  18.346  0.00  0.00    -0.365 N 
ATOM      4  C13 <0> d   1      17.722   0.471  17.243  0.00  0.00     0.043 A 
ATOM      5  C14 <0> d   1      17.310  -0.788  16.819  0.00  0.00     0.031 A 
ATOM      6  C15 <0> d   1      17.792  -1.303  15.635  0.00  0.00     0.009 A 
ATOM      7  C16 <0> d   1      18.685  -0.577  14.858  0.00  0.00    -0.056 A 
ATOM      8  C28 <0> d   1      19.102   0.662  15.256  0.00  0.00     0.021 A 
ATOM      9  C29 <0> d   1      18.622   1.206  16.449  0.00  0.00    -0.001 A 
ATOM     10  H42 <0> d   1      16.832   0.985  19.063  0.00  0.00     0.165 HD
ENDROOT
BRANCH   7  11
ATOM     11  C17 <0> d   1      19.197  -1.160  13.567  0.00  0.00     0.054 C 
BRANCH  11  12
ATOM     12  C18 <0> d   1      19.276  -0.061  12.506  0.00  0.00     0.150 C 
BRANCH  12  13
ATOM     13  S19 <0> d   1      17.668   0.101  11.683  0.00  0.00     0.175 S 
ATOM     14  O20 <0> d   1      17.016  -1.159  11.611  0.00  0.00    -0.223 OA
ATOM     15  O21 <0> d   1      16.983   1.256  12.148  0.00  0.00    -0.223 OA
BRANCH  13  16
ATOM     16  C22 <0> d   1      18.068   0.478  10.008  0.00  0.00     0.059 A 
ATOM     17  C27 <0> d   1      17.492  -0.243   8.980  0.00  0.00     0.023 A 
ATOM     18  C26 <0> d   1      17.802   0.055   7.667  0.00  0.00     0.002 A 
ATOM     19  C25 <0> d   1      18.696   1.071   7.382  0.00  0.00     0.000 A 
ATOM     20  C24 <0> d   1      19.276   1.789   8.411  0.00  0.00     0.002 A 
ATOM     21  C23 <0> d   1      18.962   1.493   9.724  0.00  0.00     0.023 A 
ENDBRANCH  13  16
ENDBRANCH  12  13
ENDBRANCH  11  12
ENDBRANCH   7  11
BRANCH   1  22
ATOM     22  C9  <0> d   1      19.753   3.592  16.717  0.00  0.00     0.074 C 
BRANCH  22  23
ATOM     23  C7  <0> d   1      19.016   4.456  15.692  0.00  0.00     0.192 C 
ATOM     24  N2  <0> d   1      19.745   4.445  14.411  0.00  0.00    -0.070 N 
ATOM     25  C1  <0> d   1      18.867   3.941  13.347  0.00  0.00     0.270 C 
ATOM     26  H3  <0> d   1      20.559   3.854  14.489  0.00  0.00     0.279 HD
ATOM     27  C4  <0> d   1      20.162   5.829  14.098  0.00  0.00     0.235 C 
ATOM     28  C5  <0> d   1      19.166   6.727  14.873  0.00  0.00     0.030 C 
ATOM     29  C6  <0> d   1      18.964   5.916  16.180  0.00  0.00     0.035 C 
ENDBRANCH  22  23
ENDBRANCH   1  22
TORSDOF 6
ENDMDL
MODEL 5
REMARK VINA RESULT:      -8.1      2.556      5.095
REMARK  6 active torsions:
REMARK  status: ('A' for Active; 'I' for Inactive)
REMARK    1  A    between atoms: C7_7  and  C9_8 
REMARK    2  A    between atoms: C9_8  and  C10_9 
REMARK    3  A    between atoms: C16_15  and  C17_16 
REMARK    4  A    between atoms: C17_16  and  C18_17 
REMARK    5  A    between atoms: C18_17  and  S19_18 
REMARK    6  A    between atoms: S19_18  and  C22_21 
ROOT
ATOM      1  C10 <0> d   1      17.805  -3.541  11.229  0.00  0.00    -0.028 A 
ATOM      2  C11 <0> d   1      17.487  -4.630  11.947  0.00  0.00     0.096 A 
ATOM      3  N12 <0> d   1      17.727  -5.760  11.213  0.00  0.00    -0.365 N 
ATOM      4  C13 <0> d   1      18.218  -5.417   9.973  0.00  0.00     0.043 A 
ATOM      5  C14 <0> d   1      18.616  -6.155   8.864  0.00  0.00     0.031 A 
ATOM      6  C15 <0> d   1      19.076  -5.505   7.739  0.00  0.00     0.009 A 
ATOM      7  C16 <0> d   1      19.143  -4.119   7.700  0.00  0.00    -0.056 A 
ATOM      8  C28 <0> d   1      18.756  -3.375   8.779  0.00  0.00     0.021 A 
ATOM      9  C29 <0> d   1      18.282  -4.012   9.927  0.00  0.00    -0.001 A 
ATOM     10  H42 <0> d   1      17.574  -6.667  11.521  0.00  0.00     0.165 HD
ENDROOT
BRANCH   7  11
ATOM     11  C17 <0> d   1      19.648  -3.429   6.459  0.00  0.00     0.054 C 
BRANCH  11  12
ATOM     12  C18 <0> d   1      18.461  -3.027   5.580  0.00  0.00     0.150 C 
BRANCH  12  13
ATOM     13  S19 <0> d   1      18.674  -1.315   5.024  0.00  0.00     0.175 S 
ATOM     14  O20 <0> d   1      20.019  -1.083   4.629  0.00  0.00    -0.223 OA
ATOM     15  O21 <0> d   1      17.589  -0.921   4.196  0.00  0.00    -0.223 OA
BRANCH  13  16
ATOM     16  C22 <0> d   1      18.479  -0.350   6.486  0.00  0.00     0.059 A 
ATOM     17  C27 <0> d   1      19.310   0.729   6.718  0.00  0.00     0.023 A 
ATOM     18  C26 <0> d   1      19.153   1.488   7.863  0.00  0.00     0.002 A 
ATOM     19  C25 <0> d   1      18.171   1.162   8.779  0.00  0.00     0.000 A 
ATOM     20  C24 <0> d   1      17.343   0.080   8.549  0.00  0.00     0.002 A 
ATOM     21  C23 <0> d   1      17.496  -0.677   7.402  0.00  0.00     0.023 A 
ENDBRANCH  13  16
ENDBRANCH  12  13
ENDBRANCH  11  12
ENDBRANCH   7  11
BRANCH   1  22
ATOM     22  C9  <0> d   1      17.688  -2.107  11.677  0.00  0.00     0.074 C 
BRANCH  22  23
ATOM     23  C7  <0> d   1      19.019  -1.651  12.279  0.00  0.00     0.192 C 
ATOM     24  N2  <0> d   1      18.771  -0.725  13.399  0.00  0.00    -0.070 N 
ATOM     25  C1  <0> d   1      19.378  -1.258  14.625  0.00  0.00     0.270 C 
ATOM     26  H3  <0> d   1      17.777  -0.612  13.532  0.00  0.00     0.279 HD
ATOM     27  C4  <0> d   1      19.381   0.581  13.070  0.00  0.00     0.235 C 
ATOM     28  C5  <0> d   1      20.496   0.251  12.046  0.00  0.00     0.030 C 
ATOM     29  C6  <0> d   1      19.837  -0.886  11.221  0.00  0.00     0.035 C 
ENDBRANCH  22  23
ENDBRANCH   1  22
TORSDOF 6
ENDMDL
MODEL 6
REMARK VINA RESULT:      -8.1      3.475      5.670
REMARK  6 active torsions:
REMARK  status: ('A' for Active; 'I' for Inactive)
REMARK    1  A    between atoms: C7_7  and  C9_8 
REMARK    2  A    between atoms: C9_8  and  C10_9 
REMARK    3  A    between atoms: C16_15  and  C17_16 
REMARK    4  A    between atoms: C17_16  and  C18_17 
REMARK    5  A    between atoms: C18_17  and  S19_18 
REMARK    6  A    between atoms: S19_18  and  C22_21 
ROOT
ATOM      1  C10 <0> d   1      19.191  -3.002   6.752  0.00  0.00    -0.028 A 
ATOM      2  C11 <0> d   1      19.257  -3.149   5.419  0.00  0.00     0.096 A 
ATOM      3  N12 <0> d   1      19.170  -1.926   4.810  0.00  0.00    -0.365 N 
ATOM      4  C13 <0> d   1      19.043  -0.938   5.760  0.00  0.00     0.043 A 
ATOM      5  C14 <0> d   1      18.920   0.446   5.692  0.00  0.00     0.031 A 
ATOM      6  C15 <0> d   1      18.808   1.181   6.852  0.00  0.00     0.009 A 
ATOM      7  C16 <0> d   1      18.816   0.555   8.090  0.00  0.00    -0.056 A 
ATOM      8  C28 <0> d   1      18.936  -0.804   8.180  0.00  0.00     0.021 A 
ATOM      9  C29 <0> d   1      19.044  -1.569   7.017  0.00  0.00    -0.001 A 
ATOM     10  H42 <0> d   1      19.195  -1.778   3.851  0.00  0.00     0.165 HD
ENDROOT
BRANCH   7  11
ATOM     11  C17 <0> d   1      18.691   1.379   9.346  0.00  0.00     0.054 C 
BRANCH  11  12
ATOM     12  C18 <0> d   1      18.799   0.466  10.569  0.00  0.00     0.150 C 
BRANCH  12  13
ATOM     13  S19 <0> d   1      17.431   0.815  11.706  0.00  0.00     0.175 S 
ATOM     14  O20 <0> d   1      17.350   2.208  11.976  0.00  0.00    -0.223 OA
ATOM     15  O21 <0> d   1      16.277   0.071  11.343  0.00  0.00    -0.223 OA
BRANCH  13  16
ATOM     16  C22 <0> d   1      17.941   0.106  13.238  0.00  0.00     0.059 A 
ATOM     17  C27 <0> d   1      17.392   0.554  14.424  0.00  0.00     0.023 A 
ATOM     18  C26 <0> d   1      17.789  -0.005  15.624  0.00  0.00     0.002 A 
ATOM     19  C25 <0> d   1      18.742  -1.006  15.638  0.00  0.00     0.000 A 
ATOM     20  C24 <0> d   1      19.295  -1.450  14.451  0.00  0.00     0.002 A 
ATOM     21  C23 <0> d   1      18.895  -0.894  13.251  0.00  0.00     0.023 A 
ENDBRANCH  13  16
ENDBRANCH  12  13
ENDBRANCH  11  12
ENDBRANCH   7  11
BRANCH   1  22
ATOM     22  C9  <0> d   1      19.251  -4.103   7.779  0.00  0.00     0.074 C 
BRANCH  22  23
ATOM     23  C7  <0> d   1      17.907  -4.195   8.505  0.00  0.00     0.192 C 
ATOM     24  N2  <0> d   1      18.130  -4.409   9.947  0.00  0.00    -0.070 N 
ATOM     25  C1  <0> d   1      17.499  -3.324  10.711  0.00  0.00     0.270 C 
ATOM     26  H3  <0> d   1      19.121  -4.427  10.138  0.00  0.00     0.279 HD
ATOM     27  C4  <0> d   1      17.525  -5.703  10.328  0.00  0.00     0.235 C 
ATOM     28  C5  <0> d   1      16.432  -5.958   9.260  0.00  0.00     0.030 C 
ATOM     29  C6  <0> d   1      17.110  -5.404   7.979  0.00  0.00     0.035 C 
ENDBRANCH  22  23
ENDBRANCH   1  22
TORSDOF 6
ENDMDL
MODEL 7
REMARK VINA RESULT:      -8.0      3.770      7.236
REMARK  6 active torsions:
REMARK  status: ('A' for Active; 'I' for Inactive)
REMARK    1  A    between atoms: C7_7  and  C9_8 
REMARK    2  A    between atoms: C9_8  and  C10_9 
REMARK    3  A    between atoms: C16_15  and  C17_16 
REMARK    4  A    between atoms: C17_16  and  C18_17 
REMARK    5  A    between atoms: C18_17  and  S19_18 
REMARK    6  A    between atoms: S19_18  and  C22_21 
ROOT
ATOM      1  C10 <0> d   1      18.524  -3.743   7.695  0.00  0.00    -0.028 A 
ATOM      2  C11 <0> d   1      17.914  -4.815   7.164  0.00  0.00     0.096 A 
ATOM      3  N12 <0> d   1      17.196  -5.469   8.128  0.00  0.00    -0.365 N 
ATOM      4  C13 <0> d   1      17.330  -4.818   9.334  0.00  0.00     0.043 A 
ATOM      5  C14 <0> d   1      16.825  -5.050  10.609  0.00  0.00     0.031 A 
ATOM      6  C15 <0> d   1      17.148  -4.194  11.640  0.00  0.00     0.009 A 
ATOM      7  C16 <0> d   1      17.975  -3.100  11.419  0.00  0.00    -0.056 A 
ATOM      8  C28 <0> d   1      18.482  -2.854  10.174  0.00  0.00     0.021 A 
ATOM      9  C29 <0> d   1      18.172  -3.712   9.117  0.00  0.00    -0.001 A 
ATOM     10  H42 <0> d   1      16.671  -6.272   7.984  0.00  0.00     0.165 HD
ENDROOT
BRANCH   7  11
ATOM     11  C17 <0> d   1      18.315  -2.178  12.561  0.00  0.00     0.054 C 
BRANCH  11  12
ATOM     12  C18 <0> d   1      18.653  -0.790  12.013  0.00  0.00     0.150 C 
BRANCH  12  13
ATOM     13  S19 <0> d   1      17.281   0.345  12.356  0.00  0.00     0.175 S 
ATOM     14  O20 <0> d   1      16.082  -0.129  11.759  0.00  0.00    -0.223 OA
ATOM     15  O21 <0> d   1      17.308   0.765  13.713  0.00  0.00    -0.223 OA
BRANCH  13  16
ATOM     16  C22 <0> d   1      17.675   1.799  11.442  0.00  0.00     0.059 A 
ATOM     17  C27 <0> d   1      17.562   3.042  12.037  0.00  0.00     0.023 A 
ATOM     18  C26 <0> d   1      17.876   4.182  11.321  0.00  0.00     0.002 A 
ATOM     19  C25 <0> d   1      18.295   4.080  10.008  0.00  0.00     0.000 A 
ATOM     20  C24 <0> d   1      18.403   2.837   9.411  0.00  0.00     0.002 A 
ATOM     21  C23 <0> d   1      18.094   1.697  10.129  0.00  0.00     0.023 A 
ENDBRANCH  13  16
ENDBRANCH  12  13
ENDBRANCH  11  12
ENDBRANCH   7  11
BRANCH   1  22
ATOM     22  C9  <0> d   1      19.407  -2.762   6.968  0.00  0.00     0.074 C 
BRANCH  22  23
ATOM     23  C7  <0> d   1      18.563  -1.585   6.475  0.00  0.00     0.192 C 
ATOM     24  N2  <0> d   1      18.772  -1.390   5.028  0.00  0.00    -0.070 N 
ATOM     25  C1  <0> d   1      17.487  -1.500   4.324  0.00  0.00     0.270 C 
ATOM     26  H3  <0> d   1      19.411  -2.088   4.680  0.00  0.00     0.279 HD
ATOM     27  C4  <0> d   1      19.342  -0.043   4.815  0.00  0.00     0.235 C 
ATOM     28  C5  <0> d   1      18.905   0.773   6.058  0.00  0.00     0.030 C 
ATOM     29  C6  <0> d   1      19.006  -0.291   7.182  0.00  0.00     0.035 C 
ENDBRANCH  22  23
ENDBRANCH   1  22
TORSDOF 6
ENDMDL
MODEL 8
REMARK VINA RESULT:      -8.0      3.742      6.239
REMARK  6 active torsions:
REMARK  status: ('A' for Active; 'I' for Inactive)
REMARK    1  A    between atoms: C7_7  and  C9_8 
REMARK    2  A    between atoms: C9_8  and  C10_9 
REMARK    3  A    between atoms: C16_15  and  C17_16 
REMARK    4  A    between atoms: C17_16  and  C18_17 
REMARK    5  A    between atoms: C18_17  and  S19_18 
REMARK    6  A    between atoms: S19_18  and  C22_21 
ROOT
ATOM      1  C10 <0> d   1      18.493   2.919  14.180  0.00  0.00    -0.028 A 
ATOM      2  C11 <0> d   1      17.901   3.953  14.800  0.00  0.00     0.096 A 
ATOM      3  N12 <0> d   1      17.388   4.820  13.874  0.00  0.00    -0.365 N 
ATOM      4  C13 <0> d   1      17.643   4.355  12.604  0.00  0.00     0.043 A 
ATOM      5  C14 <0> d   1      17.351   4.834  11.332  0.00  0.00     0.031 A 
ATOM      6  C15 <0> d   1      17.751   4.120  10.222  0.00  0.00     0.009 A 
ATOM      7  C16 <0> d   1      18.444   2.926  10.362  0.00  0.00    -0.056 A 
ATOM      8  C28 <0> d   1      18.742   2.437  11.603  0.00  0.00     0.021 A 
ATOM      9  C29 <0> d   1      18.351   3.147  12.740  0.00  0.00    -0.001 A 
ATOM     10  H42 <0> d   1      16.915   5.642  14.082  0.00  0.00     0.165 HD
ENDROOT
BRANCH   7  11
ATOM     11  C17 <0> d   1      18.872   2.163   9.135  0.00  0.00     0.054 C 
BRANCH  11  12
ATOM     12  C18 <0> d   1      17.967   0.944   8.951  0.00  0.00     0.150 C 
BRANCH  12  13
ATOM     13  S19 <0> d   1      18.977  -0.563   8.932  0.00  0.00     0.175 S 
ATOM     14  O20 <0> d   1      20.324  -0.263   9.268  0.00  0.00    -0.223 OA
ATOM     15  O21 <0> d   1      18.286  -1.635   9.558  0.00  0.00    -0.223 OA
BRANCH  13  16
ATOM     16  C22 <0> d   1      19.046  -1.024   7.232  0.00  0.00     0.059 A 
ATOM     17  C27 <0> d   1      19.185  -2.353   6.881  0.00  0.00     0.023 A 
ATOM     18  C26 <0> d   1      19.235  -2.715   5.548  0.00  0.00     0.002 A 
ATOM     19  C25 <0> d   1      19.154  -1.746   4.566  0.00  0.00     0.000 A 
ATOM     20  C24 <0> d   1      19.020  -0.416   4.917  0.00  0.00     0.002 A 
ATOM     21  C23 <0> d   1      18.966  -0.054   6.250  0.00  0.00     0.023 A 
ENDBRANCH  13  16
ENDBRANCH  12  13
ENDBRANCH  11  12
ENDBRANCH   7  11
BRANCH   1  22
ATOM     22  C9  <0> d   1      19.177   1.750  14.841  0.00  0.00     0.074 C 
BRANCH  22  23
ATOM     23  C7  <0> d   1      18.342   1.279  16.033  0.00  0.00     0.192 C 
ATOM     24  N2  <0> d   1      19.229   0.776  17.098  0.00  0.00    -0.070 N 
ATOM     25  C1  <0> d   1      19.001   1.539  18.333  0.00  0.00     0.270 C 
ATOM     26  H3  <0> d   1      20.191   0.871  16.811  0.00  0.00     0.279 HD
ATOM     27  C4  <0> d   1      18.917  -0.651  17.331  0.00  0.00     0.235 C 
ATOM     28  C5  <0> d   1      17.457  -0.822  16.841  0.00  0.00     0.030 C 
ATOM     29  C6  <0> d   1      17.429   0.114  15.605  0.00  0.00     0.035 C 
ENDBRANCH  22  23
ENDBRANCH   1  22
TORSDOF 6
ENDMDL
MODEL 9
REMARK VINA RESULT:      -7.8      4.897      8.483
REMARK  6 active torsions:
REMARK  status: ('A' for Active; 'I' for Inactive)
REMARK    1  A    between atoms: C7_7  and  C9_8 
REMARK    2  A    between atoms: C9_8  and  C10_9 
REMARK    3  A    between atoms: C16_15  and  C17_16 
REMARK    4  A    between atoms: C17_16  and  C18_17 
REMARK    5  A    between atoms: C18_17  and  S19_18 
REMARK    6  A    between atoms: S19_18  and  C22_21 
ROOT
ATOM      1  C10 <0> d   1      18.622   2.895  17.103  0.00  0.00    -0.028 A 
ATOM      2  C11 <0> d   1      18.900   3.009  18.411  0.00  0.00     0.096 A 
ATOM      3  N12 <0> d   1      19.170   1.777  18.941  0.00  0.00    -0.365 N 
ATOM      4  C13 <0> d   1      19.070   0.814  17.961  0.00  0.00     0.043 A 
ATOM      5  C14 <0> d   1      19.239  -0.566  17.954  0.00  0.00     0.031 A 
ATOM      6  C15 <0> d   1      19.066  -1.271  16.782  0.00  0.00     0.009 A 
ATOM      7  C16 <0> d   1      18.723  -0.617  15.607  0.00  0.00    -0.056 A 
ATOM      8  C28 <0> d   1      18.552   0.739  15.592  0.00  0.00     0.021 A 
ATOM      9  C29 <0> d   1      18.717   1.472  16.769  0.00  0.00    -0.001 A 
ATOM     10  H42 <0> d   1      19.398   1.606  19.869  0.00  0.00     0.165 HD
ENDROOT
BRANCH   7  11
ATOM     11  C17 <0> d   1      18.538  -1.408  14.338  0.00  0.00     0.054 C 
BRANCH  11  12
ATOM     12  C18 <0> d   1      17.819  -0.545  13.299  0.00  0.00     0.150 C 
BRANCH  12  13
ATOM     13  S19 <0> d   1      18.435  -0.955  11.643  0.00  0.00     0.175 S 
ATOM     14  O20 <0> d   1      19.800  -1.345  11.702  0.00  0.00    -0.223 OA
ATOM     15  O21 <0> d   1      17.480  -1.732  10.934  0.00  0.00    -0.223 OA
BRANCH  13  16
ATOM     16  C22 <0> d   1      18.461   0.587  10.790  0.00  0.00     0.059 A 
ATOM     17  C27 <0> d   1      17.657   1.627  11.217  0.00  0.00     0.023 A 
ATOM     18  C26 <0> d   1      17.680   2.838  10.550  0.00  0.00     0.002 A 
ATOM     19  C25 <0> d   1      18.502   3.005   9.451  0.00  0.00     0.000 A 
ATOM     20  C24 <0> d   1      19.303   1.964   9.021  0.00  0.00     0.002 A 
ATOM     21  C23 <0> d   1      19.282   0.754   9.691  0.00  0.00     0.023 A 
ENDBRANCH  13  16
ENDBRANCH  12  13
ENDBRANCH  11  12
ENDBRANCH   7  11
BRANCH   1  22
ATOM     22  C9  <0> d   1      18.274   4.017  16.159  0.00  0.00     0.074 C 
BRANCH  22  23
ATOM     23  C7  <0> d   1      19.445   4.263  15.206  0.00  0.00     0.192 C 
ATOM     24  N2  <0> d   1      19.821   5.689  15.232  0.00  0.00    -0.070 N 
ATOM     25  C1  <0> d   1      21.229   5.822  15.630  0.00  0.00     0.270 C 
ATOM     26  H3  <0> d   1      19.234   6.183  15.887  0.00  0.00     0.279 HD
ATOM     27  C4  <0> d   1      19.633   6.247  13.875  0.00  0.00     0.235 C 
ATOM     28  C5  <0> d   1      19.730   5.025  12.928  0.00  0.00     0.030 C 
ATOM     29  C6  <0> d   1      19.027   3.923  13.764  0.00  0.00     0.035 C 
ENDBRANCH  22  23
ENDBRANCH   1  22
TORSDOF 6
ENDMDL
