MODEL 1
REMARK VINA RESULT:      -9.6      0.000      0.000
REMARK  3 active torsions:
REMARK  status: ('A' for Active; 'I' for Inactive)
REMARK    1  A    between atoms: C7_7  and  N9_8 
REMARK    2  A    between atoms: C11_10  and  C12_11 
REMARK    3  A    between atoms: C12_11  and  C13_12 
ROOT
ATOM      1  N9  <0> d   1      18.348  -0.483  10.517  0.00  0.00    -0.229 N 
ATOM      2  N10 <0> d   1      18.706  -0.031   9.246  0.00  0.00    -0.173 NA
ATOM      3  C11 <0> d   1      18.701   1.228   8.922  0.00  0.00     0.070 A 
ATOM      4  C20 <0> d   1      18.309   2.236   9.907  0.00  0.00     0.006 A 
ATOM      5  C21 <0> d   1      18.291   3.598   9.599  0.00  0.00     0.014 A 
ATOM      6  C22 <0> d   1      17.914   4.507  10.563  0.00  0.00     0.001 A 
ATOM      7  C23 <0> d   1      17.554   4.085  11.836  0.00  0.00     0.001 A 
ATOM      8  C24 <0> d   1      17.564   2.746  12.162  0.00  0.00     0.018 A 
ATOM      9  C25 <0> d   1      17.942   1.807  11.203  0.00  0.00     0.046 A 
ATOM     10  C26 <0> d   1      17.966   0.368  11.492  0.00  0.00     0.275 A 
ATOM     11  O27 <0> d   1      17.654  -0.049  12.593  0.00  0.00    -0.266 OA
ENDROOT
BRANCH   1  12
ATOM     12  C7  <0> d   1      18.381  -1.920  10.797  0.00  0.00     0.115 C 
ATOM     13  C6  <0> d   1      19.765  -2.285  11.371  0.00  0.00     0.029 C 
ATOM     14  C5  <0> d   1      20.042  -3.797  11.275  0.00  0.00     0.030 C 
ATOM     15  C4  <0> d   1      18.816  -4.606  11.617  0.00  0.00     0.234 C 
ATOM     16  N2  <0> d   1      18.131  -4.963  10.359  0.00  0.00    -0.075 N 
ATOM     17  C1  <0> d   1      17.333  -6.175  10.584  0.00  0.00     0.269 C 
ATOM     18  H3  <0> d   1      18.828  -5.160   9.657  0.00  0.00     0.279 HD
ATOM     19  C29 <0> d   1      17.289  -3.955   9.884  0.00  0.00     0.236 C 
ATOM     20  C28 <0> d   1      18.069  -2.671   9.528  0.00  0.00     0.055 C 
ENDBRANCH   1  12
BRANCH   3  21
ATOM     21  C12 <0> d   1      19.098   1.649   7.530  0.00  0.00     0.100 C 
BRANCH  21  22
ATOM     22  C13 <0> d   1      18.599   0.632   6.536  0.00  0.00    -0.052 A 
ATOM     23  C19 <0> d   1      19.439   0.168   5.541  0.00  0.00     0.009 A 
ATOM     24  C18 <0> d   1      18.982  -0.768   4.632  0.00  0.00     0.024 A 
ATOM     25  C16 <0> d   1      17.681  -1.231   4.710  0.00  0.00     0.034 A 
ATOM     26  C15 <0> d   1      16.839  -0.761   5.703  0.00  0.00     0.024 A 
ATOM     27 Cl17 <0> d   1      17.105  -2.401   3.565  0.00  0.00    -0.084 Cl
ATOM     28  C14 <0> d   1      17.298   0.170   6.615  0.00  0.00     0.009 A 
ENDBRANCH  21  22
ENDBRANCH   3  21
TORSDOF 3
ENDMDL
MODEL 2
REMARK VINA RESULT:      -9.0      2.119      5.909
REMARK  3 active torsions:
REMARK  status: ('A' for Active; 'I' for Inactive)
REMARK    1  A    between atoms: C7_7  and  N9_8 
REMARK    2  A    between atoms: C11_10  and  C12_11 
REMARK    3  A    between atoms: C12_11  and  C13_12 
ROOT
ATOM      1  N9  <0> d   1      18.494  -1.441   9.676  0.00  0.00    -0.229 N 
ATOM      2  N10 <0> d   1      19.105  -1.986   8.547  0.00  0.00    -0.173 NA
ATOM      3  C11 <0> d   1      19.048  -3.251   8.259  0.00  0.00     0.070 A 
ATOM      4  C20 <0> d   1      18.317  -4.169   9.135  0.00  0.00     0.006 A 
ATOM      5  C21 <0> d   1      18.230  -5.535   8.861  0.00  0.00     0.014 A 
ATOM      6  C22 <0> d   1      17.531  -6.355   9.719  0.00  0.00     0.001 A 
ATOM      7  C23 <0> d   1      16.912  -5.840  10.850  0.00  0.00     0.001 A 
ATOM      8  C24 <0> d   1      16.985  -4.495  11.139  0.00  0.00     0.018 A 
ATOM      9  C25 <0> d   1      17.687  -3.644  10.287  0.00  0.00     0.046 A 
ATOM     10  C26 <0> d   1      17.803  -2.204  10.548  0.00  0.00     0.275 A 
ATOM     11  O27 <0> d   1      17.280  -1.708  11.530  0.00  0.00    -0.266 OA
ENDROOT
BRANCH   1  12
ATOM     12  C7  <0> d   1      18.611  -0.002   9.926  0.00  0.00     0.115 C 
ATOM     13  C6  <0> d   1      18.449   0.751   8.589  0.00  0.00     0.029 C 
ATOM     14  C5  <0> d   1      18.990   2.191   8.675  0.00  0.00     0.030 C 
ATOM     15  C4  <0> d   1      18.626   2.839   9.988  0.00  0.00     0.234 C 
ATOM     16  N2  <0> d   1      19.765   2.682  10.913  0.00  0.00    -0.075 N 
ATOM     17  C1  <0> d   1      19.705   3.750  11.920  0.00  0.00     0.269 C 
ATOM     18  H3  <0> d   1      20.622   2.779  10.390  0.00  0.00     0.279 HD
ATOM     19  C29 <0> d   1      19.778   1.449  11.568  0.00  0.00     0.236 C 
ATOM     20  C28 <0> d   1      19.940   0.273  10.582  0.00  0.00     0.055 C 
ENDBRANCH   1  12
BRANCH   3  21
ATOM     21  C12 <0> d   1      19.732  -3.776   7.023  0.00  0.00     0.100 C 
BRANCH  21  22
ATOM     22  C13 <0> d   1      18.743  -3.830   5.887  0.00  0.00    -0.052 A 
ATOM     23  C19 <0> d   1      18.235  -5.046   5.469  0.00  0.00     0.009 A 
ATOM     24  C18 <0> d   1      17.325  -5.095   4.430  0.00  0.00     0.024 A 
ATOM     25  C16 <0> d   1      16.930  -3.929   3.801  0.00  0.00     0.034 A 
ATOM     26  C15 <0> d   1      17.443  -2.712   4.216  0.00  0.00     0.024 A 
ATOM     27 Cl17 <0> d   1      15.791  -3.990   2.492  0.00  0.00    -0.084 Cl
ATOM     28  C14 <0> d   1      18.349  -2.663   5.258  0.00  0.00     0.009 A 
ENDBRANCH  21  22
ENDBRANCH   3  21
TORSDOF 3
ENDMDL
MODEL 3
REMARK VINA RESULT:      -9.0      3.616      6.311
REMARK  3 active torsions:
REMARK  status: ('A' for Active; 'I' for Inactive)
REMARK    1  A    between atoms: C7_7  and  N9_8 
REMARK    2  A    between atoms: C11_10  and  C12_11 
REMARK    3  A    between atoms: C12_11  and  C13_12 
ROOT
ATOM      1  N9  <0> d   1      18.466   0.081  11.521  0.00  0.00    -0.229 N 
ATOM      2  N10 <0> d   1      18.439   1.420  11.131  0.00  0.00    -0.173 NA
ATOM      3  C11 <0> d   1      18.555   1.793   9.892  0.00  0.00     0.070 A 
ATOM      4  C20 <0> d   1      18.720   0.792   8.839  0.00  0.00     0.006 A 
ATOM      5  C21 <0> d   1      18.847   1.150   7.495  0.00  0.00     0.014 A 
ATOM      6  C22 <0> d   1      19.000   0.167   6.542  0.00  0.00     0.001 A 
ATOM      7  C23 <0> d   1      19.030  -1.174   6.902  0.00  0.00     0.001 A 
ATOM      8  C24 <0> d   1      18.907  -1.550   8.221  0.00  0.00     0.018 A 
ATOM      9  C25 <0> d   1      18.751  -0.574   9.204  0.00  0.00     0.046 A 
ATOM     10  C26 <0> d   1      18.620  -0.916  10.626  0.00  0.00     0.275 A 
ATOM     11  O27 <0> d   1      18.645  -2.078  10.989  0.00  0.00    -0.266 OA
ENDROOT
BRANCH   1  12
ATOM     12  C7  <0> d   1      18.330  -0.251  12.942  0.00  0.00     0.115 C 
ATOM     13  C6  <0> d   1      17.367   0.758  13.600  0.00  0.00     0.029 C 
ATOM     14  C5  <0> d   1      17.509   0.767  15.133  0.00  0.00     0.030 C 
ATOM     15  C4  <0> d   1      17.674  -0.629  15.681  0.00  0.00     0.234 C 
ATOM     16  N2  <0> d   1      19.116  -0.891  15.854  0.00  0.00    -0.075 N 
ATOM     17  C1  <0> d   1      19.286  -1.926  16.882  0.00  0.00     0.269 C 
ATOM     18  H3  <0> d   1      19.562  -0.044  16.172  0.00  0.00     0.279 HD
ATOM     19  C29 <0> d   1      19.745  -1.315  14.682  0.00  0.00     0.236 C 
ATOM     20  C28 <0> d   1      19.696  -0.238  13.578  0.00  0.00     0.055 C 
ENDBRANCH   1  12
BRANCH   3  21
ATOM     21  C12 <0> d   1      18.518   3.258   9.539  0.00  0.00     0.100 C 
BRANCH  21  22
ATOM     22  C13 <0> d   1      18.130   4.059  10.756  0.00  0.00    -0.052 A 
ATOM     23  C19 <0> d   1      16.875   4.631  10.835  0.00  0.00     0.009 A 
ATOM     24  C18 <0> d   1      16.517   5.362  11.953  0.00  0.00     0.024 A 
ATOM     25  C16 <0> d   1      17.420   5.528  12.988  0.00  0.00     0.034 A 
ATOM     26  C15 <0> d   1      18.679   4.959  12.906  0.00  0.00     0.024 A 
ATOM     27 Cl17 <0> d   1      16.974   6.450  14.389  0.00  0.00    -0.084 Cl
ATOM     28  C14 <0> d   1      19.033   4.225  11.790  0.00  0.00     0.009 A 
ENDBRANCH  21  22
ENDBRANCH   3  21
TORSDOF 3
ENDMDL
MODEL 4
REMARK VINA RESULT:      -9.0      4.076      7.182
REMARK  3 active torsions:
REMARK  status: ('A' for Active; 'I' for Inactive)
REMARK    1  A    between atoms: C7_7  and  N9_8 
REMARK    2  A    between atoms: C11_10  and  C12_11 
REMARK    3  A    between atoms: C12_11  and  C13_12 
ROOT
ATOM      1  N9  <0> d   1      17.858   2.781  11.727  0.00  0.00    -0.229 N 
ATOM      2  N10 <0> d   1      18.566   2.288  12.823  0.00  0.00    -0.173 NA
ATOM      3  C11 <0> d   1      18.629   2.917  13.958  0.00  0.00     0.070 A 
ATOM      4  C20 <0> d   1      17.938   4.195  14.126  0.00  0.00     0.006 A 
ATOM      5  C21 <0> d   1      17.980   4.902  15.329  0.00  0.00     0.014 A 
ATOM      6  C22 <0> d   1      17.312   6.102  15.435  0.00  0.00     0.001 A 
ATOM      7  C23 <0> d   1      16.599   6.616  14.361  0.00  0.00     0.001 A 
ATOM      8  C24 <0> d   1      16.544   5.936  13.164  0.00  0.00     0.018 A 
ATOM      9  C25 <0> d   1      17.212   4.719  13.032  0.00  0.00     0.046 A 
ATOM     10  C26 <0> d   1      17.193   3.954  11.780  0.00  0.00     0.275 A 
ATOM     11  O27 <0> d   1      16.584   4.367  10.809  0.00  0.00    -0.266 OA
ENDROOT
BRANCH   1  12
ATOM     12  C7  <0> d   1      17.841   2.007  10.483  0.00  0.00     0.115 C 
ATOM     13  C6  <0> d   1      17.301   0.594  10.782  0.00  0.00     0.029 C 
ATOM     14  C5  <0> d   1      17.659  -0.403   9.663  0.00  0.00     0.030 C 
ATOM     15  C4  <0> d   1      17.506   0.220   8.298  0.00  0.00     0.234 C 
ATOM     16  N2  <0> d   1      18.828   0.713   7.863  0.00  0.00    -0.075 N 
ATOM     17  C1  <0> d   1      18.849   0.771   6.396  0.00  0.00     0.269 C 
ATOM     18  H3  <0> d   1      19.533   0.060   8.171  0.00  0.00     0.279 HD
ATOM     19  C29 <0> d   1      19.138   1.978   8.366  0.00  0.00     0.236 C 
ATOM     20  C28 <0> d   1      19.233   1.980   9.907  0.00  0.00     0.055 C 
ENDBRANCH   1  12
BRANCH   3  21
ATOM     21  C12 <0> d   1      19.413   2.329  15.103  0.00  0.00     0.100 C 
BRANCH  21  22
ATOM     22  C13 <0> d   1      18.727   1.079  15.592  0.00  0.00    -0.052 A 
ATOM     23  C19 <0> d   1      17.796   1.155  16.611  0.00  0.00     0.009 A 
ATOM     24  C18 <0> d   1      17.163   0.009  17.056  0.00  0.00     0.024 A 
ATOM     25  C16 <0> d   1      17.470  -1.214  16.490  0.00  0.00     0.034 A 
ATOM     26  C15 <0> d   1      18.406  -1.291  15.473  0.00  0.00     0.024 A 
ATOM     27 Cl17 <0> d   1      16.680  -2.654  17.053  0.00  0.00    -0.084 Cl
ATOM     28  C14 <0> d   1      19.034  -0.144  15.025  0.00  0.00     0.009 A 
ENDBRANCH  21  22
ENDBRANCH   3  21
TORSDOF 3
ENDMDL
MODEL 5
REMARK VINA RESULT:      -9.0      3.826      6.104
REMARK  3 active torsions:
REMARK  status: ('A' for Active; 'I' for Inactive)
REMARK    1  A    between atoms: C7_7  and  N9_8 
REMARK    2  A    between atoms: C11_10  and  C12_11 
REMARK    3  A    between atoms: C12_11  and  C13_12 
ROOT
ATOM      1  N9  <0> d   1      18.394  -1.763  10.573  0.00  0.00    -0.229 N 
ATOM      2  N10 <0> d   1      19.174  -1.547  11.709  0.00  0.00    -0.173 NA
ATOM      3  C11 <0> d   1      19.592  -0.367  12.060  0.00  0.00     0.070 A 
ATOM      4  C20 <0> d   1      19.246   0.802  11.251  0.00  0.00     0.006 A 
ATOM      5  C21 <0> d   1      19.674   2.086  11.593  0.00  0.00     0.014 A 
ATOM      6  C22 <0> d   1      19.320   3.154  10.798  0.00  0.00     0.001 A 
ATOM      7  C23 <0> d   1      18.544   2.967   9.661  0.00  0.00     0.001 A 
ATOM      8  C24 <0> d   1      18.111   1.709   9.305  0.00  0.00     0.018 A 
ATOM      9  C25 <0> d   1      18.456   0.613  10.094  0.00  0.00     0.046 A 
ATOM     10  C26 <0> d   1      18.027  -0.751   9.760  0.00  0.00     0.275 A 
ATOM     11  O27 <0> d   1      17.349  -0.963   8.771  0.00  0.00    -0.266 OA
ENDROOT
BRANCH   1  12
ATOM     12  C7  <0> d   1      17.967  -3.127  10.251  0.00  0.00     0.115 C 
ATOM     13  C6  <0> d   1      17.356  -3.770  11.512  0.00  0.00     0.029 C 
ATOM     14  C5  <0> d   1      17.294  -5.305  11.399  0.00  0.00     0.030 C 
ATOM     15  C4  <0> d   1      16.874  -5.740  10.017  0.00  0.00     0.234 C 
ATOM     16  N2  <0> d   1      18.089  -6.036   9.235  0.00  0.00    -0.075 N 
ATOM     17  C1  <0> d   1      17.742  -6.980   8.164  0.00  0.00     0.269 C 
ATOM     18  H3  <0> d   1      18.766  -6.472   9.842  0.00  0.00     0.279 HD
ATOM     19  C29 <0> d   1      18.667  -4.902   8.662  0.00  0.00     0.236 C 
ATOM     20  C28 <0> d   1      19.152  -3.898   9.730  0.00  0.00     0.055 C 
ENDBRANCH   1  12
BRANCH   3  21
ATOM     21  C12 <0> d   1      20.432  -0.203  13.299  0.00  0.00     0.100 C 
BRANCH  21  22
ATOM     22  C13 <0> d   1      19.533  -0.013  14.494  0.00  0.00    -0.052 A 
ATOM     23  C19 <0> d   1      19.277   1.259  14.971  0.00  0.00     0.009 A 
ATOM     24  C18 <0> d   1      18.448   1.434  16.064  0.00  0.00     0.024 A 
ATOM     25  C16 <0> d   1      17.885   0.335  16.687  0.00  0.00     0.034 A 
ATOM     26  C15 <0> d   1      18.147  -0.938  16.213  0.00  0.00     0.024 A 
ATOM     27 Cl17 <0> d   1      16.850   0.553  18.063  0.00  0.00    -0.084 Cl
ATOM     28  C14 <0> d   1      18.971  -1.111  15.117  0.00  0.00     0.009 A 
ENDBRANCH  21  22
ENDBRANCH   3  21
TORSDOF 3
ENDMDL
MODEL 6
REMARK VINA RESULT:      -8.7      3.691      5.894
REMARK  3 active torsions:
REMARK  status: ('A' for Active; 'I' for Inactive)
REMARK    1  A    between atoms: C7_7  and  N9_8 
REMARK    2  A    between atoms: C11_10  and  C12_11 
REMARK    3  A    between atoms: C12_11  and  C13_12 
ROOT
ATOM      1  N9  <0> d   1      18.792  -0.291   9.747  0.00  0.00    -0.229 N 
ATOM      2  N10 <0> d   1      19.475  -0.354  10.962  0.00  0.00    -0.173 NA
ATOM      3  C11 <0> d   1      19.690   0.693  11.702  0.00  0.00     0.070 A 
ATOM      4  C20 <0> d   1      19.207   2.005  11.271  0.00  0.00     0.006 A 
ATOM      5  C21 <0> d   1      19.416   3.154  12.036  0.00  0.00     0.014 A 
ATOM      6  C22 <0> d   1      18.941   4.366  11.584  0.00  0.00     0.001 A 
ATOM      7  C23 <0> d   1      18.258   4.457  10.379  0.00  0.00     0.001 A 
ATOM      8  C24 <0> d   1      18.040   3.337   9.608  0.00  0.00     0.018 A 
ATOM      9  C25 <0> d   1      18.511   2.099  10.043  0.00  0.00     0.046 A 
ATOM     10  C26 <0> d   1      18.314   0.873   9.261  0.00  0.00     0.275 A 
ATOM     11  O27 <0> d   1      17.724   0.905   8.196  0.00  0.00    -0.266 OA
ENDROOT
BRANCH   1  12
ATOM     12  C7  <0> d   1      18.595  -1.521   8.976  0.00  0.00     0.115 C 
ATOM     13  C6  <0> d   1      18.686  -2.729   9.931  0.00  0.00     0.029 C 
ATOM     14  C5  <0> d   1      18.935  -4.043   9.168  0.00  0.00     0.030 C 
ATOM     15  C4  <0> d   1      18.122  -4.108   7.899  0.00  0.00     0.234 C 
ATOM     16  N2  <0> d   1      18.971  -3.654   6.781  0.00  0.00    -0.075 N 
ATOM     17  C1  <0> d   1      18.460  -4.238   5.534  0.00  0.00     0.269 C 
ATOM     18  H3  <0> d   1      19.911  -3.989   6.932  0.00  0.00     0.279 HD
ATOM     19  C29 <0> d   1      19.008  -2.265   6.643  0.00  0.00     0.236 C 
ATOM     20  C28 <0> d   1      19.627  -1.579   7.879  0.00  0.00     0.055 C 
ENDBRANCH   1  12
BRANCH   3  21
ATOM     21  C12 <0> d   1      20.435   0.556  13.004  0.00  0.00     0.100 C 
BRANCH  21  22
ATOM     22  C13 <0> d   1      19.483   0.102  14.082  0.00  0.00    -0.052 A 
ATOM     23  C19 <0> d   1      19.465  -1.223  14.475  0.00  0.00     0.009 A 
ATOM     24  C18 <0> d   1      18.595  -1.638  15.467  0.00  0.00     0.024 A 
ATOM     25  C16 <0> d   1      17.737  -0.729  16.058  0.00  0.00     0.034 A 
ATOM     26  C15 <0> d   1      17.752   0.596  15.661  0.00  0.00     0.024 A 
ATOM     27 Cl17 <0> d   1      16.641  -1.251  17.299  0.00  0.00    -0.084 Cl
ATOM     28  C14 <0> d   1      18.625   1.011  14.673  0.00  0.00     0.009 A 
ENDBRANCH  21  22
ENDBRANCH   3  21
TORSDOF 3
ENDMDL
MODEL 7
REMARK VINA RESULT:      -8.7      2.714      5.521
REMARK  3 active torsions:
REMARK  status: ('A' for Active; 'I' for Inactive)
REMARK    1  A    between atoms: C7_7  and  N9_8 
REMARK    2  A    between atoms: C11_10  and  C12_11 
REMARK    3  A    between atoms: C12_11  and  C13_12 
ROOT
ATOM      1  N9  <0> d   1      18.908  -1.302   9.626  0.00  0.00    -0.229 N 
ATOM      2  N10 <0> d   1      18.976  -2.644   9.253  0.00  0.00    -0.173 NA
ATOM      3  C11 <0> d   1      19.008  -3.028   8.012  0.00  0.00     0.070 A 
ATOM      4  C20 <0> d   1      18.975  -2.035   6.938  0.00  0.00     0.006 A 
ATOM      5  C21 <0> d   1      19.008  -2.404   5.592  0.00  0.00     0.014 A 
ATOM      6  C22 <0> d   1      18.974  -1.430   4.620  0.00  0.00     0.001 A 
ATOM      7  C23 <0> d   1      18.906  -0.086   4.962  0.00  0.00     0.001 A 
ATOM      8  C24 <0> d   1      18.872   0.302   6.284  0.00  0.00     0.018 A 
ATOM      9  C25 <0> d   1      18.905  -0.666   7.286  0.00  0.00     0.046 A 
ATOM     10  C26 <0> d   1      18.866  -0.312   8.710  0.00  0.00     0.275 A 
ATOM     11  O27 <0> d   1      18.802   0.853   9.058  0.00  0.00    -0.266 OA
ENDROOT
BRANCH   1  12
ATOM     12  C7  <0> d   1      18.874  -0.958  11.050  0.00  0.00     0.115 C 
ATOM     13  C6  <0> d   1      19.626  -2.045  11.843  0.00  0.00     0.029 C 
ATOM     14  C5  <0> d   1      19.268  -2.011  13.341  0.00  0.00     0.030 C 
ATOM     15  C4  <0> d   1      19.170  -0.595  13.853  0.00  0.00     0.234 C 
ATOM     16  N2  <0> d   1      17.752  -0.187  13.817  0.00  0.00    -0.075 N 
ATOM     17  C1  <0> d   1      17.544   0.880  14.805  0.00  0.00     0.269 C 
ATOM     18  H3  <0> d   1      17.181  -0.979  14.071  0.00  0.00     0.279 HD
ATOM     19  C29 <0> d   1      17.342   0.276  12.565  0.00  0.00     0.236 C 
ATOM     20  C28 <0> d   1      17.437  -0.821  11.484  0.00  0.00     0.055 C 
ENDBRANCH   1  12
BRANCH   3  21
ATOM     21  C12 <0> d   1      19.082  -4.495   7.678  0.00  0.00     0.100 C 
BRANCH  21  22
ATOM     22  C13 <0> d   1      17.693  -5.082   7.683  0.00  0.00    -0.052 A 
ATOM     23  C19 <0> d   1      16.960  -5.111   8.854  0.00  0.00     0.009 A 
ATOM     24  C18 <0> d   1      15.684  -5.644   8.859  0.00  0.00     0.024 A 
ATOM     25  C16 <0> d   1      15.147  -6.159   7.693  0.00  0.00     0.034 A 
ATOM     26  C15 <0> d   1      15.883  -6.135   6.522  0.00  0.00     0.024 A 
ATOM     27 Cl17 <0> d   1      13.548  -6.835   7.699  0.00  0.00    -0.084 Cl
ATOM     28  C14 <0> d   1      17.156  -5.596   6.518  0.00  0.00     0.009 A 
ENDBRANCH  21  22
ENDBRANCH   3  21
TORSDOF 3
ENDMDL
MODEL 8
REMARK VINA RESULT:      -8.7      4.746      7.987
REMARK  3 active torsions:
REMARK  status: ('A' for Active; 'I' for Inactive)
REMARK    1  A    between atoms: C7_7  and  N9_8 
REMARK    2  A    between atoms: C11_10  and  C12_11 
REMARK    3  A    between atoms: C12_11  and  C13_12 
ROOT
ATOM      1  N9  <0> d   1      18.862   1.571  13.335  0.00  0.00    -0.229 N 
ATOM      2  N10 <0> d   1      18.887   2.904  13.744  0.00  0.00    -0.173 NA
ATOM      3  C11 <0> d   1      18.942   3.254  14.994  0.00  0.00     0.070 A 
ATOM      4  C20 <0> d   1      18.982   2.231  16.040  0.00  0.00     0.006 A 
ATOM      5  C21 <0> d   1      19.042   2.564  17.394  0.00  0.00     0.014 A 
ATOM      6  C22 <0> d   1      19.078   1.562  18.339  0.00  0.00     0.001 A 
ATOM      7  C23 <0> d   1      19.055   0.227  17.960  0.00  0.00     0.001 A 
ATOM      8  C24 <0> d   1      18.995  -0.125  16.629  0.00  0.00     0.018 A 
ATOM      9  C25 <0> d   1      18.958   0.871  15.655  0.00  0.00     0.046 A 
ATOM     10  C26 <0> d   1      18.889   0.555  14.222  0.00  0.00     0.275 A 
ATOM     11  O27 <0> d   1      18.862  -0.602  13.843  0.00  0.00    -0.266 OA
ENDROOT
BRANCH   1  12
ATOM     12  C7  <0> d   1      18.799   1.266  11.903  0.00  0.00     0.115 C 
ATOM     13  C6  <0> d   1      19.610   2.325  11.131  0.00  0.00     0.029 C 
ATOM     14  C5  <0> d   1      19.241   2.350   9.636  0.00  0.00     0.030 C 
ATOM     15  C4  <0> d   1      19.054   0.956   9.090  0.00  0.00     0.234 C 
ATOM     16  N2  <0> d   1      17.614   0.634   9.127  0.00  0.00    -0.075 N 
ATOM     17  C1  <0> d   1      17.336  -0.394   8.115  0.00  0.00     0.269 C 
ATOM     18  H3  <0> d   1      17.091   1.465   8.897  0.00  0.00     0.279 HD
ATOM     19  C29 <0> d   1      17.185   0.165  10.370  0.00  0.00     0.236 C 
ATOM     20  C28 <0> d   1      17.353   1.227  11.478  0.00  0.00     0.055 C 
ENDBRANCH   1  12
BRANCH   3  21
ATOM     21  C12 <0> d   1      18.966   4.714  15.369  0.00  0.00     0.100 C 
BRANCH  21  22
ATOM     22  C13 <0> d   1      17.562   5.263  15.339  0.00  0.00    -0.052 A 
ATOM     23  C19 <0> d   1      16.885   5.363  14.138  0.00  0.00     0.009 A 
ATOM     24  C18 <0> d   1      15.596   5.863  14.111  0.00  0.00     0.024 A 
ATOM     25  C16 <0> d   1      14.989   6.271  15.284  0.00  0.00     0.034 A 
ATOM     26  C15 <0> d   1      15.669   6.176  16.485  0.00  0.00     0.024 A 
ATOM     27 Cl17 <0> d   1      13.373   6.904  15.250  0.00  0.00    -0.084 Cl
ATOM     28  C14 <0> d   1      16.956   5.671  16.512  0.00  0.00     0.009 A 
ENDBRANCH  21  22
ENDBRANCH   3  21
TORSDOF 3
ENDMDL
MODEL 9
REMARK VINA RESULT:      -8.6      4.508      8.478
REMARK  3 active torsions:
REMARK  status: ('A' for Active; 'I' for Inactive)
REMARK    1  A    between atoms: C7_7  and  N9_8 
REMARK    2  A    between atoms: C11_10  and  C12_11 
REMARK    3  A    between atoms: C12_11  and  C13_12 
ROOT
ATOM      1  N9  <0> d   1      18.170   3.395  12.170  0.00  0.00    -0.229 N 
ATOM      2  N10 <0> d   1      17.804   2.147  12.676  0.00  0.00    -0.173 NA
ATOM      3  C11 <0> d   1      17.780   1.073  11.945  0.00  0.00     0.070 A 
ATOM      4  C20 <0> d   1      18.147   1.142  10.530  0.00  0.00     0.006 A 
ATOM      5  C21 <0> d   1      18.135   0.012   9.711  0.00  0.00     0.014 A 
ATOM      6  C22 <0> d   1      18.489   0.132   8.385  0.00  0.00     0.001 A 
ATOM      7  C23 <0> d   1      18.859   1.361   7.855  0.00  0.00     0.001 A 
ATOM      8  C24 <0> d   1      18.877   2.490   8.646  0.00  0.00     0.018 A 
ATOM      9  C25 <0> d   1      18.522   2.394   9.990  0.00  0.00     0.046 A 
ATOM     10  C26 <0> d   1      18.519   3.563  10.878  0.00  0.00     0.275 A 
ATOM     11  O27 <0> d   1      18.831   4.662  10.457  0.00  0.00    -0.266 OA
ENDROOT
BRANCH   1  12
ATOM     12  C7  <0> d   1      18.168   4.555  13.066  0.00  0.00     0.115 C 
ATOM     13  C6  <0> d   1      18.986   4.213  14.327  0.00  0.00     0.029 C 
ATOM     14  C5  <0> d   1      18.675   5.175  15.489  0.00  0.00     0.030 C 
ATOM     15  C4  <0> d   1      18.539   6.597  15.006  0.00  0.00     0.234 C 
ATOM     16  N2  <0> d   1      17.106   6.879  14.792  0.00  0.00    -0.075 N 
ATOM     17  C1  <0> d   1      16.889   8.328  14.903  0.00  0.00     0.269 C 
ATOM     18  H3  <0> d   1      16.575   6.416  15.513  0.00  0.00     0.279 HD
ATOM     19  C29 <0> d   1      16.639   6.451  13.547  0.00  0.00     0.236 C 
ATOM     20  C28 <0> d   1      16.742   4.919  13.388  0.00  0.00     0.055 C 
ENDBRANCH   1  12
BRANCH   3  21
ATOM     21  C12 <0> d   1      17.374  -0.244  12.554  0.00  0.00     0.100 C 
BRANCH  21  22
ATOM     22  C13 <0> d   1      17.863  -0.311  13.978  0.00  0.00    -0.052 A 
ATOM     23  C19 <0> d   1      17.377   0.578  14.918  0.00  0.00     0.009 A 
ATOM     24  C18 <0> d   1      17.821   0.515  16.225  0.00  0.00     0.024 A 
ATOM     25  C16 <0> d   1      18.760  -0.433  16.590  0.00  0.00     0.034 A 
ATOM     26  C15 <0> d   1      19.251  -1.320  15.648  0.00  0.00     0.024 A 
ATOM     27 Cl17 <0> d   1      19.324  -0.510  18.231  0.00  0.00    -0.084 Cl
ATOM     28  C14 <0> d   1      18.802  -1.258  14.343  0.00  0.00     0.009 A 
ENDBRANCH  21  22
ENDBRANCH   3  21
TORSDOF 3
ENDMDL
