MODEL 1
REMARK VINA RESULT:      -8.0      0.000      0.000
REMARK  5 active torsions:
REMARK  status: ('A' for Active; 'I' for Inactive)
REMARK    1  A    between atoms: C2_2  and  C3_3 
REMARK    2  A    between atoms: C3_3  and  C5_4 
REMARK    3  A    between atoms: C3_3  and  N7_6 
REMARK    4  A    between atoms: C5_4  and  O6_5 
REMARK       I    between atoms: N7_6  and  C8_7 
REMARK    5  A    between atoms: C8_7  and  C10_9 
ROOT
ATOM      1  C10 ZIN A   1      20.068  -1.271  11.346  0.00  0.00     0.127 C 
ATOM      2  C12 ZIN A   1      19.906  -0.647   9.983  0.00  0.00    -0.001 C 
ATOM      3  C13 ZIN A   1      19.276  -1.290   9.016  0.00  0.00    -0.019 C 
ATOM      4  C14 ZIN A   1      19.173  -0.675   7.678  0.00  0.00    -0.015 A 
ATOM      5  C15 ZIN A   1      19.044  -1.612   6.630  0.00  0.00     0.009 A 
ATOM      6  C16 ZIN A   1      19.015  -3.063   6.783  0.00  0.00    -0.027 A 
ATOM      7  C17 ZIN A   1      18.876  -3.539   5.551  0.00  0.00     0.096 A 
ATOM      8  N18 ZIN A   1      18.819  -2.499   4.636  0.00  0.00    -0.365 N 
ATOM      9  C19 ZIN A   1      18.921  -1.300   5.273  0.00  0.00     0.043 A 
ATOM     10  C20 ZIN A   1      18.931   0.050   4.923  0.00  0.00     0.030 A 
ATOM     11  C21 ZIN A   1      19.063   0.979   5.950  0.00  0.00     0.003 A 
ATOM     12  C22 ZIN A   1      19.180   0.646   7.298  0.00  0.00     0.013 A 
ATOM     13  C23 ZIN A   1      19.142  -3.674   8.156  0.00  0.00     0.079 C 
ATOM     14  C24 ZIN A   1      18.666  -2.653   9.197  0.00  0.00     0.225 C 
ATOM     15  N26 ZIN A   1      18.794  -3.184  10.541  0.00  0.00    -0.065 N 
ATOM     16  H27 ZIN A   1      18.029  -2.841  11.103  0.00  0.00     0.280 HD
ATOM     17  C28 ZIN A   1      18.722  -4.650  10.484  0.00  0.00     0.270 C 
ATOM     18  C29 ZIN A   1      20.058  -2.795  11.174  0.00  0.00     0.253 C 
ATOM     19  H41 ZIN A   1      18.719  -2.610   3.678  0.00  0.00     0.165 HD
ENDROOT
BRANCH   1  20
ATOM     20  C8  ZIN A   1      18.929  -0.850  12.237  0.00  0.00     0.227 C 
ATOM     21  N7  ZIN A   1      19.132  -0.693  13.560  0.00  0.00    -0.354 N 
ATOM     22  H38 ZIN A   1      20.011  -0.850  13.939  0.00  0.00     0.163 HD
ATOM     23  O9  ZIN A   1      17.829  -0.655  11.765  0.00  0.00    -0.273 OA
BRANCH  21  24
ATOM     24  C3  ZIN A   1      18.023  -0.285  14.428  0.00  0.00     0.107 C 
BRANCH  24  25
ATOM     25  C2  ZIN A   1      18.086  -1.072  15.739  0.00  0.00     0.023 C 
ATOM     26  C1  ZIN A   1      17.098  -0.472  16.742  0.00  0.00     0.007 C 
ENDBRANCH  24  25
BRANCH  24  27
ATOM     27  C5  ZIN A   1      18.133   1.211  14.726  0.00  0.00     0.189 C 
BRANCH  27  28
ATOM     28  O6  ZIN A   1      19.511   1.584  14.790  0.00  0.00    -0.399 OA
ATOM     29  H37 ZIN A   1      19.756   2.295  14.180  0.00  0.00     0.209 HD
ENDBRANCH  27  28
ENDBRANCH  24  27
ENDBRANCH  21  24
ENDBRANCH   1  20
TORSDOF 5
ENDMDL
MODEL 2
REMARK VINA RESULT:      -8.0      2.886      7.207
REMARK  5 active torsions:
REMARK  status: ('A' for Active; 'I' for Inactive)
REMARK    1  A    between atoms: C2_2  and  C3_3 
REMARK    2  A    between atoms: C3_3  and  C5_4 
REMARK    3  A    between atoms: C3_3  and  N7_6 
REMARK    4  A    between atoms: C5_4  and  O6_5 
REMARK       I    between atoms: N7_6  and  C8_7 
REMARK    5  A    between atoms: C8_7  and  C10_9 
ROOT
ATOM      1  C10 ZIN A   1      17.528  -0.952   9.278  0.00  0.00     0.127 C 
ATOM      2  C12 ZIN A   1      17.625   0.470   9.769  0.00  0.00    -0.001 C 
ATOM      3  C13 ZIN A   1      18.375   0.774  10.813  0.00  0.00    -0.019 C 
ATOM      4  C14 ZIN A   1      18.415   2.167  11.302  0.00  0.00    -0.015 A 
ATOM      5  C15 ZIN A   1      18.719   2.279  12.676  0.00  0.00     0.009 A 
ATOM      6  C16 ZIN A   1      18.975   1.166  13.586  0.00  0.00    -0.027 A 
ATOM      7  C17 ZIN A   1      19.221   1.731  14.763  0.00  0.00     0.096 A 
ATOM      8  N18 ZIN A   1      19.136   3.111  14.663  0.00  0.00    -0.365 N 
ATOM      9  C19 ZIN A   1      18.827   3.477  13.388  0.00  0.00     0.043 A 
ATOM     10  C20 ZIN A   1      18.611   4.661  12.684  0.00  0.00     0.030 A 
ATOM     11  C21 ZIN A   1      18.306   4.559  11.332  0.00  0.00     0.003 A 
ATOM     12  C22 ZIN A   1      18.207   3.353  10.639  0.00  0.00     0.013 A 
ATOM     13  C23 ZIN A   1      18.910  -0.250  13.073  0.00  0.00     0.079 C 
ATOM     14  C24 ZIN A   1      19.189  -0.243  11.565  0.00  0.00     0.225 C 
ATOM     15  N26 ZIN A   1      19.111  -1.584  11.017  0.00  0.00    -0.065 N 
ATOM     16  H27 ZIN A   1      19.797  -1.677  10.282  0.00  0.00     0.280 HD
ATOM     17  C28 ZIN A   1      19.416  -2.553  12.078  0.00  0.00     0.270 C 
ATOM     18  C29 ZIN A   1      17.785  -1.884  10.469  0.00  0.00     0.253 C 
ATOM     19  H41 ZIN A   1      19.278   3.729  15.397  0.00  0.00     0.165 HD
ENDROOT
BRANCH   1  20
ATOM     20  C8  ZIN A   1      18.561  -1.193   8.209  0.00  0.00     0.227 C 
ATOM     21  N7  ZIN A   1      18.273  -1.989   7.161  0.00  0.00    -0.354 N 
ATOM     22  H38 ZIN A   1      17.400  -2.407   7.094  0.00  0.00     0.163 HD
ATOM     23  O9  ZIN A   1      19.653  -0.672   8.292  0.00  0.00    -0.273 OA
BRANCH  21  24
ATOM     24  C3  ZIN A   1      19.278  -2.225   6.121  0.00  0.00     0.107 C 
BRANCH  24  25
ATOM     25  C2  ZIN A   1      19.277  -3.706   5.737  0.00  0.00     0.023 C 
ATOM     26  C1  ZIN A   1      19.991  -4.515   6.822  0.00  0.00     0.007 C 
ENDBRANCH  24  25
BRANCH  24  27
ATOM     27  C5  ZIN A   1      18.947  -1.379   4.890  0.00  0.00     0.189 C 
BRANCH  27  28
ATOM     28  O6  ZIN A   1      20.045  -0.512   4.599  0.00  0.00    -0.399 OA
ATOM     29  H37 ZIN A   1      19.937   0.388   4.936  0.00  0.00     0.209 HD
ENDBRANCH  27  28
ENDBRANCH  24  27
ENDBRANCH  21  24
ENDBRANCH   1  20
TORSDOF 5
ENDMDL
MODEL 3
REMARK VINA RESULT:      -8.0      2.192      4.526
REMARK  5 active torsions:
REMARK  status: ('A' for Active; 'I' for Inactive)
REMARK    1  A    between atoms: C2_2  and  C3_3 
REMARK    2  A    between atoms: C3_3  and  C5_4 
REMARK    3  A    between atoms: C3_3  and  N7_6 
REMARK    4  A    between atoms: C5_4  and  O6_5 
REMARK       I    between atoms: N7_6  and  C8_7 
REMARK    5  A    between atoms: C8_7  and  C10_9 
ROOT
ATOM      1  C10 ZIN A   1      17.520   0.709  13.475  0.00  0.00     0.127 C 
ATOM      2  C12 ZIN A   1      17.707  -0.678  12.915  0.00  0.00    -0.001 C 
ATOM      3  C13 ZIN A   1      18.459  -0.881  11.848  0.00  0.00    -0.019 C 
ATOM      4  C14 ZIN A   1      18.586  -2.243  11.294  0.00  0.00    -0.015 A 
ATOM      5  C15 ZIN A   1      18.875  -2.270   9.912  0.00  0.00     0.009 A 
ATOM      6  C16 ZIN A   1      19.039  -1.102   9.053  0.00  0.00    -0.027 A 
ATOM      7  C17 ZIN A   1      19.303  -1.593   7.847  0.00  0.00     0.096 A 
ATOM      8  N18 ZIN A   1      19.315  -2.979   7.883  0.00  0.00    -0.365 N 
ATOM      9  C19 ZIN A   1      19.053  -3.424   9.143  0.00  0.00     0.043 A 
ATOM     10  C20 ZIN A   1      18.931  -4.651   9.793  0.00  0.00     0.030 A 
ATOM     11  C21 ZIN A   1      18.641  -4.633  11.152  0.00  0.00     0.003 A 
ATOM     12  C22 ZIN A   1      18.471  -3.470  11.903  0.00  0.00     0.013 A 
ATOM     13  C23 ZIN A   1      18.885   0.281   9.633  0.00  0.00     0.079 C 
ATOM     14  C24 ZIN A   1      19.189   0.224  11.134  0.00  0.00     0.225 C 
ATOM     15  N26 ZIN A   1      19.029   1.529  11.747  0.00  0.00    -0.065 N 
ATOM     16  H27 ZIN A   1      19.718   1.636  12.476  0.00  0.00     0.280 HD
ATOM     17  C28 ZIN A   1      19.249   2.565  10.729  0.00  0.00     0.270 C 
ATOM     18  C29 ZIN A   1      17.694   1.711  12.326  0.00  0.00     0.253 C 
ATOM     19  H41 ZIN A   1      19.487  -3.551   7.119  0.00  0.00     0.165 HD
ENDROOT
BRANCH   1  20
ATOM     20  C8  ZIN A   1      18.552   0.972  14.540  0.00  0.00     0.227 C 
ATOM     21  N7  ZIN A   1      18.278   1.824  15.548  0.00  0.00    -0.354 N 
ATOM     22  H38 ZIN A   1      17.417   2.268  15.588  0.00  0.00     0.163 HD
ATOM     23  O9  ZIN A   1      19.630   0.418  14.490  0.00  0.00    -0.273 OA
BRANCH  21  24
ATOM     24  C3  ZIN A   1      19.282   2.080  16.584  0.00  0.00     0.107 C 
BRANCH  24  25
ATOM     25  C2  ZIN A   1      19.614   3.574  16.615  0.00  0.00     0.023 C 
ATOM     26  C1  ZIN A   1      18.349   4.383  16.318  0.00  0.00     0.007 C 
ENDBRANCH  24  25
BRANCH  24  27
ATOM     27  C5  ZIN A   1      18.731   1.652  17.945  0.00  0.00     0.189 C 
BRANCH  27  28
ATOM     28  O6  ZIN A   1      19.602   2.115  18.979  0.00  0.00    -0.399 OA
ATOM     29  H37 ZIN A   1      20.393   2.569  18.654  0.00  0.00     0.209 HD
ENDBRANCH  27  28
ENDBRANCH  24  27
ENDBRANCH  21  24
ENDBRANCH   1  20
TORSDOF 5
ENDMDL
MODEL 4
REMARK VINA RESULT:      -7.8      2.881      3.445
REMARK  5 active torsions:
REMARK  status: ('A' for Active; 'I' for Inactive)
REMARK    1  A    between atoms: C2_2  and  C3_3 
REMARK    2  A    between atoms: C3_3  and  C5_4 
REMARK    3  A    between atoms: C3_3  and  N7_6 
REMARK    4  A    between atoms: C5_4  and  O6_5 
REMARK       I    between atoms: N7_6  and  C8_7 
REMARK    5  A    between atoms: C8_7  and  C10_9 
ROOT
ATOM      1  C10 ZIN A   1      19.259   1.319  10.821  0.00  0.00     0.127 C 
ATOM      2  C12 ZIN A   1      19.320   1.144   9.325  0.00  0.00    -0.001 C 
ATOM      3  C13 ZIN A   1      18.747   0.106   8.743  0.00  0.00    -0.019 C 
ATOM      4  C14 ZIN A   1      18.862  -0.065   7.280  0.00  0.00    -0.015 A 
ATOM      5  C15 ZIN A   1      18.764  -1.408   6.856  0.00  0.00     0.009 A 
ATOM      6  C16 ZIN A   1      18.573  -2.564   7.725  0.00  0.00    -0.027 A 
ATOM      7  C17 ZIN A   1      18.532  -3.611   6.906  0.00  0.00     0.096 A 
ATOM      8  N18 ZIN A   1      18.686  -3.199   5.591  0.00  0.00    -0.365 N 
ATOM      9  C19 ZIN A   1      18.832  -1.846   5.530  0.00  0.00     0.043 A 
ATOM     10  C20 ZIN A   1      19.017  -0.878   4.545  0.00  0.00     0.030 A 
ATOM     11  C21 ZIN A   1      19.120   0.446   4.955  0.00  0.00     0.003 A 
ATOM     12  C22 ZIN A   1      19.045   0.864   6.283  0.00  0.00     0.013 A 
ATOM     13  C23 ZIN A   1      18.477  -2.372   9.217  0.00  0.00     0.079 C 
ATOM     14  C24 ZIN A   1      17.987  -0.947   9.502  0.00  0.00     0.225 C 
ATOM     15  N26 ZIN A   1      17.904  -0.702  10.929  0.00  0.00    -0.065 N 
ATOM     16  H27 ZIN A   1      17.116  -0.098  11.112  0.00  0.00     0.280 HD
ATOM     17  C28 ZIN A   1      17.694  -1.980  11.622  0.00  0.00     0.270 C 
ATOM     18  C29 ZIN A   1      19.118  -0.071  11.456  0.00  0.00     0.253 C 
ATOM     19  H41 ZIN A   1      18.688  -3.791   4.823  0.00  0.00     0.165 HD
ENDROOT
BRANCH   1  20
ATOM     20  C8  ZIN A   1      18.071   2.170  11.187  0.00  0.00     0.227 C 
ATOM     21  N7  ZIN A   1      18.226   3.494  11.383  0.00  0.00    -0.354 N 
ATOM     22  H38 ZIN A   1      19.102   3.900  11.289  0.00  0.00     0.163 HD
ATOM     23  O9  ZIN A   1      16.976   1.663  11.306  0.00  0.00    -0.273 OA
BRANCH  21  24
ATOM     24  C3  ZIN A   1      17.071   4.321  11.740  0.00  0.00     0.107 C 
BRANCH  24  25
ATOM     25  C2  ZIN A   1      17.182   4.748  13.205  0.00  0.00     0.023 C 
ATOM     26  C1  ZIN A   1      16.150   5.839  13.499  0.00  0.00     0.007 C 
ENDBRANCH  24  25
BRANCH  24  27
ATOM     27  C5  ZIN A   1      17.039   5.564  10.848  0.00  0.00     0.189 C 
BRANCH  27  28
ATOM     28  O6  ZIN A   1      17.545   5.234   9.553  0.00  0.00    -0.399 OA
ATOM     29  H37 ZIN A   1      18.257   4.578   9.564  0.00  0.00     0.209 HD
ENDBRANCH  27  28
ENDBRANCH  24  27
ENDBRANCH  21  24
ENDBRANCH   1  20
TORSDOF 5
ENDMDL
MODEL 5
REMARK VINA RESULT:      -7.8      2.630      8.739
REMARK  5 active torsions:
REMARK  status: ('A' for Active; 'I' for Inactive)
REMARK    1  A    between atoms: C2_2  and  C3_3 
REMARK    2  A    between atoms: C3_3  and  C5_4 
REMARK    3  A    between atoms: C3_3  and  N7_6 
REMARK    4  A    between atoms: C5_4  and  O6_5 
REMARK       I    between atoms: N7_6  and  C8_7 
REMARK    5  A    between atoms: C8_7  and  C10_9 
ROOT
ATOM      1  C10 ZIN A   1      19.976   0.873  11.759  0.00  0.00     0.127 C 
ATOM      2  C12 ZIN A   1      19.841   0.363  13.171  0.00  0.00    -0.001 C 
ATOM      3  C13 ZIN A   1      19.185   1.059  14.081  0.00  0.00    -0.019 C 
ATOM      4  C14 ZIN A   1      19.108   0.558  15.468  0.00  0.00    -0.015 A 
ATOM      5  C15 ZIN A   1      18.940   1.576  16.432  0.00  0.00     0.009 A 
ATOM      6  C16 ZIN A   1      18.849   3.006  16.154  0.00  0.00    -0.027 A 
ATOM      7  C17 ZIN A   1      18.690   3.581  17.342  0.00  0.00     0.096 A 
ATOM      8  N18 ZIN A   1      18.678   2.622  18.343  0.00  0.00    -0.365 N 
ATOM      9  C19 ZIN A   1      18.831   1.377  17.811  0.00  0.00     0.043 A 
ATOM     10  C20 ZIN A   1      18.899   0.065  18.276  0.00  0.00     0.030 A 
ATOM     11  C21 ZIN A   1      19.069  -0.943  17.333  0.00  0.00     0.003 A 
ATOM     12  C22 ZIN A   1      19.172  -0.724  15.960  0.00  0.00     0.013 A 
ATOM     13  C23 ZIN A   1      18.950   3.501  14.734  0.00  0.00     0.079 C 
ATOM     14  C24 ZIN A   1      18.517   2.375  13.787  0.00  0.00     0.225 C 
ATOM     15  N26 ZIN A   1      18.622   2.793  12.401  0.00  0.00    -0.065 N 
ATOM     16  H27 ZIN A   1      17.872   2.370  11.874  0.00  0.00     0.280 HD
ATOM     17  C28 ZIN A   1      18.488   4.254  12.332  0.00  0.00     0.270 C 
ATOM     18  C29 ZIN A   1      19.901   2.405  11.799  0.00  0.00     0.253 C 
ATOM     19  H41 ZIN A   1      18.574   2.810  19.289  0.00  0.00     0.165 HD
ENDROOT
BRANCH   1  20
ATOM     20  C8  ZIN A   1      18.856   0.330  10.912  0.00  0.00     0.227 C 
ATOM     21  N7  ZIN A   1      19.052   0.108   9.597  0.00  0.00    -0.354 N 
ATOM     22  H38 ZIN A   1      19.914   0.299   9.196  0.00  0.00     0.163 HD
ATOM     23  O9  ZIN A   1      17.777   0.093  11.412  0.00  0.00    -0.273 OA
BRANCH  21  24
ATOM     24  C3  ZIN A   1      17.962  -0.420   8.772  0.00  0.00     0.107 C 
BRANCH  24  25
ATOM     25  C2  ZIN A   1      17.940   0.310   7.427  0.00  0.00     0.023 C 
ATOM     26  C1  ZIN A   1      19.061   1.352   7.394  0.00  0.00     0.007 C 
ENDBRANCH  24  25
BRANCH  24  27
ATOM     27  C5  ZIN A   1      18.178  -1.915   8.537  0.00  0.00     0.189 C 
BRANCH  27  28
ATOM     28  O6  ZIN A   1      19.571  -2.170   8.341  0.00  0.00    -0.399 OA
ATOM     29  H37 ZIN A   1      20.151  -1.485   8.702  0.00  0.00     0.209 HD
ENDBRANCH  27  28
ENDBRANCH  24  27
ENDBRANCH  21  24
ENDBRANCH   1  20
TORSDOF 5
ENDMDL
MODEL 6
REMARK VINA RESULT:      -7.8      3.171      7.564
REMARK  5 active torsions:
REMARK  status: ('A' for Active; 'I' for Inactive)
REMARK    1  A    between atoms: C2_2  and  C3_3 
REMARK    2  A    between atoms: C3_3  and  C5_4 
REMARK    3  A    between atoms: C3_3  and  N7_6 
REMARK    4  A    between atoms: C5_4  and  O6_5 
REMARK       I    between atoms: N7_6  and  C8_7 
REMARK    5  A    between atoms: C8_7  and  C10_9 
ROOT
ATOM      1  C10 ZIN A   1      19.775  -1.433  10.687  0.00  0.00     0.127 C 
ATOM      2  C12 ZIN A   1      19.672  -1.419  12.190  0.00  0.00    -0.001 C 
ATOM      3  C13 ZIN A   1      18.936  -0.513  12.809  0.00  0.00    -0.019 C 
ATOM      4  C14 ZIN A   1      18.890  -0.494  14.285  0.00  0.00    -0.015 A 
ATOM      5  C15 ZIN A   1      18.607   0.778  14.829  0.00  0.00     0.009 A 
ATOM      6  C16 ZIN A   1      18.377   1.999  14.064  0.00  0.00    -0.027 A 
ATOM      7  C17 ZIN A   1      18.145   2.939  14.974  0.00  0.00     0.096 A 
ATOM      8  N18 ZIN A   1      18.214   2.402  16.250  0.00  0.00    -0.365 N 
ATOM      9  C19 ZIN A   1      18.499   1.071  16.191  0.00  0.00     0.043 A 
ATOM     10  C20 ZIN A   1      18.691   0.023  17.089  0.00  0.00     0.030 A 
ATOM     11  C21 ZIN A   1      18.975  -1.232  16.561  0.00  0.00     0.003 A 
ATOM     12  C22 ZIN A   1      19.075  -1.505  15.198  0.00  0.00     0.013 A 
ATOM     13  C23 ZIN A   1      18.448   1.965  12.558  0.00  0.00     0.079 C 
ATOM     14  C24 ZIN A   1      18.145   0.539  12.082  0.00  0.00     0.225 C 
ATOM     15  N26 ZIN A   1      18.226   0.446  10.637  0.00  0.00    -0.065 N 
ATOM     16  H27 ZIN A   1      17.530  -0.207  10.310  0.00  0.00     0.280 HD
ATOM     17  C28 ZIN A   1      17.948   1.767  10.056  0.00  0.00     0.270 C 
ATOM     18  C29 ZIN A   1      19.547  -0.002  10.183  0.00  0.00     0.253 C 
ATOM     19  H41 ZIN A   1      18.078   2.903  17.069  0.00  0.00     0.165 HD
ENDROOT
BRANCH   1  20
ATOM     20  C8  ZIN A   1      18.727  -2.349  10.112  0.00  0.00     0.227 C 
ATOM     21  N7  ZIN A   1      18.614  -3.612  10.567  0.00  0.00    -0.354 N 
ATOM     22  H38 ZIN A   1      19.207  -3.932  11.265  0.00  0.00     0.163 HD
ATOM     23  O9  ZIN A   1      17.986  -1.951   9.238  0.00  0.00    -0.273 OA
BRANCH  21  24
ATOM     24  C3  ZIN A   1      17.595  -4.504  10.008  0.00  0.00     0.107 C 
BRANCH  24  25
ATOM     25  C2  ZIN A   1      18.265  -5.772   9.474  0.00  0.00     0.023 C 
ATOM     26  C1  ZIN A   1      19.771  -5.537   9.340  0.00  0.00     0.007 C 
ENDBRANCH  24  25
BRANCH  24  27
ATOM     27  C5  ZIN A   1      16.591  -4.879  11.099  0.00  0.00     0.189 C 
BRANCH  27  28
ATOM     28  O6  ZIN A   1      17.294  -5.289  12.273  0.00  0.00    -0.399 OA
ATOM     29  H37 ZIN A   1      17.816  -4.586  12.686  0.00  0.00     0.209 HD
ENDBRANCH  27  28
ENDBRANCH  24  27
ENDBRANCH  21  24
ENDBRANCH   1  20
TORSDOF 5
ENDMDL
MODEL 7
REMARK VINA RESULT:      -7.6      2.575      6.996
REMARK  5 active torsions:
REMARK  status: ('A' for Active; 'I' for Inactive)
REMARK    1  A    between atoms: C2_2  and  C3_3 
REMARK    2  A    between atoms: C3_3  and  C5_4 
REMARK    3  A    between atoms: C3_3  and  N7_6 
REMARK    4  A    between atoms: C5_4  and  O6_5 
REMARK       I    between atoms: N7_6  and  C8_7 
REMARK    5  A    between atoms: C8_7  and  C10_9 
ROOT
ATOM      1  C10 ZIN A   1      17.494  -1.842   9.005  0.00  0.00     0.127 C 
ATOM      2  C12 ZIN A   1      17.459  -0.432   9.537  0.00  0.00    -0.001 C 
ATOM      3  C13 ZIN A   1      18.313  -0.039  10.465  0.00  0.00    -0.019 C 
ATOM      4  C14 ZIN A   1      18.226   1.334  11.002  0.00  0.00    -0.015 A 
ATOM      5  C15 ZIN A   1      18.725   1.463  12.316  0.00  0.00     0.009 A 
ATOM      6  C16 ZIN A   1      19.281   0.384  13.126  0.00  0.00    -0.027 A 
ATOM      7  C17 ZIN A   1      19.626   0.956  14.276  0.00  0.00     0.096 A 
ATOM      8  N18 ZIN A   1      19.326   2.309  14.249  0.00  0.00    -0.365 N 
ATOM      9  C19 ZIN A   1      18.769   2.649  13.054  0.00  0.00     0.043 A 
ATOM     10  C20 ZIN A   1      18.274   3.801  12.444  0.00  0.00     0.030 A 
ATOM     11  C21 ZIN A   1      17.777   3.681  11.151  0.00  0.00     0.003 A 
ATOM     12  C22 ZIN A   1      17.746   2.488  10.430  0.00  0.00     0.013 A 
ATOM     13  C23 ZIN A   1      19.343  -1.016  12.569  0.00  0.00     0.079 C 
ATOM     14  C24 ZIN A   1      19.375  -0.937  11.038  0.00  0.00     0.225 C 
ATOM     15  N26 ZIN A   1      19.408  -2.263  10.451  0.00  0.00    -0.065 N 
ATOM     16  H27 ZIN A   1      19.974  -2.237   9.616  0.00  0.00     0.280 HD
ATOM     17  C28 ZIN A   1      20.016  -3.195  11.409  0.00  0.00     0.270 C 
ATOM     18  C29 ZIN A   1      18.070  -2.749  10.101  0.00  0.00     0.253 C 
ATOM     19  H41 ZIN A   1      19.491   2.926  14.979  0.00  0.00     0.165 HD
ENDROOT
BRANCH   1  20
ATOM     20  C8  ZIN A   1      18.368  -1.904   7.780  0.00  0.00     0.227 C 
ATOM     21  N7  ZIN A   1      18.082  -1.138   6.709  0.00  0.00    -0.354 N 
ATOM     22  H38 ZIN A   1      17.313  -0.547   6.726  0.00  0.00     0.163 HD
ATOM     23  O9  ZIN A   1      19.329  -2.643   7.758  0.00  0.00    -0.273 OA
BRANCH  21  24
ATOM     24  C3  ZIN A   1      18.933  -1.199   5.517  0.00  0.00     0.107 C 
BRANCH  24  25
ATOM     25  C2  ZIN A   1      18.166  -1.872   4.377  0.00  0.00     0.023 C 
ATOM     26  C1  ZIN A   1      18.477  -3.371   4.368  0.00  0.00     0.007 C 
ENDBRANCH  24  25
BRANCH  24  27
ATOM     27  C5  ZIN A   1      19.327   0.219   5.099  0.00  0.00     0.189 C 
BRANCH  27  28
ATOM     28  O6  ZIN A   1      19.209   1.096   6.221  0.00  0.00    -0.399 OA
ATOM     29  H37 ZIN A   1      19.955   1.705   6.325  0.00  0.00     0.209 HD
ENDBRANCH  27  28
ENDBRANCH  24  27
ENDBRANCH  21  24
ENDBRANCH   1  20
TORSDOF 5
ENDMDL
MODEL 8
REMARK VINA RESULT:      -7.5      2.504      4.483
REMARK  5 active torsions:
REMARK  status: ('A' for Active; 'I' for Inactive)
REMARK    1  A    between atoms: C2_2  and  C3_3 
REMARK    2  A    between atoms: C3_3  and  C5_4 
REMARK    3  A    between atoms: C3_3  and  N7_6 
REMARK    4  A    between atoms: C5_4  and  O6_5 
REMARK       I    between atoms: N7_6  and  C8_7 
REMARK    5  A    between atoms: C8_7  and  C10_9 
ROOT
ATOM      1  C10 ZIN A   1      17.240   0.919  11.038  0.00  0.00     0.127 C 
ATOM      2  C12 ZIN A   1      17.251  -0.584  11.141  0.00  0.00    -0.001 C 
ATOM      3  C13 ZIN A   1      18.094  -1.305  10.425  0.00  0.00    -0.019 C 
ATOM      4  C14 ZIN A   1      18.051  -2.779  10.510  0.00  0.00    -0.015 A 
ATOM      5  C15 ZIN A   1      18.520  -3.430   9.348  0.00  0.00     0.009 A 
ATOM      6  C16 ZIN A   1      19.008  -2.771   8.141  0.00  0.00    -0.027 A 
ATOM      7  C17 ZIN A   1      19.346  -3.759   7.320  0.00  0.00     0.096 A 
ATOM      8  N18 ZIN A   1      19.104  -4.987   7.917  0.00  0.00    -0.365 N 
ATOM      9  C19 ZIN A   1      18.593  -4.813   9.168  0.00  0.00     0.043 A 
ATOM     10  C20 ZIN A   1      18.163  -5.620  10.221  0.00  0.00     0.030 A 
ATOM     11  C21 ZIN A   1      17.696  -4.986  11.367  0.00  0.00     0.003 A 
ATOM     12  C22 ZIN A   1      17.635  -3.603  11.529  0.00  0.00     0.013 A 
ATOM     13  C23 ZIN A   1      19.026  -1.265   8.064  0.00  0.00     0.079 C 
ATOM     14  C24 ZIN A   1      19.103  -0.699   9.487  0.00  0.00     0.225 C 
ATOM     15  N26 ZIN A   1      19.096   0.751   9.470  0.00  0.00    -0.065 N 
ATOM     16  H27 ZIN A   1      19.685   1.091  10.216  0.00  0.00     0.280 HD
ATOM     17  C28 ZIN A   1      19.638   1.216   8.187  0.00  0.00     0.270 C 
ATOM     18  C29 ZIN A   1      17.748   1.303   9.642  0.00  0.00     0.253 C 
ATOM     19  H41 ZIN A   1      19.274  -5.847   7.503  0.00  0.00     0.165 HD
ENDROOT
BRANCH   1  20
ATOM     20  C8  ZIN A   1      18.144   1.508  12.089  0.00  0.00     0.227 C 
ATOM     21  N7  ZIN A   1      18.085   2.826  12.367  0.00  0.00    -0.354 N 
ATOM     22  H38 ZIN A   1      17.461   3.395  11.890  0.00  0.00     0.163 HD
ATOM     23  O9  ZIN A   1      18.925   0.797  12.685  0.00  0.00    -0.273 OA
BRANCH  21  24
ATOM     24  C3  ZIN A   1      18.965   3.399  13.389  0.00  0.00     0.107 C 
BRANCH  24  25
ATOM     25  C2  ZIN A   1      19.517   4.738  12.894  0.00  0.00     0.023 C 
ATOM     26  C1  ZIN A   1      19.947   5.587  14.092  0.00  0.00     0.007 C 
ENDBRANCH  24  25
BRANCH  24  27
ATOM     27  C5  ZIN A   1      18.172   3.620  14.679  0.00  0.00     0.189 C 
BRANCH  27  28
ATOM     28  O6  ZIN A   1      18.009   2.372  15.356  0.00  0.00    -0.399 OA
ATOM     29  H37 ZIN A   1      18.307   1.605  14.847  0.00  0.00     0.209 HD
ENDBRANCH  27  28
ENDBRANCH  24  27
ENDBRANCH  21  24
ENDBRANCH   1  20
TORSDOF 5
ENDMDL
MODEL 9
REMARK VINA RESULT:      -7.4      2.839      6.824
REMARK  5 active torsions:
REMARK  status: ('A' for Active; 'I' for Inactive)
REMARK    1  A    between atoms: C2_2  and  C3_3 
REMARK    2  A    between atoms: C3_3  and  C5_4 
REMARK    3  A    between atoms: C3_3  and  N7_6 
REMARK    4  A    between atoms: C5_4  and  O6_5 
REMARK       I    between atoms: N7_6  and  C8_7 
REMARK    5  A    between atoms: C8_7  and  C10_9 
ROOT
ATOM      1  C10 ZIN A   1      17.425  -1.562  11.360  0.00  0.00     0.127 C 
ATOM      2  C12 ZIN A   1      17.404  -0.083  11.071  0.00  0.00    -0.001 C 
ATOM      3  C13 ZIN A   1      18.125   0.757  11.793  0.00  0.00    -0.019 C 
ATOM      4  C14 ZIN A   1      18.050   2.206  11.519  0.00  0.00    -0.015 A 
ATOM      5  C15 ZIN A   1      18.342   3.013  12.640  0.00  0.00     0.009 A 
ATOM      6  C16 ZIN A   1      18.686   2.527  13.972  0.00  0.00    -0.027 A 
ATOM      7  C17 ZIN A   1      18.882   3.622  14.700  0.00  0.00     0.096 A 
ATOM      8  N18 ZIN A   1      18.686   4.756  13.927  0.00  0.00    -0.365 N 
ATOM      9  C19 ZIN A   1      18.350   4.410  12.653  0.00  0.00     0.043 A 
ATOM     10  C20 ZIN A   1      18.040   5.063  11.461  0.00  0.00     0.030 A 
ATOM     11  C21 ZIN A   1      17.746   4.275  10.353  0.00  0.00     0.003 A 
ATOM     12  C22 ZIN A   1      17.748   2.881  10.360  0.00  0.00     0.013 A 
ATOM     13  C23 ZIN A   1      18.737   1.044  14.239  0.00  0.00     0.079 C 
ATOM     14  C24 ZIN A   1      19.018   0.315  12.920  0.00  0.00     0.225 C 
ATOM     15  N26 ZIN A   1      19.052  -1.122  13.118  0.00  0.00    -0.065 N 
ATOM     16  H27 ZIN A   1      19.743  -1.522  12.502  0.00  0.00     0.280 HD
ATOM     17  C28 ZIN A   1      19.433  -1.404  14.508  0.00  0.00     0.270 C 
ATOM     18  C29 ZIN A   1      17.755  -1.751  12.846  0.00  0.00     0.253 C 
ATOM     19  H41 ZIN A   1      18.775   5.667  14.248  0.00  0.00     0.165 HD
ENDROOT
BRANCH   1  20
ATOM     20  C8  ZIN A   1      18.476  -2.232  10.515  0.00  0.00     0.227 C 
ATOM     21  N7  ZIN A   1      18.229  -3.434   9.959  0.00  0.00    -0.354 N 
ATOM     22  H38 ZIN A   1      17.373  -3.869  10.103  0.00  0.00     0.163 HD
ATOM     23  O9  ZIN A   1      19.546  -1.690  10.336  0.00  0.00    -0.273 OA
BRANCH  21  24
ATOM     24  C3  ZIN A   1      19.252  -4.086   9.137  0.00  0.00     0.107 C 
BRANCH  24  25
ATOM     25  C2  ZIN A   1      19.115  -5.605   9.263  0.00  0.00     0.023 C 
ATOM     26  C1  ZIN A   1      17.792  -5.943   9.954  0.00  0.00     0.007 C 
ENDBRANCH  24  25
BRANCH  24  27
ATOM     27  C5  ZIN A   1      19.069  -3.677   7.675  0.00  0.00     0.189 C 
BRANCH  27  28
ATOM     28  O6  ZIN A   1      19.870  -2.526   7.399  0.00  0.00    -0.399 OA
ATOM     29  H37 ZIN A   1      19.804  -2.210   6.486  0.00  0.00     0.209 HD
ENDBRANCH  27  28
ENDBRANCH  24  27
ENDBRANCH  21  24
ENDBRANCH   1  20
TORSDOF 5
ENDMDL
