MODEL 1
REMARK VINA RESULT:      -7.8      0.000      0.000
REMARK  9 active torsions:
REMARK  status: ('A' for Active; 'I' for Inactive)
REMARK    1  A    between atoms: N2_2  and  C4_4 
REMARK    2  A    between atoms: C4_4  and  C5_5 
REMARK    3  A    between atoms: C5_5  and  O6_6 
REMARK    4  A    between atoms: O6_6  and  C7_7 
REMARK    5  A    between atoms: C10_10  and  C11_11 
REMARK    6  A    between atoms: C11_11  and  C22_22 
REMARK    7  A    between atoms: C12_12  and  C13_13 
REMARK    8  A    between atoms: C12_12  and  C16_16 
REMARK    9  A    between atoms: C13_13  and  C14_14 
ROOT
ATOM      1  C11 ZIN A   1      18.740   0.384  11.362  0.00  0.00    -0.009 C 
ATOM      2  C12 ZIN A   1      18.850  -0.575  12.314  0.00  0.00    -0.035 C 
ENDROOT
BRANCH   1   3
ATOM      3  C10 ZIN A   1      18.551   0.002   9.946  0.00  0.00    -0.024 A 
ATOM      4  C9  ZIN A   1      19.636  -0.451   9.193  0.00  0.00     0.015 A 
ATOM      5  C8  ZIN A   1      19.456  -0.807   7.874  0.00  0.00     0.037 A 
ATOM      6  C7  ZIN A   1      18.198  -0.716   7.294  0.00  0.00     0.068 A 
ATOM      7  C29 ZIN A   1      17.116  -0.267   8.040  0.00  0.00     0.037 A 
ATOM      8  C28 ZIN A   1      17.286   0.086   9.361  0.00  0.00     0.015 A 
BRANCH   6   9
ATOM      9  O6  ZIN A   1      18.025  -1.068   5.993  0.00  0.00    -0.349 OA
BRANCH   9  10
ATOM     10  C5  ZIN A   1      19.177  -1.541   5.290  0.00  0.00     0.206 C 
BRANCH  10  11
ATOM     11  C4  ZIN A   1      18.893  -2.932   4.723  0.00  0.00     0.297 C 
BRANCH  11  12
ATOM     12  N2  ZIN A   1      18.648  -3.871   5.827  0.00  0.00     0.082 N 
ATOM     13  C1  ZIN A   1      17.978  -5.086   5.347  0.00  0.00     0.309 C 
ATOM     14  C3  ZIN A   1      19.899  -4.201   6.524  0.00  0.00     0.309 C 
ENDBRANCH  11  12
ENDBRANCH  10  11
ENDBRANCH   9  10
ENDBRANCH   6   9
ENDBRANCH   1   3
BRANCH   1  15
ATOM     15  C22 ZIN A   1      18.809   1.813  11.741  0.00  0.00    -0.025 A 
ATOM     16  C27 ZIN A   1      17.678   2.460  12.242  0.00  0.00     0.012 A 
ATOM     17  C26 ZIN A   1      17.749   3.792  12.594  0.00  0.00     0.001 A 
ATOM     18  C25 ZIN A   1      18.937   4.486  12.454  0.00  0.00     0.000 A 
ATOM     19  C24 ZIN A   1      20.063   3.849  11.958  0.00  0.00     0.001 A 
ATOM     20  C23 ZIN A   1      20.005   2.517  11.607  0.00  0.00     0.012 A 
ENDBRANCH   1  15
BRANCH   2  21
ATOM     21  C13 ZIN A   1      19.042  -0.186  13.757  0.00  0.00     0.055 C 
BRANCH  21  22
ATOM     22  C14 ZIN A   1      18.025  -0.929  14.626  0.00  0.00     0.119 C 
ATOM     23 Cl15 ZIN A   1      18.808  -1.434  16.169  0.00  0.00    -0.130 Cl
ENDBRANCH  21  22
ENDBRANCH   2  21
BRANCH   2  24
ATOM     24  C16 ZIN A   1      18.782  -1.995  11.939  0.00  0.00    -0.029 A 
ATOM     25  C21 ZIN A   1      17.547  -2.589  11.656  0.00  0.00     0.012 A 
ATOM     26  C20 ZIN A   1      17.492  -3.921  11.305  0.00  0.00     0.001 A 
ATOM     27  C19 ZIN A   1      18.653  -4.670  11.230  0.00  0.00     0.000 A 
ATOM     28  C18 ZIN A   1      19.880  -4.089  11.503  0.00  0.00     0.001 A 
ATOM     29  C17 ZIN A   1      19.952  -2.759  11.862  0.00  0.00     0.012 A 
ENDBRANCH   2  24
TORSDOF 9
ENDMDL
MODEL 2
REMARK VINA RESULT:      -7.7      2.162      4.569
REMARK  9 active torsions:
REMARK  status: ('A' for Active; 'I' for Inactive)
REMARK    1  A    between atoms: N2_2  and  C4_4 
REMARK    2  A    between atoms: C4_4  and  C5_5 
REMARK    3  A    between atoms: C5_5  and  O6_6 
REMARK    4  A    between atoms: O6_6  and  C7_7 
REMARK    5  A    between atoms: C10_10  and  C11_11 
REMARK    6  A    between atoms: C11_11  and  C22_22 
REMARK    7  A    between atoms: C12_12  and  C13_13 
REMARK    8  A    between atoms: C12_12  and  C16_16 
REMARK    9  A    between atoms: C13_13  and  C14_14 
ROOT
ATOM      1  C11 ZIN A   1      18.411  -0.825  12.884  0.00  0.00    -0.009 C 
ATOM      2  C12 ZIN A   1      18.402   0.339  12.188  0.00  0.00    -0.035 C 
ENDROOT
BRANCH   1   3
ATOM      3  C10 ZIN A   1      18.485  -2.116  12.165  0.00  0.00    -0.024 A 
ATOM      4  C9  ZIN A   1      17.313  -2.770  11.779  0.00  0.00     0.015 A 
ATOM      5  C8  ZIN A   1      17.386  -3.972  11.110  0.00  0.00     0.037 A 
ATOM      6  C7  ZIN A   1      18.623  -4.532  10.817  0.00  0.00     0.068 A 
ATOM      7  C29 ZIN A   1      19.790  -3.884  11.198  0.00  0.00     0.037 A 
ATOM      8  C28 ZIN A   1      19.726  -2.679  11.864  0.00  0.00     0.015 A 
BRANCH   6   9
ATOM      9  O6  ZIN A   1      18.690  -5.717  10.156  0.00  0.00    -0.349 OA
BRANCH   9  10
ATOM     10  C5  ZIN A   1      19.499  -5.758   8.978  0.00  0.00     0.206 C 
BRANCH  10  11
ATOM     11  C4  ZIN A   1      18.603  -5.692   7.741  0.00  0.00     0.297 C 
BRANCH  11  12
ATOM     12  N2  ZIN A   1      19.153  -4.716   6.790  0.00  0.00     0.082 N 
ATOM     13  C1  ZIN A   1      18.351  -4.671   5.560  0.00  0.00     0.309 C 
ATOM     14  C3  ZIN A   1      19.253  -3.384   7.402  0.00  0.00     0.309 C 
ENDBRANCH  11  12
ENDBRANCH  10  11
ENDBRANCH   9  10
ENDBRANCH   6   9
ENDBRANCH   1   3
BRANCH   1  15
ATOM     15  C22 ZIN A   1      18.346  -0.803  14.362  0.00  0.00    -0.025 A 
ATOM     16  C27 ZIN A   1      17.309  -0.128  15.008  0.00  0.00     0.012 A 
ATOM     17  C26 ZIN A   1      17.254  -0.112  16.386  0.00  0.00     0.001 A 
ATOM     18  C25 ZIN A   1      18.222  -0.764  17.128  0.00  0.00     0.000 A 
ATOM     19  C24 ZIN A   1      19.253  -1.435  16.494  0.00  0.00     0.001 A 
ATOM     20  C23 ZIN A   1      19.316  -1.463  15.117  0.00  0.00     0.012 A 
ENDBRANCH   1  15
BRANCH   2  21
ATOM     21  C13 ZIN A   1      18.327   1.654  12.920  0.00  0.00     0.055 C 
BRANCH  21  22
ATOM     22  C14 ZIN A   1      17.697   2.710  12.009  0.00  0.00     0.119 C 
ATOM     23 Cl15 ZIN A   1      18.982   3.813  11.391  0.00  0.00    -0.130 Cl
ENDBRANCH  21  22
ENDBRANCH   2  21
BRANCH   2  24
ATOM     24  C16 ZIN A   1      18.466   0.318  10.720  0.00  0.00    -0.029 A 
ATOM     25  C21 ZIN A   1      17.298   0.145   9.967  0.00  0.00     0.012 A 
ATOM     26  C20 ZIN A   1      17.367   0.127   8.590  0.00  0.00     0.001 A 
ATOM     27  C19 ZIN A   1      18.585   0.278   7.952  0.00  0.00     0.000 A 
ATOM     28  C18 ZIN A   1      19.744   0.454   8.689  0.00  0.00     0.001 A 
ATOM     29  C17 ZIN A   1      19.694   0.469  10.066  0.00  0.00     0.012 A 
ENDBRANCH   2  24
TORSDOF 9
ENDMDL
MODEL 3
REMARK VINA RESULT:      -7.7      3.838      7.315
REMARK  9 active torsions:
REMARK  status: ('A' for Active; 'I' for Inactive)
REMARK    1  A    between atoms: N2_2  and  C4_4 
REMARK    2  A    between atoms: C4_4  and  C5_5 
REMARK    3  A    between atoms: C5_5  and  O6_6 
REMARK    4  A    between atoms: O6_6  and  C7_7 
REMARK    5  A    between atoms: C10_10  and  C11_11 
REMARK    6  A    between atoms: C11_11  and  C22_22 
REMARK    7  A    between atoms: C12_12  and  C13_13 
REMARK    8  A    between atoms: C12_12  and  C16_16 
REMARK    9  A    between atoms: C13_13  and  C14_14 
ROOT
ATOM      1  C11 ZIN A   1      18.393   0.557  10.253  0.00  0.00    -0.009 C 
ATOM      2  C12 ZIN A   1      18.420  -0.617  10.931  0.00  0.00    -0.035 C 
ENDROOT
BRANCH   1   3
ATOM      3  C10 ZIN A   1      18.460   1.838  10.989  0.00  0.00    -0.024 A 
ATOM      4  C9  ZIN A   1      19.666   2.260  11.550  0.00  0.00     0.015 A 
ATOM      5  C8  ZIN A   1      19.725   3.454  12.236  0.00  0.00     0.037 A 
ATOM      6  C7  ZIN A   1      18.585   4.237  12.368  0.00  0.00     0.068 A 
ATOM      7  C29 ZIN A   1      17.384   3.821  11.810  0.00  0.00     0.037 A 
ATOM      8  C28 ZIN A   1      17.318   2.630  11.119  0.00  0.00     0.015 A 
BRANCH   6   9
ATOM      9  O6  ZIN A   1      18.648   5.414  13.044  0.00  0.00    -0.349 OA
BRANCH   9  10
ATOM     10  C5  ZIN A   1      18.332   5.379  14.438  0.00  0.00     0.206 C 
BRANCH  10  11
ATOM     11  C4  ZIN A   1      19.136   6.454  15.170  0.00  0.00     0.297 C 
BRANCH  11  12
ATOM     12  N2  ZIN A   1      20.161   5.815  16.006  0.00  0.00     0.082 N 
ATOM     13  C1  ZIN A   1      19.815   4.415  16.285  0.00  0.00     0.309 C 
ATOM     14  C3  ZIN A   1      21.487   5.915  15.381  0.00  0.00     0.309 C 
ENDBRANCH  11  12
ENDBRANCH  10  11
ENDBRANCH   9  10
ENDBRANCH   6   9
ENDBRANCH   1   3
BRANCH   1  15
ATOM     15  C22 ZIN A   1      18.297   0.555   8.775  0.00  0.00    -0.025 A 
ATOM     16  C27 ZIN A   1      19.258   1.216   8.010  0.00  0.00     0.012 A 
ATOM     17  C26 ZIN A   1      19.163   1.210   6.634  0.00  0.00     0.001 A 
ATOM     18  C25 ZIN A   1      18.119   0.549   6.012  0.00  0.00     0.000 A 
ATOM     19  C24 ZIN A   1      17.163  -0.110   6.766  0.00  0.00     0.001 A 
ATOM     20  C23 ZIN A   1      17.250  -0.115   8.142  0.00  0.00     0.012 A 
ENDBRANCH   1  15
BRANCH   2  21
ATOM     21  C13 ZIN A   1      18.352  -1.923  10.181  0.00  0.00     0.055 C 
BRANCH  21  22
ATOM     22  C14 ZIN A   1      17.478  -2.911  10.956  0.00  0.00     0.119 C 
ATOM     23 Cl15 ZIN A   1      18.516  -4.203  11.665  0.00  0.00    -0.130 Cl
ENDBRANCH  21  22
ENDBRANCH   2  21
BRANCH   2  24
ATOM     24  C16 ZIN A   1      18.515  -0.616  12.398  0.00  0.00    -0.029 A 
ATOM     25  C21 ZIN A   1      19.682  -1.065  13.027  0.00  0.00     0.012 A 
ATOM     26  C20 ZIN A   1      19.763  -1.061  14.403  0.00  0.00     0.001 A 
ATOM     27  C19 ZIN A   1      18.696  -0.615  15.163  0.00  0.00     0.000 A 
ATOM     28  C18 ZIN A   1      17.540  -0.164  14.548  0.00  0.00     0.001 A 
ATOM     29  C17 ZIN A   1      17.440  -0.167  13.173  0.00  0.00     0.012 A 
ENDBRANCH   2  24
TORSDOF 9
ENDMDL
MODEL 4
REMARK VINA RESULT:      -7.6      4.235      8.472
REMARK  9 active torsions:
REMARK  status: ('A' for Active; 'I' for Inactive)
REMARK    1  A    between atoms: N2_2  and  C4_4 
REMARK    2  A    between atoms: C4_4  and  C5_5 
REMARK    3  A    between atoms: C5_5  and  O6_6 
REMARK    4  A    between atoms: O6_6  and  C7_7 
REMARK    5  A    between atoms: C10_10  and  C11_11 
REMARK    6  A    between atoms: C11_11  and  C22_22 
REMARK    7  A    between atoms: C12_12  and  C13_13 
REMARK    8  A    between atoms: C12_12  and  C16_16 
REMARK    9  A    between atoms: C13_13  and  C14_14 
ROOT
ATOM      1  C11 ZIN A   1      18.546  -1.039  11.866  0.00  0.00    -0.009 C 
ATOM      2  C12 ZIN A   1      18.678  -0.143  10.857  0.00  0.00    -0.035 C 
ENDROOT
BRANCH   1   3
ATOM      3  C10 ZIN A   1      18.428  -0.568  13.263  0.00  0.00    -0.024 A 
ATOM      4  C9  ZIN A   1      19.446  -0.835  14.179  0.00  0.00     0.015 A 
ATOM      5  C8  ZIN A   1      19.332  -0.394  15.481  0.00  0.00     0.037 A 
ATOM      6  C7  ZIN A   1      18.207   0.316  15.879  0.00  0.00     0.068 A 
ATOM      7  C29 ZIN A   1      17.192   0.584  14.969  0.00  0.00     0.037 A 
ATOM      8  C28 ZIN A   1      17.301   0.151  13.665  0.00  0.00     0.015 A 
BRANCH   6   9
ATOM      9  O6  ZIN A   1      18.099   0.749  17.162  0.00  0.00    -0.349 OA
BRANCH   9  10
ATOM     10  C5  ZIN A   1      19.315   1.056  17.848  0.00  0.00     0.206 C 
BRANCH  10  11
ATOM     11  C4  ZIN A   1      19.227   2.465  18.435  0.00  0.00     0.297 C 
BRANCH  11  12
ATOM     12  N2  ZIN A   1      18.692   3.386  17.423  0.00  0.00     0.082 N 
ATOM     13  C1  ZIN A   1      17.899   4.452  18.048  0.00  0.00     0.309 C 
ATOM     14  C3  ZIN A   1      19.771   3.947  16.599  0.00  0.00     0.309 C 
ENDBRANCH  11  12
ENDBRANCH  10  11
ENDBRANCH   9  10
ENDBRANCH   6   9
ENDBRANCH   1   3
BRANCH   1  15
ATOM     15  C22 ZIN A   1      18.522  -2.489  11.568  0.00  0.00    -0.025 A 
ATOM     16  C27 ZIN A   1      17.304  -3.152  11.412  0.00  0.00     0.012 A 
ATOM     17  C26 ZIN A   1      17.288  -4.502  11.134  0.00  0.00     0.001 A 
ATOM     18  C25 ZIN A   1      18.476  -5.200  11.007  0.00  0.00     0.000 A 
ATOM     19  C24 ZIN A   1      19.687  -4.548  11.159  0.00  0.00     0.001 A 
ATOM     20  C23 ZIN A   1      19.716  -3.197  11.433  0.00  0.00     0.012 A 
ENDBRANCH   1  15
BRANCH   2  21
ATOM     21  C13 ZIN A   1      18.799  -0.622   9.433  0.00  0.00     0.055 C 
BRANCH  21  22
ATOM     22  C14 ZIN A   1      19.921   0.144   8.730  0.00  0.00     0.119 C 
ATOM     23 Cl15 ZIN A   1      19.206   1.400   7.652  0.00  0.00    -0.130 Cl
ENDBRANCH  21  22
ENDBRANCH   2  21
BRANCH   2  24
ATOM     24  C16 ZIN A   1      18.703   1.297  11.152  0.00  0.00    -0.029 A 
ATOM     25  C21 ZIN A   1      19.841   1.879  11.722  0.00  0.00     0.012 A 
ATOM     26  C20 ZIN A   1      19.856   3.230  11.995  0.00  0.00     0.001 A 
ATOM     27  C19 ZIN A   1      18.750   4.011  11.708  0.00  0.00     0.000 A 
ATOM     28  C18 ZIN A   1      17.622   3.444  11.140  0.00  0.00     0.001 A 
ATOM     29  C17 ZIN A   1      17.588   2.094  10.865  0.00  0.00     0.012 A 
ENDBRANCH   2  24
TORSDOF 9
ENDMDL
MODEL 5
REMARK VINA RESULT:      -7.6      3.733      7.115
REMARK  9 active torsions:
REMARK  status: ('A' for Active; 'I' for Inactive)
REMARK    1  A    between atoms: N2_2  and  C4_4 
REMARK    2  A    between atoms: C4_4  and  C5_5 
REMARK    3  A    between atoms: C5_5  and  O6_6 
REMARK    4  A    between atoms: O6_6  and  C7_7 
REMARK    5  A    between atoms: C10_10  and  C11_11 
REMARK    6  A    between atoms: C11_11  and  C22_22 
REMARK    7  A    between atoms: C12_12  and  C13_13 
REMARK    8  A    between atoms: C12_12  and  C16_16 
REMARK    9  A    between atoms: C13_13  and  C14_14 
ROOT
ATOM      1  C11 ZIN A   1      18.375   0.519  10.164  0.00  0.00    -0.009 C 
ATOM      2  C12 ZIN A   1      18.368  -0.655  10.844  0.00  0.00    -0.035 C 
ENDROOT
BRANCH   1   3
ATOM      3  C10 ZIN A   1      18.495   1.797  10.898  0.00  0.00    -0.024 A 
ATOM      4  C9  ZIN A   1      19.729   2.192  11.418  0.00  0.00     0.015 A 
ATOM      5  C8  ZIN A   1      19.837   3.385  12.101  0.00  0.00     0.037 A 
ATOM      6  C7  ZIN A   1      18.720   4.193  12.271  0.00  0.00     0.068 A 
ATOM      7  C29 ZIN A   1      17.492   3.803  11.754  0.00  0.00     0.037 A 
ATOM      8  C28 ZIN A   1      17.376   2.615  11.065  0.00  0.00     0.015 A 
BRANCH   6   9
ATOM      9  O6  ZIN A   1      18.831   5.368  12.944  0.00  0.00    -0.349 OA
BRANCH   9  10
ATOM     10  C5  ZIN A   1      19.488   5.329  14.213  0.00  0.00     0.206 C 
BRANCH  10  11
ATOM     11  C4  ZIN A   1      18.450   5.129  15.318  0.00  0.00     0.297 C 
BRANCH  11  12
ATOM     12  N2  ZIN A   1      19.030   4.311  16.393  0.00  0.00     0.082 N 
ATOM     13  C1  ZIN A   1      18.196   4.362  17.601  0.00  0.00     0.309 C 
ATOM     14  C3  ZIN A   1      19.229   2.925  15.949  0.00  0.00     0.309 C 
ENDBRANCH  11  12
ENDBRANCH  10  11
ENDBRANCH   9  10
ENDBRANCH   6   9
ENDBRANCH   1   3
BRANCH   1  15
ATOM     15  C22 ZIN A   1      18.263   0.518   8.688  0.00  0.00    -0.025 A 
ATOM     16  C27 ZIN A   1      17.194  -0.131   8.068  0.00  0.00     0.012 A 
ATOM     17  C26 ZIN A   1      17.095  -0.127   6.692  0.00  0.00     0.001 A 
ATOM     18  C25 ZIN A   1      18.050   0.519   5.928  0.00  0.00     0.000 A 
ATOM     19  C24 ZIN A   1      19.112   1.165   6.538  0.00  0.00     0.001 A 
ATOM     20  C23 ZIN A   1      19.219   1.172   7.912  0.00  0.00     0.012 A 
ENDBRANCH   1  15
BRANCH   2  21
ATOM     21  C13 ZIN A   1      18.246  -1.958  10.098  0.00  0.00     0.055 C 
BRANCH  21  22
ATOM     22  C14 ZIN A   1      17.477  -2.966  10.954  0.00  0.00     0.119 C 
ATOM     23 Cl15 ZIN A   1      18.607  -4.245  11.536  0.00  0.00    -0.130 Cl
ENDBRANCH  21  22
ENDBRANCH   2  21
BRANCH   2  24
ATOM     24  C16 ZIN A   1      18.479  -0.655  12.310  0.00  0.00    -0.029 A 
ATOM     25  C21 ZIN A   1      19.647  -1.120  12.927  0.00  0.00     0.012 A 
ATOM     26  C20 ZIN A   1      19.743  -1.116  14.302  0.00  0.00     0.001 A 
ATOM     27  C19 ZIN A   1      18.690  -0.656  15.073  0.00  0.00     0.000 A 
ATOM     28  C18 ZIN A   1      17.533  -0.190  14.471  0.00  0.00     0.001 A 
ATOM     29  C17 ZIN A   1      17.419  -0.192  13.097  0.00  0.00     0.012 A 
ENDBRANCH   2  24
TORSDOF 9
ENDMDL
MODEL 6
REMARK VINA RESULT:      -7.3      2.539      4.875
REMARK  9 active torsions:
REMARK  status: ('A' for Active; 'I' for Inactive)
REMARK    1  A    between atoms: N2_2  and  C4_4 
REMARK    2  A    between atoms: C4_4  and  C5_5 
REMARK    3  A    between atoms: C5_5  and  O6_6 
REMARK    4  A    between atoms: O6_6  and  C7_7 
REMARK    5  A    between atoms: C10_10  and  C11_11 
REMARK    6  A    between atoms: C11_11  and  C22_22 
REMARK    7  A    between atoms: C12_12  and  C13_13 
REMARK    8  A    between atoms: C12_12  and  C16_16 
REMARK    9  A    between atoms: C13_13  and  C14_14 
ROOT
ATOM      1  C11 ZIN A   1      18.450  -0.838  12.891  0.00  0.00    -0.009 C 
ATOM      2  C12 ZIN A   1      18.475   0.323  12.191  0.00  0.00    -0.035 C 
ENDROOT
BRANCH   1   3
ATOM      3  C10 ZIN A   1      18.474  -2.133  12.177  0.00  0.00    -0.024 A 
ATOM      4  C9  ZIN A   1      19.694  -2.717  11.828  0.00  0.00     0.015 A 
ATOM      5  C8  ZIN A   1      19.712  -3.924  11.162  0.00  0.00     0.037 A 
ATOM      6  C7  ZIN A   1      18.520  -4.558  10.839  0.00  0.00     0.068 A 
ATOM      7  C29 ZIN A   1      17.306  -3.981  11.185  0.00  0.00     0.037 A 
ATOM      8  C28 ZIN A   1      17.278  -2.777  11.856  0.00  0.00     0.015 A 
BRANCH   6   9
ATOM      9  O6  ZIN A   1      18.544  -5.748  10.183  0.00  0.00    -0.349 OA
BRANCH   9  10
ATOM     10  C5  ZIN A   1      18.298  -5.718   8.775  0.00  0.00     0.206 C 
BRANCH  10  11
ATOM     11  C4  ZIN A   1      17.436  -6.919   8.382  0.00  0.00     0.297 C 
BRANCH  11  12
ATOM     12  N2  ZIN A   1      16.218  -6.449   7.708  0.00  0.00     0.082 N 
ATOM     13  C1  ZIN A   1      15.513  -7.561   7.059  0.00  0.00     0.309 C 
ATOM     14  C3  ZIN A   1      15.336  -5.744   8.648  0.00  0.00     0.309 C 
ENDBRANCH  11  12
ENDBRANCH  10  11
ENDBRANCH   9  10
ENDBRANCH   6   9
ENDBRANCH   1   3
BRANCH   1  15
ATOM     15  C22 ZIN A   1      18.398  -0.809  14.370  0.00  0.00    -0.025 A 
ATOM     16  C27 ZIN A   1      19.356  -1.494  15.119  0.00  0.00     0.012 A 
ATOM     17  C26 ZIN A   1      19.303  -1.462  16.496  0.00  0.00     0.001 A 
ATOM     18  C25 ZIN A   1      18.304  -0.751  17.137  0.00  0.00     0.000 A 
ATOM     19  C24 ZIN A   1      17.352  -0.068  16.400  0.00  0.00     0.001 A 
ATOM     20  C23 ZIN A   1      17.397  -0.089  15.022  0.00  0.00     0.012 A 
ENDBRANCH   1  15
BRANCH   2  21
ATOM     21  C13 ZIN A   1      18.450   1.642  12.919  0.00  0.00     0.055 C 
BRANCH  21  22
ATOM     22  C14 ZIN A   1      17.717   2.681  12.067  0.00  0.00     0.119 C 
ATOM     23 Cl15 ZIN A   1      18.640   4.229  12.081  0.00  0.00    -0.130 Cl
ENDBRANCH  21  22
ENDBRANCH   2  21
BRANCH   2  24
ATOM     24  C16 ZIN A   1      18.526   0.294  10.722  0.00  0.00    -0.029 A 
ATOM     25  C21 ZIN A   1      19.750   0.428  10.058  0.00  0.00     0.012 A 
ATOM     26  C20 ZIN A   1      19.790   0.399   8.680  0.00  0.00     0.001 A 
ATOM     27  C19 ZIN A   1      18.623   0.240   7.954  0.00  0.00     0.000 A 
ATOM     28  C18 ZIN A   1      17.407   0.102   8.603  0.00  0.00     0.001 A 
ATOM     29  C17 ZIN A   1      17.350   0.134   9.980  0.00  0.00     0.012 A 
ENDBRANCH   2  24
TORSDOF 9
ENDMDL
MODEL 7
REMARK VINA RESULT:      -7.3      4.243      7.287
REMARK  9 active torsions:
REMARK  status: ('A' for Active; 'I' for Inactive)
REMARK    1  A    between atoms: N2_2  and  C4_4 
REMARK    2  A    between atoms: C4_4  and  C5_5 
REMARK    3  A    between atoms: C5_5  and  O6_6 
REMARK    4  A    between atoms: O6_6  and  C7_7 
REMARK    5  A    between atoms: C10_10  and  C11_11 
REMARK    6  A    between atoms: C11_11  and  C22_22 
REMARK    7  A    between atoms: C12_12  and  C13_13 
REMARK    8  A    between atoms: C12_12  and  C16_16 
REMARK    9  A    between atoms: C13_13  and  C14_14 
ROOT
ATOM      1  C11 ZIN A   1      18.523   0.290  11.819  0.00  0.00    -0.009 C 
ATOM      2  C12 ZIN A   1      18.463  -0.630  10.824  0.00  0.00    -0.035 C 
ENDROOT
BRANCH   1   3
ATOM      3  C10 ZIN A   1      18.615  -0.149  13.228  0.00  0.00    -0.024 A 
ATOM      4  C9  ZIN A   1      17.515  -0.011  14.077  0.00  0.00     0.015 A 
ATOM      5  C8  ZIN A   1      17.605  -0.422  15.390  0.00  0.00     0.037 A 
ATOM      6  C7  ZIN A   1      18.786  -0.974  15.867  0.00  0.00     0.068 A 
ATOM      7  C29 ZIN A   1      19.881  -1.115  15.025  0.00  0.00     0.037 A 
ATOM      8  C28 ZIN A   1      19.799  -0.711  13.710  0.00  0.00     0.015 A 
BRANCH   6   9
ATOM      9  O6  ZIN A   1      18.870  -1.378  17.161  0.00  0.00    -0.349 OA
BRANCH   9  10
ATOM     10  C5  ZIN A   1      19.359  -0.426  18.109  0.00  0.00     0.206 C 
BRANCH  10  11
ATOM     11  C4  ZIN A   1      18.179   0.222  18.836  0.00  0.00     0.297 C 
BRANCH  11  12
ATOM     12  N2  ZIN A   1      17.975   1.584  18.323  0.00  0.00     0.082 N 
ATOM     13  C1  ZIN A   1      17.015   2.321  19.155  0.00  0.00     0.309 C 
ATOM     14  C3  ZIN A   1      19.251   2.306  18.227  0.00  0.00     0.309 C 
ENDBRANCH  11  12
ENDBRANCH  10  11
ENDBRANCH   9  10
ENDBRANCH   6   9
ENDBRANCH   1   3
BRANCH   1  15
ATOM     15  C22 ZIN A   1      18.495   1.734  11.493  0.00  0.00    -0.025 A 
ATOM     16  C27 ZIN A   1      17.350   2.305  10.936  0.00  0.00     0.012 A 
ATOM     17  C26 ZIN A   1      17.330   3.651  10.636  0.00  0.00     0.001 A 
ATOM     18  C25 ZIN A   1      18.442   4.435  10.886  0.00  0.00     0.000 A 
ATOM     19  C24 ZIN A   1      19.581   3.875  11.438  0.00  0.00     0.001 A 
ATOM     20  C23 ZIN A   1      19.611   2.532  11.748  0.00  0.00     0.012 A 
ENDBRANCH   1  15
BRANCH   2  21
ATOM     21  C13 ZIN A   1      18.369  -0.182   9.388  0.00  0.00     0.055 C 
BRANCH  21  22
ATOM     22  C14 ZIN A   1      19.761   0.199   8.881  0.00  0.00     0.119 C 
ATOM     23 Cl15 ZIN A   1      19.688   1.810   8.076  0.00  0.00    -0.130 Cl
ENDBRANCH  21  22
ENDBRANCH   2  21
BRANCH   2  24
ATOM     24  C16 ZIN A   1      18.489  -2.063  11.147  0.00  0.00    -0.029 A 
ATOM     25  C21 ZIN A   1      19.698  -2.768  11.121  0.00  0.00     0.012 A 
ATOM     26  C20 ZIN A   1      19.715  -4.112  11.425  0.00  0.00     0.001 A 
ATOM     27  C19 ZIN A   1      18.540  -4.766  11.755  0.00  0.00     0.000 A 
ATOM     28  C18 ZIN A   1      17.341  -4.075  11.788  0.00  0.00     0.001 A 
ATOM     29  C17 ZIN A   1      17.306  -2.732  11.481  0.00  0.00     0.012 A 
ENDBRANCH   2  24
TORSDOF 9
ENDMDL
MODEL 8
REMARK VINA RESULT:      -7.1      3.243      6.510
REMARK  9 active torsions:
REMARK  status: ('A' for Active; 'I' for Inactive)
REMARK    1  A    between atoms: N2_2  and  C4_4 
REMARK    2  A    between atoms: C4_4  and  C5_5 
REMARK    3  A    between atoms: C5_5  and  O6_6 
REMARK    4  A    between atoms: O6_6  and  C7_7 
REMARK    5  A    between atoms: C10_10  and  C11_11 
REMARK    6  A    between atoms: C11_11  and  C22_22 
REMARK    7  A    between atoms: C12_12  and  C13_13 
REMARK    8  A    between atoms: C12_12  and  C16_16 
REMARK    9  A    between atoms: C13_13  and  C14_14 
ROOT
ATOM      1  C11 ZIN A   1      18.404  -1.968   8.250  0.00  0.00    -0.009 C 
ATOM      2  C12 ZIN A   1      18.139  -3.295   8.333  0.00  0.00    -0.035 C 
ENDROOT
BRANCH   1   3
ATOM      3  C10 ZIN A   1      18.646  -1.184   9.480  0.00  0.00    -0.024 A 
ATOM      4  C9  ZIN A   1      17.574  -0.803  10.290  0.00  0.00     0.015 A 
ATOM      5  C8  ZIN A   1      17.804  -0.073  11.436  0.00  0.00     0.037 A 
ATOM      6  C7  ZIN A   1      19.100   0.284  11.785  0.00  0.00     0.068 A 
ATOM      7  C29 ZIN A   1      20.169  -0.094  10.983  0.00  0.00     0.037 A 
ATOM      8  C28 ZIN A   1      19.948  -0.829   9.838  0.00  0.00     0.015 A 
BRANCH   6   9
ATOM      9  O6  ZIN A   1      19.322   1.003  12.916  0.00  0.00    -0.349 OA
BRANCH   9  10
ATOM     10  C5  ZIN A   1      18.719   2.297  12.991  0.00  0.00     0.206 C 
BRANCH  10  11
ATOM     11  C4  ZIN A   1      19.485   3.270  12.094  0.00  0.00     0.297 C 
BRANCH  11  12
ATOM     12  N2  ZIN A   1      18.536   4.011  11.252  0.00  0.00     0.082 N 
ATOM     13  C1  ZIN A   1      18.363   3.354   9.950  0.00  0.00     0.309 C 
ATOM     14  C3  ZIN A   1      17.245   4.176  11.934  0.00  0.00     0.309 C 
ENDBRANCH  11  12
ENDBRANCH  10  11
ENDBRANCH   9  10
ENDBRANCH   6   9
ENDBRANCH   1   3
BRANCH   1  15
ATOM     15  C22 ZIN A   1      18.449  -1.305   6.927  0.00  0.00    -0.025 A 
ATOM     16  C27 ZIN A   1      17.512  -0.322   6.604  0.00  0.00     0.012 A 
ATOM     17  C26 ZIN A   1      17.560   0.292   5.370  0.00  0.00     0.001 A 
ATOM     18  C25 ZIN A   1      18.534  -0.062   4.455  0.00  0.00     0.000 A 
ATOM     19  C24 ZIN A   1      19.467  -1.035   4.770  0.00  0.00     0.001 A 
ATOM     20  C23 ZIN A   1      19.432  -1.653   6.002  0.00  0.00     0.012 A 
ENDBRANCH   1  15
BRANCH   2  21
ATOM     21  C13 ZIN A   1      17.892  -4.094   7.080  0.00  0.00     0.055 C 
BRANCH  21  22
ATOM     22  C14 ZIN A   1      18.746  -5.364   7.107  0.00  0.00     0.119 C 
ATOM     23 Cl15 ZIN A   1      20.491  -4.914   7.060  0.00  0.00    -0.130 Cl
ENDBRANCH  21  22
ENDBRANCH   2  21
BRANCH   2  24
ATOM     24  C16 ZIN A   1      18.094  -3.955   9.646  0.00  0.00    -0.029 A 
ATOM     25  C21 ZIN A   1      16.872  -4.389  10.173  0.00  0.00     0.012 A 
ATOM     26  C20 ZIN A   1      16.838  -5.007  11.405  0.00  0.00     0.001 A 
ATOM     27  C19 ZIN A   1      18.007  -5.197  12.121  0.00  0.00     0.000 A 
ATOM     28  C18 ZIN A   1      19.220  -4.774  11.605  0.00  0.00     0.001 A 
ATOM     29  C17 ZIN A   1      19.271  -4.150  10.377  0.00  0.00     0.012 A 
ENDBRANCH   2  24
TORSDOF 9
ENDMDL
MODEL 9
REMARK VINA RESULT:      -7.0      4.046      8.117
REMARK  9 active torsions:
REMARK  status: ('A' for Active; 'I' for Inactive)
REMARK    1  A    between atoms: N2_2  and  C4_4 
REMARK    2  A    between atoms: C4_4  and  C5_5 
REMARK    3  A    between atoms: C5_5  and  O6_6 
REMARK    4  A    between atoms: O6_6  and  C7_7 
REMARK    5  A    between atoms: C10_10  and  C11_11 
REMARK    6  A    between atoms: C11_11  and  C22_22 
REMARK    7  A    between atoms: C12_12  and  C13_13 
REMARK    8  A    between atoms: C12_12  and  C16_16 
REMARK    9  A    between atoms: C13_13  and  C14_14 
ROOT
ATOM      1  C11 ZIN A   1      18.314  -1.640  10.737  0.00  0.00    -0.009 C 
ATOM      2  C12 ZIN A   1      18.175  -0.833   9.656  0.00  0.00    -0.035 C 
ENDROOT
BRANCH   1   3
ATOM      3  C10 ZIN A   1      18.570  -1.051  12.070  0.00  0.00    -0.024 A 
ATOM      4  C9  ZIN A   1      19.842  -0.576  12.393  0.00  0.00     0.015 A 
ATOM      5  C8  ZIN A   1      20.076  -0.029  13.636  0.00  0.00     0.037 A 
ATOM      6  C7  ZIN A   1      19.048   0.051  14.566  0.00  0.00     0.068 A 
ATOM      7  C29 ZIN A   1      17.781  -0.420  14.248  0.00  0.00     0.037 A 
ATOM      8  C28 ZIN A   1      17.537  -0.964  13.005  0.00  0.00     0.015 A 
BRANCH   6   9
ATOM      9  O6  ZIN A   1      19.283   0.592  15.790  0.00  0.00    -0.349 OA
BRANCH   9  10
ATOM     10  C5  ZIN A   1      18.423   1.656  16.205  0.00  0.00     0.206 C 
BRANCH  10  11
ATOM     11  C4  ZIN A   1      19.163   2.988  16.082  0.00  0.00     0.297 C 
BRANCH  11  12
ATOM     12  N2  ZIN A   1      18.252   4.008  15.544  0.00  0.00     0.082 N 
ATOM     13  C1  ZIN A   1      18.578   5.338  16.074  0.00  0.00     0.309 C 
ATOM     14  C3  ZIN A   1      18.270   4.008  14.075  0.00  0.00     0.309 C 
ENDBRANCH  11  12
ENDBRANCH  10  11
ENDBRANCH   9  10
ENDBRANCH   6   9
ENDBRANCH   1   3
BRANCH   1  15
ATOM     15  C22 ZIN A   1      18.211  -3.108  10.582  0.00  0.00    -0.025 A 
ATOM     16  C27 ZIN A   1      19.308  -3.843  10.129  0.00  0.00     0.012 A 
ATOM     17  C26 ZIN A   1      19.206  -5.211   9.988  0.00  0.00     0.001 A 
ATOM     18  C25 ZIN A   1      18.021  -5.855  10.295  0.00  0.00     0.000 A 
ATOM     19  C24 ZIN A   1      16.930  -5.132  10.745  0.00  0.00     0.001 A 
ATOM     20  C23 ZIN A   1      17.021  -3.764  10.895  0.00  0.00     0.012 A 
ENDBRANCH   1  15
BRANCH   2  21
ATOM     21  C13 ZIN A   1      17.915  -1.432   8.298  0.00  0.00     0.055 C 
BRANCH  21  22
ATOM     22  C14 ZIN A   1      17.007  -0.499   7.494  0.00  0.00     0.119 C 
ATOM     23 Cl15 ZIN A   1      17.854   0.013   5.987  0.00  0.00    -0.130 Cl
ENDBRANCH  21  22
ENDBRANCH   2  21
BRANCH   2  24
ATOM     24  C16 ZIN A   1      18.278   0.625   9.809  0.00  0.00    -0.029 A 
ATOM     25  C21 ZIN A   1      19.292   1.331   9.152  0.00  0.00     0.012 A 
ATOM     26  C20 ZIN A   1      19.381   2.699   9.301  0.00  0.00     0.001 A 
ATOM     27  C19 ZIN A   1      18.472   3.374  10.096  0.00  0.00     0.000 A 
ATOM     28  C18 ZIN A   1      17.463   2.683  10.746  0.00  0.00     0.001 A 
ATOM     29  C17 ZIN A   1      17.363   1.315  10.612  0.00  0.00     0.012 A 
ENDBRANCH   2  24
TORSDOF 9
ENDMDL
