MODEL 1
REMARK VINA RESULT:      -6.9      0.000      0.000
REMARK  4 active torsions:
REMARK  status: ('A' for Active; 'I' for Inactive)
REMARK    1  A    between atoms: C2_2  and  C4_4 
REMARK    2  A    between atoms: C4_4  and  C5_5 
REMARK    3  A    between atoms: C10_10  and  N11_11 
REMARK    4  A    between atoms: N11_11  and  C12_12 
ROOT
ATOM      1  C5  <0> d   1      18.884   1.811  15.699  0.00  0.00    -0.021 A 
ATOM      2  C6  <0> d   1      18.453   0.648  16.305  0.00  0.00     0.010 A 
ATOM      3  C7  <0> d   1      17.855  -0.347  15.552  0.00  0.00     0.001 A 
ATOM      4  C8  <0> d   1      17.687  -0.179  14.190  0.00  0.00     0.002 A 
ATOM      5  C9  <0> d   1      18.117   0.981  13.576  0.00  0.00     0.030 A 
ATOM      6  C10 <0> d   1      18.712   1.985  14.331  0.00  0.00     0.039 A 
ENDROOT
BRANCH   6   7
ATOM      7  N11 <0> d   1      19.148   3.160  13.714  0.00  0.00    -0.353 N 
ATOM      8  H26 <0> d   1      20.015   3.531  13.938  0.00  0.00     0.166 HD
BRANCH   7   9
ATOM      9  C12 <0> d   1      18.334   3.799  12.773  0.00  0.00     0.076 A 
ATOM     10  C18 <0> d   1      18.528   3.574  11.416  0.00  0.00     0.062 A 
ATOM     11  C17 <0> d   1      17.718   4.203  10.489  0.00  0.00     0.026 A 
ATOM     12 Cl19 <0> d   1      19.777   2.492  10.885  0.00  0.00    -0.082 Cl
ATOM     13  C16 <0> d   1      16.723   5.065  10.911  0.00  0.00     0.003 A 
ATOM     14  C15 <0> d   1      16.530   5.297  12.262  0.00  0.00     0.026 A 
ATOM     15  C13 <0> d   1      17.333   4.666  13.194  0.00  0.00     0.062 A 
ATOM     16 Cl14 <0> d   1      17.089   4.958  14.888  0.00  0.00    -0.082 Cl
ENDBRANCH   7   9
ENDBRANCH   6   7
BRANCH   1  17
ATOM     17  C4  <0> d   1      19.535   2.894  16.521  0.00  0.00     0.153 C 
BRANCH  17  18
ATOM     18  C2  <0> d   1      19.015   2.833  17.934  0.00  0.00     0.177 C 
ATOM     19  O1  <0> d   1      17.930   3.318  18.205  0.00  0.00    -0.648 OA
ATOM     20  O3  <0> d   1      19.676   2.294  18.805  0.00  0.00    -0.648 OA
ENDBRANCH  17  18
ENDBRANCH   1  17
TORSDOF 4
ENDMDL
MODEL 2
REMARK VINA RESULT:      -6.8      3.321      6.054
REMARK  4 active torsions:
REMARK  status: ('A' for Active; 'I' for Inactive)
REMARK    1  A    between atoms: C2_2  and  C4_4 
REMARK    2  A    between atoms: C4_4  and  C5_5 
REMARK    3  A    between atoms: C10_10  and  N11_11 
REMARK    4  A    between atoms: N11_11  and  C12_12 
ROOT
ATOM      1  C5  <0> d   1      18.419   3.570  11.672  0.00  0.00    -0.021 A 
ATOM      2  C6  <0> d   1      17.579   4.424  10.986  0.00  0.00     0.010 A 
ATOM      3  C7  <0> d   1      16.709   5.247  11.679  0.00  0.00     0.001 A 
ATOM      4  C8  <0> d   1      16.678   5.217  13.061  0.00  0.00     0.002 A 
ATOM      5  C9  <0> d   1      17.516   4.366  13.754  0.00  0.00     0.030 A 
ATOM      6  C10 <0> d   1      18.386   3.533  13.061  0.00  0.00     0.039 A 
ENDROOT
BRANCH   6   7
ATOM      7  N11 <0> d   1      19.235   2.671  13.759  0.00  0.00    -0.353 N 
ATOM      8  H26 <0> d   1      20.157   2.567  13.477  0.00  0.00     0.166 HD
BRANCH   7   9
ATOM      9  C12 <0> d   1      18.756   1.960  14.864  0.00  0.00     0.076 A 
ATOM     10  C18 <0> d   1      19.057   2.387  16.151  0.00  0.00     0.062 A 
ATOM     11  C17 <0> d   1      18.578   1.685  17.241  0.00  0.00     0.026 A 
ATOM     12 Cl19 <0> d   1      20.024   3.809  16.391  0.00  0.00    -0.082 Cl
ATOM     13  C16 <0> d   1      17.808   0.553  17.051  0.00  0.00     0.003 A 
ATOM     14  C15 <0> d   1      17.510   0.121  15.771  0.00  0.00     0.026 A 
ATOM     15  C13 <0> d   1      17.982   0.821  14.677  0.00  0.00     0.062 A 
ATOM     16 Cl14 <0> d   1      17.608   0.278  13.071  0.00  0.00    -0.082 Cl
ENDBRANCH   7   9
ENDBRANCH   6   7
BRANCH   1  17
ATOM     17  C4  <0> d   1      19.366   2.675  10.916  0.00  0.00     0.153 C 
BRANCH  17  18
ATOM     18  C2  <0> d   1      18.667   2.114   9.704  0.00  0.00     0.177 C 
ATOM     19  O1  <0> d   1      19.031   2.438   8.587  0.00  0.00    -0.648 OA
ATOM     20  O3  <0> d   1      17.742   1.332   9.841  0.00  0.00    -0.648 OA
ENDBRANCH  17  18
ENDBRANCH   1  17
TORSDOF 4
ENDMDL
MODEL 3
REMARK VINA RESULT:      -6.8      7.628      9.814
REMARK  4 active torsions:
REMARK  status: ('A' for Active; 'I' for Inactive)
REMARK    1  A    between atoms: C2_2  and  C4_4 
REMARK    2  A    between atoms: C4_4  and  C5_5 
REMARK    3  A    between atoms: C10_10  and  N11_11 
REMARK    4  A    between atoms: N11_11  and  C12_12 
ROOT
ATOM      1  C5  <0> d   1      18.384  -0.204   7.020  0.00  0.00    -0.021 A 
ATOM      2  C6  <0> d   1      18.939   1.059   7.055  0.00  0.00     0.010 A 
ATOM      3  C7  <0> d   1      19.454   1.558   8.239  0.00  0.00     0.001 A 
ATOM      4  C8  <0> d   1      19.414   0.793   9.390  0.00  0.00     0.002 A 
ATOM      5  C9  <0> d   1      18.861  -0.472   9.362  0.00  0.00     0.030 A 
ATOM      6  C10 <0> d   1      18.338  -0.974   8.177  0.00  0.00     0.039 A 
ENDROOT
BRANCH   6   7
ATOM      7  N11 <0> d   1      17.778  -2.253   8.144  0.00  0.00    -0.353 N 
ATOM      8  H26 <0> d   1      16.898  -2.387   7.759  0.00  0.00     0.166 HD
BRANCH   7   9
ATOM      9  C12 <0> d   1      18.486  -3.340   8.668  0.00  0.00     0.076 A 
ATOM     10  C18 <0> d   1      19.306  -4.099   7.843  0.00  0.00     0.062 A 
ATOM     11  C17 <0> d   1      20.008  -5.170   8.364  0.00  0.00     0.026 A 
ATOM     12 Cl19 <0> d   1      19.459  -3.697   6.161  0.00  0.00    -0.082 Cl
ATOM     13  C16 <0> d   1      19.887  -5.492   9.703  0.00  0.00     0.003 A 
ATOM     14  C15 <0> d   1      19.067  -4.741  10.527  0.00  0.00     0.026 A 
ATOM     15  C13 <0> d   1      18.366  -3.667  10.013  0.00  0.00     0.062 A 
ATOM     16 Cl14 <0> d   1      17.338  -2.726  11.048  0.00  0.00    -0.082 Cl
ENDBRANCH   7   9
ENDBRANCH   6   7
BRANCH   1  17
ATOM     17  C4  <0> d   1      17.824  -0.747   5.730  0.00  0.00     0.153 C 
BRANCH  17  18
ATOM     18  C2  <0> d   1      18.787  -0.462   4.606  0.00  0.00     0.177 C 
ATOM     19  O1  <0> d   1      19.896  -0.969   4.611  0.00  0.00    -0.648 OA
ATOM     20  O3  <0> d   1      18.456   0.270   3.690  0.00  0.00    -0.648 OA
ENDBRANCH  17  18
ENDBRANCH   1  17
TORSDOF 4
ENDMDL
MODEL 4
REMARK VINA RESULT:      -6.8      3.321      5.863
REMARK  4 active torsions:
REMARK  status: ('A' for Active; 'I' for Inactive)
REMARK    1  A    between atoms: C2_2  and  C4_4 
REMARK    2  A    between atoms: C4_4  and  C5_5 
REMARK    3  A    between atoms: C10_10  and  N11_11 
REMARK    4  A    between atoms: N11_11  and  C12_12 
ROOT
ATOM      1  C5  <0> d   1      18.411   3.565  11.677  0.00  0.00    -0.021 A 
ATOM      2  C6  <0> d   1      17.574   4.421  10.992  0.00  0.00     0.010 A 
ATOM      3  C7  <0> d   1      16.708   5.249  11.686  0.00  0.00     0.001 A 
ATOM      4  C8  <0> d   1      16.680   5.220  13.068  0.00  0.00     0.002 A 
ATOM      5  C9  <0> d   1      17.516   4.366  13.760  0.00  0.00     0.030 A 
ATOM      6  C10 <0> d   1      18.382   3.530  13.066  0.00  0.00     0.039 A 
ENDROOT
BRANCH   6   7
ATOM      7  N11 <0> d   1      19.229   2.665  13.763  0.00  0.00    -0.353 N 
ATOM      8  H26 <0> d   1      20.150   2.556  13.479  0.00  0.00     0.166 HD
BRANCH   7   9
ATOM      9  C12 <0> d   1      18.750   1.957  14.870  0.00  0.00     0.076 A 
ATOM     10  C18 <0> d   1      17.970   0.822  14.686  0.00  0.00     0.062 A 
ATOM     11  C17 <0> d   1      17.501   0.121  15.781  0.00  0.00     0.026 A 
ATOM     12 Cl19 <0> d   1      17.594   0.276  13.081  0.00  0.00    -0.082 Cl
ATOM     13  C16 <0> d   1      17.800   0.554  17.060  0.00  0.00     0.003 A 
ATOM     14  C15 <0> d   1      18.572   1.687  17.247  0.00  0.00     0.026 A 
ATOM     15  C13 <0> d   1      19.047   2.390  16.156  0.00  0.00     0.062 A 
ATOM     16 Cl14 <0> d   1      20.016   3.811  16.393  0.00  0.00    -0.082 Cl
ENDBRANCH   7   9
ENDBRANCH   6   7
BRANCH   1  17
ATOM     17  C4  <0> d   1      19.354   2.665  10.920  0.00  0.00     0.153 C 
BRANCH  17  18
ATOM     18  C2  <0> d   1      18.650   2.105   9.710  0.00  0.00     0.177 C 
ATOM     19  O1  <0> d   1      19.006   2.435   8.592  0.00  0.00    -0.648 OA
ATOM     20  O3  <0> d   1      17.728   1.320   9.850  0.00  0.00    -0.648 OA
ENDBRANCH  17  18
ENDBRANCH   1  17
TORSDOF 4
ENDMDL
MODEL 5
REMARK VINA RESULT:      -6.8      7.626      9.993
REMARK  4 active torsions:
REMARK  status: ('A' for Active; 'I' for Inactive)
REMARK    1  A    between atoms: C2_2  and  C4_4 
REMARK    2  A    between atoms: C4_4  and  C5_5 
REMARK    3  A    between atoms: C10_10  and  N11_11 
REMARK    4  A    between atoms: N11_11  and  C12_12 
ROOT
ATOM      1  C5  <0> d   1      18.379  -0.160   7.021  0.00  0.00    -0.021 A 
ATOM      2  C6  <0> d   1      18.938   1.101   7.068  0.00  0.00     0.010 A 
ATOM      3  C7  <0> d   1      19.482   1.575   8.249  0.00  0.00     0.001 A 
ATOM      4  C8  <0> d   1      19.467   0.787   9.385  0.00  0.00     0.002 A 
ATOM      5  C9  <0> d   1      18.911  -0.476   9.344  0.00  0.00     0.030 A 
ATOM      6  C10 <0> d   1      18.358  -0.953   8.162  0.00  0.00     0.039 A 
ENDROOT
BRANCH   6   7
ATOM      7  N11 <0> d   1      17.795  -2.230   8.118  0.00  0.00    -0.353 N 
ATOM      8  H26 <0> d   1      16.916  -2.359   7.726  0.00  0.00     0.166 HD
BRANCH   7   9
ATOM      9  C12 <0> d   1      18.496  -3.323   8.637  0.00  0.00     0.076 A 
ATOM     10  C18 <0> d   1      18.372  -3.656   9.979  0.00  0.00     0.062 A 
ATOM     11  C17 <0> d   1      19.062  -4.741  10.489  0.00  0.00     0.026 A 
ATOM     12 Cl19 <0> d   1      17.340  -2.721  11.015  0.00  0.00    -0.082 Cl
ATOM     13  C16 <0> d   1      19.885  -5.486   9.664  0.00  0.00     0.003 A 
ATOM     14  C15 <0> d   1      20.016  -5.154   8.328  0.00  0.00     0.026 A 
ATOM     15  C13 <0> d   1      19.324  -4.075   7.812  0.00  0.00     0.062 A 
ATOM     16 Cl14 <0> d   1      19.489  -3.660   6.134  0.00  0.00    -0.082 Cl
ENDBRANCH   7   9
ENDBRANCH   6   7
BRANCH   1  17
ATOM     17  C4  <0> d   1      17.787  -0.675   5.734  0.00  0.00     0.153 C 
BRANCH  17  18
ATOM     18  C2  <0> d   1      18.756  -0.434   4.604  0.00  0.00     0.177 C 
ATOM     19  O1  <0> d   1      18.422   0.248   3.651  0.00  0.00    -0.648 OA
ATOM     20  O3  <0> d   1      19.875  -0.917   4.647  0.00  0.00    -0.648 OA
ENDBRANCH  17  18
ENDBRANCH   1  17
TORSDOF 4
ENDMDL
MODEL 6
REMARK VINA RESULT:      -6.7      6.277      7.427
REMARK  4 active torsions:
REMARK  status: ('A' for Active; 'I' for Inactive)
REMARK    1  A    between atoms: C2_2  and  C4_4 
REMARK    2  A    between atoms: C4_4  and  C5_5 
REMARK    3  A    between atoms: C10_10  and  N11_11 
REMARK    4  A    between atoms: N11_11  and  C12_12 
ROOT
ATOM      1  C5  <0> d   1      18.769  -3.939  10.992  0.00  0.00    -0.021 A 
ATOM      2  C6  <0> d   1      18.036  -4.944  11.590  0.00  0.00     0.010 A 
ATOM      3  C7  <0> d   1      16.989  -5.539  10.909  0.00  0.00     0.001 A 
ATOM      4  C8  <0> d   1      16.674  -5.130   9.627  0.00  0.00     0.002 A 
ATOM      5  C9  <0> d   1      17.404  -4.126   9.021  0.00  0.00     0.030 A 
ATOM      6  C10 <0> d   1      18.452  -3.522   9.705  0.00  0.00     0.039 A 
ENDROOT
BRANCH   6   7
ATOM      7  N11 <0> d   1      19.193  -2.506   9.095  0.00  0.00    -0.353 N 
ATOM      8  H26 <0> d   1      20.043  -2.233   9.474  0.00  0.00     0.166 HD
BRANCH   7   9
ATOM      9  C12 <0> d   1      18.708  -1.884   7.940  0.00  0.00     0.076 A 
ATOM     10  C18 <0> d   1      19.072  -2.361   6.687  0.00  0.00     0.062 A 
ATOM     11  C17 <0> d   1      18.587  -1.747   5.547  0.00  0.00     0.026 A 
ATOM     12 Cl19 <0> d   1      20.123  -3.736   6.552  0.00  0.00    -0.082 Cl
ATOM     13  C16 <0> d   1      17.749  -0.652   5.654  0.00  0.00     0.003 A 
ATOM     14  C15 <0> d   1      17.390  -0.170   6.900  0.00  0.00     0.026 A 
ATOM     15  C13 <0> d   1      17.867  -0.783   8.043  0.00  0.00     0.062 A 
ATOM     16 Cl14 <0> d   1      17.414  -0.177   9.606  0.00  0.00    -0.082 Cl
ENDBRANCH   7   9
ENDBRANCH   6   7
BRANCH   1  17
ATOM     17  C4  <0> d   1      19.910  -3.292  11.735  0.00  0.00     0.153 C 
BRANCH  17  18
ATOM     18  C2  <0> d   1      19.441  -1.993  12.340  0.00  0.00     0.177 C 
ATOM     19  O1  <0> d   1      19.772  -0.933  11.838  0.00  0.00    -0.648 OA
ATOM     20  O3  <0> d   1      18.727  -2.004  13.328  0.00  0.00    -0.648 OA
ENDBRANCH  17  18
ENDBRANCH   1  17
TORSDOF 4
ENDMDL
MODEL 7
REMARK VINA RESULT:      -6.7      6.274      7.699
REMARK  4 active torsions:
REMARK  status: ('A' for Active; 'I' for Inactive)
REMARK    1  A    between atoms: C2_2  and  C4_4 
REMARK    2  A    between atoms: C4_4  and  C5_5 
REMARK    3  A    between atoms: C10_10  and  N11_11 
REMARK    4  A    between atoms: N11_11  and  C12_12 
ROOT
ATOM      1  C5  <0> d   1      18.774  -3.947  10.999  0.00  0.00    -0.021 A 
ATOM      2  C6  <0> d   1      18.039  -4.950  11.597  0.00  0.00     0.010 A 
ATOM      3  C7  <0> d   1      16.992  -5.545  10.915  0.00  0.00     0.001 A 
ATOM      4  C8  <0> d   1      16.678  -5.136   9.632  0.00  0.00     0.002 A 
ATOM      5  C9  <0> d   1      17.410  -4.133   9.027  0.00  0.00     0.030 A 
ATOM      6  C10 <0> d   1      18.458  -3.530   9.711  0.00  0.00     0.039 A 
ENDROOT
BRANCH   6   7
ATOM      7  N11 <0> d   1      19.200  -2.515   9.101  0.00  0.00    -0.353 N 
ATOM      8  H26 <0> d   1      20.053  -2.247   9.476  0.00  0.00     0.166 HD
BRANCH   7   9
ATOM      9  C12 <0> d   1      18.712  -1.886   7.951  0.00  0.00     0.076 A 
ATOM     10  C18 <0> d   1      17.868  -0.789   8.062  0.00  0.00     0.062 A 
ATOM     11  C17 <0> d   1      17.392  -0.167   6.923  0.00  0.00     0.026 A 
ATOM     12 Cl19 <0> d   1      17.420  -0.191   9.629  0.00  0.00    -0.082 Cl
ATOM     13  C16 <0> d   1      17.747  -0.642   5.674  0.00  0.00     0.003 A 
ATOM     14  C15 <0> d   1      18.583  -1.738   5.560  0.00  0.00     0.026 A 
ATOM     15  C13 <0> d   1      19.067  -2.362   6.694  0.00  0.00     0.062 A 
ATOM     16 Cl14 <0> d   1      20.117  -3.737   6.549  0.00  0.00    -0.082 Cl
ENDBRANCH   7   9
ENDBRANCH   6   7
BRANCH   1  17
ATOM     17  C4  <0> d   1      19.914  -3.300  11.742  0.00  0.00     0.153 C 
BRANCH  17  18
ATOM     18  C2  <0> d   1      19.449  -1.996  12.338  0.00  0.00     0.177 C 
ATOM     19  O1  <0> d   1      19.795  -0.940  11.837  0.00  0.00    -0.648 OA
ATOM     20  O3  <0> d   1      18.724  -1.997  13.318  0.00  0.00    -0.648 OA
ENDBRANCH  17  18
ENDBRANCH   1  17
TORSDOF 4
ENDMDL
MODEL 8
REMARK VINA RESULT:      -6.7      1.318      2.573
REMARK  4 active torsions:
REMARK  status: ('A' for Active; 'I' for Inactive)
REMARK    1  A    between atoms: C2_2  and  C4_4 
REMARK    2  A    between atoms: C4_4  and  C5_5 
REMARK    3  A    between atoms: C10_10  and  N11_11 
REMARK    4  A    between atoms: N11_11  and  C12_12 
ROOT
ATOM      1  C5  <0> d   1      18.683   1.236  16.152  0.00  0.00    -0.021 A 
ATOM      2  C6  <0> d   1      18.076   0.260  16.916  0.00  0.00     0.010 A 
ATOM      3  C7  <0> d   1      17.797  -0.979  16.365  0.00  0.00     0.001 A 
ATOM      4  C8  <0> d   1      18.126  -1.242  15.048  0.00  0.00     0.002 A 
ATOM      5  C9  <0> d   1      18.735  -0.270  14.279  0.00  0.00     0.030 A 
ATOM      6  C10 <0> d   1      19.011   0.976  14.827  0.00  0.00     0.039 A 
ENDROOT
BRANCH   6   7
ATOM      7  N11 <0> d   1      19.627   1.961  14.051  0.00  0.00    -0.353 N 
ATOM      8  H26 <0> d   1      20.393   2.443  14.400  0.00  0.00     0.166 HD
BRANCH   7   9
ATOM      9  C12 <0> d   1      19.139   2.252  12.773  0.00  0.00     0.076 A 
ATOM     10  C18 <0> d   1      18.116   3.176  12.611  0.00  0.00     0.062 A 
ATOM     11  C17 <0> d   1      17.639   3.466  11.346  0.00  0.00     0.026 A 
ATOM     12 Cl19 <0> d   1      17.443   3.979  13.996  0.00  0.00    -0.082 Cl
ATOM     13  C16 <0> d   1      18.174   2.827  10.243  0.00  0.00     0.003 A 
ATOM     14  C15 <0> d   1      19.190   1.901  10.400  0.00  0.00     0.026 A 
ATOM     15  C13 <0> d   1      19.674   1.612  11.662  0.00  0.00     0.062 A 
ATOM     16 Cl14 <0> d   1      20.949   0.450  11.857  0.00  0.00    -0.082 Cl
ENDBRANCH   7   9
ENDBRANCH   6   7
BRANCH   1  17
ATOM     17  C4  <0> d   1      18.987   2.584  16.754  0.00  0.00     0.153 C 
BRANCH  17  18
ATOM     18  C2  <0> d   1      18.754   2.534  18.242  0.00  0.00     0.177 C 
ATOM     19  O1  <0> d   1      17.690   2.908  18.705  0.00  0.00    -0.648 OA
ATOM     20  O3  <0> d   1      19.627   2.114  18.982  0.00  0.00    -0.648 OA
ENDBRANCH  17  18
ENDBRANCH   1  17
TORSDOF 4
ENDMDL
MODEL 9
REMARK VINA RESULT:      -6.6      6.801      8.236
REMARK  4 active torsions:
REMARK  status: ('A' for Active; 'I' for Inactive)
REMARK    1  A    between atoms: C2_2  and  C4_4 
REMARK    2  A    between atoms: C4_4  and  C5_5 
REMARK    3  A    between atoms: C10_10  and  N11_11 
REMARK    4  A    between atoms: N11_11  and  C12_12 
ROOT
ATOM      1  C5  <0> d   1      18.880  -3.800   9.244  0.00  0.00    -0.021 A 
ATOM      2  C6  <0> d   1      19.678  -4.703   9.916  0.00  0.00     0.010 A 
ATOM      3  C7  <0> d   1      20.133  -4.413  11.190  0.00  0.00     0.001 A 
ATOM      4  C8  <0> d   1      19.789  -3.218  11.794  0.00  0.00     0.002 A 
ATOM      5  C9  <0> d   1      18.990  -2.310  11.128  0.00  0.00     0.030 A 
ATOM      6  C10 <0> d   1      18.537  -2.595   9.846  0.00  0.00     0.039 A 
ENDROOT
BRANCH   6   7
ATOM      7  N11 <0> d   1      17.728  -1.679   9.169  0.00  0.00    -0.353 N 
ATOM      8  H26 <0> d   1      16.919  -1.981   8.727  0.00  0.00     0.166 HD
BRANCH   7   9
ATOM      9  C12 <0> d   1      18.084  -0.327   9.130  0.00  0.00     0.076 A 
ATOM     10  C18 <0> d   1      17.635   0.540  10.118  0.00  0.00     0.062 A 
ATOM     11  C17 <0> d   1      17.992   1.875  10.079  0.00  0.00     0.026 A 
ATOM     12 Cl19 <0> d   1      16.635  -0.053  11.407  0.00  0.00    -0.082 Cl
ATOM     13  C16 <0> d   1      18.788   2.349   9.053  0.00  0.00     0.003 A 
ATOM     14  C15 <0> d   1      19.233   1.490   8.064  0.00  0.00     0.026 A 
ATOM     15  C13 <0> d   1      18.883   0.153   8.100  0.00  0.00     0.062 A 
ATOM     16 Cl14 <0> d   1      19.443  -0.924   6.858  0.00  0.00    -0.082 Cl
ENDBRANCH   7   9
ENDBRANCH   6   7
BRANCH   1  17
ATOM     17  C4  <0> d   1      18.385  -4.117   7.856  0.00  0.00     0.153 C 
BRANCH  17  18
ATOM     18  C2  <0> d   1      19.506  -4.721   7.049  0.00  0.00     0.177 C 
ATOM     19  O1  <0> d   1      19.546  -5.926   6.870  0.00  0.00    -0.648 OA
ATOM     20  O3  <0> d   1      20.369  -4.005   6.572  0.00  0.00    -0.648 OA
ENDBRANCH  17  18
ENDBRANCH   1  17
TORSDOF 4
ENDMDL
