MODEL 1
REMARK VINA RESULT:      -8.2      0.000      0.000
REMARK  4 active torsions:
REMARK  status: ('A' for Active; 'I' for Inactive)
REMARK    1  A    between atoms: C11_9  and  O13_10 
REMARK    2  A    between atoms: O13_10  and  C14_11 
REMARK    3  A    between atoms: C14_11  and  C15_12 
REMARK    4  A    between atoms: C14_11  and  C21_18 
ROOT
ATOM      1  C14 ZIN A   1      19.438  -1.079  12.718  0.00  0.00     0.188 C 
ENDROOT
BRANCH   1   2
ATOM      2  O13 ZIN A   1      18.913  -0.073  11.850  0.00  0.00    -0.371 OA
BRANCH   2   3
ATOM      3  C11 ZIN A   1      19.793   0.293  10.784  0.00  0.00     0.126 C 
ATOM      4  C10 ZIN A   1      19.755   1.811  10.591  0.00  0.00     0.065 C 
ATOM      5  C8  ZIN A   1      18.355   2.216  10.100  0.00  0.00     0.190 C 
ATOM      6  N2  ZIN A   1      18.152   1.597   8.763  0.00  0.00    -0.066 N 
ATOM      7  C7  ZIN A   1      17.315   1.511  11.004  0.00  0.00     0.035 C 
ATOM      8  C1  ZIN A   1      19.338   1.791   7.918  0.00  0.00     0.270 C 
ATOM      9  H3  ZIN A   1      17.332   1.980   8.316  0.00  0.00     0.280 HD
ATOM     10  C4  ZIN A   1      17.957   0.156   9.069  0.00  0.00     0.190 C 
ATOM     11  C27 ZIN A   1      19.329  -0.415   9.463  0.00  0.00     0.065 C 
ATOM     12  C6  ZIN A   1      17.051   0.152  10.322  0.00  0.00     0.035 C 
ENDBRANCH   2   3
ENDBRANCH   1   2
BRANCH   1  13
ATOM     13  C15 ZIN A   1      18.857  -0.907  14.097  0.00  0.00    -0.025 A 
ATOM     14  C20 ZIN A   1      17.838   0.003  14.309  0.00  0.00     0.010 A 
ATOM     15  C19 ZIN A   1      17.303   0.158  15.574  0.00  0.00     0.001 A 
ATOM     16  C18 ZIN A   1      17.790  -0.591  16.628  0.00  0.00     0.000 A 
ATOM     17  C17 ZIN A   1      18.813  -1.498  16.418  0.00  0.00     0.001 A 
ATOM     18  C16 ZIN A   1      19.347  -1.655  15.152  0.00  0.00     0.010 A 
ENDBRANCH   1  13
BRANCH   1  19
ATOM     19  C21 ZIN A   1      19.073  -2.441  12.185  0.00  0.00    -0.025 A 
ATOM     20  C26 ZIN A   1      20.068  -3.323  11.803  0.00  0.00     0.010 A 
ATOM     21  C25 ZIN A   1      19.733  -4.574  11.319  0.00  0.00     0.001 A 
ATOM     22  C24 ZIN A   1      18.404  -4.940  11.209  0.00  0.00     0.000 A 
ATOM     23  C23 ZIN A   1      17.410  -4.056  11.586  0.00  0.00     0.001 A 
ATOM     24  C22 ZIN A   1      17.745  -2.807  12.074  0.00  0.00     0.010 A 
ENDBRANCH   1  19
TORSDOF 4
ENDMDL
MODEL 2
REMARK VINA RESULT:      -8.1      2.088      6.534
REMARK  4 active torsions:
REMARK  status: ('A' for Active; 'I' for Inactive)
REMARK    1  A    between atoms: C11_9  and  O13_10 
REMARK    2  A    between atoms: O13_10  and  C14_11 
REMARK    3  A    between atoms: C14_11  and  C15_12 
REMARK    4  A    between atoms: C14_11  and  C21_18 
ROOT
ATOM      1  C14 ZIN A   1      19.370   1.183  10.285  0.00  0.00     0.188 C 
ENDROOT
BRANCH   1   2
ATOM      2  O13 ZIN A   1      18.885   0.177  11.176  0.00  0.00    -0.371 OA
BRANCH   2   3
ATOM      3  C11 ZIN A   1      19.815  -0.194  12.197  0.00  0.00     0.126 C 
ATOM      4  C10 ZIN A   1      19.698  -1.695  12.470  0.00  0.00     0.065 C 
ATOM      5  C8  ZIN A   1      18.315  -1.986  13.077  0.00  0.00     0.190 C 
ATOM      6  N2  ZIN A   1      18.247  -1.293  14.391  0.00  0.00    -0.066 N 
ATOM      7  C7  ZIN A   1      17.258  -1.259  12.212  0.00  0.00     0.035 C 
ATOM      8  C1  ZIN A   1      19.477  -1.522  15.161  0.00  0.00     0.270 C 
ATOM      9  H3  ZIN A   1      17.439  -1.600  14.913  0.00  0.00     0.280 HD
ATOM     10  C4  ZIN A   1      18.119   0.143  14.024  0.00  0.00     0.190 C 
ATOM     11  C27 ZIN A   1      19.492   0.604  13.508  0.00  0.00     0.065 C 
ATOM     12  C6  ZIN A   1      17.127   0.145  12.838  0.00  0.00     0.035 C 
ENDBRANCH   2   3
ENDBRANCH   1   2
BRANCH   1  13
ATOM     13  C15 ZIN A   1      18.840   0.925   8.899  0.00  0.00    -0.025 A 
ATOM     14  C20 ZIN A   1      17.795   0.039   8.712  0.00  0.00     0.010 A 
ATOM     15  C19 ZIN A   1      17.306  -0.195   7.441  0.00  0.00     0.001 A 
ATOM     16  C18 ZIN A   1      17.866   0.451   6.355  0.00  0.00     0.000 A 
ATOM     17  C17 ZIN A   1      18.915   1.333   6.540  0.00  0.00     0.001 A 
ATOM     18  C16 ZIN A   1      19.402   1.569   7.812  0.00  0.00     0.010 A 
ENDBRANCH   1  13
BRANCH   1  19
ATOM     19  C21 ZIN A   1      18.906   2.537  10.757  0.00  0.00    -0.025 A 
ATOM     20  C26 ZIN A   1      19.756   3.340  11.495  0.00  0.00     0.010 A 
ATOM     21  C25 ZIN A   1      19.332   4.584  11.924  0.00  0.00     0.001 A 
ATOM     22  C24 ZIN A   1      18.055   5.021  11.622  0.00  0.00     0.000 A 
ATOM     23  C23 ZIN A   1      17.204   4.216  10.888  0.00  0.00     0.001 A 
ATOM     24  C22 ZIN A   1      17.630   2.974  10.455  0.00  0.00     0.010 A 
ENDBRANCH   1  19
TORSDOF 4
ENDMDL
MODEL 3
REMARK VINA RESULT:      -7.8      2.324      5.264
REMARK  4 active torsions:
REMARK  status: ('A' for Active; 'I' for Inactive)
REMARK    1  A    between atoms: C11_9  and  O13_10 
REMARK    2  A    between atoms: O13_10  and  C14_11 
REMARK    3  A    between atoms: C14_11  and  C15_12 
REMARK    4  A    between atoms: C14_11  and  C21_18 
ROOT
ATOM      1  C14 ZIN A   1      17.618   0.283  10.228  0.00  0.00     0.188 C 
ENDROOT
BRANCH   1   2
ATOM      2  O13 ZIN A   1      18.248   1.357  10.929  0.00  0.00    -0.371 OA
BRANCH   2   3
ATOM      3  C11 ZIN A   1      17.423   1.966  11.925  0.00  0.00     0.126 C 
ATOM      4  C10 ZIN A   1      17.622   3.483  11.893  0.00  0.00     0.065 C 
ATOM      5  C8  ZIN A   1      19.061   3.806  12.326  0.00  0.00     0.190 C 
ATOM      6  N2  ZIN A   1      19.212   3.373  13.741  0.00  0.00    -0.066 N 
ATOM      7  C7  ZIN A   1      20.012   2.871  11.542  0.00  0.00     0.035 C 
ATOM      8  C1  ZIN A   1      18.061   3.812  14.542  0.00  0.00     0.270 C 
ATOM      9  H3  ZIN A   1      20.072   3.728  14.131  0.00  0.00     0.280 HD
ATOM     10  C4  ZIN A   1      19.251   1.889  13.651  0.00  0.00     0.190 C 
ATOM     11  C27 ZIN A   1      17.823   1.414  13.338  0.00  0.00     0.065 C 
ATOM     12  C6  ZIN A   1      20.139   1.607  12.417  0.00  0.00     0.035 C 
ENDBRANCH   2   3
ENDBRANCH   1   2
BRANCH   1  13
ATOM     13  C15 ZIN A   1      17.889   0.417   8.752  0.00  0.00    -0.025 A 
ATOM     14  C20 ZIN A   1      18.829   1.325   8.303  0.00  0.00     0.010 A 
ATOM     15  C19 ZIN A   1      19.081   1.446   6.949  0.00  0.00     0.001 A 
ATOM     16  C18 ZIN A   1      18.388   0.664   6.044  0.00  0.00     0.000 A 
ATOM     17  C17 ZIN A   1      17.444  -0.241   6.494  0.00  0.00     0.001 A 
ATOM     18  C16 ZIN A   1      17.194  -0.364   7.848  0.00  0.00     0.010 A 
ENDBRANCH   1  13
BRANCH   1  19
ATOM     19  C21 ZIN A   1      18.169  -1.030  10.723  0.00  0.00    -0.025 A 
ATOM     20  C26 ZIN A   1      19.503  -1.337  10.525  0.00  0.00     0.010 A 
ATOM     21  C25 ZIN A   1      20.011  -2.538  10.983  0.00  0.00     0.001 A 
ATOM     22  C24 ZIN A   1      19.183  -3.437  11.630  0.00  0.00     0.000 A 
ATOM     23  C23 ZIN A   1      17.848  -3.132  11.822  0.00  0.00     0.001 A 
ATOM     24  C22 ZIN A   1      17.341  -1.929  11.369  0.00  0.00     0.010 A 
ENDBRANCH   1  19
TORSDOF 4
ENDMDL
MODEL 4
REMARK VINA RESULT:      -7.7      2.259      6.538
REMARK  4 active torsions:
REMARK  status: ('A' for Active; 'I' for Inactive)
REMARK    1  A    between atoms: C11_9  and  O13_10 
REMARK    2  A    between atoms: O13_10  and  C14_11 
REMARK    3  A    between atoms: C14_11  and  C15_12 
REMARK    4  A    between atoms: C14_11  and  C21_18 
ROOT
ATOM      1  C14 ZIN A   1      19.168   0.920   9.762  0.00  0.00     0.188 C 
ENDROOT
BRANCH   1   2
ATOM      2  O13 ZIN A   1      18.831  -0.228  10.544  0.00  0.00    -0.371 OA
BRANCH   2   3
ATOM      3  C11 ZIN A   1      19.643  -1.374  10.274  0.00  0.00     0.126 C 
ATOM      4  C10 ZIN A   1      18.758  -2.519   9.778  0.00  0.00     0.065 C 
ATOM      5  C8  ZIN A   1      17.826  -2.959  10.919  0.00  0.00     0.190 C 
ATOM      6  N2  ZIN A   1      18.678  -3.503  12.011  0.00  0.00    -0.066 N 
ATOM      7  C7  ZIN A   1      17.195  -1.686  11.532  0.00  0.00     0.035 C 
ATOM      8  C1  ZIN A   1      19.696  -4.413  11.468  0.00  0.00     0.270 C 
ATOM      9  H3  ZIN A   1      18.113  -3.974  12.702  0.00  0.00     0.280 HD
ATOM     10  C4  ZIN A   1      19.316  -2.292  12.593  0.00  0.00     0.190 C 
ATOM     11  C27 ZIN A   1      20.377  -1.809  11.590  0.00  0.00     0.065 C 
ATOM     12  C6  ZIN A   1      18.177  -1.247  12.638  0.00  0.00     0.035 C 
ENDBRANCH   2   3
ENDBRANCH   1   2
BRANCH   1  13
ATOM     13  C15 ZIN A   1      18.676   0.730   8.351  0.00  0.00    -0.025 A 
ATOM     14  C20 ZIN A   1      17.441   0.155   8.122  0.00  0.00     0.010 A 
ATOM     15  C19 ZIN A   1      16.988  -0.016   6.827  0.00  0.00     0.001 A 
ATOM     16  C18 ZIN A   1      17.773   0.382   5.761  0.00  0.00     0.000 A 
ATOM     17  C17 ZIN A   1      19.012   0.953   5.991  0.00  0.00     0.001 A 
ATOM     18  C16 ZIN A   1      19.464   1.127   7.286  0.00  0.00     0.010 A 
ENDBRANCH   1  13
BRANCH   1  19
ATOM     19  C21 ZIN A   1      18.518   2.141  10.361  0.00  0.00    -0.025 A 
ATOM     20  C26 ZIN A   1      18.375   3.289   9.602  0.00  0.00     0.010 A 
ATOM     21  C25 ZIN A   1      17.774   4.408  10.149  0.00  0.00     0.001 A 
ATOM     22  C24 ZIN A   1      17.325   4.382  11.456  0.00  0.00     0.000 A 
ATOM     23  C23 ZIN A   1      17.473   3.236  12.216  0.00  0.00     0.001 A 
ATOM     24  C22 ZIN A   1      18.070   2.116  11.668  0.00  0.00     0.010 A 
ENDBRANCH   1  19
TORSDOF 4
ENDMDL
MODEL 5
REMARK VINA RESULT:      -7.7      1.852      4.516
REMARK  4 active torsions:
REMARK  status: ('A' for Active; 'I' for Inactive)
REMARK    1  A    between atoms: C11_9  and  O13_10 
REMARK    2  A    between atoms: O13_10  and  C14_11 
REMARK    3  A    between atoms: C14_11  and  C15_12 
REMARK    4  A    between atoms: C14_11  and  C21_18 
ROOT
ATOM      1  C14 ZIN A   1      17.635  -0.559  12.966  0.00  0.00     0.188 C 
ENDROOT
BRANCH   1   2
ATOM      2  O13 ZIN A   1      18.229  -1.709  12.362  0.00  0.00    -0.371 OA
BRANCH   2   3
ATOM      3  C11 ZIN A   1      17.373  -2.391  11.441  0.00  0.00     0.126 C 
ATOM      4  C10 ZIN A   1      17.524  -3.902  11.629  0.00  0.00     0.065 C 
ATOM      5  C8  ZIN A   1      18.946  -4.316  11.220  0.00  0.00     0.190 C 
ATOM      6  N2  ZIN A   1      19.095  -4.037   9.766  0.00  0.00    -0.066 N 
ATOM      7  C7  ZIN A   1      19.936  -3.337  11.895  0.00  0.00     0.035 C 
ATOM      8  C1  ZIN A   1      17.922  -4.518   9.025  0.00  0.00     0.270 C 
ATOM      9  H3  ZIN A   1      19.939  -4.459   9.408  0.00  0.00     0.280 HD
ATOM     10  C4  ZIN A   1      19.183  -2.554   9.702  0.00  0.00     0.190 C 
ATOM     11  C27 ZIN A   1      17.774  -2.002   9.976  0.00  0.00     0.065 C 
ATOM     12  C6  ZIN A   1      20.094  -2.175  10.892  0.00  0.00     0.035 C 
ENDBRANCH   2   3
ENDBRANCH   1   2
BRANCH   1  13
ATOM     13  C15 ZIN A   1      17.976  -0.529  14.433  0.00  0.00    -0.025 A 
ATOM     14  C20 ZIN A   1      17.456   0.463  15.243  0.00  0.00     0.010 A 
ATOM     15  C19 ZIN A   1      17.766   0.488  16.590  0.00  0.00     0.001 A 
ATOM     16  C18 ZIN A   1      18.601  -0.474  17.126  0.00  0.00     0.000 A 
ATOM     17  C17 ZIN A   1      19.126  -1.463  16.314  0.00  0.00     0.001 A 
ATOM     18  C16 ZIN A   1      18.814  -1.490  14.968  0.00  0.00     0.010 A 
ENDBRANCH   1  13
BRANCH   1  19
ATOM     19  C21 ZIN A   1      18.166   0.686  12.301  0.00  0.00    -0.025 A 
ATOM     20  C26 ZIN A   1      17.332   1.454  11.509  0.00  0.00     0.010 A 
ATOM     21  C25 ZIN A   1      17.817   2.598  10.903  0.00  0.00     0.001 A 
ATOM     22  C24 ZIN A   1      19.137   2.969  11.082  0.00  0.00     0.000 A 
ATOM     23  C23 ZIN A   1      19.971   2.198  11.870  0.00  0.00     0.001 A 
ATOM     24  C22 ZIN A   1      19.485   1.056  12.480  0.00  0.00     0.010 A 
ENDBRANCH   1  19
TORSDOF 4
ENDMDL
MODEL 6
REMARK VINA RESULT:      -7.6      1.918      5.148
REMARK  4 active torsions:
REMARK  status: ('A' for Active; 'I' for Inactive)
REMARK    1  A    between atoms: C11_9  and  O13_10 
REMARK    2  A    between atoms: O13_10  and  C14_11 
REMARK    3  A    between atoms: C14_11  and  C15_12 
REMARK    4  A    between atoms: C14_11  and  C21_18 
ROOT
ATOM      1  C14 ZIN A   1      17.650  -0.630  10.691  0.00  0.00     0.188 C 
ENDROOT
BRANCH   1   2
ATOM      2  O13 ZIN A   1      18.284   0.248  11.624  0.00  0.00    -0.371 OA
BRANCH   2   3
ATOM      3  C11 ZIN A   1      17.687   0.245  12.923  0.00  0.00     0.126 C 
ATOM      4  C10 ZIN A   1      17.500   1.687  13.401  0.00  0.00     0.065 C 
ATOM      5  C8  ZIN A   1      18.882   2.327  13.607  0.00  0.00     0.190 C 
ATOM      6  N2  ZIN A   1      19.562   1.586  14.703  0.00  0.00    -0.066 N 
ATOM      7  C7  ZIN A   1      19.737   2.018  12.355  0.00  0.00     0.035 C 
ATOM      8  C1  ZIN A   1      18.646   1.378  15.832  0.00  0.00     0.270 C 
ATOM      9  H3  ZIN A   1      20.390   2.078  15.003  0.00  0.00     0.280 HD
ATOM     10  C4  ZIN A   1      19.923   0.287  14.076  0.00  0.00     0.190 C 
ATOM     11  C27 ZIN A   1      18.624  -0.521  13.922  0.00  0.00     0.065 C 
ATOM     12  C6  ZIN A   1      20.426   0.672  12.665  0.00  0.00     0.035 C 
ENDBRANCH   2   3
ENDBRANCH   1   2
BRANCH   1  13
ATOM     13  C15 ZIN A   1      17.960  -0.180   9.287  0.00  0.00    -0.025 A 
ATOM     14  C20 ZIN A   1      17.377  -0.821   8.211  0.00  0.00     0.010 A 
ATOM     15  C19 ZIN A   1      17.658  -0.405   6.923  0.00  0.00     0.001 A 
ATOM     16  C18 ZIN A   1      18.528   0.647   6.711  0.00  0.00     0.000 A 
ATOM     17  C17 ZIN A   1      19.116   1.286   7.787  0.00  0.00     0.001 A 
ATOM     18  C16 ZIN A   1      18.832   0.872   9.075  0.00  0.00     0.010 A 
ENDBRANCH   1  13
BRANCH   1  19
ATOM     19  C21 ZIN A   1      18.164  -2.032  10.894  0.00  0.00    -0.025 A 
ATOM     20  C26 ZIN A   1      17.282  -3.052  11.202  0.00  0.00     0.010 A 
ATOM     21  C25 ZIN A   1      17.752  -4.340  11.383  0.00  0.00     0.001 A 
ATOM     22  C24 ZIN A   1      19.104  -4.605  11.266  0.00  0.00     0.000 A 
ATOM     23  C23 ZIN A   1      19.985  -3.584  10.963  0.00  0.00     0.001 A 
ATOM     24  C22 ZIN A   1      19.515  -2.297  10.777  0.00  0.00     0.010 A 
ENDBRANCH   1  19
TORSDOF 4
ENDMDL
MODEL 7
REMARK VINA RESULT:      -7.4      1.126      4.343
REMARK  4 active torsions:
REMARK  status: ('A' for Active; 'I' for Inactive)
REMARK    1  A    between atoms: C11_9  and  O13_10 
REMARK    2  A    between atoms: O13_10  and  C14_11 
REMARK    3  A    between atoms: C14_11  and  C15_12 
REMARK    4  A    between atoms: C14_11  and  C21_18 
ROOT
ATOM      1  C14 ZIN A   1      17.748  -0.933  12.889  0.00  0.00     0.188 C 
ENDROOT
BRANCH   1   2
ATOM      2  O13 ZIN A   1      18.349   0.174  12.214  0.00  0.00    -0.371 OA
BRANCH   2   3
ATOM      3  C11 ZIN A   1      17.431   1.217  11.874  0.00  0.00     0.126 C 
ATOM      4  C10 ZIN A   1      17.384   1.379  10.353  0.00  0.00     0.065 C 
ATOM      5  C8  ZIN A   1      18.751   1.885   9.864  0.00  0.00     0.190 C 
ATOM      6  N2  ZIN A   1      18.962   3.239  10.444  0.00  0.00    -0.066 N 
ATOM      7  C7  ZIN A   1      19.843   1.015  10.529  0.00  0.00     0.035 C 
ATOM      8  C1  ZIN A   1      17.752   4.059  10.298  0.00  0.00     0.270 C 
ATOM      9  H3  ZIN A   1      19.752   3.692  10.009  0.00  0.00     0.280 HD
ATOM     10  C4  ZIN A   1      19.240   2.966  11.879  0.00  0.00     0.190 C 
ATOM     11  C27 ZIN A   1      17.908   2.560  12.531  0.00  0.00     0.065 C 
ATOM     12  C6  ZIN A   1      20.167   1.729  11.858  0.00  0.00     0.035 C 
ENDBRANCH   2   3
ENDBRANCH   1   2
BRANCH   1  13
ATOM     13  C15 ZIN A   1      18.288  -2.220  12.322  0.00  0.00    -0.025 A 
ATOM     14  C20 ZIN A   1      19.628  -2.325  12.000  0.00  0.00     0.010 A 
ATOM     15  C19 ZIN A   1      20.124  -3.508  11.484  0.00  0.00     0.001 A 
ATOM     16  C18 ZIN A   1      19.280  -4.583  11.283  0.00  0.00     0.000 A 
ATOM     17  C17 ZIN A   1      17.938  -4.477  11.601  0.00  0.00     0.001 A 
ATOM     18  C16 ZIN A   1      17.442  -3.295  12.120  0.00  0.00     0.010 A 
ENDBRANCH   1  13
BRANCH   1  19
ATOM     19  C21 ZIN A   1      18.069  -0.857  14.359  0.00  0.00    -0.025 A 
ATOM     20  C26 ZIN A   1      17.377   0.022  15.172  0.00  0.00     0.010 A 
ATOM     21  C25 ZIN A   1      17.667   0.088  16.522  0.00  0.00     0.001 A 
ATOM     22  C24 ZIN A   1      18.655  -0.717  17.057  0.00  0.00     0.000 A 
ATOM     23  C23 ZIN A   1      19.350  -1.592  16.243  0.00  0.00     0.001 A 
ATOM     24  C22 ZIN A   1      19.057  -1.662  14.894  0.00  0.00     0.010 A 
ENDBRANCH   1  19
TORSDOF 4
ENDMDL
MODEL 8
REMARK VINA RESULT:      -7.4      2.028      4.630
REMARK  4 active torsions:
REMARK  status: ('A' for Active; 'I' for Inactive)
REMARK    1  A    between atoms: C11_9  and  O13_10 
REMARK    2  A    between atoms: O13_10  and  C14_11 
REMARK    3  A    between atoms: C14_11  and  C15_12 
REMARK    4  A    between atoms: C14_11  and  C21_18 
ROOT
ATOM      1  C14 ZIN A   1      17.870   0.768  12.760  0.00  0.00     0.188 C 
ENDROOT
BRANCH   1   2
ATOM      2  O13 ZIN A   1      18.471  -0.010  11.724  0.00  0.00    -0.371 OA
BRANCH   2   3
ATOM      3  C11 ZIN A   1      17.539  -0.774  10.954  0.00  0.00     0.126 C 
ATOM      4  C10 ZIN A   1      17.770  -2.266  11.209  0.00  0.00     0.065 C 
ATOM      5  C8  ZIN A   1      19.150  -2.658  10.656  0.00  0.00     0.190 C 
ATOM      6  N2  ZIN A   1      19.114  -2.465   9.181  0.00  0.00    -0.066 N 
ATOM      7  C7  ZIN A   1      20.173  -1.608  11.149  0.00  0.00     0.035 C 
ATOM      8  C1  ZIN A   1      17.881  -3.028   8.616  0.00  0.00     0.270 C 
ATOM      9  H3  ZIN A   1      19.925  -2.881   8.749  0.00  0.00     0.280 HD
ATOM     10  C4  ZIN A   1      19.135  -0.986   9.021  0.00  0.00     0.190 C 
ATOM     11  C27 ZIN A   1      17.748  -0.464   9.431  0.00  0.00     0.065 C 
ATOM     12  C6  ZIN A   1      20.165  -0.506  10.070  0.00  0.00     0.035 C 
ENDBRANCH   2   3
ENDBRANCH   1   2
BRANCH   1  13
ATOM     13  C15 ZIN A   1      18.095   0.095  14.090  0.00  0.00    -0.025 A 
ATOM     14  C20 ZIN A   1      19.228  -0.669  14.294  0.00  0.00     0.010 A 
ATOM     15  C19 ZIN A   1      19.436  -1.283  15.515  0.00  0.00     0.001 A 
ATOM     16  C18 ZIN A   1      18.508  -1.140  16.528  0.00  0.00     0.000 A 
ATOM     17  C17 ZIN A   1      17.371  -0.380  16.322  0.00  0.00     0.001 A 
ATOM     18  C16 ZIN A   1      17.164   0.237  15.102  0.00  0.00     0.010 A 
ENDBRANCH   1  13
BRANCH   1  19
ATOM     19  C21 ZIN A   1      18.491   2.141  12.781  0.00  0.00    -0.025 A 
ATOM     20  C26 ZIN A   1      19.451   2.478  11.843  0.00  0.00     0.010 A 
ATOM     21  C25 ZIN A   1      20.018   3.739  11.859  0.00  0.00     0.001 A 
ATOM     22  C24 ZIN A   1      19.633   4.659  12.816  0.00  0.00     0.000 A 
ATOM     23  C23 ZIN A   1      18.678   4.319  13.756  0.00  0.00     0.001 A 
ATOM     24  C22 ZIN A   1      18.107   3.060  13.739  0.00  0.00     0.010 A 
ENDBRANCH   1  19
TORSDOF 4
ENDMDL
MODEL 9
REMARK VINA RESULT:      -7.4      2.326      5.097
REMARK  4 active torsions:
REMARK  status: ('A' for Active; 'I' for Inactive)
REMARK    1  A    between atoms: C11_9  and  O13_10 
REMARK    2  A    between atoms: O13_10  and  C14_11 
REMARK    3  A    between atoms: C14_11  and  C15_12 
REMARK    4  A    between atoms: C14_11  and  C21_18 
ROOT
ATOM      1  C14 ZIN A   1      17.484  -1.555  10.875  0.00  0.00     0.188 C 
ENDROOT
BRANCH   1   2
ATOM      2  O13 ZIN A   1      17.997  -2.874  10.678  0.00  0.00    -0.371 OA
BRANCH   2   3
ATOM      3  C11 ZIN A   1      17.689  -3.433   9.398  0.00  0.00     0.126 C 
ATOM      4  C10 ZIN A   1      16.776  -4.647   9.578  0.00  0.00     0.065 C 
ATOM      5  C8  ZIN A   1      17.554  -5.752  10.310  0.00  0.00     0.190 C 
ATOM      6  N2  ZIN A   1      18.675  -6.173   9.427  0.00  0.00    -0.066 N 
ATOM      7  C7  ZIN A   1      18.256  -5.108  11.529  0.00  0.00     0.035 C 
ATOM      8  C1  ZIN A   1      18.204  -6.362   8.048  0.00  0.00     0.270 C 
ATOM      9  H3  ZIN A   1      19.103  -7.018   9.775  0.00  0.00     0.280 HD
ATOM     10  C4  ZIN A   1      19.628  -5.033   9.503  0.00  0.00     0.190 C 
ATOM     11  C27 ZIN A   1      19.019  -3.876   8.694  0.00  0.00     0.065 C 
ATOM     12  C6  ZIN A   1      19.625  -4.635  10.997  0.00  0.00     0.035 C 
ENDBRANCH   2   3
ENDBRANCH   1   2
BRANCH   1  13
ATOM     13  C15 ZIN A   1      17.815  -1.091  12.270  0.00  0.00    -0.025 A 
ATOM     14  C20 ZIN A   1      17.310   0.108  12.737  0.00  0.00     0.010 A 
ATOM     15  C19 ZIN A   1      17.611   0.532  14.018  0.00  0.00     0.001 A 
ATOM     16  C18 ZIN A   1      18.423  -0.238  14.829  0.00  0.00     0.000 A 
ATOM     17  C17 ZIN A   1      18.932  -1.435  14.360  0.00  0.00     0.001 A 
ATOM     18  C16 ZIN A   1      18.629  -1.862  13.080  0.00  0.00     0.010 A 
ENDBRANCH   1  13
BRANCH   1  19
ATOM     19  C21 ZIN A   1      18.108  -0.620   9.872  0.00  0.00    -0.025 A 
ATOM     20  C26 ZIN A   1      17.355  -0.135   8.819  0.00  0.00     0.010 A 
ATOM     21  C25 ZIN A   1      17.926   0.727   7.901  0.00  0.00     0.001 A 
ATOM     22  C24 ZIN A   1      19.251   1.097   8.032  0.00  0.00     0.000 A 
ATOM     23  C23 ZIN A   1      20.005   0.608   9.082  0.00  0.00     0.001 A 
ATOM     24  C22 ZIN A   1      19.434  -0.251  10.002  0.00  0.00     0.010 A 
ENDBRANCH   1  19
TORSDOF 4
ENDMDL
