MODEL 1
REMARK VINA RESULT:      -8.6      0.000      0.000
REMARK  4 active torsions:
REMARK  status: ('A' for Active; 'I' for Inactive)
REMARK       I    between atoms: N11_8  and  C12_9 
REMARK    1  A    between atoms: C12_9  and  C14_11 
REMARK    2  A    between atoms: C14_11  and  N16_12 
REMARK    3  A    between atoms: C14_11  and  C20_16 
REMARK    4  A    between atoms: C28_22  and  O29_23 
ROOT
ATOM      1  N1  ZIN A   1      19.248  -0.459  11.096  0.00  0.00    -0.195 NA
ATOM      2  C2  ZIN A   1      18.551   0.433  11.201  0.00  0.00     0.085 C 
ATOM      3  C3  ZIN A   1      17.648   1.586  11.337  0.00  0.00     0.195 C 
ATOM      4  C5  ZIN A   1      17.771   2.525  10.110  0.00  0.00     0.047 C 
ATOM      5  C6  ZIN A   1      17.302   3.887  10.668  0.00  0.00     0.013 A 
ATOM      6  C8  ZIN A   1      18.338   4.790  11.337  0.00  0.00     0.032 A 
ATOM      7  C9  ZIN A   1      17.495   3.781  12.192  0.00  0.00     0.093 A 
ATOM      8  N11 ZIN A   1      18.066   2.446  12.468  0.00  0.00    -0.328 N 
ATOM      9  C12 ZIN A   1      18.829   2.092  13.521  0.00  0.00     0.252 C 
ATOM     10  O13 ZIN A   1      19.217   2.936  14.302  0.00  0.00    -0.271 OA
ENDROOT
BRANCH   9  11
ATOM     11  C14 ZIN A   1      19.201   0.646  13.728  0.00  0.00     0.283 C 
BRANCH  11  12
ATOM     12  N16 ZIN A   1      20.655   0.490  13.584  0.00  0.00    -0.066 N 
ATOM     13  H17 ZIN A   1      20.882   0.338  12.612  0.00  0.00     0.275 HD
ATOM     14  H18 ZIN A   1      21.118   1.325  13.910  0.00  0.00     0.275 HD
ATOM     15  H19 ZIN A   1      20.964  -0.301  14.130  0.00  0.00     0.275 HD
ENDBRANCH  11  12
BRANCH  11  16
ATOM     16  C20 ZIN A   1      18.777   0.206  15.131  0.00  0.00     0.000 C 
ATOM     17  C31 ZIN A   1      19.473   1.085  16.173  0.00  0.00     0.049 C 
ATOM     18  C28 ZIN A   1      19.049   0.645  17.575  0.00  0.00     0.059 C 
ATOM     19  C27 ZIN A   1      19.445  -0.817  17.793  0.00  0.00     0.042 C 
ATOM     20  C30 ZIN A   1      17.532   0.789  17.718  0.00  0.00     0.042 C 
ATOM     21  C25 ZIN A   1      18.750  -1.694  16.751  0.00  0.00    -0.010 C 
ATOM     22  C24 ZIN A   1      17.233  -1.550  16.894  0.00  0.00     0.009 C 
ATOM     23  C32 ZIN A   1      19.174  -1.255  15.348  0.00  0.00     0.016 C 
ATOM     24  C22 ZIN A   1      16.836  -0.089  16.676  0.00  0.00    -0.010 C 
ATOM     25  C21 ZIN A   1      17.261   0.351  15.273  0.00  0.00     0.016 C 
BRANCH  18  26
ATOM     26  O29 ZIN A   1      19.699   1.465  18.549  0.00  0.00    -0.390 OA
ATOM     27  H43 ZIN A   1      19.452   1.265  19.461  0.00  0.00     0.210 HD
ENDBRANCH  18  26
ENDBRANCH  11  16
ENDBRANCH   9  11
TORSDOF 4
ENDMDL
MODEL 2
REMARK VINA RESULT:      -8.4      3.660      5.676
REMARK  4 active torsions:
REMARK  status: ('A' for Active; 'I' for Inactive)
REMARK       I    between atoms: N11_8  and  C12_9 
REMARK    1  A    between atoms: C12_9  and  C14_11 
REMARK    2  A    between atoms: C14_11  and  N16_12 
REMARK    3  A    between atoms: C14_11  and  C20_16 
REMARK    4  A    between atoms: C28_22  and  O29_23 
ROOT
ATOM      1  N1  ZIN A   1      19.807   1.281   8.327  0.00  0.00    -0.195 NA
ATOM      2  C2  ZIN A   1      19.048   1.514   9.141  0.00  0.00     0.085 C 
ATOM      3  C3  ZIN A   1      18.066   1.815  10.194  0.00  0.00     0.195 C 
ATOM      4  C5  ZIN A   1      17.983   3.342  10.445  0.00  0.00     0.047 C 
ATOM      5  C6  ZIN A   1      17.454   3.426  11.895  0.00  0.00     0.013 A 
ATOM      6  C8  ZIN A   1      18.469   3.395  13.037  0.00  0.00     0.032 A 
ATOM      7  C9  ZIN A   1      17.807   2.067  12.527  0.00  0.00     0.093 A 
ATOM      8  N11 ZIN A   1      18.517   1.278  11.499  0.00  0.00    -0.328 N 
ATOM      9  C12 ZIN A   1      19.409   0.290  11.707  0.00  0.00     0.252 C 
ATOM     10  O13 ZIN A   1      19.797   0.049  12.831  0.00  0.00    -0.271 OA
ENDROOT
BRANCH   9  11
ATOM     11  C14 ZIN A   1      19.926  -0.516  10.543  0.00  0.00     0.283 C 
BRANCH  11  12
ATOM     12  N16 ZIN A   1      21.390  -0.610  10.624  0.00  0.00    -0.066 N 
ATOM     13  H17 ZIN A   1      21.671  -1.573  10.513  0.00  0.00     0.275 HD
ATOM     14  H18 ZIN A   1      21.804  -0.053   9.892  0.00  0.00     0.275 HD
ATOM     15  H19 ZIN A   1      21.699  -0.270  11.522  0.00  0.00     0.275 HD
ENDBRANCH  11  12
BRANCH  11  16
ATOM     16  C20 ZIN A   1      19.320  -1.920  10.586  0.00  0.00     0.000 C 
ATOM     17  C31 ZIN A   1      19.195  -2.465   9.162  0.00  0.00     0.049 C 
ATOM     18  C28 ZIN A   1      18.590  -3.870   9.205  0.00  0.00     0.059 C 
ATOM     19  C27 ZIN A   1      17.204  -3.809   9.852  0.00  0.00     0.042 C 
ATOM     20  C30 ZIN A   1      19.496  -4.790  10.024  0.00  0.00     0.042 C 
ATOM     21  C25 ZIN A   1      17.331  -3.264  11.275  0.00  0.00    -0.010 C 
ATOM     22  C24 ZIN A   1      18.237  -4.185  12.096  0.00  0.00     0.009 C 
ATOM     23  C32 ZIN A   1      17.935  -1.859  11.233  0.00  0.00     0.016 C 
ATOM     24  C22 ZIN A   1      19.622  -4.246  11.449  0.00  0.00    -0.010 C 
ATOM     25  C21 ZIN A   1      20.227  -2.841  11.406  0.00  0.00     0.016 C 
BRANCH  18  26
ATOM     26  O29 ZIN A   1      18.472  -4.378   7.874  0.00  0.00    -0.390 OA
ATOM     27  H43 ZIN A   1      19.089  -5.093   7.670  0.00  0.00     0.210 HD
ENDBRANCH  18  26
ENDBRANCH  11  16
ENDBRANCH   9  11
TORSDOF 4
ENDMDL
MODEL 3
REMARK VINA RESULT:      -8.0      3.216      5.240
REMARK  4 active torsions:
REMARK  status: ('A' for Active; 'I' for Inactive)
REMARK       I    between atoms: N11_8  and  C12_9 
REMARK    1  A    between atoms: C12_9  and  C14_11 
REMARK    2  A    between atoms: C14_11  and  N16_12 
REMARK    3  A    between atoms: C14_11  and  C20_16 
REMARK    4  A    between atoms: C28_22  and  O29_23 
ROOT
ATOM      1  N1  ZIN A   1      20.581  -3.887  11.590  0.00  0.00    -0.195 NA
ATOM      2  C2  ZIN A   1      19.776  -3.663  10.820  0.00  0.00     0.085 C 
ATOM      3  C3  ZIN A   1      18.734  -3.372   9.823  0.00  0.00     0.195 C 
ATOM      4  C5  ZIN A   1      18.802  -4.382   8.650  0.00  0.00     0.047 C 
ATOM      5  C6  ZIN A   1      18.143  -3.606   7.487  0.00  0.00     0.013 A 
ATOM      6  C8  ZIN A   1      19.027  -2.701   6.629  0.00  0.00     0.032 A 
ATOM      7  C9  ZIN A   1      18.271  -2.121   7.876  0.00  0.00     0.093 A 
ATOM      8  N11 ZIN A   1      18.986  -2.069   9.168  0.00  0.00    -0.328 N 
ATOM      9  C12 ZIN A   1      19.734  -1.051   9.641  0.00  0.00     0.252 C 
ATOM     10  O13 ZIN A   1      19.976  -0.096   8.933  0.00  0.00    -0.271 OA
ENDROOT
BRANCH   9  11
ATOM     11  C14 ZIN A   1      20.269  -1.101  11.049  0.00  0.00     0.283 C 
BRANCH  11  12
ATOM     12  N16 ZIN A   1      21.668  -0.652  11.057  0.00  0.00    -0.066 N 
ATOM     13  H17 ZIN A   1      22.266  -1.407  10.756  0.00  0.00     0.275 HD
ATOM     14  H18 ZIN A   1      21.773   0.131  10.430  0.00  0.00     0.275 HD
ATOM     15  H19 ZIN A   1      21.925  -0.371  11.992  0.00  0.00     0.275 HD
ENDBRANCH  11  12
BRANCH  11  16
ATOM     16  C20 ZIN A   1      19.433  -0.186  11.945  0.00  0.00     0.000 C 
ATOM     17  C31 ZIN A   1      20.004   1.233  11.898  0.00  0.00     0.049 C 
ATOM     18  C28 ZIN A   1      19.168   2.149  12.794  0.00  0.00     0.059 C 
ATOM     19  C27 ZIN A   1      19.208   1.630  14.233  0.00  0.00     0.042 C 
ATOM     20  C30 ZIN A   1      17.721   2.165  12.298  0.00  0.00     0.042 C 
ATOM     21  C25 ZIN A   1      18.638   0.212  14.279  0.00  0.00    -0.010 C 
ATOM     22  C24 ZIN A   1      17.190   0.227  13.783  0.00  0.00     0.009 C 
ATOM     23  C32 ZIN A   1      19.474  -0.705  13.384  0.00  0.00     0.016 C 
ATOM     24  C22 ZIN A   1      17.150   0.746  12.345  0.00  0.00    -0.010 C 
ATOM     25  C21 ZIN A   1      17.986  -0.170  11.449  0.00  0.00     0.016 C 
BRANCH  18  26
ATOM     26  O29 ZIN A   1      19.702   3.474  12.751  0.00  0.00    -0.390 OA
ATOM     27  H43 ZIN A   1      19.117   4.147  13.125  0.00  0.00     0.210 HD
ENDBRANCH  18  26
ENDBRANCH  11  16
ENDBRANCH   9  11
TORSDOF 4
ENDMDL
MODEL 4
REMARK VINA RESULT:      -7.8      2.625      5.619
REMARK  4 active torsions:
REMARK  status: ('A' for Active; 'I' for Inactive)
REMARK       I    between atoms: N11_8  and  C12_9 
REMARK    1  A    between atoms: C12_9  and  C14_11 
REMARK    2  A    between atoms: C14_11  and  N16_12 
REMARK    3  A    between atoms: C14_11  and  C20_16 
REMARK    4  A    between atoms: C28_22  and  O29_23 
ROOT
ATOM      1  N1  ZIN A   1      20.425   3.890  11.814  0.00  0.00    -0.195 NA
ATOM      2  C2  ZIN A   1      19.668   3.566  12.597  0.00  0.00     0.085 C 
ATOM      3  C3  ZIN A   1      18.687   3.146  13.611  0.00  0.00     0.195 C 
ATOM      4  C5  ZIN A   1      18.779   4.047  14.867  0.00  0.00     0.047 C 
ATOM      5  C6  ZIN A   1      18.206   3.145  15.983  0.00  0.00     0.013 A 
ATOM      6  C8  ZIN A   1      19.162   2.201  16.713  0.00  0.00     0.032 A 
ATOM      7  C9  ZIN A   1      18.366   1.707  15.454  0.00  0.00     0.093 A 
ATOM      8  N11 ZIN A   1      19.017   1.799  14.131  0.00  0.00    -0.328 N 
ATOM      9  C12 ZIN A   1      19.774   0.858  13.532  0.00  0.00     0.252 C 
ATOM     10  O13 ZIN A   1      20.085  -0.147  14.137  0.00  0.00    -0.271 OA
ENDROOT
BRANCH   9  11
ATOM     11  C14 ZIN A   1      20.237   1.056  12.112  0.00  0.00     0.283 C 
BRANCH  11  12
ATOM     12  N16 ZIN A   1      21.653   0.680  12.000  0.00  0.00    -0.066 N 
ATOM     13  H17 ZIN A   1      21.757  -0.034  11.296  0.00  0.00     0.275 HD
ATOM     14  H18 ZIN A   1      22.197   1.489  11.741  0.00  0.00     0.275 HD
ATOM     15  H19 ZIN A   1      21.977   0.327  12.888  0.00  0.00     0.275 HD
ENDBRANCH  11  12
BRANCH  11  16
ATOM     16  C20 ZIN A   1      19.401   0.180  11.177  0.00  0.00     0.000 C 
ATOM     17  C31 ZIN A   1      20.009  -1.223  11.114  0.00  0.00     0.049 C 
ATOM     18  C28 ZIN A   1      19.173  -2.099  10.179  0.00  0.00     0.059 C 
ATOM     19  C27 ZIN A   1      19.162  -1.485   8.778  0.00  0.00     0.042 C 
ATOM     20  C30 ZIN A   1      17.741  -2.189  10.709  0.00  0.00     0.042 C 
ATOM     21  C25 ZIN A   1      18.554  -0.083   8.841  0.00  0.00    -0.010 C 
ATOM     22  C24 ZIN A   1      17.121  -0.171   9.371  0.00  0.00     0.009 C 
ATOM     23  C32 ZIN A   1      19.390   0.795   9.776  0.00  0.00     0.016 C 
ATOM     24  C22 ZIN A   1      17.133  -0.786  10.772  0.00  0.00    -0.010 C 
ATOM     25  C21 ZIN A   1      17.969   0.091  11.707  0.00  0.00     0.016 C 
BRANCH  18  26
ATOM     26  O29 ZIN A   1      19.742  -3.410  10.120  0.00  0.00    -0.390 OA
ATOM     27  H43 ZIN A   1      19.097  -4.123  10.210  0.00  0.00     0.210 HD
ENDBRANCH  18  26
ENDBRANCH  11  16
ENDBRANCH   9  11
TORSDOF 4
ENDMDL
MODEL 5
REMARK VINA RESULT:      -7.6      3.346      6.845
REMARK  4 active torsions:
REMARK  status: ('A' for Active; 'I' for Inactive)
REMARK       I    between atoms: N11_8  and  C12_9 
REMARK    1  A    between atoms: C12_9  and  C14_11 
REMARK    2  A    between atoms: C14_11  and  N16_12 
REMARK    3  A    between atoms: C14_11  and  C20_16 
REMARK    4  A    between atoms: C28_22  and  O29_23 
ROOT
ATOM      1  N1  ZIN A   1      20.332   2.794  11.735  0.00  0.00    -0.195 NA
ATOM      2  C2  ZIN A   1      19.469   2.256  12.242  0.00  0.00     0.085 C 
ATOM      3  C3  ZIN A   1      18.350   1.559  12.896  0.00  0.00     0.195 C 
ATOM      4  C5  ZIN A   1      18.265   1.947  14.393  0.00  0.00     0.047 C 
ATOM      5  C6  ZIN A   1      17.532   0.741  15.022  0.00  0.00     0.013 A 
ATOM      6  C8  ZIN A   1      18.368  -0.454  15.482  0.00  0.00     0.032 A 
ATOM      7  C9  ZIN A   1      17.759  -0.421  14.036  0.00  0.00     0.093 A 
ATOM      8  N11 ZIN A   1      18.594   0.099  12.934  0.00  0.00    -0.328 N 
ATOM      9  C12 ZIN A   1      19.425  -0.608  12.142  0.00  0.00     0.252 C 
ATOM     10  O13 ZIN A   1      19.639  -1.779  12.379  0.00  0.00    -0.271 OA
ENDROOT
BRANCH   9  11
ATOM     11  C14 ZIN A   1      20.088   0.056  10.963  0.00  0.00     0.283 C 
BRANCH  11  12
ATOM     12  N16 ZIN A   1      21.489  -0.378  10.881  0.00  0.00    -0.066 N 
ATOM     13  H17 ZIN A   1      21.999  -0.019  11.675  0.00  0.00     0.275 HD
ATOM     14  H18 ZIN A   1      21.530  -1.385  10.883  0.00  0.00     0.275 HD
ATOM     15  H19 ZIN A   1      21.900  -0.025  10.029  0.00  0.00     0.275 HD
ENDBRANCH  11  12
BRANCH  11  16
ATOM     16  C20 ZIN A   1      19.356  -0.337   9.678  0.00  0.00     0.000 C 
ATOM     17  C31 ZIN A   1      20.006  -1.588   9.083  0.00  0.00     0.049 C 
ATOM     18  C28 ZIN A   1      19.274  -1.980   7.798  0.00  0.00     0.059 C 
ATOM     19  C27 ZIN A   1      19.360  -0.832   6.791  0.00  0.00     0.042 C 
ATOM     20  C30 ZIN A   1      17.807  -2.272   8.117  0.00  0.00     0.042 C 
ATOM     21  C25 ZIN A   1      18.710   0.418   7.386  0.00  0.00    -0.010 C 
ATOM     22  C24 ZIN A   1      17.241   0.127   7.705  0.00  0.00     0.009 C 
ATOM     23  C32 ZIN A   1      19.441   0.812   8.671  0.00  0.00     0.016 C 
ATOM     24  C22 ZIN A   1      17.156  -1.022   8.712  0.00  0.00    -0.010 C 
ATOM     25  C21 ZIN A   1      17.888  -0.628   9.997  0.00  0.00     0.016 C 
BRANCH  18  26
ATOM     26  O29 ZIN A   1      19.882  -3.149   7.242  0.00  0.00    -0.390 OA
ATOM     27  H43 ZIN A   1      19.264  -3.872   7.073  0.00  0.00     0.210 HD
ENDBRANCH  18  26
ENDBRANCH  11  16
ENDBRANCH   9  11
TORSDOF 4
ENDMDL
MODEL 6
REMARK VINA RESULT:      -7.6      4.944      7.309
REMARK  4 active torsions:
REMARK  status: ('A' for Active; 'I' for Inactive)
REMARK       I    between atoms: N11_8  and  C12_9 
REMARK    1  A    between atoms: C12_9  and  C14_11 
REMARK    2  A    between atoms: C14_11  and  N16_12 
REMARK    3  A    between atoms: C14_11  and  C20_16 
REMARK    4  A    between atoms: C28_22  and  O29_23 
ROOT
ATOM      1  N1  ZIN A   1      17.359   0.339   9.735  0.00  0.00    -0.195 NA
ATOM      2  C2  ZIN A   1      17.273  -0.015  10.812  0.00  0.00     0.085 C 
ATOM      3  C3  ZIN A   1      17.161  -0.475  12.205  0.00  0.00     0.195 C 
ATOM      4  C5  ZIN A   1      17.361   0.705  13.188  0.00  0.00     0.047 C 
ATOM      5  C6  ZIN A   1      17.832   0.002  14.481  0.00  0.00     0.013 A 
ATOM      6  C8  ZIN A   1      19.327  -0.265  14.655  0.00  0.00     0.032 A 
ATOM      7  C9  ZIN A   1      18.395  -1.353  14.015  0.00  0.00     0.093 A 
ATOM      8  N11 ZIN A   1      18.272  -1.394  12.543  0.00  0.00    -0.328 N 
ATOM      9  C12 ZIN A   1      19.030  -2.105  11.685  0.00  0.00     0.252 C 
ATOM     10  O13 ZIN A   1      20.003  -2.706  12.089  0.00  0.00    -0.271 OA
ENDROOT
BRANCH   9  11
ATOM     11  C14 ZIN A   1      18.670  -2.150  10.222  0.00  0.00     0.283 C 
BRANCH  11  12
ATOM     12  N16 ZIN A   1      19.855  -1.830   9.415  0.00  0.00    -0.066 N 
ATOM     13  H17 ZIN A   1      19.721  -2.166   8.473  0.00  0.00     0.275 HD
ATOM     14  H18 ZIN A   1      19.991  -0.831   9.400  0.00  0.00     0.275 HD
ATOM     15  H19 ZIN A   1      20.666  -2.274   9.819  0.00  0.00     0.275 HD
ENDBRANCH  11  12
BRANCH  11  16
ATOM     16  C20 ZIN A   1      18.172  -3.552   9.863  0.00  0.00     0.000 C 
ATOM     17  C31 ZIN A   1      17.727  -3.576   8.399  0.00  0.00     0.049 C 
ATOM     18  C28 ZIN A   1      17.229  -4.977   8.040  0.00  0.00     0.059 C 
ATOM     19  C27 ZIN A   1      16.046  -5.344   8.939  0.00  0.00     0.042 C 
ATOM     20  C30 ZIN A   1      18.359  -5.987   8.246  0.00  0.00     0.042 C 
ATOM     21  C25 ZIN A   1      16.492  -5.320  10.402  0.00  0.00    -0.010 C 
ATOM     22  C24 ZIN A   1      17.622  -6.331  10.608  0.00  0.00     0.009 C 
ATOM     23  C32 ZIN A   1      16.989  -3.919  10.762  0.00  0.00     0.016 C 
ATOM     24  C22 ZIN A   1      18.805  -5.964   9.709  0.00  0.00    -0.010 C 
ATOM     25  C21 ZIN A   1      19.302  -4.562  10.069  0.00  0.00     0.016 C 
BRANCH  18  26
ATOM     26  O29 ZIN A   1      16.813  -4.999   6.673  0.00  0.00    -0.390 OA
ATOM     27  H43 ZIN A   1      16.001  -4.503   6.501  0.00  0.00     0.210 HD
ENDBRANCH  18  26
ENDBRANCH  11  16
ENDBRANCH   9  11
TORSDOF 4
ENDMDL
MODEL 7
REMARK VINA RESULT:      -7.5      6.821      8.723
REMARK  4 active torsions:
REMARK  status: ('A' for Active; 'I' for Inactive)
REMARK       I    between atoms: N11_8  and  C12_9 
REMARK    1  A    between atoms: C12_9  and  C14_11 
REMARK    2  A    between atoms: C14_11  and  N16_12 
REMARK    3  A    between atoms: C14_11  and  C20_16 
REMARK    4  A    between atoms: C28_22  and  O29_23 
ROOT
ATOM      1  N1  ZIN A   1      19.506  -2.351   4.524  0.00  0.00    -0.195 NA
ATOM      2  C2  ZIN A   1      18.993  -1.629   5.237  0.00  0.00     0.085 C 
ATOM      3  C3  ZIN A   1      18.328  -0.696   6.160  0.00  0.00     0.195 C 
ATOM      4  C5  ZIN A   1      18.896   0.736   5.993  0.00  0.00     0.047 C 
ATOM      5  C6  ZIN A   1      18.595   1.389   7.362  0.00  0.00     0.013 A 
ATOM      6  C8  ZIN A   1      19.621   1.221   8.483  0.00  0.00     0.032 A 
ATOM      7  C9  ZIN A   1      18.430   0.209   8.338  0.00  0.00     0.093 A 
ATOM      8  N11 ZIN A   1      18.653  -1.031   7.566  0.00  0.00    -0.328 N 
ATOM      9  C12 ZIN A   1      19.086  -2.216   8.041  0.00  0.00     0.252 C 
ATOM     10  O13 ZIN A   1      19.455  -2.310   9.193  0.00  0.00    -0.271 OA
ENDROOT
BRANCH   9  11
ATOM     11  C14 ZIN A   1      19.112  -3.424   7.141  0.00  0.00     0.283 C 
BRANCH  11  12
ATOM     12  N16 ZIN A   1      20.498  -3.887   6.983  0.00  0.00    -0.066 N 
ATOM     13  H17 ZIN A   1      20.582  -4.407   6.122  0.00  0.00     0.275 HD
ATOM     14  H18 ZIN A   1      21.117  -3.092   6.957  0.00  0.00     0.275 HD
ATOM     15  H19 ZIN A   1      20.744  -4.481   7.761  0.00  0.00     0.275 HD
ENDBRANCH  11  12
BRANCH  11  16
ATOM     16  C20 ZIN A   1      18.268  -4.540   7.759  0.00  0.00     0.000 C 
ATOM     17  C31 ZIN A   1      17.393  -5.177   6.677  0.00  0.00     0.049 C 
ATOM     18  C28 ZIN A   1      16.549  -6.293   7.296  0.00  0.00     0.059 C 
ATOM     19  C27 ZIN A   1      15.658  -5.709   8.395  0.00  0.00     0.042 C 
ATOM     20  C30 ZIN A   1      17.470  -7.356   7.897  0.00  0.00     0.042 C 
ATOM     21  C25 ZIN A   1      16.533  -5.073   9.476  0.00  0.00    -0.010 C 
ATOM     22  C24 ZIN A   1      17.455  -6.136  10.077  0.00  0.00     0.009 C 
ATOM     23  C32 ZIN A   1      17.377  -3.956   8.858  0.00  0.00     0.016 C 
ATOM     24  C22 ZIN A   1      18.346  -6.719   8.978  0.00  0.00    -0.010 C 
ATOM     25  C21 ZIN A   1      19.190  -5.602   8.360  0.00  0.00     0.016 C 
BRANCH  18  26
ATOM     26  O29 ZIN A   1      15.731  -6.887   6.285  0.00  0.00    -0.390 OA
ATOM     27  H43 ZIN A   1      15.715  -6.396   5.453  0.00  0.00     0.210 HD
ENDBRANCH  18  26
ENDBRANCH  11  16
ENDBRANCH   9  11
TORSDOF 4
ENDMDL
MODEL 8
REMARK VINA RESULT:      -7.5      3.589      5.742
REMARK  4 active torsions:
REMARK  status: ('A' for Active; 'I' for Inactive)
REMARK       I    between atoms: N11_8  and  C12_9 
REMARK    1  A    between atoms: C12_9  and  C14_11 
REMARK    2  A    between atoms: C14_11  and  N16_12 
REMARK    3  A    between atoms: C14_11  and  C20_16 
REMARK    4  A    between atoms: C28_22  and  O29_23 
ROOT
ATOM      1  N1  ZIN A   1      20.802  -4.108  11.527  0.00  0.00    -0.195 NA
ATOM      2  C2  ZIN A   1      19.970  -3.942  10.770  0.00  0.00     0.085 C 
ATOM      3  C3  ZIN A   1      18.893  -3.727   9.792  0.00  0.00     0.195 C 
ATOM      4  C5  ZIN A   1      18.974  -4.772   8.650  0.00  0.00     0.047 C 
ATOM      5  C6  ZIN A   1      18.256  -4.062   7.480  0.00  0.00     0.013 A 
ATOM      6  C8  ZIN A   1      19.081  -3.152   6.571  0.00  0.00     0.032 A 
ATOM      7  C9  ZIN A   1      18.333  -2.561   7.817  0.00  0.00     0.093 A 
ATOM      8  N11 ZIN A   1      19.076  -2.437   9.088  0.00  0.00    -0.328 N 
ATOM      9  C12 ZIN A   1      19.793  -1.375   9.508  0.00  0.00     0.252 C 
ATOM     10  O13 ZIN A   1      19.979  -0.435   8.765  0.00  0.00    -0.271 OA
ENDROOT
BRANCH   9  11
ATOM     11  C14 ZIN A   1      20.363  -1.357  10.903  0.00  0.00     0.283 C 
BRANCH  11  12
ATOM     12  N16 ZIN A   1      21.697  -0.741  10.878  0.00  0.00    -0.066 N 
ATOM     13  H17 ZIN A   1      21.652   0.175  11.300  0.00  0.00     0.275 HD
ATOM     14  H18 ZIN A   1      22.344  -1.317  11.395  0.00  0.00     0.275 HD
ATOM     15  H19 ZIN A   1      22.011  -0.657   9.923  0.00  0.00     0.275 HD
ENDBRANCH  11  12
BRANCH  11  16
ATOM     16  C20 ZIN A   1      19.444  -0.547  11.820  0.00  0.00     0.000 C 
ATOM     17  C31 ZIN A   1      18.010  -0.609  11.287  0.00  0.00     0.049 C 
ATOM     18  C28 ZIN A   1      17.091   0.201  12.204  0.00  0.00     0.059 C 
ATOM     19  C27 ZIN A   1      17.560   1.657  12.240  0.00  0.00     0.042 C 
ATOM     20  C30 ZIN A   1      17.135  -0.385  13.616  0.00  0.00     0.042 C 
ATOM     21  C25 ZIN A   1      18.993   1.717  12.772  0.00  0.00    -0.010 C 
ATOM     22  C24 ZIN A   1      19.038   1.132  14.185  0.00  0.00     0.009 C 
ATOM     23  C32 ZIN A   1      19.913   0.908  11.856  0.00  0.00     0.016 C 
ATOM     24  C22 ZIN A   1      18.569  -0.324  14.149  0.00  0.00    -0.010 C 
ATOM     25  C21 ZIN A   1      19.488  -1.133  13.232  0.00  0.00     0.016 C 
BRANCH  18  26
ATOM     26  O29 ZIN A   1      15.752   0.144  11.706  0.00  0.00    -0.390 OA
ATOM     27  H43 ZIN A   1      15.534  -0.685  11.259  0.00  0.00     0.210 HD
ENDBRANCH  18  26
ENDBRANCH  11  16
ENDBRANCH   9  11
TORSDOF 4
ENDMDL
MODEL 9
REMARK VINA RESULT:      -7.4      2.643      5.384
REMARK  4 active torsions:
REMARK  status: ('A' for Active; 'I' for Inactive)
REMARK       I    between atoms: N11_8  and  C12_9 
REMARK    1  A    between atoms: C12_9  and  C14_11 
REMARK    2  A    between atoms: C14_11  and  N16_12 
REMARK    3  A    between atoms: C14_11  and  C20_16 
REMARK    4  A    between atoms: C28_22  and  O29_23 
ROOT
ATOM      1  N1  ZIN A   1      20.586   4.015  11.781  0.00  0.00    -0.195 NA
ATOM      2  C2  ZIN A   1      19.824   3.769  12.588  0.00  0.00     0.085 C 
ATOM      3  C3  ZIN A   1      18.837   3.450  13.632  0.00  0.00     0.195 C 
ATOM      4  C5  ZIN A   1      18.983   4.415  14.835  0.00  0.00     0.047 C 
ATOM      5  C6  ZIN A   1      18.383   3.602  16.005  0.00  0.00     0.013 A 
ATOM      6  C8  ZIN A   1      19.305   2.658  16.777  0.00  0.00     0.032 A 
ATOM      7  C9  ZIN A   1      18.473   2.132  15.555  0.00  0.00     0.093 A 
ATOM      8  N11 ZIN A   1      19.112   2.121  14.223  0.00  0.00    -0.328 N 
ATOM      9  C12 ZIN A   1      19.821   1.115  13.671  0.00  0.00     0.252 C 
ATOM     10  O13 ZIN A   1      20.093   0.132  14.327  0.00  0.00    -0.271 OA
ENDROOT
BRANCH   9  11
ATOM     11  C14 ZIN A   1      20.275   1.214  12.237  0.00  0.00     0.283 C 
BRANCH  11  12
ATOM     12  N16 ZIN A   1      21.653   0.716  12.125  0.00  0.00    -0.066 N 
ATOM     13  H17 ZIN A   1      22.262   1.472  11.848  0.00  0.00     0.275 HD
ATOM     14  H18 ZIN A   1      21.953   0.353  13.017  0.00  0.00     0.275 HD
ATOM     15  H19 ZIN A   1      21.690  -0.017  11.433  0.00  0.00     0.275 HD
ENDBRANCH  11  12
BRANCH  11  16
ATOM     16  C20 ZIN A   1      19.355   0.371  11.352  0.00  0.00     0.000 C 
ATOM     17  C31 ZIN A   1      17.899   0.607  11.760  0.00  0.00     0.049 C 
ATOM     18  C28 ZIN A   1      16.979  -0.236  10.874  0.00  0.00     0.059 C 
ATOM     19  C27 ZIN A   1      17.323  -1.717  11.044  0.00  0.00     0.042 C 
ATOM     20  C30 ZIN A   1      17.169   0.169   9.411  0.00  0.00     0.042 C 
ATOM     21  C25 ZIN A   1      18.778  -1.951  10.636  0.00  0.00    -0.010 C 
ATOM     22  C24 ZIN A   1      18.970  -1.547   9.172  0.00  0.00     0.009 C 
ATOM     23  C32 ZIN A   1      19.699  -1.110  11.521  0.00  0.00     0.016 C 
ATOM     24  C22 ZIN A   1      18.625  -0.066   9.003  0.00  0.00    -0.010 C 
ATOM     25  C21 ZIN A   1      19.546   0.776   9.889  0.00  0.00     0.016 C 
BRANCH  18  26
ATOM     26  O29 ZIN A   1      15.618  -0.016  11.256  0.00  0.00    -0.390 OA
ATOM     27  H43 ZIN A   1      15.212   0.754  10.837  0.00  0.00     0.210 HD
ENDBRANCH  18  26
ENDBRANCH  11  16
ENDBRANCH   9  11
TORSDOF 4
ENDMDL
