MODEL 1
REMARK VINA RESULT:      -7.2      0.000      0.000
REMARK  5 active torsions:
REMARK  status: ('A' for Active; 'I' for Inactive)
REMARK       I    between atoms: N1_1  and  C2_2 
REMARK    1  A    between atoms: C2_2  and  C4_4 
REMARK    2  A    between atoms: C4_4  and  S5_5 
REMARK    3  A    between atoms: S5_5  and  C7_7 
REMARK    4  A    between atoms: C7_7  and  C8_8 
REMARK    5  A    between atoms: C7_7  and  C14_14 
ROOT
ATOM      1  C7  <0> d   1      19.177   0.905  10.299  0.00  0.00     0.145 C 
ENDROOT
BRANCH   1   2
ATOM      2  S5  <0> d   1      18.338  -0.335  11.323  0.00  0.00     0.037 S 
ATOM      3  O6  <0> d   1      19.067  -1.554  11.282  0.00  0.00    -0.257 OA
BRANCH   2   4
ATOM      4  C4  <0> d   1      18.440   0.374  12.990  0.00  0.00     0.212 C 
BRANCH   4   5
ATOM      5  C2  <0> d   1      19.652  -0.174  13.696  0.00  0.00     0.227 C 
ATOM      6  N1  <0> d   1      20.886   0.206  13.309  0.00  0.00    -0.369 N 
ATOM      7  H20 <0> d   1      21.667  -0.147  13.764  0.00  0.00     0.159 HD
ATOM      8  H21 <0> d   1      20.993   0.829  12.574  0.00  0.00     0.159 HD
ATOM      9  O3  <0> d   1      19.518  -0.958  14.612  0.00  0.00    -0.273 OA
ENDBRANCH   4   5
ENDBRANCH   2   4
ENDBRANCH   1   2
BRANCH   1  10
ATOM     10  C8  <0> d   1      18.721   0.767   8.869  0.00  0.00    -0.038 A 
ATOM     11  C13 <0> d   1      17.650  -0.050   8.561  0.00  0.00     0.009 A 
ATOM     12  C12 <0> d   1      17.229  -0.174   7.250  0.00  0.00     0.001 A 
ATOM     13  C11 <0> d   1      17.886   0.513   6.246  0.00  0.00     0.000 A 
ATOM     14  C10 <0> d   1      18.961   1.326   6.554  0.00  0.00     0.001 A 
ATOM     15  C9  <0> d   1      19.378   1.453   7.866  0.00  0.00     0.009 A 
ENDBRANCH   1  10
BRANCH   1  16
ATOM     16  C14 <0> d   1      18.840   2.284  10.804  0.00  0.00    -0.038 A 
ATOM     17  C19 <0> d   1      17.576   2.807  10.596  0.00  0.00     0.009 A 
ATOM     18  C18 <0> d   1      17.266   4.070  11.063  0.00  0.00     0.001 A 
ATOM     19  C17 <0> d   1      18.221   4.815  11.729  0.00  0.00     0.000 A 
ATOM     20  C16 <0> d   1      19.486   4.295  11.933  0.00  0.00     0.001 A 
ATOM     21  C15 <0> d   1      19.794   3.029  11.470  0.00  0.00     0.009 A 
ENDBRANCH   1  16
TORSDOF 5
ENDMDL
MODEL 2
REMARK VINA RESULT:      -7.2      3.203      6.767
REMARK  5 active torsions:
REMARK  status: ('A' for Active; 'I' for Inactive)
REMARK       I    between atoms: N1_1  and  C2_2 
REMARK    1  A    between atoms: C2_2  and  C4_4 
REMARK    2  A    between atoms: C4_4  and  S5_5 
REMARK    3  A    between atoms: S5_5  and  C7_7 
REMARK    4  A    between atoms: C7_7  and  C8_8 
REMARK    5  A    between atoms: C7_7  and  C14_14 
ROOT
ATOM      1  C7  <0> d   1      19.235  -0.961  12.677  0.00  0.00     0.145 C 
ENDROOT
BRANCH   1   2
ATOM      2  S5  <0> d   1      18.372   0.274  11.667  0.00  0.00     0.037 S 
ATOM      3  O6  <0> d   1      19.098   1.495  11.692  0.00  0.00    -0.257 OA
BRANCH   2   4
ATOM      4  C4  <0> d   1      18.445  -0.438   9.999  0.00  0.00     0.212 C 
BRANCH   4   5
ATOM      5  C2  <0> d   1      19.675   0.066   9.291  0.00  0.00     0.227 C 
ATOM      6  N1  <0> d   1      20.899  -0.283   9.734  0.00  0.00    -0.369 N 
ATOM      7  H20 <0> d   1      21.691   0.041   9.278  0.00  0.00     0.159 HD
ATOM      8  H21 <0> d   1      20.987  -0.856  10.512  0.00  0.00     0.159 HD
ATOM      9  O3  <0> d   1      19.564   0.787   8.322  0.00  0.00    -0.273 OA
ENDBRANCH   4   5
ENDBRANCH   2   4
ENDBRANCH   1   2
BRANCH   1  10
ATOM     10  C8  <0> d   1      18.774  -0.851  14.107  0.00  0.00    -0.038 A 
ATOM     11  C13 <0> d   1      17.741   0.007  14.436  0.00  0.00     0.009 A 
ATOM     12  C12 <0> d   1      17.315   0.106  15.747  0.00  0.00     0.001 A 
ATOM     13  C11 <0> d   1      17.928  -0.646  16.732  0.00  0.00     0.000 A 
ATOM     14  C10 <0> d   1      18.965  -1.500  16.404  0.00  0.00     0.001 A 
ATOM     15  C9  <0> d   1      19.387  -1.602  15.091  0.00  0.00     0.009 A 
ENDBRANCH   1  10
BRANCH   1  16
ATOM     16  C14 <0> d   1      18.928  -2.340  12.154  0.00  0.00    -0.038 A 
ATOM     17  C19 <0> d   1      19.958  -3.184  11.780  0.00  0.00     0.009 A 
ATOM     18  C18 <0> d   1      19.676  -4.451  11.305  0.00  0.00     0.001 A 
ATOM     19  C17 <0> d   1      18.364  -4.872  11.195  0.00  0.00     0.000 A 
ATOM     20  C16 <0> d   1      17.333  -4.028  11.565  0.00  0.00     0.001 A 
ATOM     21  C15 <0> d   1      17.616  -2.762  12.045  0.00  0.00     0.009 A 
ENDBRANCH   1  16
TORSDOF 5
ENDMDL
MODEL 3
REMARK VINA RESULT:      -7.1      1.659      4.447
REMARK  5 active torsions:
REMARK  status: ('A' for Active; 'I' for Inactive)
REMARK       I    between atoms: N1_1  and  C2_2 
REMARK    1  A    between atoms: C2_2  and  C4_4 
REMARK    2  A    between atoms: C4_4  and  S5_5 
REMARK    3  A    between atoms: S5_5  and  C7_7 
REMARK    4  A    between atoms: C7_7  and  C8_8 
REMARK    5  A    between atoms: C7_7  and  C14_14 
ROOT
ATOM      1  C7  <0> d   1      18.325   0.610  10.395  0.00  0.00     0.145 C 
ENDROOT
BRANCH   1   2
ATOM      2  S5  <0> d   1      19.741  -0.388  10.935  0.00  0.00     0.037 S 
ATOM      3  O6  <0> d   1      19.704  -0.534  12.348  0.00  0.00    -0.257 OA
BRANCH   2   4
ATOM      4  C4  <0> d   1      19.430  -1.995  10.153  0.00  0.00     0.212 C 
BRANCH   4   5
ATOM      5  C2  <0> d   1      19.636  -3.094  11.163  0.00  0.00     0.227 C 
ATOM      6  N1  <0> d   1      20.877  -3.384  11.599  0.00  0.00    -0.369 N 
ATOM      7  H20 <0> d   1      21.011  -4.090  12.250  0.00  0.00     0.159 HD
ATOM      8  H21 <0> d   1      21.639  -2.888  11.260  0.00  0.00     0.159 HD
ATOM      9  O3  <0> d   1      18.684  -3.718  11.584  0.00  0.00    -0.273 OA
ENDBRANCH   4   5
ENDBRANCH   2   4
ENDBRANCH   1   2
BRANCH   1  10
ATOM     10  C8  <0> d   1      18.494   2.026  10.883  0.00  0.00    -0.038 A 
ATOM     11  C13 <0> d   1      17.457   2.931  10.751  0.00  0.00     0.009 A 
ATOM     12  C12 <0> d   1      17.610   4.229  11.202  0.00  0.00     0.001 A 
ATOM     13  C11 <0> d   1      18.804   4.624  11.776  0.00  0.00     0.000 A 
ATOM     14  C10 <0> d   1      19.843   3.721  11.902  0.00  0.00     0.001 A 
ATOM     15  C9  <0> d   1      19.687   2.422  11.455  0.00  0.00     0.009 A 
ENDBRANCH   1  10
BRANCH   1  16
ATOM     16  C14 <0> d   1      18.251   0.602   8.890  0.00  0.00    -0.038 A 
ATOM     17  C19 <0> d   1      17.244  -0.098   8.251  0.00  0.00     0.009 A 
ATOM     18  C18 <0> d   1      17.173  -0.101   6.870  0.00  0.00     0.001 A 
ATOM     19  C17 <0> d   1      18.114   0.587   6.128  0.00  0.00     0.000 A 
ATOM     20  C16 <0> d   1      19.124   1.284   6.767  0.00  0.00     0.001 A 
ATOM     21  C15 <0> d   1      19.192   1.291   8.148  0.00  0.00     0.009 A 
ENDBRANCH   1  16
TORSDOF 5
ENDMDL
MODEL 4
REMARK VINA RESULT:      -6.9      3.457      5.422
REMARK  5 active torsions:
REMARK  status: ('A' for Active; 'I' for Inactive)
REMARK       I    between atoms: N1_1  and  C2_2 
REMARK    1  A    between atoms: C2_2  and  C4_4 
REMARK    2  A    between atoms: C4_4  and  S5_5 
REMARK    3  A    between atoms: S5_5  and  C7_7 
REMARK    4  A    between atoms: C7_7  and  C8_8 
REMARK    5  A    between atoms: C7_7  and  C14_14 
ROOT
ATOM      1  C7  <0> d   1      18.330  -0.613  12.763  0.00  0.00     0.145 C 
ENDROOT
BRANCH   1   2
ATOM      2  S5  <0> d   1      19.683   0.476  12.238  0.00  0.00     0.037 S 
ATOM      3  O6  <0> d   1      19.769   0.473  10.820  0.00  0.00    -0.257 OA
BRANCH   2   4
ATOM      4  C4  <0> d   1      19.137   2.110  12.808  0.00  0.00     0.212 C 
BRANCH   4   5
ATOM      5  C2  <0> d   1      19.700   3.172  11.900  0.00  0.00     0.227 C 
ATOM      6  N1  <0> d   1      21.012   3.172  11.596  0.00  0.00    -0.369 N 
ATOM      7  H20 <0> d   1      21.375   3.855  11.011  0.00  0.00     0.159 HD
ATOM      8  H21 <0> d   1      21.596   2.491  11.964  0.00  0.00     0.159 HD
ATOM      9  O3  <0> d   1      18.971   4.027  11.443  0.00  0.00    -0.273 OA
ENDBRANCH   4   5
ENDBRANCH   2   4
ENDBRANCH   1   2
BRANCH   1  10
ATOM     10  C8  <0> d   1      18.562  -1.999  12.220  0.00  0.00    -0.038 A 
ATOM     11  C13 <0> d   1      19.851  -2.470  12.052  0.00  0.00     0.009 A 
ATOM     12  C12 <0> d   1      20.064  -3.743  11.556  0.00  0.00     0.001 A 
ATOM     13  C11 <0> d   1      18.987  -4.542  11.219  0.00  0.00     0.000 A 
ATOM     14  C10 <0> d   1      17.698  -4.069  11.382  0.00  0.00     0.001 A 
ATOM     15  C9  <0> d   1      17.486  -2.798  11.882  0.00  0.00     0.009 A 
ENDBRANCH   1  10
BRANCH   1  16
ATOM     16  C14 <0> d   1      18.282  -0.665  14.268  0.00  0.00    -0.038 A 
ATOM     17  C19 <0> d   1      19.212  -1.417  14.964  0.00  0.00     0.009 A 
ATOM     18  C18 <0> d   1      19.170  -1.460  16.345  0.00  0.00     0.001 A 
ATOM     19  C17 <0> d   1      18.195  -0.761  17.031  0.00  0.00     0.000 A 
ATOM     20  C16 <0> d   1      17.263  -0.012  16.335  0.00  0.00     0.001 A 
ATOM     21  C15 <0> d   1      17.308   0.035  14.953  0.00  0.00     0.009 A 
ENDBRANCH   1  16
TORSDOF 5
ENDMDL
MODEL 5
REMARK VINA RESULT:      -6.8      2.411      4.216
REMARK  5 active torsions:
REMARK  status: ('A' for Active; 'I' for Inactive)
REMARK       I    between atoms: N1_1  and  C2_2 
REMARK    1  A    between atoms: C2_2  and  C4_4 
REMARK    2  A    between atoms: C4_4  and  S5_5 
REMARK    3  A    between atoms: S5_5  and  C7_7 
REMARK    4  A    between atoms: C7_7  and  C8_8 
REMARK    5  A    between atoms: C7_7  and  C14_14 
ROOT
ATOM      1  C7  <0> d   1      17.561  -0.292  10.722  0.00  0.00     0.145 C 
ENDROOT
BRANCH   1   2
ATOM      2  S5  <0> d   1      18.173   0.922  11.923  0.00  0.00     0.037 S 
ATOM      3  O6  <0> d   1      17.324   2.060  11.920  0.00  0.00    -0.257 OA
BRANCH   2   4
ATOM      4  C4  <0> d   1      18.009   0.049  13.505  0.00  0.00     0.212 C 
BRANCH   4   5
ATOM      5  C2  <0> d   1      19.378  -0.245  14.061  0.00  0.00     0.227 C 
ATOM      6  N1  <0> d   1      20.459   0.382  13.557  0.00  0.00    -0.369 N 
ATOM      7  H20 <0> d   1      21.340   0.193  13.915  0.00  0.00     0.159 HD
ATOM      8  H21 <0> d   1      20.356   1.021  12.835  0.00  0.00     0.159 HD
ATOM      9  O3  <0> d   1      19.507  -1.048  14.961  0.00  0.00    -0.273 OA
ENDBRANCH   4   5
ENDBRANCH   2   4
ENDBRANCH   1   2
BRANCH   1  10
ATOM     10  C8  <0> d   1      17.938   0.146   9.329  0.00  0.00    -0.038 A 
ATOM     11  C13 <0> d   1      18.898   1.125   9.149  0.00  0.00     0.009 A 
ATOM     12  C12 <0> d   1      19.247   1.524   7.872  0.00  0.00     0.001 A 
ATOM     13  C11 <0> d   1      18.629   0.951   6.776  0.00  0.00     0.000 A 
ATOM     14  C10 <0> d   1      17.665  -0.023   6.957  0.00  0.00     0.001 A 
ATOM     15  C9  <0> d   1      17.320  -0.425   8.234  0.00  0.00     0.009 A 
ENDBRANCH   1  10
BRANCH   1  16
ATOM     16  C14 <0> d   1      18.174  -1.637  11.009  0.00  0.00    -0.038 A 
ATOM     17  C19 <0> d   1      19.538  -1.819  10.868  0.00  0.00     0.009 A 
ATOM     18  C18 <0> d   1      20.102  -3.053  11.137  0.00  0.00     0.001 A 
ATOM     19  C17 <0> d   1      19.302  -4.106  11.537  0.00  0.00     0.000 A 
ATOM     20  C16 <0> d   1      17.937  -3.925  11.673  0.00  0.00     0.001 A 
ATOM     21  C15 <0> d   1      17.375  -2.690  11.409  0.00  0.00     0.009 A 
ENDBRANCH   1  16
TORSDOF 5
ENDMDL
MODEL 6
REMARK VINA RESULT:      -6.8      2.710      3.748
REMARK  5 active torsions:
REMARK  status: ('A' for Active; 'I' for Inactive)
REMARK       I    between atoms: N1_1  and  C2_2 
REMARK    1  A    between atoms: C2_2  and  C4_4 
REMARK    2  A    between atoms: C4_4  and  S5_5 
REMARK    3  A    between atoms: S5_5  and  C7_7 
REMARK    4  A    between atoms: C7_7  and  C8_8 
REMARK    5  A    between atoms: C7_7  and  C14_14 
ROOT
ATOM      1  C7  <0> d   1      17.447   1.700  11.277  0.00  0.00     0.145 C 
ENDROOT
BRANCH   1   2
ATOM      2  S5  <0> d   1      17.788   3.459  11.558  0.00  0.00     0.037 S 
ATOM      3  O6  <0> d   1      16.720   4.237  11.034  0.00  0.00    -0.257 OA
BRANCH   2   4
ATOM      4  C4  <0> d   1      17.799   3.589  13.368  0.00  0.00     0.212 C 
BRANCH   4   5
ATOM      5  C2  <0> d   1      19.025   4.345  13.809  0.00  0.00     0.227 C 
ATOM      6  N1  <0> d   1      20.030   4.566  12.940  0.00  0.00    -0.369 N 
ATOM      7  H20 <0> d   1      20.819   5.053  13.224  0.00  0.00     0.159 HD
ATOM      8  H21 <0> d   1      19.965   4.235  12.030  0.00  0.00     0.159 HD
ATOM      9  O3  <0> d   1      19.107   4.754  14.949  0.00  0.00    -0.273 OA
ENDBRANCH   4   5
ENDBRANCH   2   4
ENDBRANCH   1   2
BRANCH   1  10
ATOM     10  C8  <0> d   1      17.898   1.317   9.890  0.00  0.00    -0.038 A 
ATOM     11  C13 <0> d   1      17.431   0.153   9.308  0.00  0.00     0.009 A 
ATOM     12  C12 <0> d   1      17.842  -0.197   8.036  0.00  0.00     0.001 A 
ATOM     13  C11 <0> d   1      18.727   0.612   7.348  0.00  0.00     0.000 A 
ATOM     14  C10 <0> d   1      19.199   1.773   7.933  0.00  0.00     0.001 A 
ATOM     15  C9  <0> d   1      18.784   2.125   9.204  0.00  0.00     0.009 A 
ENDBRANCH   1  10
BRANCH   1  16
ATOM     16  C14 <0> d   1      18.192   0.875  12.294  0.00  0.00    -0.038 A 
ATOM     17  C19 <0> d   1      17.498   0.039  13.149  0.00  0.00     0.009 A 
ATOM     18  C18 <0> d   1      18.182  -0.720  14.080  0.00  0.00     0.001 A 
ATOM     19  C17 <0> d   1      19.559  -0.638  14.161  0.00  0.00     0.000 A 
ATOM     20  C16 <0> d   1      20.254   0.201  13.309  0.00  0.00     0.001 A 
ATOM     21  C15 <0> d   1      19.569   0.957  12.375  0.00  0.00     0.009 A 
ENDBRANCH   1  16
TORSDOF 5
ENDMDL
MODEL 7
REMARK VINA RESULT:      -6.8      4.071      5.964
REMARK  5 active torsions:
REMARK  status: ('A' for Active; 'I' for Inactive)
REMARK       I    between atoms: N1_1  and  C2_2 
REMARK    1  A    between atoms: C2_2  and  C4_4 
REMARK    2  A    between atoms: C4_4  and  S5_5 
REMARK    3  A    between atoms: S5_5  and  C7_7 
REMARK    4  A    between atoms: C7_7  and  C8_8 
REMARK    5  A    between atoms: C7_7  and  C14_14 
ROOT
ATOM      1  C7  <0> d   1      18.088  -1.854   8.354  0.00  0.00     0.145 C 
ENDROOT
BRANCH   1   2
ATOM      2  S5  <0> d   1      19.263  -2.287   7.041  0.00  0.00     0.037 S 
ATOM      3  O6  <0> d   1      19.721  -3.618   7.236  0.00  0.00    -0.257 OA
BRANCH   2   4
ATOM      4  C4  <0> d   1      18.245  -2.212   5.541  0.00  0.00     0.212 C 
BRANCH   4   5
ATOM      5  C2  <0> d   1      18.823  -1.196   4.591  0.00  0.00     0.227 C 
ATOM      6  N1  <0> d   1      18.023  -0.563   3.712  0.00  0.00    -0.369 N 
ATOM      7  H20 <0> d   1      18.395   0.092   3.101  0.00  0.00     0.159 HD
ATOM      8  H21 <0> d   1      17.074  -0.763   3.688  0.00  0.00     0.159 HD
ATOM      9  O3  <0> d   1      20.011  -0.949   4.618  0.00  0.00    -0.273 OA
ENDBRANCH   4   5
ENDBRANCH   2   4
ENDBRANCH   1   2
BRANCH   1  10
ATOM     10  C8  <0> d   1      18.330  -2.734   9.553  0.00  0.00    -0.038 A 
ATOM     11  C13 <0> d   1      17.446  -3.755   9.851  0.00  0.00     0.009 A 
ATOM     12  C12 <0> d   1      17.670  -4.565  10.949  0.00  0.00     0.001 A 
ATOM     13  C11 <0> d   1      18.772  -4.347  11.756  0.00  0.00     0.000 A 
ATOM     14  C10 <0> d   1      19.652  -3.322  11.461  0.00  0.00     0.001 A 
ATOM     15  C9  <0> d   1      19.430  -2.516  10.360  0.00  0.00     0.009 A 
ENDBRANCH   1  10
BRANCH   1  16
ATOM     16  C14 <0> d   1      18.278  -0.411   8.742  0.00  0.00    -0.038 A 
ATOM     17  C19 <0> d   1      19.222   0.361   8.090  0.00  0.00     0.009 A 
ATOM     18  C18 <0> d   1      19.394   1.687   8.444  0.00  0.00     0.001 A 
ATOM     19  C17 <0> d   1      18.628   2.238   9.454  0.00  0.00     0.000 A 
ATOM     20  C16 <0> d   1      17.687   1.464  10.109  0.00  0.00     0.001 A 
ATOM     21  C15 <0> d   1      17.513   0.139   9.752  0.00  0.00     0.009 A 
ENDBRANCH   1  16
TORSDOF 5
ENDMDL
MODEL 8
REMARK VINA RESULT:      -6.7      2.576      4.631
REMARK  5 active torsions:
REMARK  status: ('A' for Active; 'I' for Inactive)
REMARK       I    between atoms: N1_1  and  C2_2 
REMARK    1  A    between atoms: C2_2  and  C4_4 
REMARK    2  A    between atoms: C4_4  and  S5_5 
REMARK    3  A    between atoms: S5_5  and  C7_7 
REMARK    4  A    between atoms: C7_7  and  C8_8 
REMARK    5  A    between atoms: C7_7  and  C14_14 
ROOT
ATOM      1  C7  <0> d   1      18.946   0.496  10.279  0.00  0.00     0.145 C 
ENDROOT
BRANCH   1   2
ATOM      2  S5  <0> d   1      17.824   1.581  11.204  0.00  0.00     0.037 S 
ATOM      3  O6  <0> d   1      18.059   1.428  12.596  0.00  0.00    -0.257 OA
BRANCH   2   4
ATOM      4  C4  <0> d   1      18.340   3.241  10.683  0.00  0.00     0.212 C 
BRANCH   4   5
ATOM      5  C2  <0> d   1      19.370   3.772  11.645  0.00  0.00     0.227 C 
ATOM      6  N1  <0> d   1      20.601   3.226  11.683  0.00  0.00    -0.369 N 
ATOM      7  H20 <0> d   1      21.265   3.568  12.302  0.00  0.00     0.159 HD
ATOM      8  H21 <0> d   1      20.823   2.489  11.093  0.00  0.00     0.159 HD
ATOM      9  O3  <0> d   1      19.090   4.691  12.387  0.00  0.00    -0.273 OA
ENDBRANCH   4   5
ENDBRANCH   2   4
ENDBRANCH   1   2
BRANCH   1  10
ATOM     10  C8  <0> d   1      18.828  -0.912  10.804  0.00  0.00    -0.038 A 
ATOM     11  C13 <0> d   1      17.591  -1.416  11.160  0.00  0.00     0.009 A 
ATOM     12  C12 <0> d   1      17.483  -2.708  11.638  0.00  0.00     0.001 A 
ATOM     13  C11 <0> d   1      18.613  -3.494  11.770  0.00  0.00     0.000 A 
ATOM     14  C10 <0> d   1      19.851  -2.987  11.419  0.00  0.00     0.001 A 
ATOM     15  C9  <0> d   1      19.958  -1.696  10.936  0.00  0.00     0.009 A 
ENDBRANCH   1  10
BRANCH   1  16
ATOM     16  C14 <0> d   1      18.577   0.520   8.818  0.00  0.00    -0.038 A 
ATOM     17  C19 <0> d   1      17.471  -0.180   8.373  0.00  0.00     0.009 A 
ATOM     18  C18 <0> d   1      17.130  -0.154   7.033  0.00  0.00     0.001 A 
ATOM     19  C17 <0> d   1      17.900   0.564   6.137  0.00  0.00     0.000 A 
ATOM     20  C16 <0> d   1      19.009   1.261   6.582  0.00  0.00     0.001 A 
ATOM     21  C15 <0> d   1      19.347   1.238   7.923  0.00  0.00     0.009 A 
ENDBRANCH   1  16
TORSDOF 5
ENDMDL
MODEL 9
REMARK VINA RESULT:      -6.6      1.964      4.840
REMARK  5 active torsions:
REMARK  status: ('A' for Active; 'I' for Inactive)
REMARK       I    between atoms: N1_1  and  C2_2 
REMARK    1  A    between atoms: C2_2  and  C4_4 
REMARK    2  A    between atoms: C4_4  and  S5_5 
REMARK    3  A    between atoms: S5_5  and  C7_7 
REMARK    4  A    between atoms: C7_7  and  C8_8 
REMARK    5  A    between atoms: C7_7  and  C14_14 
ROOT
ATOM      1  C7  <0> d   1      17.864  -0.706   8.863  0.00  0.00     0.145 C 
ENDROOT
BRANCH   1   2
ATOM      2  S5  <0> d   1      19.082  -1.768   9.687  0.00  0.00     0.037 S 
ATOM      3  O6  <0> d   1      20.131  -0.967  10.211  0.00  0.00    -0.257 OA
BRANCH   2   4
ATOM      4  C4  <0> d   1      18.135  -2.494  11.053  0.00  0.00     0.212 C 
BRANCH   4   5
ATOM      5  C2  <0> d   1      18.957  -2.449  12.314  0.00  0.00     0.227 C 
ATOM      6  N1  <0> d   1      20.201  -2.966  12.326  0.00  0.00    -0.369 N 
ATOM      7  H20 <0> d   1      20.732  -2.937  13.137  0.00  0.00     0.159 HD
ATOM      8  H21 <0> d   1      20.566  -3.370  11.523  0.00  0.00     0.159 HD
ATOM      9  O3  <0> d   1      18.499  -1.948  13.320  0.00  0.00    -0.273 OA
ENDBRANCH   4   5
ENDBRANCH   2   4
ENDBRANCH   1   2
BRANCH   1  10
ATOM     10  C8  <0> d   1      18.047   0.718   9.323  0.00  0.00    -0.038 A 
ATOM     11  C13 <0> d   1      18.824   1.589   8.583  0.00  0.00     0.009 A 
ATOM     12  C12 <0> d   1      18.990   2.896   9.002  0.00  0.00     0.001 A 
ATOM     13  C11 <0> d   1      18.386   3.329  10.168  0.00  0.00     0.000 A 
ATOM     14  C10 <0> d   1      17.614   2.456  10.912  0.00  0.00     0.001 A 
ATOM     15  C9  <0> d   1      17.445   1.150  10.489  0.00  0.00     0.009 A 
ENDBRANCH   1  10
BRANCH   1  16
ATOM     16  C14 <0> d   1      18.059  -0.781   7.372  0.00  0.00    -0.038 A 
ATOM     17  C19 <0> d   1      19.143  -1.462   6.849  0.00  0.00     0.009 A 
ATOM     18  C18 <0> d   1      19.319  -1.535   5.480  0.00  0.00     0.001 A 
ATOM     19  C17 <0> d   1      18.417  -0.920   4.633  0.00  0.00     0.000 A 
ATOM     20  C16 <0> d   1      17.335  -0.235   5.155  0.00  0.00     0.001 A 
ATOM     21  C15 <0> d   1      17.156  -0.166   6.525  0.00  0.00     0.009 A 
ENDBRANCH   1  16
TORSDOF 5
ENDMDL
