MODEL 1
REMARK VINA RESULT:      -7.7      0.000      0.000
REMARK  14 active torsions:
REMARK  status: ('A' for Active; 'I' for Inactive)
REMARK    1  A    between atoms: C2_2  and  C3_3 
REMARK    2  A    between atoms: C3_3  and  C6_5 
REMARK    3  A    between atoms: C6_5  and  O8_7 
REMARK    4  A    between atoms: O8_7  and  C9_8 
REMARK    5  A    between atoms: C12_10  and  O14_11 
REMARK    6  A    between atoms: C22_18  and  C24_19 
REMARK    7  A    between atoms: C24_19  and  C25_20 
REMARK    8  A    between atoms: C25_20  and  C26_21 
REMARK    9  A    between atoms: C26_21  and  O28_22 
REMARK   10  A    between atoms: C26_21  and  C29_23 
REMARK   11  A    between atoms: C29_23  and  C30_24 
REMARK   12  A    between atoms: C30_24  and  O32_25 
REMARK   13  A    between atoms: C30_24  and  C33_26 
REMARK   14  A    between atoms: C33_26  and  C34_27 
ROOT
ATOM      1  C9  ZIN A   1      17.662   0.695  12.703  0.00  0.00     0.143 C 
ATOM      2  C11 ZIN A   1      18.645   0.134  13.729  0.00  0.00     0.069 C 
ATOM      3  C12 ZIN A   1      18.421   0.861  15.063  0.00  0.00     0.144 C 
ATOM      4  C15 ZIN A   1      18.702   2.324  14.841  0.00  0.00     0.012 C 
ATOM      5  C16 ZIN A   1      18.457   2.895  13.677  0.00  0.00    -0.053 C 
ATOM      6  C17 ZIN A   1      18.854   4.307  13.468  0.00  0.00     0.004 C 
ATOM      7  C18 ZIN A   1      18.922   4.795  12.241  0.00  0.00    -0.022 C 
ATOM      8  C19 ZIN A   1      18.604   4.010  11.006  0.00  0.00     0.009 C 
ATOM      9  C21 ZIN A   1      17.196   4.375  10.530  0.00  0.00     0.014 C 
ATOM     10  C22 ZIN A   1      18.666   2.503  11.263  0.00  0.00     0.004 C 
ATOM     11  C37 ZIN A   1      17.840   2.183  12.511  0.00  0.00     0.053 C 
ENDROOT
BRANCH  10  12
ATOM     12  C24 ZIN A   1      18.095   1.753  10.058  0.00  0.00     0.009 C 
BRANCH  12  13
ATOM     13  C25 ZIN A   1      19.075   1.845   8.888  0.00  0.00     0.032 C 
BRANCH  13  14
ATOM     14  C26 ZIN A   1      18.627   0.901   7.771  0.00  0.00     0.120 C 
BRANCH  14  15
ATOM     15  O28 ZIN A   1      18.978   1.461   6.504  0.00  0.00    -0.395 OA
ATOM     16  H60 ZIN A   1      18.237   1.537   5.889  0.00  0.00     0.210 HD
ENDBRANCH  14  15
BRANCH  14  17
ATOM     17  C29 ZIN A   1      19.320  -0.453   7.938  0.00  0.00     0.064 C 
BRANCH  17  18
ATOM     18  C30 ZIN A   1      18.455  -1.550   7.313  0.00  0.00     0.130 C 
BRANCH  18  19
ATOM     19  O32 ZIN A   1      17.398  -0.952   6.561  0.00  0.00    -0.395 OA
ATOM     20  H63 ZIN A   1      17.606  -0.070   6.222  0.00  0.00     0.210 HD
ENDBRANCH  18  19
BRANCH  18  21
ATOM     21  C33 ZIN A   1      19.317  -2.411   6.386  0.00  0.00     0.144 C 
BRANCH  21  22
ATOM     22  C34 ZIN A   1      19.178  -1.917   4.970  0.00  0.00     0.175 C 
ATOM     23  O35 ZIN A   1      18.414  -2.475   4.201  0.00  0.00    -0.648 OA
ATOM     24  O36 ZIN A   1      19.831  -0.960   4.591  0.00  0.00    -0.648 OA
ENDBRANCH  21  22
ENDBRANCH  18  21
ENDBRANCH  17  18
ENDBRANCH  14  17
ENDBRANCH  13  14
ENDBRANCH  12  13
ENDBRANCH  10  12
BRANCH   1  25
ATOM     25  O8  ZIN A   1      17.871   0.026  11.433  0.00  0.00    -0.315 OA
BRANCH  25  26
ATOM     26  C6  ZIN A   1      17.947  -1.314  11.456  0.00  0.00     0.263 C 
ATOM     27  O7  ZIN A   1      17.001  -1.967  11.828  0.00  0.00    -0.265 OA
BRANCH  26  28
ATOM     28  C3  ZIN A   1      19.214  -2.005  11.017  0.00  0.00     0.081 C 
ATOM     29  C5  ZIN A   1      20.376  -1.011  11.058  0.00  0.00     0.020 C 
BRANCH  28  30
ATOM     30  C2  ZIN A   1      19.508  -3.174  11.958  0.00  0.00     0.010 C 
ATOM     31  C1  ZIN A   1      19.552  -4.476  11.156  0.00  0.00     0.006 C 
ENDBRANCH  28  30
ENDBRANCH  26  28
ENDBRANCH  25  26
ENDBRANCH   1  25
BRANCH   3  32
ATOM     32  O14 ZIN A   1      17.067   0.685  15.487  0.00  0.00    -0.392 OA
ATOM     33  H49 ZIN A   1      16.762  -0.232  15.456  0.00  0.00     0.210 HD
ENDBRANCH   3  32
TORSDOF 14
ENDMDL
MODEL 2
REMARK VINA RESULT:      -7.6      2.302      7.152
REMARK  14 active torsions:
REMARK  status: ('A' for Active; 'I' for Inactive)
REMARK    1  A    between atoms: C2_2  and  C3_3 
REMARK    2  A    between atoms: C3_3  and  C6_5 
REMARK    3  A    between atoms: C6_5  and  O8_7 
REMARK    4  A    between atoms: O8_7  and  C9_8 
REMARK    5  A    between atoms: C12_10  and  O14_11 
REMARK    6  A    between atoms: C22_18  and  C24_19 
REMARK    7  A    between atoms: C24_19  and  C25_20 
REMARK    8  A    between atoms: C25_20  and  C26_21 
REMARK    9  A    between atoms: C26_21  and  O28_22 
REMARK   10  A    between atoms: C26_21  and  C29_23 
REMARK   11  A    between atoms: C29_23  and  C30_24 
REMARK   12  A    between atoms: C30_24  and  O32_25 
REMARK   13  A    between atoms: C30_24  and  C33_26 
REMARK   14  A    between atoms: C33_26  and  C34_27 
ROOT
ATOM      1  C9  ZIN A   1      19.344  -1.762   7.038  0.00  0.00     0.143 C 
ATOM      2  C11 ZIN A   1      18.300  -1.548   5.944  0.00  0.00     0.069 C 
ATOM      3  C12 ZIN A   1      18.682  -0.291   5.149  0.00  0.00     0.144 C 
ATOM      4  C15 ZIN A   1      18.664   0.877   6.101  0.00  0.00     0.012 C 
ATOM      5  C16 ZIN A   1      18.981   0.723   7.373  0.00  0.00    -0.053 C 
ATOM      6  C17 ZIN A   1      18.840   1.873   8.296  0.00  0.00     0.004 C 
ATOM      7  C18 ZIN A   1      18.833   1.669   9.603  0.00  0.00    -0.022 C 
ATOM      8  C19 ZIN A   1      18.975   0.323  10.243  0.00  0.00     0.009 C 
ATOM      9  C21 ZIN A   1      20.415   0.154  10.735  0.00  0.00     0.014 C 
ATOM     10  C22 ZIN A   1      18.649  -0.806   9.264  0.00  0.00     0.004 C 
ATOM     11  C37 ZIN A   1      19.432  -0.576   7.969  0.00  0.00     0.053 C 
ENDROOT
BRANCH  10  12
ATOM     12  C24 ZIN A   1      19.048  -2.149   9.878  0.00  0.00     0.009 C 
BRANCH  12  13
ATOM     13  C25 ZIN A   1      17.958  -2.612  10.846  0.00  0.00     0.032 C 
BRANCH  13  14
ATOM     14  C26 ZIN A   1      18.561  -2.810  12.238  0.00  0.00     0.120 C 
BRANCH  14  15
ATOM     15  O28 ZIN A   1      19.986  -2.846  12.138  0.00  0.00    -0.395 OA
ATOM     16  H60 ZIN A   1      20.439  -2.869  12.991  0.00  0.00     0.210 HD
ENDBRANCH  14  15
BRANCH  14  17
ATOM     17  C29 ZIN A   1      18.143  -1.651  13.145  0.00  0.00     0.064 C 
BRANCH  17  18
ATOM     18  C30 ZIN A   1      19.136  -1.526  14.302  0.00  0.00     0.130 C 
BRANCH  18  19
ATOM     19  O32 ZIN A   1      20.081  -0.495  14.010  0.00  0.00    -0.395 OA
ATOM     20  H63 ZIN A   1      20.647  -0.685  13.249  0.00  0.00     0.210 HD
ENDBRANCH  18  19
BRANCH  18  21
ATOM     21  C33 ZIN A   1      18.380  -1.176  15.587  0.00  0.00     0.144 C 
BRANCH  21  22
ATOM     22  C34 ZIN A   1      18.519   0.299  15.864  0.00  0.00     0.175 C 
ATOM     23  O35 ZIN A   1      17.875   1.105  15.216  0.00  0.00    -0.648 OA
ATOM     24  O36 ZIN A   1      19.277   0.685  16.737  0.00  0.00    -0.648 OA
ENDBRANCH  21  22
ENDBRANCH  18  21
ENDBRANCH  17  18
ENDBRANCH  14  17
ENDBRANCH  13  14
ENDBRANCH  12  13
ENDBRANCH  10  12
BRANCH   1  25
ATOM     25  O8  ZIN A   1      18.989  -2.941   7.806  0.00  0.00    -0.315 OA
BRANCH  25  26
ATOM     26  C6  ZIN A   1      19.485  -4.115   7.385  0.00  0.00     0.263 C 
ATOM     27  O7  ZIN A   1      20.420  -4.136   6.621  0.00  0.00    -0.265 OA
BRANCH  26  28
ATOM     28  C3  ZIN A   1      18.874  -5.407   7.865  0.00  0.00     0.081 C 
ATOM     29  C5  ZIN A   1      19.661  -5.926   9.070  0.00  0.00     0.020 C 
BRANCH  28  30
ATOM     30  C2  ZIN A   1      17.420  -5.162   8.272  0.00  0.00     0.010 C 
ATOM     31  C1  ZIN A   1      17.082  -6.016   9.497  0.00  0.00     0.006 C 
ENDBRANCH  28  30
ENDBRANCH  26  28
ENDBRANCH  25  26
ENDBRANCH   1  25
BRANCH   3  32
ATOM     32  O14 ZIN A   1      19.992  -0.448   4.598  0.00  0.00    -0.392 OA
ATOM     33  H49 ZIN A   1      20.694  -0.058   5.138  0.00  0.00     0.210 HD
ENDBRANCH   3  32
TORSDOF 14
ENDMDL
MODEL 3
REMARK VINA RESULT:      -7.6      2.122      4.956
REMARK  14 active torsions:
REMARK  status: ('A' for Active; 'I' for Inactive)
REMARK    1  A    between atoms: C2_2  and  C3_3 
REMARK    2  A    between atoms: C3_3  and  C6_5 
REMARK    3  A    between atoms: C6_5  and  O8_7 
REMARK    4  A    between atoms: O8_7  and  C9_8 
REMARK    5  A    between atoms: C12_10  and  O14_11 
REMARK    6  A    between atoms: C22_18  and  C24_19 
REMARK    7  A    between atoms: C24_19  and  C25_20 
REMARK    8  A    between atoms: C25_20  and  C26_21 
REMARK    9  A    between atoms: C26_21  and  O28_22 
REMARK   10  A    between atoms: C26_21  and  C29_23 
REMARK   11  A    between atoms: C29_23  and  C30_24 
REMARK   12  A    between atoms: C30_24  and  O32_25 
REMARK   13  A    between atoms: C30_24  and  C33_26 
REMARK   14  A    between atoms: C33_26  and  C34_27 
ROOT
ATOM      1  C9  ZIN A   1      19.187   2.755  14.652  0.00  0.00     0.143 C 
ATOM      2  C11 ZIN A   1      18.474   3.765  15.549  0.00  0.00     0.069 C 
ATOM      3  C12 ZIN A   1      19.195   3.803  16.904  0.00  0.00     0.144 C 
ATOM      4  C15 ZIN A   1      19.100   2.429  17.514  0.00  0.00     0.012 C 
ATOM      5  C16 ZIN A   1      19.079   1.349  16.757  0.00  0.00    -0.053 C 
ATOM      6  C17 ZIN A   1      18.870   0.026  17.391  0.00  0.00     0.004 C 
ATOM      7  C18 ZIN A   1      18.522  -1.011  16.648  0.00  0.00    -0.022 C 
ATOM      8  C19 ZIN A   1      18.331  -0.954  15.164  0.00  0.00     0.009 C 
ATOM      9  C21 ZIN A   1      19.575  -1.523  14.479  0.00  0.00     0.014 C 
ATOM     10  C22 ZIN A   1      18.107   0.478  14.677  0.00  0.00     0.004 C 
ATOM     11  C37 ZIN A   1      19.201   1.374  15.263  0.00  0.00     0.053 C 
ENDROOT
BRANCH  10  12
ATOM     12  C24 ZIN A   1      18.169   0.517  13.150  0.00  0.00     0.009 C 
BRANCH  12  13
ATOM     13  C25 ZIN A   1      16.941  -0.188  12.570  0.00  0.00     0.032 C 
BRANCH  13  14
ATOM     14  C26 ZIN A   1      17.277  -0.741  11.184  0.00  0.00     0.120 C 
BRANCH  14  15
ATOM     15  O28 ZIN A   1      16.679   0.086  10.184  0.00  0.00    -0.395 OA
ATOM     16  H60 ZIN A   1      16.224  -0.405   9.487  0.00  0.00     0.210 HD
ENDBRANCH  14  15
BRANCH  14  17
ATOM     17  C29 ZIN A   1      18.795  -0.755  10.993  0.00  0.00     0.064 C 
BRANCH  17  18
ATOM     18  C30 ZIN A   1      19.140  -1.504   9.705  0.00  0.00     0.130 C 
BRANCH  18  19
ATOM     19  O32 ZIN A   1      17.960  -2.114   9.178  0.00  0.00    -0.395 OA
ATOM     20  H63 ZIN A   1      17.727  -1.815   8.288  0.00  0.00     0.210 HD
ENDBRANCH  18  19
BRANCH  18  21
ATOM     21  C33 ZIN A   1      19.708  -0.520   8.679  0.00  0.00     0.144 C 
BRANCH  21  22
ATOM     22  C34 ZIN A   1      18.802  -0.472   7.476  0.00  0.00     0.175 C 
ATOM     23  O35 ZIN A   1      19.039  -1.172   6.506  0.00  0.00    -0.648 OA
ATOM     24  O36 ZIN A   1      17.833   0.268   7.471  0.00  0.00    -0.648 OA
ENDBRANCH  21  22
ENDBRANCH  18  21
ENDBRANCH  17  18
ENDBRANCH  14  17
ENDBRANCH  13  14
ENDBRANCH  12  13
ENDBRANCH  10  12
BRANCH   1  25
ATOM     25  O8  ZIN A   1      18.508   2.699  13.371  0.00  0.00    -0.315 OA
BRANCH  25  26
ATOM     26  C6  ZIN A   1      18.520   3.815  12.625  0.00  0.00     0.263 C 
ATOM     27  O7  ZIN A   1      19.469   4.561  12.670  0.00  0.00    -0.265 OA
BRANCH  26  28
ATOM     28  C3  ZIN A   1      17.349   4.137  11.733  0.00  0.00     0.081 C 
ATOM     29  C5  ZIN A   1      16.688   5.433  12.206  0.00  0.00     0.020 C 
BRANCH  28  30
ATOM     30  C2  ZIN A   1      17.838   4.310  10.294  0.00  0.00     0.010 C 
ATOM     31  C1  ZIN A   1      18.479   3.006   9.813  0.00  0.00     0.006 C 
ENDBRANCH  28  30
ENDBRANCH  26  28
ENDBRANCH  25  26
ENDBRANCH   1  25
BRANCH   3  32
ATOM     32  O14 ZIN A   1      20.567   4.155  16.711  0.00  0.00    -0.392 OA
ATOM     33  H49 ZIN A   1      21.117   4.038  17.498  0.00  0.00     0.210 HD
ENDBRANCH   3  32
TORSDOF 14
ENDMDL
MODEL 4
REMARK VINA RESULT:      -7.6      2.955      5.506
REMARK  14 active torsions:
REMARK  status: ('A' for Active; 'I' for Inactive)
REMARK    1  A    between atoms: C2_2  and  C3_3 
REMARK    2  A    between atoms: C3_3  and  C6_5 
REMARK    3  A    between atoms: C6_5  and  O8_7 
REMARK    4  A    between atoms: O8_7  and  C9_8 
REMARK    5  A    between atoms: C12_10  and  O14_11 
REMARK    6  A    between atoms: C22_18  and  C24_19 
REMARK    7  A    between atoms: C24_19  and  C25_20 
REMARK    8  A    between atoms: C25_20  and  C26_21 
REMARK    9  A    between atoms: C26_21  and  O28_22 
REMARK   10  A    between atoms: C26_21  and  C29_23 
REMARK   11  A    between atoms: C29_23  and  C30_24 
REMARK   12  A    between atoms: C30_24  and  O32_25 
REMARK   13  A    between atoms: C30_24  and  C33_26 
REMARK   14  A    between atoms: C33_26  and  C34_27 
ROOT
ATOM      1  C9  ZIN A   1      19.202   2.723  14.707  0.00  0.00     0.143 C 
ATOM      2  C11 ZIN A   1      18.391   3.731  15.519  0.00  0.00     0.069 C 
ATOM      3  C12 ZIN A   1      18.961   3.775  16.944  0.00  0.00     0.144 C 
ATOM      4  C15 ZIN A   1      18.806   2.401  17.542  0.00  0.00     0.012 C 
ATOM      5  C16 ZIN A   1      18.871   1.319  16.789  0.00  0.00    -0.053 C 
ATOM      6  C17 ZIN A   1      18.600  -0.003  17.399  0.00  0.00     0.004 C 
ATOM      7  C18 ZIN A   1      18.339  -1.043  16.625  0.00  0.00    -0.022 C 
ATOM      8  C19 ZIN A   1      18.310  -0.989  15.129  0.00  0.00     0.009 C 
ATOM      9  C21 ZIN A   1      19.625  -1.553  14.584  0.00  0.00     0.014 C 
ATOM     10  C22 ZIN A   1      18.135   0.442  14.618  0.00  0.00     0.004 C 
ATOM     11  C37 ZIN A   1      19.156   1.343  15.318  0.00  0.00     0.053 C 
ENDROOT
BRANCH  10  12
ATOM     12  C24 ZIN A   1      18.363   0.479  13.106  0.00  0.00     0.009 C 
BRANCH  12  13
ATOM     13  C25 ZIN A   1      17.154  -0.129  12.392  0.00  0.00     0.032 C 
BRANCH  13  14
ATOM     14  C26 ZIN A   1      17.629  -1.187  11.395  0.00  0.00     0.120 C 
BRANCH  14  15
ATOM     15  O28 ZIN A   1      19.034  -1.040  11.178  0.00  0.00    -0.395 OA
ATOM     16  H60 ZIN A   1      19.542  -0.884  11.985  0.00  0.00     0.210 HD
ENDBRANCH  14  15
BRANCH  14  17
ATOM     17  C29 ZIN A   1      17.343  -2.582  11.956  0.00  0.00     0.064 C 
BRANCH  17  18
ATOM     18  C30 ZIN A   1      17.409  -3.610  10.825  0.00  0.00     0.130 C 
BRANCH  18  19
ATOM     19  O32 ZIN A   1      17.958  -2.998   9.656  0.00  0.00    -0.395 OA
ATOM     20  H63 ZIN A   1      18.168  -2.060   9.765  0.00  0.00     0.210 HD
ENDBRANCH  18  19
BRANCH  18  21
ATOM     21  C33 ZIN A   1      18.295  -4.782  11.252  0.00  0.00     0.144 C 
BRANCH  21  22
ATOM     22  C34 ZIN A   1      19.704  -4.547  10.770  0.00  0.00     0.175 C 
ATOM     23  O35 ZIN A   1      20.444  -3.803  11.389  0.00  0.00    -0.648 OA
ATOM     24  O36 ZIN A   1      20.102  -5.101   9.760  0.00  0.00    -0.648 OA
ENDBRANCH  21  22
ENDBRANCH  18  21
ENDBRANCH  17  18
ENDBRANCH  14  17
ENDBRANCH  13  14
ENDBRANCH  12  13
ENDBRANCH  10  12
BRANCH   1  25
ATOM     25  O8  ZIN A   1      18.667   2.663  13.359  0.00  0.00    -0.315 OA
BRANCH  25  26
ATOM     26  C6  ZIN A   1      18.621   3.813  12.669  0.00  0.00     0.263 C 
ATOM     27  O7  ZIN A   1      19.556   4.577  12.706  0.00  0.00    -0.265 OA
BRANCH  26  28
ATOM     28  C3  ZIN A   1      17.401   4.152  11.850  0.00  0.00     0.081 C 
ATOM     29  C5  ZIN A   1      16.826   5.489  12.321  0.00  0.00     0.020 C 
BRANCH  28  30
ATOM     30  C2  ZIN A   1      17.792   4.256  10.375  0.00  0.00     0.010 C 
ATOM     31  C1  ZIN A   1      18.311   2.901   9.888  0.00  0.00     0.006 C 
ENDBRANCH  28  30
ENDBRANCH  26  28
ENDBRANCH  25  26
ENDBRANCH   1  25
BRANCH   3  32
ATOM     32  O14 ZIN A   1      20.345   4.131  16.901  0.00  0.00    -0.392 OA
ATOM     33  H49 ZIN A   1      20.892   3.517  16.392  0.00  0.00     0.210 HD
ENDBRANCH   3  32
TORSDOF 14
ENDMDL
MODEL 5
REMARK VINA RESULT:      -7.5      1.799      8.174
REMARK  14 active torsions:
REMARK  status: ('A' for Active; 'I' for Inactive)
REMARK    1  A    between atoms: C2_2  and  C3_3 
REMARK    2  A    between atoms: C3_3  and  C6_5 
REMARK    3  A    between atoms: C6_5  and  O8_7 
REMARK    4  A    between atoms: O8_7  and  C9_8 
REMARK    5  A    between atoms: C12_10  and  O14_11 
REMARK    6  A    between atoms: C22_18  and  C24_19 
REMARK    7  A    between atoms: C24_19  and  C25_20 
REMARK    8  A    between atoms: C25_20  and  C26_21 
REMARK    9  A    between atoms: C26_21  and  O28_22 
REMARK   10  A    between atoms: C26_21  and  C29_23 
REMARK   11  A    between atoms: C29_23  and  C30_24 
REMARK   12  A    between atoms: C30_24  and  O32_25 
REMARK   13  A    between atoms: C30_24  and  C33_26 
REMARK   14  A    between atoms: C33_26  and  C34_27 
ROOT
ATOM      1  C9  ZIN A   1      18.089  -1.042   9.876  0.00  0.00     0.143 C 
ATOM      2  C11 ZIN A   1      19.110  -0.492   8.883  0.00  0.00     0.069 C 
ATOM      3  C12 ZIN A   1      18.937  -1.234   7.550  0.00  0.00     0.144 C 
ATOM      4  C15 ZIN A   1      19.209  -2.695   7.799  0.00  0.00     0.012 C 
ATOM      5  C16 ZIN A   1      18.920  -3.252   8.960  0.00  0.00    -0.053 C 
ATOM      6  C17 ZIN A   1      19.309  -4.662   9.200  0.00  0.00     0.004 C 
ATOM      7  C18 ZIN A   1      19.330  -5.136  10.435  0.00  0.00    -0.022 C 
ATOM      8  C19 ZIN A   1      18.965  -4.336  11.647  0.00  0.00     0.009 C 
ATOM      9  C21 ZIN A   1      17.540  -4.696  12.073  0.00  0.00     0.014 C 
ATOM     10  C22 ZIN A   1      19.037  -2.832  11.375  0.00  0.00     0.004 C 
ATOM     11  C37 ZIN A   1      18.259  -2.527  10.093  0.00  0.00     0.053 C 
ENDROOT
BRANCH  10  12
ATOM     12  C24 ZIN A   1      18.419  -2.069  12.548  0.00  0.00     0.009 C 
BRANCH  12  13
ATOM     13  C25 ZIN A   1      19.483  -1.836  13.623  0.00  0.00     0.032 C 
BRANCH  13  14
ATOM     14  C26 ZIN A   1      18.879  -1.030  14.774  0.00  0.00     0.120 C 
BRANCH  14  15
ATOM     15  O28 ZIN A   1      19.271  -1.612  16.019  0.00  0.00    -0.395 OA
ATOM     16  H60 ZIN A   1      18.531  -1.920  16.559  0.00  0.00     0.210 HD
ENDBRANCH  14  15
BRANCH  14  17
ATOM     17  C29 ZIN A   1      19.382   0.413  14.706  0.00  0.00     0.064 C 
BRANCH  17  18
ATOM     18  C30 ZIN A   1      18.421   1.325  15.470  0.00  0.00     0.130 C 
BRANCH  18  19
ATOM     19  O32 ZIN A   1      17.432   0.531  16.128  0.00  0.00    -0.395 OA
ATOM     20  H63 ZIN A   1      16.624   0.400  15.611  0.00  0.00     0.210 HD
ENDBRANCH  18  19
BRANCH  18  21
ATOM     21  C33 ZIN A   1      19.202   2.132  16.509  0.00  0.00     0.144 C 
BRANCH  21  22
ATOM     22  C34 ZIN A   1      19.040   1.494  17.865  0.00  0.00     0.175 C 
ATOM     23  O35 ZIN A   1      18.117   1.824  18.588  0.00  0.00    -0.648 OA
ATOM     24  O36 ZIN A   1      19.835   0.648  18.238  0.00  0.00    -0.648 OA
ENDBRANCH  21  22
ENDBRANCH  18  21
ENDBRANCH  17  18
ENDBRANCH  14  17
ENDBRANCH  13  14
ENDBRANCH  12  13
ENDBRANCH  10  12
BRANCH   1  25
ATOM     25  O8  ZIN A   1      18.249  -0.358  11.146  0.00  0.00    -0.315 OA
BRANCH  25  26
ATOM     26  C6  ZIN A   1      17.442   0.689  11.380  0.00  0.00     0.263 C 
ATOM     27  O7  ZIN A   1      16.242   0.544  11.359  0.00  0.00    -0.265 OA
BRANCH  26  28
ATOM     28  C3  ZIN A   1      18.032   2.046  11.668  0.00  0.00     0.081 C 
ATOM     29  C5  ZIN A   1      19.558   1.957  11.628  0.00  0.00     0.020 C 
BRANCH  28  30
ATOM     30  C2  ZIN A   1      17.551   3.044  10.614  0.00  0.00     0.010 C 
ATOM     31  C1  ZIN A   1      18.560   3.100   9.465  0.00  0.00     0.006 C 
ENDBRANCH  28  30
ENDBRANCH  26  28
ENDBRANCH  25  26
ENDBRANCH   1  25
BRANCH   3  32
ATOM     32  O14 ZIN A   1      17.600  -1.064   7.073  0.00  0.00    -0.392 OA
ATOM     33  H49 ZIN A   1      16.921  -1.225   7.742  0.00  0.00     0.210 HD
ENDBRANCH   3  32
TORSDOF 14
ENDMDL
MODEL 6
REMARK VINA RESULT:      -7.5      2.490      4.187
REMARK  14 active torsions:
REMARK  status: ('A' for Active; 'I' for Inactive)
REMARK    1  A    between atoms: C2_2  and  C3_3 
REMARK    2  A    between atoms: C3_3  and  C6_5 
REMARK    3  A    between atoms: C6_5  and  O8_7 
REMARK    4  A    between atoms: O8_7  and  C9_8 
REMARK    5  A    between atoms: C12_10  and  O14_11 
REMARK    6  A    between atoms: C22_18  and  C24_19 
REMARK    7  A    between atoms: C24_19  and  C25_20 
REMARK    8  A    between atoms: C25_20  and  C26_21 
REMARK    9  A    between atoms: C26_21  and  O28_22 
REMARK   10  A    between atoms: C26_21  and  C29_23 
REMARK   11  A    between atoms: C29_23  and  C30_24 
REMARK   12  A    between atoms: C30_24  and  O32_25 
REMARK   13  A    between atoms: C30_24  and  C33_26 
REMARK   14  A    between atoms: C33_26  and  C34_27 
ROOT
ATOM      1  C9  ZIN A   1      18.328   2.539  15.606  0.00  0.00     0.143 C 
ATOM      2  C11 ZIN A   1      19.356   2.346  16.720  0.00  0.00     0.069 C 
ATOM      3  C12 ZIN A   1      18.733   2.819  18.041  0.00  0.00     0.144 C 
ATOM      4  C15 ZIN A   1      18.412   4.284  17.897  0.00  0.00     0.012 C 
ATOM      5  C16 ZIN A   1      18.063   4.794  16.731  0.00  0.00    -0.053 C 
ATOM      6  C17 ZIN A   1      17.867   6.257  16.612  0.00  0.00     0.004 C 
ATOM      7  C18 ZIN A   1      17.843   6.821  15.416  0.00  0.00    -0.022 C 
ATOM      8  C19 ZIN A   1      17.988   6.069  14.129  0.00  0.00     0.009 C 
ATOM      9  C21 ZIN A   1      16.604   5.871  13.508  0.00  0.00     0.014 C 
ATOM     10  C22 ZIN A   1      18.635   4.699  14.346  0.00  0.00     0.004 C 
ATOM     11  C37 ZIN A   1      17.901   3.982  15.481  0.00  0.00     0.053 C 
ENDROOT
BRANCH  10  12
ATOM     12  C24 ZIN A   1      18.533   3.875  13.061  0.00  0.00     0.009 C 
BRANCH  12  13
ATOM     13  C25 ZIN A   1      19.708   4.214  12.142  0.00  0.00     0.032 C 
BRANCH  13  14
ATOM     14  C26 ZIN A   1      19.890   3.097  11.113  0.00  0.00     0.120 C 
BRANCH  14  15
ATOM     15  O28 ZIN A   1      20.694   2.057  11.676  0.00  0.00    -0.395 OA
ATOM     16  H60 ZIN A   1      20.257   1.560  12.381  0.00  0.00     0.210 HD
ENDBRANCH  14  15
BRANCH  14  17
ATOM     17  C29 ZIN A   1      18.522   2.530  10.727  0.00  0.00     0.064 C 
BRANCH  17  18
ATOM     18  C30 ZIN A   1      18.628   1.816   9.378  0.00  0.00     0.130 C 
BRANCH  18  19
ATOM     19  O32 ZIN A   1      19.973   1.895   8.902  0.00  0.00    -0.395 OA
ATOM     20  H63 ZIN A   1      20.488   1.087   9.042  0.00  0.00     0.210 HD
ENDBRANCH  18  19
BRANCH  18  21
ATOM     21  C33 ZIN A   1      18.232   0.347   9.547  0.00  0.00     0.144 C 
BRANCH  21  22
ATOM     22  C34 ZIN A   1      19.456  -0.521   9.413  0.00  0.00     0.175 C 
ATOM     23  O35 ZIN A   1      20.218  -0.651  10.355  0.00  0.00    -0.648 OA
ATOM     24  O36 ZIN A   1      19.685  -1.093   8.360  0.00  0.00    -0.648 OA
ENDBRANCH  21  22
ENDBRANCH  18  21
ENDBRANCH  17  18
ENDBRANCH  14  17
ENDBRANCH  13  14
ENDBRANCH  12  13
ENDBRANCH  10  12
BRANCH   1  25
ATOM     25  O8  ZIN A   1      18.908   2.107  14.348  0.00  0.00    -0.315 OA
BRANCH  25  26
ATOM     26  C6  ZIN A   1      19.113   0.789  14.192  0.00  0.00     0.263 C 
ATOM     27  O7  ZIN A   1      20.214   0.378  13.911  0.00  0.00    -0.265 OA
BRANCH  26  28
ATOM     28  C3  ZIN A   1      17.969  -0.177  14.367  0.00  0.00     0.081 C 
ATOM     29  C5  ZIN A   1      17.648  -0.835  13.024  0.00  0.00     0.020 C 
BRANCH  28  30
ATOM     30  C2  ZIN A   1      18.361  -1.252  15.381  0.00  0.00     0.010 C 
ATOM     31  C1  ZIN A   1      17.542  -1.070  16.661  0.00  0.00     0.006 C 
ENDBRANCH  28  30
ENDBRANCH  26  28
ENDBRANCH  25  26
ENDBRANCH   1  25
BRANCH   3  32
ATOM     32  O14 ZIN A   1      17.536   2.083  18.302  0.00  0.00    -0.392 OA
ATOM     33  H49 ZIN A   1      17.672   1.129  18.386  0.00  0.00     0.210 HD
ENDBRANCH   3  32
TORSDOF 14
ENDMDL
MODEL 7
REMARK VINA RESULT:      -7.5      2.939      5.073
REMARK  14 active torsions:
REMARK  status: ('A' for Active; 'I' for Inactive)
REMARK    1  A    between atoms: C2_2  and  C3_3 
REMARK    2  A    between atoms: C3_3  and  C6_5 
REMARK    3  A    between atoms: C6_5  and  O8_7 
REMARK    4  A    between atoms: O8_7  and  C9_8 
REMARK    5  A    between atoms: C12_10  and  O14_11 
REMARK    6  A    between atoms: C22_18  and  C24_19 
REMARK    7  A    between atoms: C24_19  and  C25_20 
REMARK    8  A    between atoms: C25_20  and  C26_21 
REMARK    9  A    between atoms: C26_21  and  O28_22 
REMARK   10  A    between atoms: C26_21  and  C29_23 
REMARK   11  A    between atoms: C29_23  and  C30_24 
REMARK   12  A    between atoms: C30_24  and  O32_25 
REMARK   13  A    between atoms: C30_24  and  C33_26 
REMARK   14  A    between atoms: C33_26  and  C34_27 
ROOT
ATOM      1  C9  ZIN A   1      17.834   0.031   9.951  0.00  0.00     0.143 C 
ATOM      2  C11 ZIN A   1      18.810   0.811  10.830  0.00  0.00     0.069 C 
ATOM      3  C12 ZIN A   1      18.624   2.309  10.548  0.00  0.00     0.144 C 
ATOM      4  C15 ZIN A   1      18.949   2.546   9.097  0.00  0.00     0.012 C 
ATOM      5  C16 ZIN A   1      18.710   1.623   8.185  0.00  0.00    -0.053 C 
ATOM      6  C17 ZIN A   1      19.150   1.854   6.790  0.00  0.00     0.004 C 
ATOM      7  C18 ZIN A   1      19.220   0.838   5.946  0.00  0.00    -0.022 C 
ATOM      8  C19 ZIN A   1      18.864  -0.573   6.300  0.00  0.00     0.009 C 
ATOM      9  C21 ZIN A   1      17.463  -0.882   5.766  0.00  0.00     0.014 C 
ATOM     10  C22 ZIN A   1      18.880  -0.798   7.813  0.00  0.00     0.004 C 
ATOM     11  C37 ZIN A   1      18.058   0.307   8.482  0.00  0.00     0.053 C 
ENDROOT
BRANCH  10  12
ATOM     12  C24 ZIN A   1      18.271  -2.163   8.135  0.00  0.00     0.009 C 
BRANCH  12  13
ATOM     13  C25 ZIN A   1      19.201  -3.269   7.632  0.00  0.00     0.032 C 
BRANCH  13  14
ATOM     14  C26 ZIN A   1      18.368  -4.415   7.057  0.00  0.00     0.120 C 
BRANCH  14  15
ATOM     15  O28 ZIN A   1      19.200  -5.248   6.246  0.00  0.00    -0.395 OA
ATOM     16  H60 ZIN A   1      19.892  -5.710   6.737  0.00  0.00     0.210 HD
ENDBRANCH  14  15
BRANCH  14  17
ATOM     17  C29 ZIN A   1      17.780  -5.243   8.201  0.00  0.00     0.064 C 
BRANCH  17  18
ATOM     18  C30 ZIN A   1      16.461  -5.874   7.749  0.00  0.00     0.130 C 
BRANCH  18  19
ATOM     19  O32 ZIN A   1      16.222  -5.547   6.379  0.00  0.00    -0.395 OA
ATOM     20  H63 ZIN A   1      15.309  -5.692   6.094  0.00  0.00     0.210 HD
ENDBRANCH  18  19
BRANCH  18  21
ATOM     21  C33 ZIN A   1      16.544  -7.394   7.905  0.00  0.00     0.144 C 
BRANCH  21  22
ATOM     22  C34 ZIN A   1      16.860  -8.018   6.570  0.00  0.00     0.175 C 
ATOM     23  O35 ZIN A   1      15.974  -8.541   5.916  0.00  0.00    -0.648 OA
ATOM     24  O36 ZIN A   1      18.002  -8.002   6.144  0.00  0.00    -0.648 OA
ENDBRANCH  21  22
ENDBRANCH  18  21
ENDBRANCH  17  18
ENDBRANCH  14  17
ENDBRANCH  13  14
ENDBRANCH  12  13
ENDBRANCH  10  12
BRANCH   1  25
ATOM     25  O8  ZIN A   1      18.007  -1.389  10.197  0.00  0.00    -0.315 OA
BRANCH  25  26
ATOM     26  C6  ZIN A   1      17.606  -1.853  11.391  0.00  0.00     0.263 C 
ATOM     27  O7  ZIN A   1      16.664  -1.345  11.952  0.00  0.00    -0.265 OA
BRANCH  26  28
ATOM     28  C3  ZIN A   1      18.332  -3.008  12.033  0.00  0.00     0.081 C 
ATOM     29  C5  ZIN A   1      17.578  -4.308  11.745  0.00  0.00     0.020 C 
BRANCH  28  30
ATOM     30  C2  ZIN A   1      19.747  -3.102  11.460  0.00  0.00     0.010 C 
ATOM     31  C1  ZIN A   1      20.035  -4.546  11.044  0.00  0.00     0.006 C 
ENDBRANCH  28  30
ENDBRANCH  26  28
ENDBRANCH  25  26
ENDBRANCH   1  25
BRANCH   3  32
ATOM     32  O14 ZIN A   1      17.270   2.685  10.810  0.00  0.00    -0.392 OA
ATOM     33  H49 ZIN A   1      16.615   2.105  10.397  0.00  0.00     0.210 HD
ENDBRANCH   3  32
TORSDOF 14
ENDMDL
MODEL 8
REMARK VINA RESULT:      -7.3      3.320      4.926
REMARK  14 active torsions:
REMARK  status: ('A' for Active; 'I' for Inactive)
REMARK    1  A    between atoms: C2_2  and  C3_3 
REMARK    2  A    between atoms: C3_3  and  C6_5 
REMARK    3  A    between atoms: C6_5  and  O8_7 
REMARK    4  A    between atoms: O8_7  and  C9_8 
REMARK    5  A    between atoms: C12_10  and  O14_11 
REMARK    6  A    between atoms: C22_18  and  C24_19 
REMARK    7  A    between atoms: C24_19  and  C25_20 
REMARK    8  A    between atoms: C25_20  and  C26_21 
REMARK    9  A    between atoms: C26_21  and  O28_22 
REMARK   10  A    between atoms: C26_21  and  C29_23 
REMARK   11  A    between atoms: C29_23  and  C30_24 
REMARK   12  A    between atoms: C30_24  and  O32_25 
REMARK   13  A    between atoms: C30_24  and  C33_26 
REMARK   14  A    between atoms: C33_26  and  C34_27 
ROOT
ATOM      1  C9  ZIN A   1      18.089   3.333  14.577  0.00  0.00     0.143 C 
ATOM      2  C11 ZIN A   1      18.566   4.664  15.155  0.00  0.00     0.069 C 
ATOM      3  C12 ZIN A   1      17.463   5.710  14.935  0.00  0.00     0.144 C 
ATOM      4  C15 ZIN A   1      17.253   5.848  13.450  0.00  0.00     0.012 C 
ATOM      5  C16 ZIN A   1      17.422   4.821  12.639  0.00  0.00    -0.053 C 
ATOM      6  C17 ZIN A   1      17.316   5.030  11.176  0.00  0.00     0.004 C 
ATOM      7  C18 ZIN A   1      17.793   4.119  10.346  0.00  0.00    -0.022 C 
ATOM      8  C19 ZIN A   1      18.442   2.842  10.784  0.00  0.00     0.009 C 
ATOM      9  C21 ZIN A   1      17.432   1.699  10.656  0.00  0.00     0.014 C 
ATOM     10  C22 ZIN A   1      18.921   2.920  12.235  0.00  0.00     0.004 C 
ATOM     11  C37 ZIN A   1      17.774   3.440  13.104  0.00  0.00     0.053 C 
ENDROOT
BRANCH  10  12
ATOM     12  C24 ZIN A   1      19.342   1.529  12.712  0.00  0.00     0.009 C 
BRANCH  12  13
ATOM     13  C25 ZIN A   1      20.656   1.133  12.036  0.00  0.00     0.032 C 
BRANCH  13  14
ATOM     14  C26 ZIN A   1      20.471  -0.193  11.297  0.00  0.00     0.120 C 
BRANCH  14  15
ATOM     15  O28 ZIN A   1      21.750  -0.724  10.945  0.00  0.00    -0.395 OA
ATOM     16  H60 ZIN A   1      22.385  -0.058  10.648  0.00  0.00     0.210 HD
ENDBRANCH  14  15
BRANCH  14  17
ATOM     17  C29 ZIN A   1      19.739  -1.185  12.202  0.00  0.00     0.064 C 
BRANCH  17  18
ATOM     18  C30 ZIN A   1      19.594  -2.526  11.478  0.00  0.00     0.130 C 
BRANCH  18  19
ATOM     19  O32 ZIN A   1      20.800  -3.279  11.625  0.00  0.00    -0.395 OA
ATOM     20  H63 ZIN A   1      21.352  -3.295  10.830  0.00  0.00     0.210 HD
ENDBRANCH  18  19
BRANCH  18  21
ATOM     21  C33 ZIN A   1      18.427  -3.308  12.084  0.00  0.00     0.144 C 
BRANCH  21  22
ATOM     22  C34 ZIN A   1      18.300  -4.638  11.388  0.00  0.00     0.175 C 
ATOM     23  O35 ZIN A   1      17.679  -5.546  11.915  0.00  0.00    -0.648 OA
ATOM     24  O36 ZIN A   1      18.820  -4.808  10.298  0.00  0.00    -0.648 OA
ENDBRANCH  21  22
ENDBRANCH  18  21
ENDBRANCH  17  18
ENDBRANCH  14  17
ENDBRANCH  13  14
ENDBRANCH  12  13
ENDBRANCH  10  12
BRANCH   1  25
ATOM     25  O8  ZIN A   1      19.127   2.337  14.767  0.00  0.00    -0.315 OA
BRANCH  25  26
ATOM     26  C6  ZIN A   1      19.109   1.649  15.920  0.00  0.00     0.263 C 
ATOM     27  O7  ZIN A   1      19.220   2.231  16.973  0.00  0.00    -0.265 OA
BRANCH  26  28
ATOM     28  C3  ZIN A   1      18.950   0.150  15.901  0.00  0.00     0.081 C 
ATOM     29  C5  ZIN A   1      19.277  -0.416  17.284  0.00  0.00     0.020 C 
BRANCH  28  30
ATOM     30  C2  ZIN A   1      17.508  -0.205  15.532  0.00  0.00     0.010 C 
ATOM     31  C1  ZIN A   1      16.700  -0.450  16.808  0.00  0.00     0.006 C 
ENDBRANCH  28  30
ENDBRANCH  26  28
ENDBRANCH  25  26
ENDBRANCH   1  25
BRANCH   3  32
ATOM     32  O14 ZIN A   1      16.253   5.274  15.558  0.00  0.00    -0.392 OA
ATOM     33  H49 ZIN A   1      15.946   5.854  16.269  0.00  0.00     0.210 HD
ENDBRANCH   3  32
TORSDOF 14
ENDMDL
MODEL 9
REMARK VINA RESULT:      -7.3      2.598      4.858
REMARK  14 active torsions:
REMARK  status: ('A' for Active; 'I' for Inactive)
REMARK    1  A    between atoms: C2_2  and  C3_3 
REMARK    2  A    between atoms: C3_3  and  C6_5 
REMARK    3  A    between atoms: C6_5  and  O8_7 
REMARK    4  A    between atoms: O8_7  and  C9_8 
REMARK    5  A    between atoms: C12_10  and  O14_11 
REMARK    6  A    between atoms: C22_18  and  C24_19 
REMARK    7  A    between atoms: C24_19  and  C25_20 
REMARK    8  A    between atoms: C25_20  and  C26_21 
REMARK    9  A    between atoms: C26_21  and  O28_22 
REMARK   10  A    between atoms: C26_21  and  C29_23 
REMARK   11  A    between atoms: C29_23  and  C30_24 
REMARK   12  A    between atoms: C30_24  and  O32_25 
REMARK   13  A    between atoms: C30_24  and  C33_26 
REMARK   14  A    between atoms: C33_26  and  C34_27 
ROOT
ATOM      1  C9  ZIN A   1      18.911   1.101  11.264  0.00  0.00     0.143 C 
ATOM      2  C11 ZIN A   1      17.906   2.182  10.874  0.00  0.00     0.069 C 
ATOM      3  C12 ZIN A   1      18.166   3.421  11.743  0.00  0.00     0.144 C 
ATOM      4  C15 ZIN A   1      17.952   3.026  13.181  0.00  0.00     0.012 C 
ATOM      5  C16 ZIN A   1      18.221   1.803  13.598  0.00  0.00    -0.053 C 
ATOM      6  C17 ZIN A   1      17.890   1.427  14.992  0.00  0.00     0.004 C 
ATOM      7  C18 ZIN A   1      17.842   0.150  15.333  0.00  0.00    -0.022 C 
ATOM      8  C19 ZIN A   1      18.121  -0.982  14.393  0.00  0.00     0.009 C 
ATOM      9  C21 ZIN A   1      19.544  -1.492  14.634  0.00  0.00     0.014 C 
ATOM     10  C22 ZIN A   1      17.990  -0.548  12.932  0.00  0.00     0.004 C 
ATOM     11  C37 ZIN A   1      18.802   0.733  12.725  0.00  0.00     0.053 C 
ENDROOT
BRANCH  10  12
ATOM     12  C24 ZIN A   1      18.524  -1.653  12.018  0.00  0.00     0.009 C 
BRANCH  12  13
ATOM     13  C25 ZIN A   1      17.491  -2.777  11.919  0.00  0.00     0.032 C 
BRANCH  13  14
ATOM     14  C26 ZIN A   1      17.645  -3.494  10.577  0.00  0.00     0.120 C 
BRANCH  14  15
ATOM     15  O28 ZIN A   1      19.026  -3.785  10.349  0.00  0.00    -0.395 OA
ATOM     16  H60 ZIN A   1      19.536  -3.035  10.017  0.00  0.00     0.210 HD
ENDBRANCH  14  15
BRANCH  14  17
ATOM     17  C29 ZIN A   1      16.848  -4.800  10.602  0.00  0.00     0.064 C 
BRANCH  17  18
ATOM     18  C30 ZIN A   1      16.559  -5.248   9.168  0.00  0.00     0.130 C 
BRANCH  18  19
ATOM     19  O32 ZIN A   1      17.210  -4.366   8.252  0.00  0.00    -0.395 OA
ATOM     20  H63 ZIN A   1      16.917  -3.446   8.316  0.00  0.00     0.210 HD
ENDBRANCH  18  19
BRANCH  18  21
ATOM     21  C33 ZIN A   1      17.083  -6.672   8.964  0.00  0.00     0.144 C 
BRANCH  21  22
ATOM     22  C34 ZIN A   1      18.386  -6.624   8.209  0.00  0.00     0.175 C 
ATOM     23  O35 ZIN A   1      18.400  -6.812   7.005  0.00  0.00    -0.648 OA
ATOM     24  O36 ZIN A   1      19.426  -6.399   8.803  0.00  0.00    -0.648 OA
ENDBRANCH  21  22
ENDBRANCH  18  21
ENDBRANCH  17  18
ENDBRANCH  14  17
ENDBRANCH  13  14
ENDBRANCH  12  13
ENDBRANCH  10  12
BRANCH   1  25
ATOM     25  O8  ZIN A   1      18.670  -0.081  10.458  0.00  0.00    -0.315 OA
BRANCH  25  26
ATOM     26  C6  ZIN A   1      19.428  -0.238   9.362  0.00  0.00     0.263 C 
ATOM     27  O7  ZIN A   1      20.620  -0.399   9.470  0.00  0.00    -0.265 OA
BRANCH  26  28
ATOM     28  C3  ZIN A   1      18.791  -0.210   7.995  0.00  0.00     0.081 C 
ATOM     29  C5  ZIN A   1      17.279  -0.397   8.133  0.00  0.00     0.020 C 
BRANCH  28  30
ATOM     30  C2  ZIN A   1      19.081   1.133   7.325  0.00  0.00     0.010 C 
ATOM     31  C1  ZIN A   1      18.983   0.978   5.806  0.00  0.00     0.006 C 
ENDBRANCH  28  30
ENDBRANCH  26  28
ENDBRANCH  25  26
ENDBRANCH   1  25
BRANCH   3  32
ATOM     32  O14 ZIN A   1      19.510   3.868  11.557  0.00  0.00    -0.392 OA
ATOM     33  H49 ZIN A   1      20.034   3.886  12.370  0.00  0.00     0.210 HD
ENDBRANCH   3  32
TORSDOF 14
ENDMDL
