MODEL 1
REMARK VINA RESULT:      -9.7      0.000      0.000
REMARK  8 active torsions:
REMARK  status: ('A' for Active; 'I' for Inactive)
REMARK    1  A    between atoms: C2_2  and  C4_4 
REMARK    2  A    between atoms: C4_4  and  O5_5 
REMARK    3  A    between atoms: C8_8  and  O9_9 
REMARK    4  A    between atoms: C22_22  and  O23_23 
REMARK    5  A    between atoms: C25_25  and  O27_26 
REMARK    6  A    between atoms: O27_26  and  C28_27 
REMARK    7  A    between atoms: C31_29  and  N33_30 
REMARK    8  A    between atoms: C37_34  and  O39_35 
ROOT
ATOM      1  C4  RES d   1      19.245  -5.388   9.350  0.00  0.00     0.124 C 
ATOM      2  C6  RES d   1      19.980  -4.657  10.472  0.00  0.00     0.088 C 
ATOM      3  C7  RES d   1      19.277  -3.368  10.816  0.00  0.00    -0.009 A 
ATOM      4  C8  RES d   1      19.587  -2.777  12.050  0.00  0.00     0.088 A 
ATOM      5  C10 RES d   1      18.981  -1.582  12.431  0.00  0.00     0.066 A 
ATOM      6  C11 RES d   1      18.053  -0.968  11.565  0.00  0.00     0.066 A 
ATOM      7  C12 RES d   1      17.413   0.299  11.961  0.00  0.00     0.197 C 
ATOM      8  O13 RES d   1      16.441   0.713  11.358  0.00  0.00    -0.286 OA
ATOM      9  C14 RES d   1      17.969   1.064  13.099  0.00  0.00     0.029 A 
ATOM     10  C15 RES d   1      17.585   2.382  13.321  0.00  0.00     0.016 A 
ATOM     11  C16 RES d   1      18.116   3.081  14.393  0.00  0.00     0.001 A 
ATOM     12  C17 RES d   1      19.024   2.478  15.242  0.00  0.00     0.001 A 
ATOM     13  C18 RES d   1      19.416   1.167  15.035  0.00  0.00     0.016 A 
ATOM     14  C19 RES d   1      18.893   0.449  13.964  0.00  0.00     0.029 A 
ATOM     15  C20 RES d   1      19.301  -0.952  13.725  0.00  0.00     0.197 C 
ATOM     16  O21 RES d   1      19.893  -1.576  14.584  0.00  0.00    -0.286 OA
ATOM     17  C22 RES d   1      17.753  -1.570  10.345  0.00  0.00     0.090 A 
ATOM     18  C24 RES d   1      18.370  -2.774   9.977  0.00  0.00     0.014 A 
ATOM     19  C25 RES d   1      17.985  -3.369   8.647  0.00  0.00     0.164 C 
ATOM     20  C44 RES d   1      19.018  -4.400   8.199  0.00  0.00     0.083 C 
ENDROOT
BRANCH  19  21
ATOM     21  O27 RES d   1      17.905  -2.329   7.671  0.00  0.00    -0.351 OA
BRANCH  21  22
ATOM     22  C28 RES d   1      19.154  -2.015   7.051  0.00  0.00     0.263 C 
ATOM     23  O43 RES d   1      19.564  -0.705   7.446  0.00  0.00    -0.354 OA
ATOM     24  C40 RES d   1      18.633   0.325   7.109  0.00  0.00     0.151 C 
ATOM     25  C37 RES d   1      18.453   0.373   5.589  0.00  0.00     0.177 C 
ATOM     26  C42 RES d   1      19.161   1.674   7.602  0.00  0.00     0.042 C 
ATOM     27  C31 RES d   1      17.981  -0.998   5.096  0.00  0.00     0.219 C 
ATOM     28  C30 RES d   1      18.995  -2.062   5.529  0.00  0.00     0.096 C 
BRANCH  25  29
ATOM     29  O39 RES d   1      19.698   0.700   4.971  0.00  0.00    -0.391 OA
ATOM     30  H59 RES d   1      20.000   0.047   4.324  0.00  0.00     0.210 HD
ENDBRANCH  25  29
BRANCH  27  31
ATOM     31  N33 RES d   1      17.877  -0.987   3.631  0.00  0.00    -0.072 N 
ATOM     32  H34 RES d   1      18.705  -1.401   3.232  0.00  0.00     0.274 HD
ATOM     33  H35 RES d   1      17.065  -1.517   3.348  0.00  0.00     0.274 HD
ATOM     34  H36 RES d   1      17.787  -0.036   3.307  0.00  0.00     0.274 HD
ENDBRANCH  27  31
ENDBRANCH  21  22
ENDBRANCH  19  21
BRANCH  17  35
ATOM     35  O23 RES d   1      16.860  -0.987   9.508  0.00  0.00    -0.359 OA
ATOM     36  H56 RES d   1      16.240  -1.607   9.101  0.00  0.00     0.217 HD
ENDBRANCH  17  35
BRANCH   1  37
ATOM     37  C2  RES d   1      17.918  -5.891   9.855  0.00  0.00     0.157 C 
ATOM     38  C1  RES d   1      16.899  -6.433   8.886  0.00  0.00     0.094 C 
ATOM     39  O3  RES d   1      17.672  -5.862  11.037  0.00  0.00    -0.295 OA
ENDBRANCH   1  37
BRANCH   1  40
ATOM     40  O5  RES d   1      20.036  -6.486   8.893  0.00  0.00    -0.382 OA
ATOM     41  H48 RES d   1      20.941  -6.488   9.233  0.00  0.00     0.211 HD
ENDBRANCH   1  40
BRANCH   4  42
ATOM     42  O9  RES d   1      20.482  -3.373  12.876  0.00  0.00    -0.359 OA
ATOM     43  H51 RES d   1      20.178  -3.457  13.791  0.00  0.00     0.217 HD
ENDBRANCH   4  42
TORSDOF 8
ENDMDL
MODEL 2
REMARK VINA RESULT:      -9.1      3.653      8.847
REMARK  8 active torsions:
REMARK  status: ('A' for Active; 'I' for Inactive)
REMARK    1  A    between atoms: C2_2  and  C4_4 
REMARK    2  A    between atoms: C4_4  and  O5_5 
REMARK    3  A    between atoms: C8_8  and  O9_9 
REMARK    4  A    between atoms: C22_22  and  O23_23 
REMARK    5  A    between atoms: C25_25  and  O27_26 
REMARK    6  A    between atoms: O27_26  and  C28_27 
REMARK    7  A    between atoms: C31_29  and  N33_30 
REMARK    8  A    between atoms: C37_34  and  O39_35 
ROOT
ATOM      1  C4  RES d   1      18.675   4.768  12.723  0.00  0.00     0.124 C 
ATOM      2  C6  RES d   1      19.433   3.992  11.648  0.00  0.00     0.088 C 
ATOM      3  C7  RES d   1      18.907   2.584  11.538  0.00  0.00    -0.009 A 
ATOM      4  C8  RES d   1      19.217   1.870  10.371  0.00  0.00     0.088 A 
ATOM      5  C10 RES d   1      18.771   0.562  10.205  0.00  0.00     0.066 A 
ATOM      6  C11 RES d   1      18.003  -0.043  11.221  0.00  0.00     0.066 A 
ATOM      7  C12 RES d   1      17.531  -1.430  11.053  0.00  0.00     0.197 C 
ATOM      8  O13 RES d   1      16.674  -1.882  11.787  0.00  0.00    -0.286 OA
ATOM      9  C14 RES d   1      18.117  -2.266   9.982  0.00  0.00     0.029 A 
ATOM     10  C15 RES d   1      17.918  -3.642   9.970  0.00  0.00     0.016 A 
ATOM     11  C16 RES d   1      18.473  -4.408   8.958  0.00  0.00     0.001 A 
ATOM     12  C17 RES d   1      19.224  -3.814   7.961  0.00  0.00     0.001 A 
ATOM     13  C18 RES d   1      19.432  -2.446   7.959  0.00  0.00     0.016 A 
ATOM     14  C19 RES d   1      18.881  -1.661   8.967  0.00  0.00     0.029 A 
ATOM     15  C20 RES d   1      19.093  -0.197   8.983  0.00  0.00     0.197 C 
ATOM     16  O21 RES d   1      19.528   0.373   8.001  0.00  0.00    -0.286 OA
ATOM     17  C22 RES d   1      17.699   0.680  12.373  0.00  0.00     0.090 A 
ATOM     18  C24 RES d   1      18.155   1.997  12.524  0.00  0.00     0.014 A 
ATOM     19  C25 RES d   1      17.776   2.718  13.792  0.00  0.00     0.164 C 
ATOM     20  C44 RES d   1      18.673   3.934  14.009  0.00  0.00     0.083 C 
ENDROOT
BRANCH  19  21
ATOM     21  O27 RES d   1      17.915   1.827  14.900  0.00  0.00    -0.351 OA
BRANCH  21  22
ATOM     22  C28 RES d   1      19.247   1.738  15.411  0.00  0.00     0.263 C 
ATOM     23  O43 RES d   1      19.578   0.367  15.641  0.00  0.00    -0.354 OA
ATOM     24  C40 RES d   1      18.707  -0.298  16.558  0.00  0.00     0.151 C 
ATOM     25  C37 RES d   1      18.780   0.394  17.922  0.00  0.00     0.177 C 
ATOM     26  C42 RES d   1      19.137  -1.759  16.704  0.00  0.00     0.042 C 
ATOM     27  C31 RES d   1      18.405   1.869  17.757  0.00  0.00     0.219 C 
ATOM     28  C30 RES d   1      19.342   2.512  16.729  0.00  0.00     0.096 C 
BRANCH  25  29
ATOM     29  O39 RES d   1      20.107   0.293  18.439  0.00  0.00    -0.391 OA
ATOM     30  H59 RES d   1      20.793   0.579  17.820  0.00  0.00     0.210 HD
ENDBRANCH  25  29
BRANCH  27  31
ATOM     31  N33 RES d   1      18.544   2.561  19.046  0.00  0.00    -0.072 N 
ATOM     32  H34 RES d   1      19.518   2.751  19.223  0.00  0.00     0.274 HD
ATOM     33  H35 RES d   1      18.031   3.430  19.018  0.00  0.00     0.274 HD
ATOM     34  H36 RES d   1      18.176   1.978  19.782  0.00  0.00     0.274 HD
ENDBRANCH  27  31
ENDBRANCH  21  22
ENDBRANCH  19  21
BRANCH  17  35
ATOM     35  O23 RES d   1      16.960   0.106  13.353  0.00  0.00    -0.359 OA
ATOM     36  H56 RES d   1      16.170  -0.351  13.033  0.00  0.00     0.217 HD
ENDBRANCH  17  35
BRANCH   1  37
ATOM     37  C2  RES d   1      17.258   5.008  12.272  0.00  0.00     0.157 C 
ATOM     38  C1  RES d   1      16.921   4.986  10.803  0.00  0.00     0.094 C 
ATOM     39  O3  RES d   1      16.392   5.216  13.087  0.00  0.00    -0.295 OA
ENDBRANCH   1  37
BRANCH   1  40
ATOM     40  O5  RES d   1      19.323   6.019  12.961  0.00  0.00    -0.382 OA
ATOM     41  H48 RES d   1      19.654   6.125  13.863  0.00  0.00     0.211 HD
ENDBRANCH   1  40
BRANCH   4  42
ATOM     42  O9  RES d   1      19.958   2.458   9.399  0.00  0.00    -0.359 OA
ATOM     43  H51 RES d   1      19.449   3.034   8.812  0.00  0.00     0.217 HD
ENDBRANCH   4  42
TORSDOF 8
ENDMDL
MODEL 3
REMARK VINA RESULT:      -9.0      1.071      1.190
REMARK  8 active torsions:
REMARK  status: ('A' for Active; 'I' for Inactive)
REMARK    1  A    between atoms: C2_2  and  C4_4 
REMARK    2  A    between atoms: C4_4  and  O5_5 
REMARK    3  A    between atoms: C8_8  and  O9_9 
REMARK    4  A    between atoms: C22_22  and  O23_23 
REMARK    5  A    between atoms: C25_25  and  O27_26 
REMARK    6  A    between atoms: O27_26  and  C28_27 
REMARK    7  A    between atoms: C31_29  and  N33_30 
REMARK    8  A    between atoms: C37_34  and  O39_35 
ROOT
ATOM      1  C4  RES d   1      18.810  -4.800  10.418  0.00  0.00     0.124 C 
ATOM      2  C6  RES d   1      19.553  -3.975  11.466  0.00  0.00     0.088 C 
ATOM      3  C7  RES d   1      18.992  -2.578  11.539  0.00  0.00    -0.009 A 
ATOM      4  C8  RES d   1      19.290  -1.824  12.684  0.00  0.00     0.088 A 
ATOM      5  C10 RES d   1      18.811  -0.524  12.817  0.00  0.00     0.066 A 
ATOM      6  C11 RES d   1      18.023   0.033  11.788  0.00  0.00     0.066 A 
ATOM      7  C12 RES d   1      17.517   1.411  11.920  0.00  0.00     0.197 C 
ATOM      8  O13 RES d   1      16.644   1.821  11.179  0.00  0.00    -0.286 OA
ATOM      9  C14 RES d   1      18.086   2.291  12.964  0.00  0.00     0.029 A 
ATOM     10  C15 RES d   1      17.852   3.662  12.939  0.00  0.00     0.016 A 
ATOM     11  C16 RES d   1      18.393   4.470  13.926  0.00  0.00     0.001 A 
ATOM     12  C17 RES d   1      19.164   3.924  14.934  0.00  0.00     0.001 A 
ATOM     13  C18 RES d   1      19.406   2.561  14.974  0.00  0.00     0.016 A 
ATOM     14  C19 RES d   1      18.870   1.735  13.991  0.00  0.00     0.029 A 
ATOM     15  C20 RES d   1      19.120   0.277  14.015  0.00  0.00     0.197 C 
ATOM     16  O21 RES d   1      19.574  -0.254  15.010  0.00  0.00    -0.286 OA
ATOM     17  C22 RES d   1      17.732  -0.730  10.659  0.00  0.00     0.090 A 
ATOM     18  C24 RES d   1      18.220  -2.039  10.541  0.00  0.00     0.014 A 
ATOM     19  C25 RES d   1      17.853  -2.805   9.297  0.00  0.00     0.164 C 
ATOM     20  C44 RES d   1      18.780  -4.003   9.108  0.00  0.00     0.083 C 
ENDROOT
BRANCH  19  21
ATOM     21  O27 RES d   1      17.964  -1.942   8.163  0.00  0.00    -0.351 OA
BRANCH  21  22
ATOM     22  C28 RES d   1      19.297  -1.805   7.664  0.00  0.00     0.263 C 
ATOM     23  O43 RES d   1      19.588  -0.423   7.457  0.00  0.00    -0.354 OA
ATOM     24  C40 RES d   1      18.704   0.230   6.543  0.00  0.00     0.151 C 
ATOM     25  C37 RES d   1      18.807  -0.439   5.169  0.00  0.00     0.177 C 
ATOM     26  C42 RES d   1      19.092   1.705   6.421  0.00  0.00     0.042 C 
ATOM     27  C31 RES d   1      18.475  -1.927   5.310  0.00  0.00     0.219 C 
ATOM     28  C30 RES d   1      19.423  -2.557   6.335  0.00  0.00     0.096 C 
BRANCH  25  29
ATOM     29  O39 RES d   1      20.135  -0.291   4.664  0.00  0.00    -0.391 OA
ATOM     30  H59 RES d   1      20.567   0.533   4.928  0.00  0.00     0.210 HD
ENDBRANCH  25  29
BRANCH  27  31
ATOM     31  N33 RES d   1      18.643  -2.595   4.012  0.00  0.00    -0.072 N 
ATOM     32  H34 RES d   1      17.741  -2.720   3.578  0.00  0.00     0.274 HD
ATOM     33  H35 RES d   1      19.228  -2.028   3.416  0.00  0.00     0.274 HD
ATOM     34  H36 RES d   1      19.078  -3.495   4.150  0.00  0.00     0.274 HD
ENDBRANCH  27  31
ENDBRANCH  21  22
ENDBRANCH  19  21
BRANCH  17  35
ATOM     35  O23 RES d   1      16.973  -0.202   9.667  0.00  0.00    -0.359 OA
ATOM     36  H56 RES d   1      17.004   0.763   9.620  0.00  0.00     0.217 HD
ENDBRANCH  17  35
BRANCH   1  37
ATOM     37  C2  RES d   1      17.401  -5.063  10.883  0.00  0.00     0.157 C 
ATOM     38  C1  RES d   1      16.331  -5.418   9.883  0.00  0.00     0.094 C 
ATOM     39  O3  RES d   1      17.130  -4.992  12.057  0.00  0.00    -0.295 OA
ENDBRANCH   1  37
BRANCH   1  40
ATOM     40  O5  RES d   1      19.489  -6.040  10.211  0.00  0.00    -0.382 OA
ATOM     41  H48 RES d   1      20.398  -6.050  10.539  0.00  0.00     0.211 HD
ENDBRANCH   1  40
BRANCH   4  42
ATOM     42  O9  RES d   1      20.050  -2.366  13.668  0.00  0.00    -0.359 OA
ATOM     43  H51 RES d   1      20.330  -3.276  13.493  0.00  0.00     0.217 HD
ENDBRANCH   4  42
TORSDOF 8
ENDMDL
MODEL 4
REMARK VINA RESULT:      -8.8      1.486      2.312
REMARK  8 active torsions:
REMARK  status: ('A' for Active; 'I' for Inactive)
REMARK    1  A    between atoms: C2_2  and  C4_4 
REMARK    2  A    between atoms: C4_4  and  O5_5 
REMARK    3  A    between atoms: C8_8  and  O9_9 
REMARK    4  A    between atoms: C22_22  and  O23_23 
REMARK    5  A    between atoms: C25_25  and  O27_26 
REMARK    6  A    between atoms: O27_26  and  C28_27 
REMARK    7  A    between atoms: C31_29  and  N33_30 
REMARK    8  A    between atoms: C37_34  and  O39_35 
ROOT
ATOM      1  C4  RES d   1      19.117  -3.915  10.607  0.00  0.00     0.124 C 
ATOM      2  C6  RES d   1      19.706  -3.154  11.792  0.00  0.00     0.088 C 
ATOM      3  C7  RES d   1      19.171  -1.745  11.839  0.00  0.00    -0.009 A 
ATOM      4  C8  RES d   1      19.304  -1.046  13.048  0.00  0.00     0.088 A 
ATOM      5  C10 RES d   1      18.838   0.260  13.162  0.00  0.00     0.066 A 
ATOM      6  C11 RES d   1      18.231   0.880  12.050  0.00  0.00     0.066 A 
ATOM      7  C12 RES d   1      17.741   2.265  12.163  0.00  0.00     0.197 C 
ATOM      8  O13 RES d   1      17.003   2.728  11.315  0.00  0.00    -0.286 OA
ATOM      9  C14 RES d   1      18.160   3.087  13.320  0.00  0.00     0.029 A 
ATOM     10  C15 RES d   1      17.963   4.463  13.319  0.00  0.00     0.016 A 
ATOM     11  C16 RES d   1      18.361   5.216  14.411  0.00  0.00     0.001 A 
ATOM     12  C17 RES d   1      18.954   4.608  15.502  0.00  0.00     0.001 A 
ATOM     13  C18 RES d   1      19.158   3.239  15.519  0.00  0.00     0.016 A 
ATOM     14  C19 RES d   1      18.763   2.468  14.430  0.00  0.00     0.029 A 
ATOM     15  C20 RES d   1      18.974   1.003  14.428  0.00  0.00     0.197 C 
ATOM     16  O21 RES d   1      19.257   0.421  15.457  0.00  0.00    -0.286 OA
ATOM     17  C22 RES d   1      18.103   0.171  10.857  0.00  0.00     0.090 A 
ATOM     18  C24 RES d   1      18.575  -1.145  10.759  0.00  0.00     0.014 A 
ATOM     19  C25 RES d   1      18.389  -1.850   9.440  0.00  0.00     0.164 C 
ATOM     20  C44 RES d   1      19.308  -3.066   9.345  0.00  0.00     0.083 C 
ENDROOT
BRANCH  19  21
ATOM     21  O27 RES d   1      18.693  -0.946   8.376  0.00  0.00    -0.351 OA
BRANCH  21  22
ATOM     22  C28 RES d   1      17.704  -0.907   7.345  0.00  0.00     0.263 C 
ATOM     23  O43 RES d   1      17.742  -2.127   6.603  0.00  0.00    -0.354 OA
ATOM     24  C40 RES d   1      19.005  -2.401   5.994  0.00  0.00     0.151 C 
ATOM     25  C37 RES d   1      19.343  -1.285   5.001  0.00  0.00     0.177 C 
ATOM     26  C42 RES d   1      18.937  -3.738   5.253  0.00  0.00     0.042 C 
ATOM     27  C31 RES d   1      19.351   0.058   5.737  0.00  0.00     0.219 C 
ATOM     28  C30 RES d   1      17.990   0.269   6.407  0.00  0.00     0.096 C 
BRANCH  25  29
ATOM     29  O39 RES d   1      18.362  -1.255   3.963  0.00  0.00    -0.391 OA
ATOM     30  H59 RES d   1      17.537  -1.706   4.189  0.00  0.00     0.210 HD
ENDBRANCH  25  29
BRANCH  27  31
ATOM     31  N33 RES d   1      19.601   1.144   4.781  0.00  0.00    -0.072 N 
ATOM     32  H34 RES d   1      20.124   1.878   5.233  0.00  0.00     0.274 HD
ATOM     33  H35 RES d   1      20.129   0.788   3.998  0.00  0.00     0.274 HD
ATOM     34  H36 RES d   1      18.721   1.512   4.452  0.00  0.00     0.274 HD
ENDBRANCH  27  31
ENDBRANCH  21  22
ENDBRANCH  19  21
BRANCH  17  35
ATOM     35  O23 RES d   1      17.518   0.759   9.784  0.00  0.00    -0.359 OA
ATOM     36  H56 RES d   1      16.618   1.071   9.949  0.00  0.00     0.217 HD
ENDBRANCH  17  35
BRANCH   1  37
ATOM     37  C2  RES d   1      17.648  -4.157  10.838  0.00  0.00     0.157 C 
ATOM     38  C1  RES d   1      16.793  -4.715   9.729  0.00  0.00     0.094 C 
ATOM     39  O3  RES d   1      17.156  -3.904  11.911  0.00  0.00    -0.295 OA
ENDBRANCH   1  37
BRANCH   1  40
ATOM     40  O5  RES d   1      19.793  -5.164  10.453  0.00  0.00    -0.382 OA
ATOM     41  H48 RES d   1      19.284  -5.830   9.970  0.00  0.00     0.211 HD
ENDBRANCH   1  40
BRANCH   4  42
ATOM     42  O9  RES d   1      19.890  -1.649  14.113  0.00  0.00    -0.359 OA
ATOM     43  H51 RES d   1      19.364  -2.361  14.501  0.00  0.00     0.217 HD
ENDBRANCH   4  42
TORSDOF 8
ENDMDL
MODEL 5
REMARK VINA RESULT:      -8.0      2.200      5.381
REMARK  8 active torsions:
REMARK  status: ('A' for Active; 'I' for Inactive)
REMARK    1  A    between atoms: C2_2  and  C4_4 
REMARK    2  A    between atoms: C4_4  and  O5_5 
REMARK    3  A    between atoms: C8_8  and  O9_9 
REMARK    4  A    between atoms: C22_22  and  O23_23 
REMARK    5  A    between atoms: C25_25  and  O27_26 
REMARK    6  A    between atoms: O27_26  and  C28_27 
REMARK    7  A    between atoms: C31_29  and  N33_30 
REMARK    8  A    between atoms: C37_34  and  O39_35 
ROOT
ATOM      1  C4  RES d   1      17.836  -0.986   5.402  0.00  0.00     0.124 C 
ATOM      2  C6  RES d   1      17.252  -0.273   6.620  0.00  0.00     0.088 C 
ATOM      3  C7  RES d   1      17.882  -0.786   7.890  0.00  0.00    -0.009 A 
ATOM      4  C8  RES d   1      17.747   0.006   9.040  0.00  0.00     0.088 A 
ATOM      5  C10 RES d   1      18.298  -0.409  10.250  0.00  0.00     0.066 A 
ATOM      6  C11 RES d   1      18.993  -1.635  10.312  0.00  0.00     0.066 A 
ATOM      7  C12 RES d   1      19.573  -2.082  11.591  0.00  0.00     0.197 C 
ATOM      8  O13 RES d   1      20.376  -2.994  11.617  0.00  0.00    -0.286 OA
ATOM      9  C14 RES d   1      19.163  -1.409  12.843  0.00  0.00     0.029 A 
ATOM     10  C15 RES d   1      19.456  -1.974  14.079  0.00  0.00     0.016 A 
ATOM     11  C16 RES d   1      19.066  -1.329  15.241  0.00  0.00     0.001 A 
ATOM     12  C17 RES d   1      18.387  -0.126  15.180  0.00  0.00     0.001 A 
ATOM     13  C18 RES d   1      18.087   0.450  13.957  0.00  0.00     0.016 A 
ATOM     14  C19 RES d   1      18.473  -0.184  12.781  0.00  0.00     0.029 A 
ATOM     15  C20 RES d   1      18.160   0.415  11.465  0.00  0.00     0.197 C 
ATOM     16  O21 RES d   1      17.795   1.572  11.386  0.00  0.00    -0.286 OA
ATOM     17  C22 RES d   1      19.121  -2.408   9.160  0.00  0.00     0.090 A 
ATOM     18  C24 RES d   1      18.563  -1.975   7.948  0.00  0.00     0.014 A 
ATOM     19  C25 RES d   1      18.754  -2.860   6.744  0.00  0.00     0.164 C 
ATOM     20  C44 RES d   1      17.758  -2.498   5.645  0.00  0.00     0.083 C 
ENDROOT
BRANCH  19  21
ATOM     21  O27 RES d   1      18.559  -4.223   7.125  0.00  0.00    -0.351 OA
BRANCH  21  22
ATOM     22  C28 RES d   1      17.186  -4.612   7.213  0.00  0.00     0.263 C 
ATOM     23  O43 RES d   1      16.873  -4.950   8.564  0.00  0.00    -0.354 OA
ATOM     24  C40 RES d   1      17.667  -6.010   9.100  0.00  0.00     0.151 C 
ATOM     25  C37 RES d   1      17.442  -7.282   8.278  0.00  0.00     0.177 C 
ATOM     26  C42 RES d   1      17.265  -6.266  10.554  0.00  0.00     0.042 C 
ATOM     27  C31 RES d   1      17.790  -7.001   6.813  0.00  0.00     0.219 C 
ATOM     28  C30 RES d   1      16.941  -5.827   6.314  0.00  0.00     0.096 C 
BRANCH  25  29
ATOM     29  O39 RES d   1      16.073  -7.678   8.376  0.00  0.00    -0.391 OA
ATOM     30  H59 RES d   1      15.894  -8.302   9.093  0.00  0.00     0.210 HD
ENDBRANCH  25  29
BRANCH  27  31
ATOM     31  N33 RES d   1      17.506  -8.191   6.001  0.00  0.00    -0.072 N 
ATOM     32  H34 RES d   1      17.297  -8.970   6.607  0.00  0.00     0.274 HD
ATOM     33  H35 RES d   1      16.714  -8.009   5.402  0.00  0.00     0.274 HD
ATOM     34  H36 RES d   1      18.311  -8.412   5.434  0.00  0.00     0.274 HD
ENDBRANCH  27  31
ENDBRANCH  21  22
ENDBRANCH  19  21
BRANCH  17  35
ATOM     35  O23 RES d   1      19.789  -3.586   9.210  0.00  0.00    -0.359 OA
ATOM     36  H56 RES d   1      20.620  -3.588   8.716  0.00  0.00     0.217 HD
ENDBRANCH  17  35
BRANCH   1  37
ATOM     37  C2  RES d   1      19.274  -0.576   5.215  0.00  0.00     0.157 C 
ATOM     38  C1  RES d   1      19.758   0.744   5.758  0.00  0.00     0.094 C 
ATOM     39  O3  RES d   1      20.039  -1.306   4.632  0.00  0.00    -0.295 OA
ENDBRANCH   1  37
BRANCH   1  40
ATOM     40  O5  RES d   1      17.082  -0.646   4.238  0.00  0.00    -0.382 OA
ATOM     41  H48 RES d   1      16.424   0.048   4.384  0.00  0.00     0.211 HD
ENDBRANCH   1  40
BRANCH   4  42
ATOM     42  O9  RES d   1      17.076   1.182   8.973  0.00  0.00    -0.359 OA
ATOM     43  H51 RES d   1      17.014   1.649   9.818  0.00  0.00     0.217 HD
ENDBRANCH   4  42
TORSDOF 8
ENDMDL
MODEL 6
REMARK VINA RESULT:      -7.9      2.253      4.979
REMARK  8 active torsions:
REMARK  status: ('A' for Active; 'I' for Inactive)
REMARK    1  A    between atoms: C2_2  and  C4_4 
REMARK    2  A    between atoms: C4_4  and  O5_5 
REMARK    3  A    between atoms: C8_8  and  O9_9 
REMARK    4  A    between atoms: C22_22  and  O23_23 
REMARK    5  A    between atoms: C25_25  and  O27_26 
REMARK    6  A    between atoms: O27_26  and  C28_27 
REMARK    7  A    between atoms: C31_29  and  N33_30 
REMARK    8  A    between atoms: C37_34  and  O39_35 
ROOT
ATOM      1  C4  RES d   1      17.674  -0.078   8.397  0.00  0.00     0.124 C 
ATOM      2  C6  RES d   1      17.168   0.759   9.570  0.00  0.00     0.088 C 
ATOM      3  C7  RES d   1      17.724   0.242  10.872  0.00  0.00    -0.009 A 
ATOM      4  C8  RES d   1      17.673   1.101  11.980  0.00  0.00     0.088 A 
ATOM      5  C10 RES d   1      18.162   0.688  13.216  0.00  0.00     0.066 A 
ATOM      6  C11 RES d   1      18.708  -0.606  13.348  0.00  0.00     0.066 A 
ATOM      7  C12 RES d   1      19.223  -1.051  14.656  0.00  0.00     0.197 C 
ATOM      8  O13 RES d   1      19.914  -2.048  14.738  0.00  0.00    -0.286 OA
ATOM      9  C14 RES d   1      18.885  -0.272  15.867  0.00  0.00     0.029 A 
ATOM     10  C15 RES d   1      19.100  -0.804  17.134  0.00  0.00     0.016 A 
ATOM     11  C16 RES d   1      18.779  -0.059  18.256  0.00  0.00     0.001 A 
ATOM     12  C17 RES d   1      18.245   1.209  18.126  0.00  0.00     0.001 A 
ATOM     13  C18 RES d   1      18.024   1.754  16.873  0.00  0.00     0.016 A 
ATOM     14  C19 RES d   1      18.342   1.019  15.735  0.00  0.00     0.029 A 
ATOM     15  C20 RES d   1      18.113   1.583  14.386  0.00  0.00     0.197 C 
ATOM     16  O21 RES d   1      17.885   2.769  14.245  0.00  0.00    -0.286 OA
ATOM     17  C22 RES d   1      18.755  -1.446  12.238  0.00  0.00     0.090 A 
ATOM     18  C24 RES d   1      18.260  -1.014  10.999  0.00  0.00     0.014 A 
ATOM     19  C25 RES d   1      18.356  -1.975   9.843  0.00  0.00     0.164 C 
ATOM     20  C44 RES d   1      17.418  -1.556   8.714  0.00  0.00     0.083 C 
ENDROOT
BRANCH  19  21
ATOM     21  O27 RES d   1      18.000  -3.285  10.289  0.00  0.00    -0.351 OA
BRANCH  21  22
ATOM     22  C28 RES d   1      18.996  -4.278  10.031  0.00  0.00     0.263 C 
ATOM     23  O43 RES d   1      19.550  -4.070   8.731  0.00  0.00    -0.354 OA
ATOM     24  C40 RES d   1      18.592  -4.120   7.673  0.00  0.00     0.151 C 
ATOM     25  C37 RES d   1      17.938  -5.505   7.642  0.00  0.00     0.177 C 
ATOM     26  C42 RES d   1      19.290  -3.857   6.337  0.00  0.00     0.042 C 
ATOM     27  C31 RES d   1      17.292  -5.785   9.002  0.00  0.00     0.219 C 
ATOM     28  C30 RES d   1      18.359  -5.669  10.096  0.00  0.00     0.096 C 
BRANCH  25  29
ATOM     29  O39 RES d   1      18.931  -6.495   7.372  0.00  0.00    -0.391 OA
ATOM     30  H59 RES d   1      18.992  -7.186   8.046  0.00  0.00     0.210 HD
ENDBRANCH  25  29
BRANCH  27  31
ATOM     31  N33 RES d   1      16.727  -7.141   9.010  0.00  0.00    -0.072 N 
ATOM     32  H34 RES d   1      16.734  -7.514   8.074  0.00  0.00     0.274 HD
ATOM     33  H35 RES d   1      17.282  -7.732   9.612  0.00  0.00     0.274 HD
ATOM     34  H36 RES d   1      15.779  -7.108   9.353  0.00  0.00     0.274 HD
ENDBRANCH  27  31
ENDBRANCH  21  22
ENDBRANCH  19  21
BRANCH  17  35
ATOM     35  O23 RES d   1      19.281  -2.690  12.356  0.00  0.00    -0.359 OA
ATOM     36  H56 RES d   1      18.866  -3.348  11.782  0.00  0.00     0.217 HD
ENDBRANCH  17  35
BRANCH   1  37
ATOM     37  C2  RES d   1      19.151   0.152   8.210  0.00  0.00     0.157 C 
ATOM     38  C1  RES d   1      19.734   1.524   8.431  0.00  0.00     0.094 C 
ATOM     39  O3  RES d   1      19.868  -0.763   7.883  0.00  0.00    -0.295 OA
ENDBRANCH   1  37
BRANCH   1  40
ATOM     40  O5  RES d   1      16.974   0.288   7.207  0.00  0.00    -0.382 OA
ATOM     41  H48 RES d   1      16.023   0.412   7.333  0.00  0.00     0.211 HD
ENDBRANCH   1  40
BRANCH   4  42
ATOM     42  O9  RES d   1      17.145   2.343  11.845  0.00  0.00    -0.359 OA
ATOM     43  H51 RES d   1      16.460   2.553  12.495  0.00  0.00     0.217 HD
ENDBRANCH   4  42
TORSDOF 8
ENDMDL
MODEL 7
REMARK VINA RESULT:      -7.7      1.389      1.682
REMARK  8 active torsions:
REMARK  status: ('A' for Active; 'I' for Inactive)
REMARK    1  A    between atoms: C2_2  and  C4_4 
REMARK    2  A    between atoms: C4_4  and  O5_5 
REMARK    3  A    between atoms: C8_8  and  O9_9 
REMARK    4  A    between atoms: C22_22  and  O23_23 
REMARK    5  A    between atoms: C25_25  and  O27_26 
REMARK    6  A    between atoms: O27_26  and  C28_27 
REMARK    7  A    between atoms: C31_29  and  N33_30 
REMARK    8  A    between atoms: C37_34  and  O39_35 
ROOT
ATOM      1  C4  RES d   1      19.521  -5.393   9.548  0.00  0.00     0.124 C 
ATOM      2  C6  RES d   1      20.116  -4.579  10.695  0.00  0.00     0.088 C 
ATOM      3  C7  RES d   1      19.432  -3.240  10.809  0.00  0.00    -0.009 A 
ATOM      4  C8  RES d   1      19.585  -2.540  12.015  0.00  0.00     0.088 A 
ATOM      5  C10 RES d   1      18.987  -1.295  12.187  0.00  0.00     0.066 A 
ATOM      6  C11 RES d   1      18.226  -0.739  11.138  0.00  0.00     0.066 A 
ATOM      7  C12 RES d   1      17.595   0.581  11.313  0.00  0.00     0.197 C 
ATOM      8  O13 RES d   1      16.743   0.965  10.534  0.00  0.00    -0.286 OA
ATOM      9  C14 RES d   1      18.014   1.436  12.446  0.00  0.00     0.029 A 
ATOM     10  C15 RES d   1      17.664   2.782  12.484  0.00  0.00     0.016 A 
ATOM     11  C16 RES d   1      18.064   3.566  13.553  0.00  0.00     0.001 A 
ATOM     12  C17 RES d   1      18.808   3.020  14.582  0.00  0.00     0.001 A 
ATOM     13  C18 RES d   1      19.164   1.683  14.560  0.00  0.00     0.016 A 
ATOM     14  C19 RES d   1      18.770   0.881  13.494  0.00  0.00     0.029 A 
ATOM     15  C20 RES d   1      19.143  -0.551  13.450  0.00  0.00     0.197 C 
ATOM     16  O21 RES d   1      19.571  -1.105  14.443  0.00  0.00    -0.286 OA
ATOM     17  C22 RES d   1      18.081  -1.449   9.948  0.00  0.00     0.090 A 
ATOM     18  C24 RES d   1      18.687  -2.703   9.790  0.00  0.00     0.014 A 
ATOM     19  C25 RES d   1      18.475  -3.414   8.479  0.00  0.00     0.164 C 
ATOM     20  C44 RES d   1      19.512  -4.518   8.290  0.00  0.00     0.083 C 
ENDROOT
BRANCH  19  21
ATOM     21  O27 RES d   1      18.588  -2.474   7.409  0.00  0.00    -0.351 OA
BRANCH  21  22
ATOM     22  C28 RES d   1      19.229  -2.994   6.242  0.00  0.00     0.263 C 
ATOM     23  O43 RES d   1      19.396  -1.948   5.285  0.00  0.00    -0.354 OA
ATOM     24  C40 RES d   1      18.175  -1.327   4.878  0.00  0.00     0.151 C 
ATOM     25  C37 RES d   1      17.268  -2.370   4.218  0.00  0.00     0.177 C 
ATOM     26  C42 RES d   1      18.478  -0.209   3.878  0.00  0.00     0.042 C 
ATOM     27  C31 RES d   1      17.019  -3.514   5.205  0.00  0.00     0.219 C 
ATOM     28  C30 RES d   1      18.364  -4.104   5.637  0.00  0.00     0.096 C 
BRANCH  25  29
ATOM     29  O39 RES d   1      17.903  -2.880   3.045  0.00  0.00    -0.391 OA
ATOM     30  H59 RES d   1      17.886  -3.845   2.977  0.00  0.00     0.210 HD
ENDBRANCH  25  29
BRANCH  27  31
ATOM     31  N33 RES d   1      16.211  -4.556   4.557  0.00  0.00    -0.072 N 
ATOM     32  H34 RES d   1      16.818  -5.275   4.193  0.00  0.00     0.274 HD
ATOM     33  H35 RES d   1      15.579  -4.960   5.233  0.00  0.00     0.274 HD
ATOM     34  H36 RES d   1      15.680  -4.150   3.802  0.00  0.00     0.274 HD
ENDBRANCH  27  31
ENDBRANCH  21  22
ENDBRANCH  19  21
BRANCH  17  35
ATOM     35  O23 RES d   1      17.349  -0.922   8.935  0.00  0.00    -0.359 OA
ATOM     36  H56 RES d   1      17.872  -0.432   8.286  0.00  0.00     0.217 HD
ENDBRANCH  17  35
BRANCH   1  37
ATOM     37  C2  RES d   1      18.112  -5.800   9.893  0.00  0.00     0.157 C 
ATOM     38  C1  RES d   1      17.204  -6.350   8.822  0.00  0.00     0.094 C 
ATOM     39  O3  RES d   1      17.710  -5.687  11.026  0.00  0.00    -0.295 OA
ENDBRANCH   1  37
BRANCH   1  40
ATOM     40  O5  RES d   1      20.317  -6.557   9.320  0.00  0.00    -0.382 OA
ATOM     41  H48 RES d   1      20.311  -7.188  10.053  0.00  0.00     0.211 HD
ENDBRANCH   1  40
BRANCH   4  42
ATOM     42  O9  RES d   1      20.320  -3.081  13.018  0.00  0.00    -0.359 OA
ATOM     43  H51 RES d   1      20.905  -3.797  12.736  0.00  0.00     0.217 HD
ENDBRANCH   4  42
TORSDOF 8
ENDMDL
MODEL 8
REMARK VINA RESULT:      -7.3      3.912      7.276
REMARK  8 active torsions:
REMARK  status: ('A' for Active; 'I' for Inactive)
REMARK    1  A    between atoms: C2_2  and  C4_4 
REMARK    2  A    between atoms: C4_4  and  O5_5 
REMARK    3  A    between atoms: C8_8  and  O9_9 
REMARK    4  A    between atoms: C22_22  and  O23_23 
REMARK    5  A    between atoms: C25_25  and  O27_26 
REMARK    6  A    between atoms: O27_26  and  C28_27 
REMARK    7  A    between atoms: C31_29  and  N33_30 
REMARK    8  A    between atoms: C37_34  and  O39_35 
ROOT
ATOM      1  C4  RES d   1      19.074  -0.186  17.039  0.00  0.00     0.124 C 
ATOM      2  C6  RES d   1      19.344   1.203  17.612  0.00  0.00     0.088 C 
ATOM      3  C7  RES d   1      18.759   2.269  16.720  0.00  0.00    -0.009 A 
ATOM      4  C8  RES d   1      18.582   3.546  17.274  0.00  0.00     0.088 A 
ATOM      5  C10 RES d   1      18.053   4.580  16.507  0.00  0.00     0.066 A 
ATOM      6  C11 RES d   1      17.697   4.336  15.164  0.00  0.00     0.066 A 
ATOM      7  C12 RES d   1      17.142   5.428  14.345  0.00  0.00     0.197 C 
ATOM      8  O13 RES d   1      16.603   5.188  13.282  0.00  0.00    -0.286 OA
ATOM      9  C14 RES d   1      17.251   6.821  14.832  0.00  0.00     0.029 A 
ATOM     10  C15 RES d   1      17.007   7.891  13.977  0.00  0.00     0.016 A 
ATOM     11  C16 RES d   1      17.113   9.188  14.451  0.00  0.00     0.001 A 
ATOM     12  C17 RES d   1      17.459   9.427  15.767  0.00  0.00     0.001 A 
ATOM     13  C18 RES d   1      17.706   8.373  16.631  0.00  0.00     0.016 A 
ATOM     14  C19 RES d   1      17.604   7.064  16.172  0.00  0.00     0.029 A 
ATOM     15  C20 RES d   1      17.865   5.925  17.079  0.00  0.00     0.197 C 
ATOM     16  O21 RES d   1      17.924   6.097  18.281  0.00  0.00    -0.286 OA
ATOM     17  C22 RES d   1      17.875   3.061  14.630  0.00  0.00     0.090 A 
ATOM     18  C24 RES d   1      18.407   2.030  15.416  0.00  0.00     0.014 A 
ATOM     19  C25 RES d   1      18.559   0.676  14.771  0.00  0.00     0.164 C 
ATOM     20  C44 RES d   1      19.520  -0.198  15.572  0.00  0.00     0.083 C 
ENDROOT
BRANCH  19  21
ATOM     21  O27 RES d   1      19.066   0.841  13.445  0.00  0.00    -0.351 OA
BRANCH  21  22
ATOM     22  C28 RES d   1      19.960  -0.195  13.032  0.00  0.00     0.263 C 
ATOM     23  O43 RES d   1      20.481   0.114  11.739  0.00  0.00    -0.354 OA
ATOM     24  C40 RES d   1      19.483   0.266  10.727  0.00  0.00     0.151 C 
ATOM     25  C37 RES d   1      18.709  -1.047  10.574  0.00  0.00     0.177 C 
ATOM     26  C42 RES d   1      20.151   0.621   9.397  0.00  0.00     0.042 C 
ATOM     27  C31 RES d   1      18.093  -1.427  11.924  0.00  0.00     0.219 C 
ATOM     28  C30 RES d   1      19.206  -1.527  12.972  0.00  0.00     0.096 C 
BRANCH  25  29
ATOM     29  O39 RES d   1      19.600  -2.079  10.149  0.00  0.00    -0.391 OA
ATOM     30  H59 RES d   1      19.762  -2.091   9.195  0.00  0.00     0.210 HD
ENDBRANCH  25  29
BRANCH  27  31
ATOM     31  N33 RES d   1      17.411  -2.723  11.808  0.00  0.00    -0.072 N 
ATOM     32  H34 RES d   1      18.091  -3.466  11.854  0.00  0.00     0.274 HD
ATOM     33  H35 RES d   1      16.750  -2.824  12.564  0.00  0.00     0.274 HD
ATOM     34  H36 RES d   1      16.923  -2.768  10.927  0.00  0.00     0.274 HD
ENDBRANCH  27  31
ENDBRANCH  21  22
ENDBRANCH  19  21
BRANCH  17  35
ATOM     35  O23 RES d   1      17.534   2.818  13.340  0.00  0.00    -0.359 OA
ATOM     36  H56 RES d   1      18.278   2.565  12.778  0.00  0.00     0.217 HD
ENDBRANCH  17  35
BRANCH   1  37
ATOM     37  C2  RES d   1      17.602  -0.494  17.124  0.00  0.00     0.157 C 
ATOM     38  C1  RES d   1      17.071  -1.792  16.574  0.00  0.00     0.094 C 
ATOM     39  O3  RES d   1      16.848   0.299  17.634  0.00  0.00    -0.295 OA
ENDBRANCH   1  37
BRANCH   1  40
ATOM     40  O5  RES d   1      19.814  -1.162  17.774  0.00  0.00    -0.382 OA
ATOM     41  H48 RES d   1      20.578  -1.517  17.299  0.00  0.00     0.211 HD
ENDBRANCH   1  40
BRANCH   4  42
ATOM     42  O9  RES d   1      18.928   3.773  18.565  0.00  0.00    -0.359 OA
ATOM     43  H51 RES d   1      18.224   4.168  19.098  0.00  0.00     0.217 HD
ENDBRANCH   4  42
TORSDOF 8
ENDMDL
MODEL 9
REMARK VINA RESULT:      -7.2      4.225      7.614
REMARK  8 active torsions:
REMARK  status: ('A' for Active; 'I' for Inactive)
REMARK    1  A    between atoms: C2_2  and  C4_4 
REMARK    2  A    between atoms: C4_4  and  O5_5 
REMARK    3  A    between atoms: C8_8  and  O9_9 
REMARK    4  A    between atoms: C22_22  and  O23_23 
REMARK    5  A    between atoms: C25_25  and  O27_26 
REMARK    6  A    between atoms: O27_26  and  C28_27 
REMARK    7  A    between atoms: C31_29  and  N33_30 
REMARK    8  A    between atoms: C37_34  and  O39_35 
ROOT
ATOM      1  C4  RES d   1      16.467  -5.047   2.203  0.00  0.00     0.124 C 
ATOM      2  C6  RES d   1      16.595  -3.587   2.634  0.00  0.00     0.088 C 
ATOM      3  C7  RES d   1      17.169  -3.491   4.024  0.00  0.00    -0.009 A 
ATOM      4  C8  RES d   1      17.699  -2.253   4.418  0.00  0.00     0.088 A 
ATOM      5  C10 RES d   1      18.239  -2.089   5.690  0.00  0.00     0.066 A 
ATOM      6  C11 RES d   1      18.249  -3.179   6.585  0.00  0.00     0.066 A 
ATOM      7  C12 RES d   1      18.815  -3.010   7.936  0.00  0.00     0.197 C 
ATOM      8  O13 RES d   1      19.059  -3.981   8.626  0.00  0.00    -0.286 OA
ATOM      9  C14 RES d   1      19.078  -1.645   8.441  0.00  0.00     0.029 A 
ATOM     10  C15 RES d   1      19.334  -1.428   9.791  0.00  0.00     0.016 A 
ATOM     11  C16 RES d   1      19.580  -0.143  10.246  0.00  0.00     0.001 A 
ATOM     12  C17 RES d   1      19.573   0.924   9.368  0.00  0.00     0.001 A 
ATOM     13  C18 RES d   1      19.320   0.725   8.022  0.00  0.00     0.016 A 
ATOM     14  C19 RES d   1      19.072  -0.559   7.548  0.00  0.00     0.029 A 
ATOM     15  C20 RES d   1      18.798  -0.792   6.112  0.00  0.00     0.197 C 
ATOM     16  O21 RES d   1      19.029   0.075   5.293  0.00  0.00    -0.286 OA
ATOM     17  C22 RES d   1      17.722  -4.403   6.178  0.00  0.00     0.090 A 
ATOM     18  C24 RES d   1      17.183  -4.553   4.893  0.00  0.00     0.014 A 
ATOM     19  C25 RES d   1      16.644  -5.910   4.523  0.00  0.00     0.164 C 
ATOM     20  C44 RES d   1      15.726  -5.812   3.306  0.00  0.00     0.083 C 
ENDROOT
BRANCH  19  21
ATOM     21  O27 RES d   1      15.907  -6.441   5.626  0.00  0.00    -0.351 OA
BRANCH  21  22
ATOM     22  C28 RES d   1      14.701  -7.111   5.252  0.00  0.00     0.263 C 
ATOM     23  O43 RES d   1      13.606  -6.566   5.989  0.00  0.00    -0.354 OA
ATOM     24  C40 RES d   1      13.747  -6.671   7.407  0.00  0.00     0.151 C 
ATOM     25  C37 RES d   1      13.838  -8.147   7.803  0.00  0.00     0.177 C 
ATOM     26  C42 RES d   1      12.535  -6.034   8.091  0.00  0.00     0.042 C 
ATOM     27  C31 RES d   1      15.017  -8.792   7.069  0.00  0.00     0.219 C 
ATOM     28  C30 RES d   1      14.830  -8.605   5.561  0.00  0.00     0.096 C 
BRANCH  25  29
ATOM     29  O39 RES d   1      12.628  -8.814   7.441  0.00  0.00    -0.391 OA
ATOM     30  H59 RES d   1      11.841  -8.253   7.487  0.00  0.00     0.210 HD
ENDBRANCH  25  29
BRANCH  27  31
ATOM     31  N33 RES d   1      15.069 -10.226   7.383  0.00  0.00    -0.072 N 
ATOM     32  H34 RES d   1      15.953 -10.445   7.815  0.00  0.00     0.274 HD
ATOM     33  H35 RES d   1      14.318 -10.459   8.017  0.00  0.00     0.274 HD
ATOM     34  H36 RES d   1      14.968 -10.760   6.533  0.00  0.00     0.274 HD
ENDBRANCH  27  31
ENDBRANCH  21  22
ENDBRANCH  19  21
BRANCH  17  35
ATOM     35  O23 RES d   1      17.729  -5.456   7.032  0.00  0.00    -0.359 OA
ATOM     36  H56 RES d   1      17.863  -5.211   7.958  0.00  0.00     0.217 HD
ENDBRANCH  17  35
BRANCH   1  37
ATOM     37  C2  RES d   1      17.838  -5.641   2.008  0.00  0.00     0.157 C 
ATOM     38  C1  RES d   1      18.039  -7.129   2.134  0.00  0.00     0.094 C 
ATOM     39  O3  RES d   1      18.775  -4.925   1.749  0.00  0.00    -0.295 OA
ENDBRANCH   1  37
BRANCH   1  40
ATOM     40  O5  RES d   1      15.729  -5.126   0.983  0.00  0.00    -0.382 OA
ATOM     41  H48 RES d   1      15.665  -4.287   0.507  0.00  0.00     0.211 HD
ENDBRANCH   1  40
BRANCH   4  42
ATOM     42  O9  RES d   1      17.685  -1.209   3.551  0.00  0.00    -0.359 OA
ATOM     43  H51 RES d   1      17.610  -1.469   2.623  0.00  0.00     0.217 HD
ENDBRANCH   4  42
TORSDOF 8
ENDMDL
