MODEL 1
REMARK VINA RESULT:      -6.1      0.000      0.000
REMARK  7 active torsions:
REMARK  status: ('A' for Active; 'I' for Inactive)
REMARK    1  A    between atoms: C2_2  and  C3_3 
REMARK    2  A    between atoms: C3_3  and  N4_4 
REMARK    3  A    between atoms: N4_4  and  C7_7 
REMARK    4  A    between atoms: C7_7  and  C10_9 
REMARK       I    between atoms: C10_9  and  N12_11 
REMARK    5  A    between atoms: N12_11  and  C13_12 
REMARK    6  A    between atoms: C14_13  and  C15_14 
REMARK    7  A    between atoms: C15_14  and  O17_16 
ROOT
ATOM      1  C10 ZIN A   1      18.881  -1.426  10.334  0.00  0.00     0.252 C 
ATOM      2  O11 ZIN A   1      17.703  -1.237  10.117  0.00  0.00    -0.271 OA
ATOM      3  N12 ZIN A   1      19.799  -1.113   9.397  0.00  0.00    -0.324 N 
ATOM      4  H33 ZIN A   1      20.744  -1.188   9.600  0.00  0.00     0.169 HD
ENDROOT
BRANCH   3   5
ATOM      5  C13 ZIN A   1      19.388  -0.683   8.135  0.00  0.00     0.064 A 
ATOM      6  C21 ZIN A   1      19.118   0.637   7.830  0.00  0.00    -0.027 A 
ATOM      7  C20 ZIN A   1      18.741   0.860   6.568  0.00  0.00     0.059 A 
ATOM      8  C22 ZIN A   1      19.251   1.744   8.843  0.00  0.00     0.051 C 
ATOM      9  S19 ZIN A   1      18.687  -0.590   5.673  0.00  0.00    -0.093 SA
ATOM     10  C14 ZIN A   1      19.203  -1.530   7.067  0.00  0.00     0.107 A 
BRANCH  10  11
ATOM     11  C15 ZIN A   1      19.398  -2.931   7.086  0.00  0.00     0.302 C 
ATOM     12  O16 ZIN A   1      20.233  -3.439   6.361  0.00  0.00    -0.259 OA
BRANCH  11  13
ATOM     13  O17 ZIN A   1      18.659  -3.705   7.909  0.00  0.00    -0.322 OA
ATOM     14  C18 ZIN A   1      19.166  -5.007   8.205  0.00  0.00     0.213 C 
ENDBRANCH  11  13
ENDBRANCH  10  11
ENDBRANCH   3   5
BRANCH   1  15
ATOM     15  C7  ZIN A   1      19.319  -2.011  11.651  0.00  0.00     0.273 C 
ATOM     16  C9  ZIN A   1      20.029  -3.345  11.406  0.00  0.00     0.050 C 
BRANCH  15  17
ATOM     17  N4  ZIN A   1      20.241  -1.082  12.319  0.00  0.00    -0.063 N 
ATOM     18  H5  ZIN A   1      20.623  -0.442  11.638  0.00  0.00     0.278 HD
ATOM     19  H6  ZIN A   1      20.991  -1.602  12.748  0.00  0.00     0.278 HD
BRANCH  17  20
ATOM     20  C3  ZIN A   1      19.515  -0.326  13.348  0.00  0.00     0.233 C 
BRANCH  20  21
ATOM     21  C2  ZIN A   1      18.579  -1.269  14.107  0.00  0.00     0.023 C 
ATOM     22  C1  ZIN A   1      18.947  -1.267  15.592  0.00  0.00     0.007 C 
ENDBRANCH  20  21
ENDBRANCH  17  20
ENDBRANCH  15  17
ENDBRANCH   1  15
TORSDOF 7
ENDMDL
MODEL 2
REMARK VINA RESULT:      -6.0      1.688      2.859
REMARK  7 active torsions:
REMARK  status: ('A' for Active; 'I' for Inactive)
REMARK    1  A    between atoms: C2_2  and  C3_3 
REMARK    2  A    between atoms: C3_3  and  N4_4 
REMARK    3  A    between atoms: N4_4  and  C7_7 
REMARK    4  A    between atoms: C7_7  and  C10_9 
REMARK       I    between atoms: C10_9  and  N12_11 
REMARK    5  A    between atoms: N12_11  and  C13_12 
REMARK    6  A    between atoms: C14_13  and  C15_14 
REMARK    7  A    between atoms: C15_14  and  O17_16 
ROOT
ATOM      1  C10 ZIN A   1      18.840  -1.660   9.696  0.00  0.00     0.252 C 
ATOM      2  O11 ZIN A   1      17.651  -1.525   9.494  0.00  0.00    -0.271 OA
ATOM      3  N12 ZIN A   1      19.730  -1.298   8.750  0.00  0.00    -0.324 N 
ATOM      4  H33 ZIN A   1      20.680  -1.329   8.941  0.00  0.00     0.169 HD
ENDROOT
BRANCH   3   5
ATOM      5  C13 ZIN A   1      19.284  -0.880   7.496  0.00  0.00     0.064 A 
ATOM      6  C21 ZIN A   1      19.008   0.438   7.185  0.00  0.00    -0.027 A 
ATOM      7  C20 ZIN A   1      18.596   0.650   5.933  0.00  0.00     0.059 A 
ATOM      8  C22 ZIN A   1      19.174   1.556   8.182  0.00  0.00     0.051 C 
ATOM      9  S19 ZIN A   1      18.511  -0.810   5.055  0.00  0.00    -0.093 SA
ATOM     10  C14 ZIN A   1      19.065  -1.736   6.443  0.00  0.00     0.107 A 
BRANCH  10  11
ATOM     11  C15 ZIN A   1      19.255  -3.138   6.471  0.00  0.00     0.302 C 
ATOM     12  O16 ZIN A   1      20.382  -3.598   6.492  0.00  0.00    -0.259 OA
BRANCH  11  13
ATOM     13  O17 ZIN A   1      18.189  -3.965   6.476  0.00  0.00    -0.322 OA
ATOM     14  C18 ZIN A   1      17.929  -4.696   5.276  0.00  0.00     0.213 C 
ENDBRANCH  11  13
ENDBRANCH  10  11
ENDBRANCH   3   5
BRANCH   1  15
ATOM     15  C7  ZIN A   1      19.321  -2.231  11.004  0.00  0.00     0.273 C 
ATOM     16  C9  ZIN A   1      18.138  -2.840  11.760  0.00  0.00     0.050 C 
BRANCH  15  17
ATOM     17  N4  ZIN A   1      20.325  -3.273  10.744  0.00  0.00    -0.063 N 
ATOM     18  H5  ZIN A   1      21.079  -3.185  11.408  0.00  0.00     0.278 HD
ATOM     19  H6  ZIN A   1      20.686  -3.166   9.808  0.00  0.00     0.278 HD
BRANCH  17  20
ATOM     20  C3  ZIN A   1      19.704  -4.597  10.880  0.00  0.00     0.233 C 
BRANCH  20  21
ATOM     21  C2  ZIN A   1      19.801  -5.346   9.550  0.00  0.00     0.023 C 
ATOM     22  C1  ZIN A   1      18.470  -6.041   9.257  0.00  0.00     0.007 C 
ENDBRANCH  20  21
ENDBRANCH  17  20
ENDBRANCH  15  17
ENDBRANCH   1  15
TORSDOF 7
ENDMDL
MODEL 3
REMARK VINA RESULT:      -5.9      4.974      8.123
REMARK  7 active torsions:
REMARK  status: ('A' for Active; 'I' for Inactive)
REMARK    1  A    between atoms: C2_2  and  C3_3 
REMARK    2  A    between atoms: C3_3  and  N4_4 
REMARK    3  A    between atoms: N4_4  and  C7_7 
REMARK    4  A    between atoms: C7_7  and  C10_9 
REMARK       I    between atoms: C10_9  and  N12_11 
REMARK    5  A    between atoms: N12_11  and  C13_12 
REMARK    6  A    between atoms: C14_13  and  C15_14 
REMARK    7  A    between atoms: C15_14  and  O17_16 
ROOT
ATOM      1  C10 ZIN A   1      18.972   1.904  12.723  0.00  0.00     0.252 C 
ATOM      2  O11 ZIN A   1      17.786   1.661  12.804  0.00  0.00    -0.271 OA
ATOM      3  N12 ZIN A   1      19.824   1.424  13.651  0.00  0.00    -0.324 N 
ATOM      4  H33 ZIN A   1      20.779   1.548  13.543  0.00  0.00     0.169 HD
ENDROOT
BRANCH   3   5
ATOM      5  C13 ZIN A   1      19.330   0.749  14.768  0.00  0.00     0.064 A 
ATOM      6  C21 ZIN A   1      19.068  -0.608  14.785  0.00  0.00    -0.027 A 
ATOM      7  C20 ZIN A   1      18.604  -1.080  15.944  0.00  0.00     0.059 A 
ATOM      8  C22 ZIN A   1      19.302  -1.491  13.586  0.00  0.00     0.051 C 
ATOM      9  S19 ZIN A   1      18.449   0.164  17.101  0.00  0.00    -0.093 SA
ATOM     10  C14 ZIN A   1      19.046   1.365  15.964  0.00  0.00     0.107 A 
BRANCH  10  11
ATOM     11  C15 ZIN A   1      19.209   2.744  16.236  0.00  0.00     0.302 C 
ATOM     12  O16 ZIN A   1      19.885   3.101  17.183  0.00  0.00    -0.259 OA
BRANCH  11  13
ATOM     13  O17 ZIN A   1      18.615   3.664  15.447  0.00  0.00    -0.322 OA
ATOM     14  C18 ZIN A   1      19.350   4.858  15.177  0.00  0.00     0.213 C 
ENDBRANCH  11  13
ENDBRANCH  10  11
ENDBRANCH   3   5
BRANCH   1  15
ATOM     15  C7  ZIN A   1      19.493   2.742  11.585  0.00  0.00     0.273 C 
ATOM     16  C9  ZIN A   1      19.118   2.085  10.254  0.00  0.00     0.050 C 
BRANCH  15  17
ATOM     17  N4  ZIN A   1      18.900   4.085  11.652  0.00  0.00    -0.063 N 
ATOM     18  H5  ZIN A   1      19.635   4.777  11.643  0.00  0.00     0.278 HD
ATOM     19  H6  ZIN A   1      18.365   4.173  12.503  0.00  0.00     0.278 HD
BRANCH  17  20
ATOM     20  C3  ZIN A   1      18.018   4.290  10.496  0.00  0.00     0.233 C 
BRANCH  20  21
ATOM     21  C2  ZIN A   1      16.685   4.872  10.967  0.00  0.00     0.023 C 
ATOM     22  C1  ZIN A   1      16.815   5.335  12.419  0.00  0.00     0.007 C 
ENDBRANCH  20  21
ENDBRANCH  17  20
ENDBRANCH  15  17
ENDBRANCH   1  15
TORSDOF 7
ENDMDL
MODEL 4
REMARK VINA RESULT:      -5.9      2.461      4.103
REMARK  7 active torsions:
REMARK  status: ('A' for Active; 'I' for Inactive)
REMARK    1  A    between atoms: C2_2  and  C3_3 
REMARK    2  A    between atoms: C3_3  and  N4_4 
REMARK    3  A    between atoms: N4_4  and  C7_7 
REMARK    4  A    between atoms: C7_7  and  C10_9 
REMARK       I    between atoms: C10_9  and  N12_11 
REMARK    5  A    between atoms: N12_11  and  C13_12 
REMARK    6  A    between atoms: C14_13  and  C15_14 
REMARK    7  A    between atoms: C15_14  and  O17_16 
ROOT
ATOM      1  C10 ZIN A   1      18.851  -0.949   9.168  0.00  0.00     0.252 C 
ATOM      2  O11 ZIN A   1      17.657  -1.113   9.027  0.00  0.00    -0.271 OA
ATOM      3  N12 ZIN A   1      19.721  -1.635   8.399  0.00  0.00    -0.324 N 
ATOM      4  H33 ZIN A   1      20.670  -1.445   8.454  0.00  0.00     0.169 HD
ENDROOT
BRANCH   3   5
ATOM      5  C13 ZIN A   1      19.255  -2.618   7.526  0.00  0.00     0.064 A 
ATOM      6  C21 ZIN A   1      19.027  -3.927   7.904  0.00  0.00    -0.027 A 
ATOM      7  C20 ZIN A   1      18.578  -4.726   6.933  0.00  0.00     0.059 A 
ATOM      8  C22 ZIN A   1      19.256  -4.414   9.312  0.00  0.00     0.051 C 
ATOM      9  S19 ZIN A   1      18.424  -3.882   5.459  0.00  0.00    -0.093 SA
ATOM     10  C14 ZIN A   1      18.984  -2.388   6.198  0.00  0.00     0.107 A 
BRANCH  10  11
ATOM     11  C15 ZIN A   1      19.131  -1.148   5.532  0.00  0.00     0.302 C 
ATOM     12  O16 ZIN A   1      19.974  -1.020   4.664  0.00  0.00    -0.259 OA
BRANCH  11  13
ATOM     13  O17 ZIN A   1      18.335  -0.108   5.858  0.00  0.00    -0.322 OA
ATOM     14  C18 ZIN A   1      18.976   1.141   6.122  0.00  0.00     0.213 C 
ENDBRANCH  11  13
ENDBRANCH  10  11
ENDBRANCH   3   5
BRANCH   1  15
ATOM     15  C7  ZIN A   1      19.361   0.021  10.201  0.00  0.00     0.273 C 
ATOM     16  C9  ZIN A   1      20.593  -0.570  10.891  0.00  0.00     0.050 C 
BRANCH  15  17
ATOM     17  N4  ZIN A   1      19.724   1.286   9.549  0.00  0.00    -0.063 N 
ATOM     18  H5  ZIN A   1      19.213   1.376   8.683  0.00  0.00     0.278 HD
ATOM     19  H6  ZIN A   1      20.715   1.293   9.358  0.00  0.00     0.278 HD
BRANCH  17  20
ATOM     20  C3  ZIN A   1      19.388   2.409  10.435  0.00  0.00     0.233 C 
BRANCH  20  21
ATOM     21  C2  ZIN A   1      17.901   2.737  10.301  0.00  0.00     0.023 C 
ATOM     22  C1  ZIN A   1      17.710   4.255  10.311  0.00  0.00     0.007 C 
ENDBRANCH  20  21
ENDBRANCH  17  20
ENDBRANCH  15  17
ENDBRANCH   1  15
TORSDOF 7
ENDMDL
MODEL 5
REMARK VINA RESULT:      -5.9      1.745      2.537
REMARK  7 active torsions:
REMARK  status: ('A' for Active; 'I' for Inactive)
REMARK    1  A    between atoms: C2_2  and  C3_3 
REMARK    2  A    between atoms: C3_3  and  N4_4 
REMARK    3  A    between atoms: N4_4  and  C7_7 
REMARK    4  A    between atoms: C7_7  and  C10_9 
REMARK       I    between atoms: C10_9  and  N12_11 
REMARK    5  A    between atoms: N12_11  and  C13_12 
REMARK    6  A    between atoms: C14_13  and  C15_14 
REMARK    7  A    between atoms: C15_14  and  O17_16 
ROOT
ATOM      1  C10 ZIN A   1      20.035  -0.143  11.556  0.00  0.00     0.252 C 
ATOM      2  O11 ZIN A   1      21.023  -0.506  10.953  0.00  0.00    -0.271 OA
ATOM      3  N12 ZIN A   1      18.849  -0.058  10.920  0.00  0.00    -0.324 N 
ATOM      4  H33 ZIN A   1      18.045   0.153  11.419  0.00  0.00     0.169 HD
ENDROOT
BRANCH   3   5
ATOM      5  C13 ZIN A   1      18.779  -0.273   9.543  0.00  0.00     0.064 A 
ATOM      6  C21 ZIN A   1      18.876   0.739   8.608  0.00  0.00    -0.027 A 
ATOM      7  C20 ZIN A   1      18.792   0.344   7.335  0.00  0.00     0.059 A 
ATOM      8  C22 ZIN A   1      19.076   2.182   8.996  0.00  0.00     0.051 C 
ATOM      9  S19 ZIN A   1      18.568  -1.344   7.226  0.00  0.00    -0.093 SA
ATOM     10  C14 ZIN A   1      18.599  -1.513   8.976  0.00  0.00     0.107 A 
BRANCH  10  11
ATOM     11  C15 ZIN A   1      18.462  -2.729   9.686  0.00  0.00     0.302 C 
ATOM     12  O16 ZIN A   1      19.108  -3.704   9.351  0.00  0.00    -0.259 OA
BRANCH  11  13
ATOM     13  O17 ZIN A   1      17.616  -2.808  10.734  0.00  0.00    -0.322 OA
ATOM     14  C18 ZIN A   1      18.064  -3.537  11.877  0.00  0.00     0.213 C 
ENDBRANCH  11  13
ENDBRANCH  10  11
ENDBRANCH   3   5
BRANCH   1  15
ATOM     15  C7  ZIN A   1      20.133   0.214  13.017  0.00  0.00     0.273 C 
ATOM     16  C9  ZIN A   1      19.081   1.273  13.355  0.00  0.00     0.050 C 
BRANCH  15  17
ATOM     17  N4  ZIN A   1      19.897  -0.987  13.831  0.00  0.00    -0.063 N 
ATOM     18  H5  ZIN A   1      20.621  -1.064  14.531  0.00  0.00     0.278 HD
ATOM     19  H6  ZIN A   1      19.913  -1.803  13.239  0.00  0.00     0.278 HD
BRANCH  17  20
ATOM     20  C3  ZIN A   1      18.588  -0.884  14.489  0.00  0.00     0.233 C 
BRANCH  20  21
ATOM     21  C2  ZIN A   1      18.697  -1.402  15.924  0.00  0.00     0.023 C 
ATOM     22  C1  ZIN A   1      17.443  -1.006  16.706  0.00  0.00     0.007 C 
ENDBRANCH  20  21
ENDBRANCH  17  20
ENDBRANCH  15  17
ENDBRANCH   1  15
TORSDOF 7
ENDMDL
MODEL 6
REMARK VINA RESULT:      -5.9      4.824      7.774
REMARK  7 active torsions:
REMARK  status: ('A' for Active; 'I' for Inactive)
REMARK    1  A    between atoms: C2_2  and  C3_3 
REMARK    2  A    between atoms: C3_3  and  N4_4 
REMARK    3  A    between atoms: N4_4  and  C7_7 
REMARK    4  A    between atoms: C7_7  and  C10_9 
REMARK       I    between atoms: C10_9  and  N12_11 
REMARK    5  A    between atoms: N12_11  and  C13_12 
REMARK    6  A    between atoms: C14_13  and  C15_14 
REMARK    7  A    between atoms: C15_14  and  O17_16 
ROOT
ATOM      1  C10 ZIN A   1      18.754   2.818  13.679  0.00  0.00     0.252 C 
ATOM      2  O11 ZIN A   1      17.617   3.020  14.052  0.00  0.00    -0.271 OA
ATOM      3  N12 ZIN A   1      19.617   2.155  14.474  0.00  0.00    -0.324 N 
ATOM      4  H33 ZIN A   1      20.499   1.923  14.144  0.00  0.00     0.169 HD
ENDROOT
BRANCH   3   5
ATOM      5  C13 ZIN A   1      19.242   1.805  15.772  0.00  0.00     0.064 A 
ATOM      6  C21 ZIN A   1      19.301   2.676  16.843  0.00  0.00    -0.027 A 
ATOM      7  C20 ZIN A   1      18.898   2.165  18.009  0.00  0.00     0.059 A 
ATOM      8  C22 ZIN A   1      19.773   4.100  16.703  0.00  0.00     0.051 C 
ATOM      9  S19 ZIN A   1      18.426   0.535  17.840  0.00  0.00    -0.093 SA
ATOM     10  C14 ZIN A   1      18.785   0.556  16.119  0.00  0.00     0.107 A 
BRANCH  10  11
ATOM     11  C15 ZIN A   1      18.626  -0.536  15.234  0.00  0.00     0.302 C 
ATOM     12  O16 ZIN A   1      19.304  -1.537  15.376  0.00  0.00    -0.259 OA
BRANCH  11  13
ATOM     13  O17 ZIN A   1      17.723  -0.471  14.234  0.00  0.00    -0.322 OA
ATOM     14  C18 ZIN A   1      18.083  -1.077  12.992  0.00  0.00     0.213 C 
ENDBRANCH  11  13
ENDBRANCH  10  11
ENDBRANCH   3   5
BRANCH   1  15
ATOM     15  C7  ZIN A   1      19.200   3.309  12.326  0.00  0.00     0.273 C 
ATOM     16  C9  ZIN A   1      19.854   4.685  12.473  0.00  0.00     0.050 C 
BRANCH  15  17
ATOM     17  N4  ZIN A   1      20.170   2.363  11.757  0.00  0.00    -0.063 N 
ATOM     18  H5  ZIN A   1      20.534   1.773  12.491  0.00  0.00     0.278 HD
ATOM     19  H6  ZIN A   1      20.928   2.875  11.331  0.00  0.00     0.278 HD
BRANCH  17  20
ATOM     20  C3  ZIN A   1      19.508   1.532  10.743  0.00  0.00     0.233 C 
BRANCH  20  21
ATOM     21  C2  ZIN A   1      18.925   2.429   9.650  0.00  0.00     0.023 C 
ATOM     22  C1  ZIN A   1      19.198   1.807   8.279  0.00  0.00     0.007 C 
ENDBRANCH  20  21
ENDBRANCH  17  20
ENDBRANCH  15  17
ENDBRANCH   1  15
TORSDOF 7
ENDMDL
MODEL 7
REMARK VINA RESULT:      -5.9      3.721      6.695
REMARK  7 active torsions:
REMARK  status: ('A' for Active; 'I' for Inactive)
REMARK    1  A    between atoms: C2_2  and  C3_3 
REMARK    2  A    between atoms: C3_3  and  N4_4 
REMARK    3  A    between atoms: N4_4  and  C7_7 
REMARK    4  A    between atoms: C7_7  and  C10_9 
REMARK       I    between atoms: C10_9  and  N12_11 
REMARK    5  A    between atoms: N12_11  and  C13_12 
REMARK    6  A    between atoms: C14_13  and  C15_14 
REMARK    7  A    between atoms: C15_14  and  O17_16 
ROOT
ATOM      1  C10 ZIN A   1      20.221   0.014  11.850  0.00  0.00     0.252 C 
ATOM      2  O11 ZIN A   1      21.177   0.618  12.289  0.00  0.00    -0.271 OA
ATOM      3  N12 ZIN A   1      19.001   0.197  12.392  0.00  0.00    -0.324 N 
ATOM      4  H33 ZIN A   1      18.224  -0.222  11.989  0.00  0.00     0.169 HD
ENDROOT
BRANCH   3   5
ATOM      5  C13 ZIN A   1      18.855   0.988  13.532  0.00  0.00     0.064 A 
ATOM      6  C21 ZIN A   1      18.900   0.486  14.818  0.00  0.00    -0.027 A 
ATOM      7  C20 ZIN A   1      18.745   1.394  15.785  0.00  0.00     0.059 A 
ATOM      8  C22 ZIN A   1      19.121  -0.976  15.109  0.00  0.00     0.051 C 
ATOM      9  S19 ZIN A   1      18.515   2.954  15.137  0.00  0.00    -0.093 SA
ATOM     10  C14 ZIN A   1      18.643   2.345  13.492  0.00  0.00     0.107 A 
BRANCH  10  11
ATOM     11  C15 ZIN A   1      18.545   3.128  12.318  0.00  0.00     0.302 C 
ATOM     12  O16 ZIN A   1      19.483   3.821  11.969  0.00  0.00    -0.259 OA
BRANCH  11  13
ATOM     13  O17 ZIN A   1      17.413   3.106  11.583  0.00  0.00    -0.322 OA
ATOM     14  C18 ZIN A   1      17.103   4.282  10.834  0.00  0.00     0.213 C 
ENDBRANCH  11  13
ENDBRANCH  10  11
ENDBRANCH   3   5
BRANCH   1  15
ATOM     15  C7  ZIN A   1      20.399  -0.940  10.697  0.00  0.00     0.273 C 
ATOM     16  C9  ZIN A   1      19.213  -1.907  10.649  0.00  0.00     0.050 C 
BRANCH  15  17
ATOM     17  N4  ZIN A   1      20.465  -0.183   9.440  0.00  0.00    -0.063 N 
ATOM     18  H5  ZIN A   1      21.325  -0.405   8.960  0.00  0.00     0.278 HD
ATOM     19  H6  ZIN A   1      20.436   0.805   9.640  0.00  0.00     0.278 HD
BRANCH  17  20
ATOM     20  C3  ZIN A   1      19.322  -0.544   8.590  0.00  0.00     0.233 C 
BRANCH  20  21
ATOM     21  C2  ZIN A   1      18.496   0.707   8.288  0.00  0.00     0.023 C 
ATOM     22  C1  ZIN A   1      19.267   1.949   8.736  0.00  0.00     0.007 C 
ENDBRANCH  20  21
ENDBRANCH  17  20
ENDBRANCH  15  17
ENDBRANCH   1  15
TORSDOF 7
ENDMDL
MODEL 8
REMARK VINA RESULT:      -5.9      3.393      6.301
REMARK  7 active torsions:
REMARK  status: ('A' for Active; 'I' for Inactive)
REMARK    1  A    between atoms: C2_2  and  C3_3 
REMARK    2  A    between atoms: C3_3  and  N4_4 
REMARK    3  A    between atoms: N4_4  and  C7_7 
REMARK    4  A    between atoms: C7_7  and  C10_9 
REMARK       I    between atoms: C10_9  and  N12_11 
REMARK    5  A    between atoms: N12_11  and  C13_12 
REMARK    6  A    between atoms: C14_13  and  C15_14 
REMARK    7  A    between atoms: C15_14  and  O17_16 
ROOT
ATOM      1  C10 ZIN A   1      18.941  -2.176  12.671  0.00  0.00     0.252 C 
ATOM      2  O11 ZIN A   1      17.826  -1.732  12.492  0.00  0.00    -0.271 OA
ATOM      3  N12 ZIN A   1      19.748  -1.620  13.596  0.00  0.00    -0.324 N 
ATOM      4  H33 ZIN A   1      20.606  -2.024  13.797  0.00  0.00     0.169 HD
ENDROOT
BRANCH   3   5
ATOM      5  C13 ZIN A   1      19.349  -0.461  14.264  0.00  0.00     0.064 A 
ATOM      6  C21 ZIN A   1      18.765  -0.466  15.516  0.00  0.00    -0.027 A 
ATOM      7  C20 ZIN A   1      18.454   0.739  16.000  0.00  0.00     0.059 A 
ATOM      8  C22 ZIN A   1      18.510  -1.737  16.285  0.00  0.00     0.051 C 
ATOM      9  S19 ZIN A   1      18.865   1.973  14.896  0.00  0.00    -0.093 SA
ATOM     10  C14 ZIN A   1      19.489   0.803  13.742  0.00  0.00     0.107 A 
BRANCH  10  11
ATOM     11  C15 ZIN A   1      20.047   1.113  12.479  0.00  0.00     0.302 C 
ATOM     12  O16 ZIN A   1      21.116   0.632  12.152  0.00  0.00    -0.259 OA
BRANCH  11  13
ATOM     13  O17 ZIN A   1      19.394   1.940  11.636  0.00  0.00    -0.322 OA
ATOM     14  C18 ZIN A   1      19.917   3.260  11.486  0.00  0.00     0.213 C 
ENDBRANCH  11  13
ENDBRANCH  10  11
ENDBRANCH   3   5
BRANCH   1  15
ATOM     15  C7  ZIN A   1      19.422  -3.351  11.860  0.00  0.00     0.273 C 
ATOM     16  C9  ZIN A   1      18.258  -4.313  11.615  0.00  0.00     0.050 C 
BRANCH  15  17
ATOM     17  N4  ZIN A   1      19.944  -2.876  10.571  0.00  0.00    -0.063 N 
ATOM     18  H5  ZIN A   1      20.802  -3.363  10.356  0.00  0.00     0.278 HD
ATOM     19  H6  ZIN A   1      20.125  -1.885  10.626  0.00  0.00     0.278 HD
BRANCH  17  20
ATOM     20  C3  ZIN A   1      18.955  -3.134   9.516  0.00  0.00     0.233 C 
BRANCH  20  21
ATOM     21  C2  ZIN A   1      18.566  -1.815   8.847  0.00  0.00     0.023 C 
ATOM     22  C1  ZIN A   1      19.605  -0.745   9.185  0.00  0.00     0.007 C 
ENDBRANCH  20  21
ENDBRANCH  17  20
ENDBRANCH  15  17
ENDBRANCH   1  15
TORSDOF 7
ENDMDL
MODEL 9
REMARK VINA RESULT:      -5.8      3.473      6.351
REMARK  7 active torsions:
REMARK  status: ('A' for Active; 'I' for Inactive)
REMARK    1  A    between atoms: C2_2  and  C3_3 
REMARK    2  A    between atoms: C3_3  and  N4_4 
REMARK    3  A    between atoms: N4_4  and  C7_7 
REMARK    4  A    between atoms: C7_7  and  C10_9 
REMARK       I    between atoms: C10_9  and  N12_11 
REMARK    5  A    between atoms: N12_11  and  C13_12 
REMARK    6  A    between atoms: C14_13  and  C15_14 
REMARK    7  A    between atoms: C15_14  and  O17_16 
ROOT
ATOM      1  C10 ZIN A   1      18.736   1.600  11.265  0.00  0.00     0.252 C 
ATOM      2  O11 ZIN A   1      19.881   1.376  11.598  0.00  0.00    -0.271 OA
ATOM      3  N12 ZIN A   1      17.726   1.361  12.124  0.00  0.00    -0.324 N 
ATOM      4  H33 ZIN A   1      16.819   1.615  11.890  0.00  0.00     0.169 HD
ENDROOT
BRANCH   3   5
ATOM      5  C13 ZIN A   1      17.982   0.747  13.351  0.00  0.00     0.064 A 
ATOM      6  C21 ZIN A   1      18.210   1.446  14.520  0.00  0.00    -0.027 A 
ATOM      7  C20 ZIN A   1      18.434   0.689  15.597  0.00  0.00     0.059 A 
ATOM      8  C22 ZIN A   1      18.194   2.952  14.579  0.00  0.00     0.051 C 
ATOM      9  S19 ZIN A   1      18.387  -0.971  15.207  0.00  0.00    -0.093 SA
ATOM     10  C14 ZIN A   1      18.043  -0.616  13.519  0.00  0.00     0.107 A 
BRANCH  10  11
ATOM     11  C15 ZIN A   1      17.857  -1.580  12.500  0.00  0.00     0.302 C 
ATOM     12  O16 ZIN A   1      16.873  -1.526  11.785  0.00  0.00    -0.259 OA
BRANCH  11  13
ATOM     13  O17 ZIN A   1      18.770  -2.557  12.319  0.00  0.00    -0.322 OA
ATOM     14  C18 ZIN A   1      19.833  -2.292  11.403  0.00  0.00     0.213 C 
ENDBRANCH  11  13
ENDBRANCH  10  11
ENDBRANCH   3   5
BRANCH   1  15
ATOM     15  C7  ZIN A   1      18.445   2.144   9.891  0.00  0.00     0.273 C 
ATOM     16  C9  ZIN A   1      18.216   3.655   9.980  0.00  0.00     0.050 C 
BRANCH  15  17
ATOM     17  N4  ZIN A   1      19.584   1.873   9.004  0.00  0.00    -0.063 N 
ATOM     18  H5  ZIN A   1      20.397   1.655   9.560  0.00  0.00     0.278 HD
ATOM     19  H6  ZIN A   1      19.771   2.687   8.439  0.00  0.00     0.278 HD
BRANCH  17  20
ATOM     20  C3  ZIN A   1      19.266   0.735   8.132  0.00  0.00     0.233 C 
BRANCH  20  21
ATOM     21  C2  ZIN A   1      18.905   1.246   6.736  0.00  0.00     0.023 C 
ATOM     22  C1  ZIN A   1      17.859   0.324   6.109  0.00  0.00     0.007 C 
ENDBRANCH  20  21
ENDBRANCH  17  20
ENDBRANCH  15  17
ENDBRANCH   1  15
TORSDOF 7
ENDMDL
