MODEL 1
REMARK VINA RESULT:      -8.7      0.000      0.000
REMARK  0 active torsions:
REMARK  status: ('A' for Active; 'I' for Inactive)
ROOT
ATOM      1  C1  ZIN A   1      16.272   6.261  13.468  0.00  0.00     0.309 C 
ATOM      2  N2  ZIN A   1      17.272   5.302  12.980  0.00  0.00     0.084 N 
ATOM      3  C3  ZIN A   1      16.985   4.900  11.597  0.00  0.00     0.276 C 
ATOM      4  C4  ZIN A   1      18.170   4.099  11.043  0.00  0.00     0.065 C 
ATOM      5  C5  ZIN A   1      18.459   2.960  11.997  0.00  0.00    -0.065 C 
ATOM      6  C6  ZIN A   1      18.608   1.704  11.552  0.00  0.00    -0.011 C 
ATOM      7  C7  ZIN A   1      18.501   1.391  10.107  0.00  0.00    -0.015 A 
ATOM      8  C8  ZIN A   1      19.354   2.006   9.197  0.00  0.00     0.013 A 
ATOM      9  C9  ZIN A   1      19.284   1.680   7.858  0.00  0.00     0.001 A 
ATOM     10  C10 ZIN A   1      18.369   0.739   7.414  0.00  0.00     0.001 A 
ATOM     11  C11 ZIN A   1      17.503   0.133   8.298  0.00  0.00     0.012 A 
ATOM     12  C12 ZIN A   1      17.540   0.467   9.658  0.00  0.00    -0.025 A 
ATOM     13  C13 ZIN A   1      16.559  -0.113  10.571  0.00  0.00     0.013 C 
ATOM     14  C14 ZIN A   1      16.758  -0.528  11.803  0.00  0.00     0.013 C 
ATOM     15  C15 ZIN A   1      18.008  -0.509  12.558  0.00  0.00    -0.025 A 
ATOM     16  C16 ZIN A   1      18.343  -1.596  13.374  0.00  0.00     0.012 A 
ATOM     17  C17 ZIN A   1      19.496  -1.568  14.125  0.00  0.00     0.001 A 
ATOM     18  C18 ZIN A   1      20.336  -0.467  14.086  0.00  0.00     0.001 A 
ATOM     19  C19 ZIN A   1      20.034   0.610  13.275  0.00  0.00     0.013 A 
ATOM     20  C20 ZIN A   1      18.891   0.592  12.490  0.00  0.00    -0.015 A 
ATOM     21  C21 ZIN A   1      18.575   3.286  13.471  0.00  0.00     0.065 C 
ATOM     22  C22 ZIN A   1      17.364   4.138  13.871  0.00  0.00     0.276 C 
ENDROOT
TORSDOF 0
ENDMDL
MODEL 2
REMARK VINA RESULT:      -8.7      2.634      4.122
REMARK  0 active torsions:
REMARK  status: ('A' for Active; 'I' for Inactive)
ROOT
ATOM      1  C1  ZIN A   1      18.165   0.136  18.340  0.00  0.00     0.309 C 
ATOM      2  N2  ZIN A   1      18.846   0.045  17.041  0.00  0.00     0.084 N 
ATOM      3  C3  ZIN A   1      18.523   1.202  16.196  0.00  0.00     0.276 C 
ATOM      4  C4  ZIN A   1      19.431   1.199  14.961  0.00  0.00     0.065 C 
ATOM      5  C5  ZIN A   1      19.305  -0.148  14.283  0.00  0.00    -0.065 C 
ATOM      6  C6  ZIN A   1      19.083  -0.242  12.963  0.00  0.00    -0.011 C 
ATOM      7  C7  ZIN A   1      18.961   0.973  12.124  0.00  0.00    -0.015 A 
ATOM      8  C8  ZIN A   1      20.009   1.886  12.065  0.00  0.00     0.013 A 
ATOM      9  C9  ZIN A   1      19.913   2.994  11.247  0.00  0.00     0.001 A 
ATOM     10  C10 ZIN A   1      18.778   3.201  10.481  0.00  0.00     0.001 A 
ATOM     11  C11 ZIN A   1      17.721   2.318  10.541  0.00  0.00     0.012 A 
ATOM     12  C12 ZIN A   1      17.788   1.200  11.382  0.00  0.00    -0.025 A 
ATOM     13  C13 ZIN A   1      16.629   0.320  11.505  0.00  0.00     0.013 C 
ATOM     14  C14 ZIN A   1      16.626  -0.993  11.599  0.00  0.00     0.013 C 
ATOM     15  C15 ZIN A   1      17.779  -1.888  11.600  0.00  0.00    -0.025 A 
ATOM     16  C16 ZIN A   1      17.719  -3.098  10.899  0.00  0.00     0.012 A 
ATOM     17  C17 ZIN A   1      18.784  -3.971  10.932  0.00  0.00     0.001 A 
ATOM     18  C18 ZIN A   1      19.923  -3.665  11.660  0.00  0.00     0.001 A 
ATOM     19  C19 ZIN A   1      20.010  -2.468  12.345  0.00  0.00     0.013 A 
ATOM     20  C20 ZIN A   1      18.961  -1.564  12.304  0.00  0.00    -0.015 A 
ATOM     21  C21 ZIN A   1      19.437  -1.387  15.143  0.00  0.00     0.065 C 
ATOM     22  C22 ZIN A   1      18.529  -1.220  16.367  0.00  0.00     0.276 C 
ENDROOT
TORSDOF 0
ENDMDL
MODEL 3
REMARK VINA RESULT:      -8.5      3.426      6.822
REMARK  0 active torsions:
REMARK  status: ('A' for Active; 'I' for Inactive)
ROOT
ATOM      1  C1  ZIN A   1      16.998  -6.504   9.577  0.00  0.00     0.309 C 
ATOM      2  N2  ZIN A   1      17.884  -5.402   9.978  0.00  0.00     0.084 N 
ATOM      3  C3  ZIN A   1      17.625  -4.997  11.365  0.00  0.00     0.276 C 
ATOM      4  C4  ZIN A   1      18.719  -4.025  11.823  0.00  0.00     0.065 C 
ATOM      5  C5  ZIN A   1      18.794  -2.890  10.825  0.00  0.00    -0.065 C 
ATOM      6  C6  ZIN A   1      18.795  -1.611  11.228  0.00  0.00    -0.011 C 
ATOM      7  C7  ZIN A   1      18.729  -1.267  12.668  0.00  0.00    -0.015 A 
ATOM      8  C8  ZIN A   1      19.710  -1.729  13.539  0.00  0.00     0.013 A 
ATOM      9  C9  ZIN A   1      19.673  -1.371  14.871  0.00  0.00     0.001 A 
ATOM     10  C10 ZIN A   1      18.665  -0.548  15.346  0.00  0.00     0.001 A 
ATOM     11  C11 ZIN A   1      17.674  -0.095  14.502  0.00  0.00     0.012 A 
ATOM     12  C12 ZIN A   1      17.678  -0.466  13.152  0.00  0.00    -0.025 A 
ATOM     13  C13 ZIN A   1      16.576  -0.055  12.287  0.00  0.00     0.013 C 
ATOM     14  C14 ZIN A   1      16.645   0.340  11.034  0.00  0.00     0.013 C 
ATOM     15  C15 ZIN A   1      17.841   0.465  10.204  0.00  0.00    -0.025 A 
ATOM     16  C16 ZIN A   1      17.975   1.560   9.341  0.00  0.00     0.012 A 
ATOM     17  C17 ZIN A   1      19.077   1.662   8.521  0.00  0.00     0.001 A 
ATOM     18  C18 ZIN A   1      20.060   0.686   8.537  0.00  0.00     0.001 A 
ATOM     19  C19 ZIN A   1      19.955  -0.393   9.393  0.00  0.00     0.013 A 
ATOM     20  C20 ZIN A   1      18.868  -0.503  10.246  0.00  0.00    -0.015 A 
ATOM     21  C21 ZIN A   1      18.868  -3.247   9.355  0.00  0.00     0.065 C 
ATOM     22  C22 ZIN A   1      17.764  -4.268   9.052  0.00  0.00     0.276 C 
ENDROOT
TORSDOF 0
ENDMDL
MODEL 4
REMARK VINA RESULT:      -8.3      2.620      5.131
REMARK  0 active torsions:
REMARK  status: ('A' for Active; 'I' for Inactive)
ROOT
ATOM      1  C1  ZIN A   1      19.380   0.213  17.989  0.00  0.00     0.309 C 
ATOM      2  N2  ZIN A   1      18.668   0.054  16.714  0.00  0.00     0.084 N 
ATOM      3  C3  ZIN A   1      18.980  -1.241  16.095  0.00  0.00     0.276 C 
ATOM      4  C4  ZIN A   1      18.044  -1.474  14.904  0.00  0.00     0.065 C 
ATOM      5  C5  ZIN A   1      18.143  -0.279  13.981  0.00  0.00    -0.065 C 
ATOM      6  C6  ZIN A   1      18.333  -0.436  12.662  0.00  0.00    -0.011 C 
ATOM      7  C7  ZIN A   1      18.445  -1.787  12.065  0.00  0.00    -0.015 A 
ATOM      8  C8  ZIN A   1      17.403  -2.698  12.205  0.00  0.00     0.013 A 
ATOM      9  C9  ZIN A   1      17.489  -3.940  11.609  0.00  0.00     0.001 A 
ATOM     10  C10 ZIN A   1      18.608  -4.285  10.868  0.00  0.00     0.001 A 
ATOM     11  C11 ZIN A   1      19.658  -3.402  10.734  0.00  0.00     0.012 A 
ATOM     12  C12 ZIN A   1      19.602  -2.145  11.350  0.00  0.00    -0.025 A 
ATOM     13  C13 ZIN A   1      20.756  -1.254  11.277  0.00  0.00     0.013 C 
ATOM     14  C14 ZIN A   1      20.752   0.052  11.120  0.00  0.00     0.013 C 
ATOM     15  C15 ZIN A   1      19.591   0.928  10.981  0.00  0.00    -0.025 A 
ATOM     16  C16 ZIN A   1      19.625   1.984  10.063  0.00  0.00     0.012 A 
ATOM     17  C17 ZIN A   1      18.554   2.843   9.957  0.00  0.00     0.001 A 
ATOM     18  C18 ZIN A   1      17.436   2.676  10.757  0.00  0.00     0.001 A 
ATOM     19  C19 ZIN A   1      17.374   1.631  11.658  0.00  0.00     0.013 A 
ATOM     20  C20 ZIN A   1      18.430   0.738  11.763  0.00  0.00    -0.015 A 
ATOM     21  C21 ZIN A   1      18.021   1.099  14.595  0.00  0.00     0.065 C 
ATOM     22  C22 ZIN A   1      18.959   1.171  15.806  0.00  0.00     0.276 C 
ENDROOT
TORSDOF 0
ENDMDL
MODEL 5
REMARK VINA RESULT:      -7.9      2.373      5.127
REMARK  0 active torsions:
REMARK  status: ('A' for Active; 'I' for Inactive)
ROOT
ATOM      1  C1  ZIN A   1      19.590  -0.165   4.964  0.00  0.00     0.309 C 
ATOM      2  N2  ZIN A   1      18.839   0.059   6.207  0.00  0.00     0.084 N 
ATOM      3  C3  ZIN A   1      19.147   1.376   6.778  0.00  0.00     0.276 C 
ATOM      4  C4  ZIN A   1      18.174   1.672   7.926  0.00  0.00     0.065 C 
ATOM      5  C5  ZIN A   1      18.229   0.518   8.904  0.00  0.00    -0.065 C 
ATOM      6  C6  ZIN A   1      18.377   0.730  10.220  0.00  0.00    -0.011 C 
ATOM      7  C7  ZIN A   1      18.486   2.105  10.761  0.00  0.00    -0.015 A 
ATOM      8  C8  ZIN A   1      17.461   3.021  10.546  0.00  0.00     0.013 A 
ATOM      9  C9  ZIN A   1      17.542   4.287  11.089  0.00  0.00     0.001 A 
ATOM     10  C10 ZIN A   1      18.640   4.652  11.852  0.00  0.00     0.001 A 
ATOM     11  C11 ZIN A   1      19.675   3.765  12.059  0.00  0.00     0.012 A 
ATOM     12  C12 ZIN A   1      19.624   2.483  11.497  0.00  0.00    -0.025 A 
ATOM     13  C13 ZIN A   1      20.764   1.583  11.648  0.00  0.00     0.013 C 
ATOM     14  C14 ZIN A   1      20.737   0.285  11.861  0.00  0.00     0.013 C 
ATOM     15  C15 ZIN A   1      19.562  -0.571  12.000  0.00  0.00    -0.025 A 
ATOM     16  C16 ZIN A   1      19.553  -1.586  12.964  0.00  0.00     0.012 A 
ATOM     17  C17 ZIN A   1      18.469  -2.428  13.072  0.00  0.00     0.001 A 
ATOM     18  C18 ZIN A   1      17.379  -2.284  12.229  0.00  0.00     0.001 A 
ATOM     19  C19 ZIN A   1      17.360  -1.279  11.281  0.00  0.00     0.013 A 
ATOM     20  C20 ZIN A   1      18.429  -0.403  11.173  0.00  0.00    -0.015 A 
ATOM     21  C21 ZIN A   1      18.109  -0.885   8.347  0.00  0.00     0.065 C 
ATOM     22  C22 ZIN A   1      19.086  -1.020   7.172  0.00  0.00     0.276 C 
ENDROOT
TORSDOF 0
ENDMDL
MODEL 6
REMARK VINA RESULT:      -7.7      2.622      5.422
REMARK  0 active torsions:
REMARK  status: ('A' for Active; 'I' for Inactive)
ROOT
ATOM      1  C1  ZIN A   1      18.494   0.138   4.739  0.00  0.00     0.309 C 
ATOM      2  N2  ZIN A   1      19.119   0.147   6.069  0.00  0.00     0.084 N 
ATOM      3  C3  ZIN A   1      18.771  -1.064   6.822  0.00  0.00     0.276 C 
ATOM      4  C4  ZIN A   1      19.627  -1.136   8.092  0.00  0.00     0.065 C 
ATOM      5  C5  ZIN A   1      19.461   0.164   8.851  0.00  0.00    -0.065 C 
ATOM      6  C6  ZIN A   1      19.184   0.170  10.163  0.00  0.00    -0.011 C 
ATOM      7  C7  ZIN A   1      19.038  -1.098  10.916  0.00  0.00    -0.015 A 
ATOM      8  C8  ZIN A   1      20.090  -2.006  10.960  0.00  0.00     0.013 A 
ATOM      9  C9  ZIN A   1      19.969  -3.166  11.699  0.00  0.00     0.001 A 
ATOM     10  C10 ZIN A   1      18.804  -3.429  12.402  0.00  0.00     0.001 A 
ATOM     11  C11 ZIN A   1      17.744  -2.549  12.355  0.00  0.00     0.012 A 
ATOM     12  C12 ZIN A   1      17.836  -1.379  11.592  0.00  0.00    -0.025 A 
ATOM     13  C13 ZIN A   1      16.676  -0.499  11.477  0.00  0.00     0.013 C 
ATOM     14  C14 ZIN A   1      16.666   0.816  11.469  0.00  0.00     0.013 C 
ATOM     15  C15 ZIN A   1      17.811   1.716  11.574  0.00  0.00    -0.025 A 
ATOM     16  C16 ZIN A   1      17.712   2.878  12.349  0.00  0.00     0.012 A 
ATOM     17  C17 ZIN A   1      18.770   3.757  12.417  0.00  0.00     0.001 A 
ATOM     18  C18 ZIN A   1      19.940   3.505  11.720  0.00  0.00     0.001 A 
ATOM     19  C19 ZIN A   1      20.066   2.357  10.962  0.00  0.00     0.013 A 
ATOM     20  C20 ZIN A   1      19.023   1.445  10.901  0.00  0.00    -0.015 A 
ATOM     21  C21 ZIN A   1      19.619   1.456   8.079  0.00  0.00     0.065 C 
ATOM     22  C22 ZIN A   1      18.764   1.365   6.809  0.00  0.00     0.276 C 
ENDROOT
TORSDOF 0
ENDMDL
MODEL 7
REMARK VINA RESULT:      -7.4      3.677      7.083
REMARK  0 active torsions:
REMARK  status: ('A' for Active; 'I' for Inactive)
ROOT
ATOM      1  C1  ZIN A   1      17.071  -6.470  10.550  0.00  0.00     0.309 C 
ATOM      2  N2  ZIN A   1      17.995  -5.426  10.086  0.00  0.00     0.084 N 
ATOM      3  C3  ZIN A   1      18.133  -4.362  11.088  0.00  0.00     0.276 C 
ATOM      4  C4  ZIN A   1      19.277  -3.426  10.682  0.00  0.00     0.065 C 
ATOM      5  C5  ZIN A   1      19.020  -2.949   9.268  0.00  0.00    -0.065 C 
ATOM      6  C6  ZIN A   1      19.092  -1.647   8.952  0.00  0.00    -0.011 C 
ATOM      7  C7  ZIN A   1      19.432  -0.633   9.977  0.00  0.00    -0.015 A 
ATOM      8  C8  ZIN A   1      20.638  -0.717  10.664  0.00  0.00     0.013 A 
ATOM      9  C9  ZIN A   1      20.975   0.254  11.587  0.00  0.00     0.001 A 
ATOM     10  C10 ZIN A   1      20.118   1.316  11.829  0.00  0.00     0.001 A 
ATOM     11  C11 ZIN A   1      18.910   1.405  11.171  0.00  0.00     0.012 A 
ATOM     12  C12 ZIN A   1      18.538   0.418  10.249  0.00  0.00    -0.025 A 
ATOM     13  C13 ZIN A   1      17.219   0.474   9.625  0.00  0.00     0.013 C 
ATOM     14  C14 ZIN A   1      16.909   0.189   8.379  0.00  0.00     0.013 C 
ATOM     15  C15 ZIN A   1      17.809  -0.252   7.317  0.00  0.00    -0.025 A 
ATOM     16  C16 ZIN A   1      17.650   0.250   6.019  0.00  0.00     0.012 A 
ATOM     17  C17 ZIN A   1      18.463  -0.194   5.001  0.00  0.00     0.001 A 
ATOM     18  C18 ZIN A   1      19.443  -1.142   5.245  0.00  0.00     0.001 A 
ATOM     19  C19 ZIN A   1      19.629  -1.638   6.521  0.00  0.00     0.013 A 
ATOM     20  C20 ZIN A   1      18.839  -1.186   7.567  0.00  0.00    -0.015 A 
ATOM     21  C21 ZIN A   1      18.680  -3.990   8.223  0.00  0.00     0.065 C 
ATOM     22  C22 ZIN A   1      17.573  -4.891   8.785  0.00  0.00     0.276 C 
ENDROOT
TORSDOF 0
ENDMDL
MODEL 8
REMARK VINA RESULT:      -7.4      4.045      6.935
REMARK  0 active torsions:
REMARK  status: ('A' for Active; 'I' for Inactive)
ROOT
ATOM      1  C1  ZIN A   1      20.749   0.238  12.494  0.00  0.00     0.309 C 
ATOM      2  N2  ZIN A   1      19.705  -0.284  11.603  0.00  0.00     0.084 N 
ATOM      3  C3  ZIN A   1      19.582  -1.742  11.733  0.00  0.00     0.276 C 
ATOM      4  C4  ZIN A   1      18.334  -2.216  10.980  0.00  0.00     0.065 C 
ATOM      5  C5  ZIN A   1      18.412  -1.701   9.559  0.00  0.00    -0.065 C 
ATOM      6  C6  ZIN A   1      18.207  -2.517   8.514  0.00  0.00    -0.011 C 
ATOM      7  C7  ZIN A   1      17.890  -3.950   8.718  0.00  0.00    -0.015 A 
ATOM      8  C8  ZIN A   1      16.768  -4.316   9.453  0.00  0.00     0.013 A 
ATOM      9  C9  ZIN A   1      16.448  -5.651   9.604  0.00  0.00     0.001 A 
ATOM     10  C10 ZIN A   1      17.238  -6.630   9.022  0.00  0.00     0.001 A 
ATOM     11  C11 ZIN A   1      18.365  -6.286   8.306  0.00  0.00     0.012 A 
ATOM     12  C12 ZIN A   1      18.721  -4.939   8.161  0.00  0.00    -0.025 A 
ATOM     13  C13 ZIN A   1      19.964  -4.591   7.478  0.00  0.00     0.013 C 
ATOM     14  C14 ZIN A   1      20.171  -3.588   6.653  0.00  0.00     0.013 C 
ATOM     15  C15 ZIN A   1      19.208  -2.578   6.220  0.00  0.00    -0.025 A 
ATOM     16  C16 ZIN A   1      19.199  -2.156   4.885  0.00  0.00     0.012 A 
ATOM     17  C17 ZIN A   1      18.327  -1.171   4.477  0.00  0.00     0.001 A 
ATOM     18  C18 ZIN A   1      17.454  -0.586   5.380  0.00  0.00     0.001 A 
ATOM     19  C19 ZIN A   1      17.434  -1.000   6.698  0.00  0.00     0.013 A 
ATOM     20  C20 ZIN A   1      18.285  -2.008   7.124  0.00  0.00    -0.015 A 
ATOM     21  C21 ZIN A   1      18.729  -0.235   9.356  0.00  0.00     0.065 C 
ATOM     22  C22 ZIN A   1      19.953   0.115  10.211  0.00  0.00     0.276 C 
ENDROOT
TORSDOF 0
ENDMDL
MODEL 9
REMARK VINA RESULT:      -7.2      5.774      9.037
REMARK  0 active torsions:
REMARK  status: ('A' for Active; 'I' for Inactive)
ROOT
ATOM      1  C1  ZIN A   1      14.692  -5.624   3.125  0.00  0.00     0.309 C 
ATOM      2  N2  ZIN A   1      16.005  -5.131   3.563  0.00  0.00     0.084 N 
ATOM      3  C3  ZIN A   1      16.431  -5.797   4.800  0.00  0.00     0.276 C 
ATOM      4  C4  ZIN A   1      17.894  -5.442   5.092  0.00  0.00     0.065 C 
ATOM      5  C5  ZIN A   1      18.025  -3.934   5.094  0.00  0.00    -0.065 C 
ATOM      6  C6  ZIN A   1      18.647  -3.294   6.095  0.00  0.00    -0.011 C 
ATOM      7  C7  ZIN A   1      19.234  -4.045   7.230  0.00  0.00    -0.015 A 
ATOM      8  C8  ZIN A   1      20.212  -5.006   6.997  0.00  0.00     0.013 A 
ATOM      9  C9  ZIN A   1      20.790  -5.673   8.058  0.00  0.00     0.001 A 
ATOM     10  C10 ZIN A   1      20.404  -5.387   9.358  0.00  0.00     0.001 A 
ATOM     11  C11 ZIN A   1      19.423  -4.451   9.607  0.00  0.00     0.012 A 
ATOM     12  C12 ZIN A   1      18.806  -3.780   8.544  0.00  0.00    -0.025 A 
ATOM     13  C13 ZIN A   1      17.707  -2.858   8.813  0.00  0.00     0.013 C 
ATOM     14  C14 ZIN A   1      17.466  -1.705   8.227  0.00  0.00     0.013 C 
ATOM     15  C15 ZIN A   1      18.240  -1.068   7.165  0.00  0.00    -0.025 A 
ATOM     16  C16 ZIN A   1      18.456   0.315   7.198  0.00  0.00     0.012 A 
ATOM     17  C17 ZIN A   1      19.144   0.932   6.177  0.00  0.00     0.001 A 
ATOM     18  C18 ZIN A   1      19.627   0.196   5.107  0.00  0.00     0.001 A 
ATOM     19  C19 ZIN A   1      19.440  -1.172   5.063  0.00  0.00     0.013 A 
ATOM     20  C20 ZIN A   1      18.773  -1.818   6.093  0.00  0.00    -0.015 A 
ATOM     21  C21 ZIN A   1      17.430  -3.172   3.929  0.00  0.00     0.065 C 
ATOM     22  C22 ZIN A   1      15.996  -3.670   3.711  0.00  0.00     0.276 C 
ENDROOT
TORSDOF 0
ENDMDL
