MODEL 1
REMARK VINA RESULT:      -7.6      0.000      0.000
REMARK  7 active torsions:
REMARK  status: ('A' for Active; 'I' for Inactive)
REMARK    1  A    between atoms: C2_2  and  C3_3 
REMARK    2  A    between atoms: C3_3  and  N4_4 
REMARK    3  A    between atoms: N4_4  and  C6_6 
REMARK    4  A    between atoms: N4_4  and  C13_13 
REMARK    5  A    between atoms: C6_6  and  C7_7 
REMARK    6  A    between atoms: C7_7  and  C8_8 
REMARK    7  A    between atoms: C18_17  and  O19_18 
ROOT
ATOM      1  C13 ZIN A   1      18.148   2.540  14.131  0.00  0.00     0.192 C 
ATOM      2  C15 ZIN A   1      19.180   3.368  14.904  0.00  0.00     0.038 C 
ATOM      3  C16 ZIN A   1      19.024   3.063  16.393  0.00  0.00     0.044 C 
ATOM      4  C17 ZIN A   1      19.037   1.576  16.634  0.00  0.00    -0.019 A 
ATOM      5  C18 ZIN A   1      19.285   1.131  17.930  0.00  0.00     0.072 A 
ATOM      6  C20 ZIN A   1      19.303  -0.224  18.215  0.00  0.00     0.037 A 
ATOM      7  C21 ZIN A   1      19.074  -1.139  17.205  0.00  0.00     0.003 A 
ATOM      8  C22 ZIN A   1      18.830  -0.697  15.921  0.00  0.00     0.008 A 
ATOM      9  C23 ZIN A   1      18.814   0.662  15.630  0.00  0.00    -0.047 A 
ATOM     10  C24 ZIN A   1      18.555   1.070  14.204  0.00  0.00     0.072 C 
ENDROOT
BRANCH   1  11
ATOM     11  N4  ZIN A   1      18.115   2.975  12.727  0.00  0.00    -0.066 N 
ATOM     12  H5  ZIN A   1      17.219   2.742  12.324  0.00  0.00     0.280 HD
BRANCH  11  13
ATOM     13  C3  ZIN A   1      18.320   4.428  12.661  0.00  0.00     0.235 C 
BRANCH  13  14
ATOM     14  C2  ZIN A   1      16.969   5.124  12.481  0.00  0.00     0.023 C 
ATOM     15  C1  ZIN A   1      16.550   5.052  11.011  0.00  0.00     0.007 C 
ENDBRANCH  13  14
ENDBRANCH  11  13
BRANCH  11  16
ATOM     16  C6  ZIN A   1      19.181   2.296  11.980  0.00  0.00     0.240 C 
BRANCH  16  17
ATOM     17  C7  ZIN A   1      19.286   2.897  10.578  0.00  0.00     0.074 C 
BRANCH  17  18
ATOM     18  C8  ZIN A   1      18.801   1.895   9.563  0.00  0.00    -0.016 A 
ATOM     19  S12 ZIN A   1      17.628   0.623   9.875  0.00  0.00    -0.106 SA
ATOM     20  C11 ZIN A   1      17.742   0.068   8.209  0.00  0.00     0.050 A 
ATOM     21  C10 ZIN A   1      18.616   0.825   7.544  0.00  0.00     0.008 A 
ATOM     22  C9  ZIN A   1      19.201   1.834   8.292  0.00  0.00     0.015 A 
ENDBRANCH  17  18
ENDBRANCH  16  17
ENDBRANCH  11  16
ENDBRANCH   1  11
BRANCH   5  23
ATOM     23  O19 ZIN A   1      19.509   2.032  18.923  0.00  0.00    -0.360 OA
ATOM     24  H43 ZIN A   1      19.124   2.903  18.757  0.00  0.00     0.217 HD
ENDBRANCH   5  23
TORSDOF 7
ENDMDL
MODEL 2
REMARK VINA RESULT:      -7.5      3.722      7.900
REMARK  7 active torsions:
REMARK  status: ('A' for Active; 'I' for Inactive)
REMARK    1  A    between atoms: C2_2  and  C3_3 
REMARK    2  A    between atoms: C3_3  and  N4_4 
REMARK    3  A    between atoms: N4_4  and  C6_6 
REMARK    4  A    between atoms: N4_4  and  C13_13 
REMARK    5  A    between atoms: C6_6  and  C7_7 
REMARK    6  A    between atoms: C7_7  and  C8_8 
REMARK    7  A    between atoms: C18_17  and  O19_18 
ROOT
ATOM      1  C13 ZIN A   1      18.526   0.363   9.584  0.00  0.00     0.192 C 
ATOM      2  C15 ZIN A   1      19.613  -0.715   9.654  0.00  0.00     0.038 C 
ATOM      3  C16 ZIN A   1      19.364  -1.723   8.534  0.00  0.00     0.044 C 
ATOM      4  C17 ZIN A   1      19.200  -1.018   7.213  0.00  0.00    -0.019 A 
ATOM      5  C18 ZIN A   1      19.345  -1.774   6.052  0.00  0.00     0.072 A 
ATOM      6  C20 ZIN A   1      19.199  -1.183   4.808  0.00  0.00     0.037 A 
ATOM      7  C21 ZIN A   1      18.908   0.165   4.720  0.00  0.00     0.003 A 
ATOM      8  C22 ZIN A   1      18.767   0.913   5.871  0.00  0.00     0.008 A 
ATOM      9  C23 ZIN A   1      18.916   0.325   7.121  0.00  0.00    -0.047 A 
ATOM     10  C24 ZIN A   1      18.762   1.206   8.333  0.00  0.00     0.072 C 
ENDROOT
BRANCH   1  11
ATOM     11  N4  ZIN A   1      18.598   1.217  10.778  0.00  0.00    -0.066 N 
ATOM     12  H5  ZIN A   1      19.278   0.839  11.421  0.00  0.00     0.280 HD
BRANCH  11  13
ATOM     13  C3  ZIN A   1      18.996   2.575  10.384  0.00  0.00     0.235 C 
BRANCH  13  14
ATOM     14  C2  ZIN A   1      18.137   3.595  11.135  0.00  0.00     0.023 C 
ATOM     15  C1  ZIN A   1      17.624   4.651  10.152  0.00  0.00     0.007 C 
ENDBRANCH  13  14
ENDBRANCH  11  13
BRANCH  11  16
ATOM     16  C6  ZIN A   1      17.281   1.262  11.427  0.00  0.00     0.240 C 
BRANCH  16  17
ATOM     17  C7  ZIN A   1      16.948  -0.114  12.004  0.00  0.00     0.074 C 
BRANCH  17  18
ATOM     18  C8  ZIN A   1      17.768  -0.351  13.245  0.00  0.00    -0.016 A 
ATOM     19  S12 ZIN A   1      17.710   0.634  14.700  0.00  0.00    -0.106 SA
ATOM     20  C11 ZIN A   1      18.920  -0.383  15.473  0.00  0.00     0.050 A 
ATOM     21  C10 ZIN A   1      19.288  -1.354  14.636  0.00  0.00     0.008 A 
ATOM     22  C9  ZIN A   1      18.653  -1.336  13.406  0.00  0.00     0.015 A 
ENDBRANCH  17  18
ENDBRANCH  16  17
ENDBRANCH  11  16
ENDBRANCH   1  11
BRANCH   5  23
ATOM     23  O19 ZIN A   1      19.630  -3.100   6.139  0.00  0.00    -0.360 OA
ATOM     24  H43 ZIN A   1      20.270  -3.320   6.829  0.00  0.00     0.217 HD
ENDBRANCH   5  23
TORSDOF 7
ENDMDL
MODEL 3
REMARK VINA RESULT:      -7.4      4.972      9.440
REMARK  7 active torsions:
REMARK  status: ('A' for Active; 'I' for Inactive)
REMARK    1  A    between atoms: C2_2  and  C3_3 
REMARK    2  A    between atoms: C3_3  and  N4_4 
REMARK    3  A    between atoms: N4_4  and  C6_6 
REMARK    4  A    between atoms: N4_4  and  C13_13 
REMARK    5  A    between atoms: C6_6  and  C7_7 
REMARK    6  A    between atoms: C7_7  and  C8_8 
REMARK    7  A    between atoms: C18_17  and  O19_18 
ROOT
ATOM      1  C13 ZIN A   1      18.080  -3.036   8.672  0.00  0.00     0.192 C 
ATOM      2  C15 ZIN A   1      19.179  -3.709   7.842  0.00  0.00     0.038 C 
ATOM      3  C16 ZIN A   1      19.065  -3.213   6.402  0.00  0.00     0.044 C 
ATOM      4  C17 ZIN A   1      19.017  -1.708   6.362  0.00  0.00    -0.019 A 
ATOM      5  C18 ZIN A   1      19.292  -1.082   5.148  0.00  0.00     0.072 A 
ATOM      6  C20 ZIN A   1      19.257   0.298   5.047  0.00  0.00     0.037 A 
ATOM      7  C21 ZIN A   1      18.947   1.059   6.158  0.00  0.00     0.003 A 
ATOM      8  C22 ZIN A   1      18.676   0.438   7.360  0.00  0.00     0.008 A 
ATOM      9  C23 ZIN A   1      18.712  -0.947   7.467  0.00  0.00    -0.047 A 
ATOM     10  C24 ZIN A   1      18.420  -1.554   8.814  0.00  0.00     0.072 C 
ENDROOT
BRANCH   1  11
ATOM     11  N4  ZIN A   1      18.014  -3.658  10.003  0.00  0.00    -0.066 N 
ATOM     12  H5  ZIN A   1      17.072  -3.592  10.358  0.00  0.00     0.280 HD
BRANCH  11  13
ATOM     13  C3  ZIN A   1      18.402  -5.071   9.902  0.00  0.00     0.235 C 
BRANCH  13  14
ATOM     14  C2  ZIN A   1      17.179  -5.954  10.159  0.00  0.00     0.023 C 
ATOM     15  C1  ZIN A   1      16.911  -6.824   8.928  0.00  0.00     0.007 C 
ENDBRANCH  13  14
ENDBRANCH  11  13
BRANCH  11  16
ATOM     16  C6  ZIN A   1      18.932  -2.962  10.913  0.00  0.00     0.240 C 
BRANCH  16  17
ATOM     17  C7  ZIN A   1      18.303  -2.873  12.304  0.00  0.00     0.074 C 
BRANCH  17  18
ATOM     18  C8  ZIN A   1      18.812  -1.642  13.008  0.00  0.00    -0.016 A 
ATOM     19  S12 ZIN A   1      19.694  -0.328  12.243  0.00  0.00    -0.106 SA
ATOM     20  C11 ZIN A   1      19.812   0.527  13.776  0.00  0.00     0.050 A 
ATOM     21  C10 ZIN A   1      19.218  -0.188  14.733  0.00  0.00     0.008 A 
ATOM     22  C9  ZIN A   1      18.666  -1.385  14.309  0.00  0.00     0.015 A 
ENDBRANCH  17  18
ENDBRANCH  16  17
ENDBRANCH  11  16
ENDBRANCH   1  11
BRANCH   5  23
ATOM     23  O19 ZIN A   1      19.596  -1.831   4.055  0.00  0.00    -0.360 OA
ATOM     24  H43 ZIN A   1      20.399  -2.361   4.153  0.00  0.00     0.217 HD
ENDBRANCH   5  23
TORSDOF 7
ENDMDL
MODEL 4
REMARK VINA RESULT:      -7.3      2.735      4.294
REMARK  7 active torsions:
REMARK  status: ('A' for Active; 'I' for Inactive)
REMARK    1  A    between atoms: C2_2  and  C3_3 
REMARK    2  A    between atoms: C3_3  and  N4_4 
REMARK    3  A    between atoms: N4_4  and  C6_6 
REMARK    4  A    between atoms: N4_4  and  C13_13 
REMARK    5  A    between atoms: C6_6  and  C7_7 
REMARK    6  A    between atoms: C7_7  and  C8_8 
REMARK    7  A    between atoms: C18_17  and  O19_18 
ROOT
ATOM      1  C13 ZIN A   1      18.678  -0.783  12.524  0.00  0.00     0.192 C 
ATOM      2  C15 ZIN A   1      19.923   0.108  12.600  0.00  0.00     0.038 C 
ATOM      3  C16 ZIN A   1      19.644   1.241  13.586  0.00  0.00     0.044 C 
ATOM      4  C17 ZIN A   1      19.128   0.693  14.891  0.00  0.00    -0.019 A 
ATOM      5  C18 ZIN A   1      19.181   1.522  16.009  0.00  0.00     0.072 A 
ATOM      6  C20 ZIN A   1      18.716   1.076  17.234  0.00  0.00     0.037 A 
ATOM      7  C21 ZIN A   1      18.196  -0.199  17.347  0.00  0.00     0.003 A 
ATOM      8  C22 ZIN A   1      18.145  -1.019  16.240  0.00  0.00     0.008 A 
ATOM      9  C23 ZIN A   1      18.613  -0.578  15.008  0.00  0.00    -0.047 A 
ATOM     10  C24 ZIN A   1      18.539  -1.534  13.846  0.00  0.00     0.072 C 
ENDROOT
BRANCH   1  11
ATOM     11  N4  ZIN A   1      18.824  -1.745  11.422  0.00  0.00    -0.066 N 
ATOM     12  H5  ZIN A   1      19.641  -1.511  10.878  0.00  0.00     0.280 HD
BRANCH  11  13
ATOM     13  C3  ZIN A   1      18.971  -3.099  11.971  0.00  0.00     0.235 C 
BRANCH  13  14
ATOM     14  C2  ZIN A   1      20.199  -3.769  11.351  0.00  0.00     0.023 C 
ATOM     15  C1  ZIN A   1      19.747  -4.856  10.372  0.00  0.00     0.007 C 
ENDBRANCH  13  14
ENDBRANCH  11  13
BRANCH  11  16
ATOM     16  C6  ZIN A   1      17.632  -1.691  10.565  0.00  0.00     0.240 C 
BRANCH  16  17
ATOM     17  C7  ZIN A   1      17.206  -0.235  10.374  0.00  0.00     0.074 C 
BRANCH  17  18
ATOM     18  C8  ZIN A   1      17.896   0.337   9.163  0.00  0.00    -0.016 A 
ATOM     19  S12 ZIN A   1      17.625  -0.177   7.504  0.00  0.00    -0.106 SA
ATOM     20  C11 ZIN A   1      18.797   0.995   6.917  0.00  0.00     0.050 A 
ATOM     21  C10 ZIN A   1      19.309   1.671   7.947  0.00  0.00     0.008 A 
ATOM     22  C9  ZIN A   1      18.812   1.307   9.187  0.00  0.00     0.015 A 
ENDBRANCH  17  18
ENDBRANCH  16  17
ENDBRANCH  11  16
ENDBRANCH   1  11
BRANCH   5  23
ATOM     23  O19 ZIN A   1      19.692   2.776  15.896  0.00  0.00    -0.360 OA
ATOM     24  H43 ZIN A   1      19.463   3.222  15.070  0.00  0.00     0.217 HD
ENDBRANCH   5  23
TORSDOF 7
ENDMDL
MODEL 5
REMARK VINA RESULT:      -7.3      3.024      6.746
REMARK  7 active torsions:
REMARK  status: ('A' for Active; 'I' for Inactive)
REMARK    1  A    between atoms: C2_2  and  C3_3 
REMARK    2  A    between atoms: C3_3  and  N4_4 
REMARK    3  A    between atoms: N4_4  and  C6_6 
REMARK    4  A    between atoms: N4_4  and  C13_13 
REMARK    5  A    between atoms: C6_6  and  C7_7 
REMARK    6  A    between atoms: C7_7  and  C8_8 
REMARK    7  A    between atoms: C18_17  and  O19_18 
ROOT
ATOM      1  C13 ZIN A   1      19.134   1.975  11.887  0.00  0.00     0.192 C 
ATOM      2  C15 ZIN A   1      20.198   0.873  11.954  0.00  0.00     0.038 C 
ATOM      3  C16 ZIN A   1      19.795  -0.243  10.992  0.00  0.00     0.044 C 
ATOM      4  C17 ZIN A   1      19.492   0.317   9.627  0.00  0.00    -0.019 A 
ATOM      5  C18 ZIN A   1      19.480  -0.567   8.551  0.00  0.00     0.072 A 
ATOM      6  C20 ZIN A   1      19.202  -0.112   7.273  0.00  0.00     0.037 A 
ATOM      7  C21 ZIN A   1      18.934   1.227   7.066  0.00  0.00     0.003 A 
ATOM      8  C22 ZIN A   1      18.947   2.102   8.132  0.00  0.00     0.008 A 
ATOM      9  C23 ZIN A   1      19.229   1.651   9.416  0.00  0.00    -0.047 A 
ATOM     10  C24 ZIN A   1      19.240   2.666  10.529  0.00  0.00     0.072 C 
ENDROOT
BRANCH   1  11
ATOM     11  N4  ZIN A   1      19.367   2.954  12.959  0.00  0.00    -0.066 N 
ATOM     12  H5  ZIN A   1      20.320   2.878  13.281  0.00  0.00     0.280 HD
BRANCH  11  13
ATOM     13  C3  ZIN A   1      19.128   4.309  12.445  0.00  0.00     0.235 C 
BRANCH  13  14
ATOM     14  C2  ZIN A   1      17.802   4.836  12.998  0.00  0.00     0.023 C 
ATOM     15  C1  ZIN A   1      16.863   5.174  11.837  0.00  0.00     0.007 C 
ENDBRANCH  13  14
ENDBRANCH  11  13
BRANCH  11  16
ATOM     16  C6  ZIN A   1      18.449   2.684  14.074  0.00  0.00     0.240 C 
BRANCH  16  17
ATOM     17  C7  ZIN A   1      19.248   2.225  15.294  0.00  0.00     0.074 C 
BRANCH  17  18
ATOM     18  C8  ZIN A   1      18.738   0.885  15.754  0.00  0.00    -0.016 A 
ATOM     19  S12 ZIN A   1      17.859   0.593  17.249  0.00  0.00    -0.106 SA
ATOM     20  C11 ZIN A   1      17.734  -1.121  16.877  0.00  0.00     0.050 A 
ATOM     21  C10 ZIN A   1      18.335  -1.372  15.712  0.00  0.00     0.008 A 
ATOM     22  C9  ZIN A   1      18.890  -0.264  15.093  0.00  0.00     0.015 A 
ENDBRANCH  17  18
ENDBRANCH  16  17
ENDBRANCH  11  16
ENDBRANCH   1  11
BRANCH   5  23
ATOM     23  O19 ZIN A   1      19.743  -1.884   8.756  0.00  0.00    -0.360 OA
ATOM     24  H43 ZIN A   1      19.094  -2.333   9.314  0.00  0.00     0.217 HD
ENDBRANCH   5  23
TORSDOF 7
ENDMDL
MODEL 6
REMARK VINA RESULT:      -7.3      4.126      8.239
REMARK  7 active torsions:
REMARK  status: ('A' for Active; 'I' for Inactive)
REMARK    1  A    between atoms: C2_2  and  C3_3 
REMARK    2  A    between atoms: C3_3  and  N4_4 
REMARK    3  A    between atoms: N4_4  and  C6_6 
REMARK    4  A    between atoms: N4_4  and  C13_13 
REMARK    5  A    between atoms: C6_6  and  C7_7 
REMARK    6  A    between atoms: C7_7  and  C8_8 
REMARK    7  A    between atoms: C18_17  and  O19_18 
ROOT
ATOM      1  C13 ZIN A   1      19.694   0.617   8.622  0.00  0.00     0.192 C 
ATOM      2  C15 ZIN A   1      18.615   1.287   7.764  0.00  0.00     0.038 C 
ATOM      3  C16 ZIN A   1      18.858   0.909   6.304  0.00  0.00     0.044 C 
ATOM      4  C17 ZIN A   1      19.002  -0.583   6.160  0.00  0.00    -0.019 A 
ATOM      5  C18 ZIN A   1      18.850  -1.129   4.887  0.00  0.00     0.072 A 
ATOM      6  C20 ZIN A   1      18.978  -2.494   4.690  0.00  0.00     0.037 A 
ATOM      7  C21 ZIN A   1      19.259  -3.318   5.763  0.00  0.00     0.003 A 
ATOM      8  C22 ZIN A   1      19.407  -2.776   7.023  0.00  0.00     0.008 A 
ATOM      9  C23 ZIN A   1      19.277  -1.407   7.226  0.00  0.00    -0.047 A 
ATOM     10  C24 ZIN A   1      19.438  -0.889   8.632  0.00  0.00     0.072 C 
ENDROOT
BRANCH   1  11
ATOM     11  N4  ZIN A   1      19.629   1.138   9.995  0.00  0.00    -0.066 N 
ATOM     12  H5  ZIN A   1      20.412   1.755  10.157  0.00  0.00     0.280 HD
BRANCH  11  13
ATOM     13  C3  ZIN A   1      18.374   1.878  10.179  0.00  0.00     0.235 C 
BRANCH  13  14
ATOM     14  C2  ZIN A   1      18.686   3.301  10.645  0.00  0.00     0.023 C 
ATOM     15  C1  ZIN A   1      17.381   4.089  10.786  0.00  0.00     0.007 C 
ENDBRANCH  13  14
ENDBRANCH  11  13
BRANCH  11  16
ATOM     16  C6  ZIN A   1      19.683   0.019  10.946  0.00  0.00     0.240 C 
BRANCH  16  17
ATOM     17  C7  ZIN A   1      20.525   0.418  12.158  0.00  0.00     0.074 C 
BRANCH  17  18
ATOM     18  C8  ZIN A   1      19.769   0.099  13.422  0.00  0.00    -0.016 A 
ATOM     19  S12 ZIN A   1      19.091   1.288  14.525  0.00  0.00    -0.106 SA
ATOM     20  C11 ZIN A   1      18.478   0.013  15.570  0.00  0.00     0.050 A 
ATOM     21  C10 ZIN A   1      18.805  -1.177  15.064  0.00  0.00     0.008 A 
ATOM     22  C9  ZIN A   1      19.518  -1.129  13.878  0.00  0.00     0.015 A 
ENDBRANCH  17  18
ENDBRANCH  16  17
ENDBRANCH  11  16
ENDBRANCH   1  11
BRANCH   5  23
ATOM     23  O19 ZIN A   1      18.575  -0.318   3.832  0.00  0.00    -0.360 OA
ATOM     24  H43 ZIN A   1      17.660  -0.369   3.525  0.00  0.00     0.217 HD
ENDBRANCH   5  23
TORSDOF 7
ENDMDL
MODEL 7
REMARK VINA RESULT:      -7.3      3.399      7.571
REMARK  7 active torsions:
REMARK  status: ('A' for Active; 'I' for Inactive)
REMARK    1  A    between atoms: C2_2  and  C3_3 
REMARK    2  A    between atoms: C3_3  and  N4_4 
REMARK    3  A    between atoms: N4_4  and  C6_6 
REMARK    4  A    between atoms: N4_4  and  C13_13 
REMARK    5  A    between atoms: C6_6  and  C7_7 
REMARK    6  A    between atoms: C7_7  and  C8_8 
REMARK    7  A    between atoms: C18_17  and  O19_18 
ROOT
ATOM      1  C13 ZIN A   1      18.749   1.068  10.305  0.00  0.00     0.192 C 
ATOM      2  C15 ZIN A   1      19.741  -0.092  10.453  0.00  0.00     0.038 C 
ATOM      3  C16 ZIN A   1      19.381  -1.167   9.430  0.00  0.00     0.044 C 
ATOM      4  C17 ZIN A   1      19.247  -0.568   8.055  0.00  0.00    -0.019 A 
ATOM      5  C18 ZIN A   1      19.299  -1.431   6.963  0.00  0.00     0.072 A 
ATOM      6  C20 ZIN A   1      19.176  -0.940   5.675  0.00  0.00     0.037 A 
ATOM      7  C21 ZIN A   1      19.000   0.416   5.472  0.00  0.00     0.003 A 
ATOM      8  C22 ZIN A   1      18.951   1.270   6.554  0.00  0.00     0.008 A 
ATOM      9  C23 ZIN A   1      19.077   0.782   7.849  0.00  0.00    -0.047 A 
ATOM     10  C24 ZIN A   1      19.028   1.775   8.981  0.00  0.00     0.072 C 
ENDROOT
BRANCH   1  11
ATOM     11  N4  ZIN A   1      18.923   2.013  11.417  0.00  0.00    -0.066 N 
ATOM     12  H5  ZIN A   1      19.710   2.615  11.226  0.00  0.00     0.280 HD
BRANCH  11  13
ATOM     13  C3  ZIN A   1      17.708   2.825  11.563  0.00  0.00     0.235 C 
BRANCH  13  14
ATOM     14  C2  ZIN A   1      18.077   4.309  11.503  0.00  0.00     0.023 C 
ATOM     15  C1  ZIN A   1      17.431   4.946  10.270  0.00  0.00     0.007 C 
ENDBRANCH  13  14
ENDBRANCH  11  13
BRANCH  11  16
ATOM     16  C6  ZIN A   1      19.165   1.267  12.659  0.00  0.00     0.240 C 
BRANCH  16  17
ATOM     17  C7  ZIN A   1      17.833   0.979  13.351  0.00  0.00     0.074 C 
BRANCH  17  18
ATOM     18  C8  ZIN A   1      18.070   0.110  14.558  0.00  0.00    -0.016 A 
ATOM     19  S12 ZIN A   1      19.264  -1.177  14.662  0.00  0.00    -0.106 SA
ATOM     20  C11 ZIN A   1      18.782  -1.532  16.316  0.00  0.00     0.050 A 
ATOM     21  C10 ZIN A   1      17.796  -0.711  16.681  0.00  0.00     0.008 A 
ATOM     22  C9  ZIN A   1      17.402   0.195  15.710  0.00  0.00     0.015 A 
ENDBRANCH  17  18
ENDBRANCH  16  17
ENDBRANCH  11  16
ENDBRANCH   1  11
BRANCH   5  23
ATOM     23  O19 ZIN A   1      19.470  -2.764   7.163  0.00  0.00    -0.360 OA
ATOM     24  H43 ZIN A   1      19.475  -3.025   8.094  0.00  0.00     0.217 HD
ENDBRANCH   5  23
TORSDOF 7
ENDMDL
MODEL 8
REMARK VINA RESULT:      -7.1      3.975      6.397
REMARK  7 active torsions:
REMARK  status: ('A' for Active; 'I' for Inactive)
REMARK    1  A    between atoms: C2_2  and  C3_3 
REMARK    2  A    between atoms: C3_3  and  N4_4 
REMARK    3  A    between atoms: N4_4  and  C6_6 
REMARK    4  A    between atoms: N4_4  and  C13_13 
REMARK    5  A    between atoms: C6_6  and  C7_7 
REMARK    6  A    between atoms: C7_7  and  C8_8 
REMARK    7  A    between atoms: C18_17  and  O19_18 
ROOT
ATOM      1  C13 ZIN A   1      18.388  -0.941  12.768  0.00  0.00     0.192 C 
ATOM      2  C15 ZIN A   1      17.098  -0.925  11.939  0.00  0.00     0.038 C 
ATOM      3  C16 ZIN A   1      17.452  -1.257  10.491  0.00  0.00     0.044 C 
ATOM      4  C17 ZIN A   1      18.280  -2.514  10.423  0.00  0.00    -0.019 A 
ATOM      5  C18 ZIN A   1      18.371  -3.165   9.195  0.00  0.00     0.072 A 
ATOM      6  C20 ZIN A   1      19.122  -4.321   9.068  0.00  0.00     0.037 A 
ATOM      7  C21 ZIN A   1      19.786  -4.830  10.168  0.00  0.00     0.003 A 
ATOM      8  C22 ZIN A   1      19.694  -4.185  11.384  0.00  0.00     0.008 A 
ATOM      9  C23 ZIN A   1      18.939  -3.026  11.516  0.00  0.00    -0.047 A 
ATOM     10  C24 ZIN A   1      18.873  -2.385  12.878  0.00  0.00     0.072 C 
ENDROOT
BRANCH   1  11
ATOM     11  N4  ZIN A   1      18.121  -0.405  14.110  0.00  0.00    -0.066 N 
ATOM     12  H5  ZIN A   1      17.218  -0.728  14.427  0.00  0.00     0.280 HD
BRANCH  11  13
ATOM     13  C3  ZIN A   1      19.161  -0.868  15.038  0.00  0.00     0.235 C 
BRANCH  13  14
ATOM     14  C2  ZIN A   1      18.510  -1.331  16.342  0.00  0.00     0.023 C 
ATOM     15  C1  ZIN A   1      18.992  -0.446  17.495  0.00  0.00     0.007 C 
ENDBRANCH  13  14
ENDBRANCH  11  13
BRANCH  11  16
ATOM     16  C6  ZIN A   1      18.126   1.063  14.060  0.00  0.00     0.240 C 
BRANCH  16  17
ATOM     17  C7  ZIN A   1      19.289   1.540  13.189  0.00  0.00     0.074 C 
BRANCH  17  18
ATOM     18  C8  ZIN A   1      18.763   2.423  12.088  0.00  0.00    -0.016 A 
ATOM     19  S12 ZIN A   1      17.667   3.780  12.312  0.00  0.00    -0.106 SA
ATOM     20  C11 ZIN A   1      17.671   4.107  10.584  0.00  0.00     0.050 A 
ATOM     21  C10 ZIN A   1      18.450   3.221   9.962  0.00  0.00     0.008 A 
ATOM     22  C9  ZIN A   1      19.052   2.290  10.792  0.00  0.00     0.015 A 
ENDBRANCH  17  18
ENDBRANCH  16  17
ENDBRANCH  11  16
ENDBRANCH   1  11
BRANCH   5  23
ATOM     23  O19 ZIN A   1      17.718  -2.663   8.114  0.00  0.00    -0.360 OA
ATOM     24  H43 ZIN A   1      17.436  -3.334   7.478  0.00  0.00     0.217 HD
ENDBRANCH   5  23
TORSDOF 7
ENDMDL
MODEL 9
REMARK VINA RESULT:      -7.0      3.248      5.716
REMARK  7 active torsions:
REMARK  status: ('A' for Active; 'I' for Inactive)
REMARK    1  A    between atoms: C2_2  and  C3_3 
REMARK    2  A    between atoms: C3_3  and  N4_4 
REMARK    3  A    between atoms: N4_4  and  C6_6 
REMARK    4  A    between atoms: N4_4  and  C13_13 
REMARK    5  A    between atoms: C6_6  and  C7_7 
REMARK    6  A    between atoms: C7_7  and  C8_8 
REMARK    7  A    between atoms: C18_17  and  O19_18 
ROOT
ATOM      1  C13 ZIN A   1      19.022  -0.291  11.012  0.00  0.00     0.192 C 
ATOM      2  C15 ZIN A   1      18.861  -0.233  12.535  0.00  0.00     0.038 C 
ATOM      3  C16 ZIN A   1      19.441   1.090  13.030  0.00  0.00     0.044 C 
ATOM      4  C17 ZIN A   1      18.870   2.245  12.249  0.00  0.00    -0.019 A 
ATOM      5  C18 ZIN A   1      18.987   3.520  12.798  0.00  0.00     0.072 A 
ATOM      6  C20 ZIN A   1      18.487   4.621  12.124  0.00  0.00     0.037 A 
ATOM      7  C21 ZIN A   1      17.868   4.453  10.899  0.00  0.00     0.003 A 
ATOM      8  C22 ZIN A   1      17.752   3.189  10.359  0.00  0.00     0.008 A 
ATOM      9  C23 ZIN A   1      18.250   2.080  11.032  0.00  0.00    -0.047 A 
ATOM     10  C24 ZIN A   1      18.074   0.731  10.387  0.00  0.00     0.072 C 
ENDROOT
BRANCH   1  11
ATOM     11  N4  ZIN A   1      18.685  -1.638  10.529  0.00  0.00    -0.066 N 
ATOM     12  H5  ZIN A   1      19.531  -2.179  10.429  0.00  0.00     0.280 HD
BRANCH  11  13
ATOM     13  C3  ZIN A   1      17.793  -2.294  11.494  0.00  0.00     0.235 C 
BRANCH  13  14
ATOM     14  C2  ZIN A   1      18.235  -3.746  11.689  0.00  0.00     0.023 C 
ATOM     15  C1  ZIN A   1      19.749  -3.851  11.483  0.00  0.00     0.007 C 
ENDBRANCH  13  14
ENDBRANCH  11  13
BRANCH  11  16
ATOM     16  C6  ZIN A   1      18.011  -1.537   9.228  0.00  0.00     0.240 C 
BRANCH  16  17
ATOM     17  C7  ZIN A   1      18.877  -2.191   8.151  0.00  0.00     0.074 C 
BRANCH  17  18
ATOM     18  C8  ZIN A   1      18.968  -1.278   6.957  0.00  0.00    -0.016 A 
ATOM     19  S12 ZIN A   1      19.225  -1.801   5.298  0.00  0.00    -0.106 SA
ATOM     20  C11 ZIN A   1      19.178  -0.136   4.733  0.00  0.00     0.050 A 
ATOM     21  C10 ZIN A   1      18.988   0.683   5.769  0.00  0.00     0.008 A 
ATOM     22  C9  ZIN A   1      18.874   0.052   6.997  0.00  0.00     0.015 A 
ENDBRANCH  17  18
ENDBRANCH  16  17
ENDBRANCH  11  16
ENDBRANCH   1  11
BRANCH   5  23
ATOM     23  O19 ZIN A   1      19.596   3.685  14.001  0.00  0.00    -0.360 OA
ATOM     24  H43 ZIN A   1      19.172   4.342  14.570  0.00  0.00     0.217 HD
ENDBRANCH   5  23
TORSDOF 7
ENDMDL
