MODEL 1
REMARK VINA RESULT:      -8.2      0.000      0.000
REMARK  6 active torsions:
REMARK  status: ('A' for Active; 'I' for Inactive)
REMARK    1  A    between atoms: C5_5  and  C6_6 
REMARK    2  A    between atoms: C6_6  and  C8_7 
REMARK    3  A    between atoms: C6_6  and  O14_13 
REMARK    4  A    between atoms: C8_7  and  N9_8 
REMARK    5  A    between atoms: O14_13  and  C15_14 
REMARK    6  A    between atoms: C15_14  and  C16_15 
ROOT
ATOM      1  C6  ZIN A   1      18.214   2.228  11.988  0.00  0.00     0.174 C 
ENDROOT
BRANCH   1   2
ATOM      2  C5  ZIN A   1      18.408   1.246  13.115  0.00  0.00    -0.006 A 
ATOM      3  C4  ZIN A   1      17.437   1.113  14.090  0.00  0.00     0.013 A 
ATOM      4  C3  ZIN A   1      17.615   0.214  15.125  0.00  0.00     0.024 A 
ATOM      5  C2  ZIN A   1      18.765  -0.554  15.184  0.00  0.00     0.035 A 
ATOM      6 Cl1  ZIN A   1      18.988  -1.684  16.483  0.00  0.00    -0.084 Cl
ATOM      7  C28 ZIN A   1      19.739  -0.416  14.212  0.00  0.00     0.048 A 
ATOM      8  C26 ZIN A   1      19.558   0.480  13.174  0.00  0.00     0.044 A 
ATOM      9 Cl27 ZIN A   1      20.778   0.648  11.950  0.00  0.00    -0.084 Cl
ENDBRANCH   1   2
BRANCH   1  10
ATOM     10  C8  ZIN A   1      17.478   3.463  12.508  0.00  0.00     0.166 C 
BRANCH  10  11
ATOM     11  N9  ZIN A   1      18.423   4.335  13.212  0.00  0.00    -0.347 N 
ATOM     12  C13 ZIN A   1      19.637   4.725  12.768  0.00  0.00     0.209 A 
ATOM     13  N12 ZIN A   1      20.183   5.498  13.666  0.00  0.00    -0.255 NA
ATOM     14  C11 ZIN A   1      19.350   5.620  14.710  0.00  0.00     0.135 A 
ATOM     15  C10 ZIN A   1      18.243   4.900  14.445  0.00  0.00     0.111 A 
ENDBRANCH  10  11
ENDBRANCH   1  10
BRANCH   1  16
ATOM     16  O14 ZIN A   1      17.444   1.616  10.951  0.00  0.00    -0.375 OA
BRANCH  16  17
ATOM     17  C15 ZIN A   1      18.023   1.732   9.650  0.00  0.00     0.208 C 
BRANCH  17  18
ATOM     18  C16 ZIN A   1      18.253   0.358   9.077  0.00  0.00    -0.016 A 
ATOM     19  C25 ZIN A   1      18.638   0.141   7.692  0.00  0.00    -0.009 A 
ATOM     20  C19 ZIN A   1      18.795  -1.216   7.402  0.00  0.00     0.037 A 
ATOM     21  C24 ZIN A   1      18.873   1.088   6.671  0.00  0.00     0.013 A 
ATOM     22  S18 ZIN A   1      18.451  -2.172   8.838  0.00  0.00    -0.099 SA
ATOM     23  C20 ZIN A   1      19.168  -1.613   6.113  0.00  0.00     0.052 A 
ATOM     24  C17 ZIN A   1      18.114  -0.741   9.792  0.00  0.00     0.060 A 
ATOM     25 Cl21 ZIN A   1      19.355  -3.299   5.745  0.00  0.00    -0.083 Cl
ATOM     26  C22 ZIN A   1      19.386  -0.668   5.136  0.00  0.00     0.025 A 
ATOM     27  C23 ZIN A   1      19.236   0.681   5.424  0.00  0.00     0.003 A 
ENDBRANCH  17  18
ENDBRANCH  16  17
ENDBRANCH   1  16
TORSDOF 6
ENDMDL
MODEL 2
REMARK VINA RESULT:      -7.9      3.977      8.603
REMARK  6 active torsions:
REMARK  status: ('A' for Active; 'I' for Inactive)
REMARK    1  A    between atoms: C5_5  and  C6_6 
REMARK    2  A    between atoms: C6_6  and  C8_7 
REMARK    3  A    between atoms: C6_6  and  O14_13 
REMARK    4  A    between atoms: C8_7  and  N9_8 
REMARK    5  A    between atoms: O14_13  and  C15_14 
REMARK    6  A    between atoms: C15_14  and  C16_15 
ROOT
ATOM      1  C6  ZIN A   1      18.294  -2.132  11.173  0.00  0.00     0.174 C 
ENDROOT
BRANCH   1   2
ATOM      2  C5  ZIN A   1      18.428  -1.181  10.012  0.00  0.00    -0.006 A 
ATOM      3  C4  ZIN A   1      17.399  -1.059   9.096  0.00  0.00     0.013 A 
ATOM      4  C3  ZIN A   1      17.522  -0.188   8.030  0.00  0.00     0.024 A 
ATOM      5  C2  ZIN A   1      18.676   0.562   7.880  0.00  0.00     0.035 A 
ATOM      6 Cl1  ZIN A   1      18.829   1.657   6.541  0.00  0.00    -0.084 Cl
ATOM      7  C28 ZIN A   1      19.707   0.435   8.792  0.00  0.00     0.048 A 
ATOM      8  C26 ZIN A   1      19.581  -0.433   9.861  0.00  0.00     0.044 A 
ATOM      9 Cl27 ZIN A   1      20.873  -0.587  11.010  0.00  0.00    -0.084 Cl
ENDBRANCH   1   2
BRANCH   1  10
ATOM     10  C8  ZIN A   1      17.494  -3.361  10.738  0.00  0.00     0.166 C 
BRANCH  10  11
ATOM     11  N9  ZIN A   1      18.365  -4.272   9.991  0.00  0.00    -0.347 N 
ATOM     12  C13 ZIN A   1      19.566  -4.740  10.392  0.00  0.00     0.209 A 
ATOM     13  N12 ZIN A   1      20.039  -5.527   9.465  0.00  0.00    -0.255 NA
ATOM     14  C11 ZIN A   1      19.170  -5.581   8.445  0.00  0.00     0.135 A 
ATOM     15  C10 ZIN A   1      18.115  -4.804   8.755  0.00  0.00     0.111 A 
ENDBRANCH  10  11
ENDBRANCH   1  10
BRANCH   1  16
ATOM     16  O14 ZIN A   1      17.616  -1.478  12.248  0.00  0.00    -0.375 OA
BRANCH  16  17
ATOM     17  C15 ZIN A   1      18.279  -1.592  13.509  0.00  0.00     0.208 C 
BRANCH  17  18
ATOM     18  C16 ZIN A   1      18.447  -0.222  14.113  0.00  0.00    -0.016 A 
ATOM     19  C25 ZIN A   1      18.741  -0.019  15.523  0.00  0.00    -0.009 A 
ATOM     20  C19 ZIN A   1      18.855   1.337  15.840  0.00  0.00     0.037 A 
ATOM     21  C24 ZIN A   1      18.931  -0.976  16.543  0.00  0.00     0.013 A 
ATOM     22  S18 ZIN A   1      18.584   2.308  14.398  0.00  0.00    -0.099 SA
ATOM     23  C20 ZIN A   1      19.140   1.721  17.155  0.00  0.00     0.052 A 
ATOM     24  C17 ZIN A   1      18.332   0.884  13.406  0.00  0.00     0.060 A 
ATOM     25 Cl21 ZIN A   1      19.273   3.405  17.556  0.00  0.00    -0.083 Cl
ATOM     26  C22 ZIN A   1      19.315   0.767  18.131  0.00  0.00     0.025 A 
ATOM     27  C23 ZIN A   1      19.208  -0.581  17.816  0.00  0.00     0.003 A 
ENDBRANCH  17  18
ENDBRANCH  16  17
ENDBRANCH   1  16
TORSDOF 6
ENDMDL
MODEL 3
REMARK VINA RESULT:      -7.9      2.643      7.049
REMARK  6 active torsions:
REMARK  status: ('A' for Active; 'I' for Inactive)
REMARK    1  A    between atoms: C5_5  and  C6_6 
REMARK    2  A    between atoms: C6_6  and  C8_7 
REMARK    3  A    between atoms: C6_6  and  O14_13 
REMARK    4  A    between atoms: C8_7  and  N9_8 
REMARK    5  A    between atoms: O14_13  and  C15_14 
REMARK    6  A    between atoms: C15_14  and  C16_15 
ROOT
ATOM      1  C6  ZIN A   1      18.476   2.539  11.245  0.00  0.00     0.174 C 
ENDROOT
BRANCH   1   2
ATOM      2  C5  ZIN A   1      18.365   1.738   9.973  0.00  0.00    -0.006 A 
ATOM      3  C4  ZIN A   1      19.097   2.105   8.859  0.00  0.00     0.013 A 
ATOM      4  C3  ZIN A   1      18.994   1.371   7.692  0.00  0.00     0.024 A 
ATOM      5  C2  ZIN A   1      18.157   0.270   7.639  0.00  0.00     0.035 A 
ATOM      6 Cl1  ZIN A   1      18.029  -0.651   6.173  0.00  0.00    -0.084 Cl
ATOM      7  C28 ZIN A   1      17.420  -0.093   8.751  0.00  0.00     0.048 A 
ATOM      8  C26 ZIN A   1      17.528   0.638   9.920  0.00  0.00     0.044 A 
ATOM      9 Cl27 ZIN A   1      16.607   0.178  11.319  0.00  0.00    -0.084 Cl
ENDBRANCH   1   2
BRANCH   1  10
ATOM     10  C8  ZIN A   1      18.444   4.031  10.914  0.00  0.00     0.166 C 
BRANCH  10  11
ATOM     11  N9  ZIN A   1      17.765   4.756  11.991  0.00  0.00    -0.347 N 
ATOM     12  C13 ZIN A   1      18.334   5.236  13.117  0.00  0.00     0.209 A 
ATOM     13  N12 ZIN A   1      17.415   5.823  13.834  0.00  0.00    -0.255 NA
ATOM     14  C11 ZIN A   1      16.236   5.732  13.201  0.00  0.00     0.135 A 
ATOM     15  C10 ZIN A   1      16.433   5.069  12.046  0.00  0.00     0.111 A 
ENDBRANCH  10  11
ENDBRANCH   1  10
BRANCH   1  16
ATOM     16  O14 ZIN A   1      19.707   2.222  11.900  0.00  0.00    -0.375 OA
BRANCH  16  17
ATOM     17  C15 ZIN A   1      19.642   1.063  12.732  0.00  0.00     0.208 C 
BRANCH  17  18
ATOM     18  C16 ZIN A   1      19.247   1.468  14.129  0.00  0.00    -0.016 A 
ATOM     19  C25 ZIN A   1      18.695   0.527  15.090  0.00  0.00    -0.009 A 
ATOM     20  C19 ZIN A   1      18.414   1.140  16.314  0.00  0.00     0.037 A 
ATOM     21  C24 ZIN A   1      18.440  -0.853  14.945  0.00  0.00     0.013 A 
ATOM     22  S18 ZIN A   1      18.827   2.848  16.230  0.00  0.00    -0.099 SA
ATOM     23  C20 ZIN A   1      17.877   0.384  17.362  0.00  0.00     0.052 A 
ATOM     24  C17 ZIN A   1      19.372   2.704  14.570  0.00  0.00     0.060 A 
ATOM     25 Cl21 ZIN A   1      17.518   1.143  18.882  0.00  0.00    -0.083 Cl
ATOM     26  C22 ZIN A   1      17.634  -0.960  17.190  0.00  0.00     0.025 A 
ATOM     27  C23 ZIN A   1      17.918  -1.571  15.978  0.00  0.00     0.003 A 
ENDBRANCH  17  18
ENDBRANCH  16  17
ENDBRANCH   1  16
TORSDOF 6
ENDMDL
MODEL 4
REMARK VINA RESULT:      -7.8      2.698      4.105
REMARK  6 active torsions:
REMARK  status: ('A' for Active; 'I' for Inactive)
REMARK    1  A    between atoms: C5_5  and  C6_6 
REMARK    2  A    between atoms: C6_6  and  C8_7 
REMARK    3  A    between atoms: C6_6  and  O14_13 
REMARK    4  A    between atoms: C8_7  and  N9_8 
REMARK    5  A    between atoms: O14_13  and  C15_14 
REMARK    6  A    between atoms: C15_14  and  C16_15 
ROOT
ATOM      1  C6  ZIN A   1      18.930  -0.190  12.932  0.00  0.00     0.174 C 
ENDROOT
BRANCH   1   2
ATOM      2  C5  ZIN A   1      18.705   1.074  12.143  0.00  0.00    -0.006 A 
ATOM      3  C4  ZIN A   1      19.683   2.050  12.106  0.00  0.00     0.013 A 
ATOM      4  C3  ZIN A   1      19.476   3.210  11.383  0.00  0.00     0.024 A 
ATOM      5  C2  ZIN A   1      18.290   3.394  10.695  0.00  0.00     0.035 A 
ATOM      6 Cl1  ZIN A   1      18.031   4.850   9.786  0.00  0.00    -0.084 Cl
ATOM      7  C28 ZIN A   1      17.308   2.420  10.736  0.00  0.00     0.048 A 
ATOM      8  C26 ZIN A   1      17.518   1.258  11.456  0.00  0.00     0.044 A 
ATOM      9 Cl27 ZIN A   1      16.289   0.032  11.502  0.00  0.00    -0.084 Cl
ENDBRANCH   1   2
BRANCH   1  10
ATOM     10  C8  ZIN A   1      19.970   0.068  14.023  0.00  0.00     0.166 C 
BRANCH  10  11
ATOM     11  N9  ZIN A   1      19.294   0.234  15.313  0.00  0.00    -0.347 N 
ATOM     12  C13 ZIN A   1      18.787  -0.752  16.084  0.00  0.00     0.209 A 
ATOM     13  N12 ZIN A   1      18.266  -0.219  17.155  0.00  0.00    -0.255 NA
ATOM     14  C11 ZIN A   1      18.412   1.113  17.102  0.00  0.00     0.135 A 
ATOM     15  C10 ZIN A   1      19.053   1.417  15.958  0.00  0.00     0.111 A 
ENDBRANCH  10  11
ENDBRANCH   1  10
BRANCH   1  16
ATOM     16  O14 ZIN A   1      19.401  -1.219  12.059  0.00  0.00    -0.375 OA
BRANCH  16  17
ATOM     17  C15 ZIN A   1      20.121  -0.734  10.924  0.00  0.00     0.208 C 
BRANCH  17  18
ATOM     18  C16 ZIN A   1      19.488  -1.265   9.664  0.00  0.00    -0.016 A 
ATOM     19  C25 ZIN A   1      19.205  -0.420   8.514  0.00  0.00    -0.009 A 
ATOM     20  C19 ZIN A   1      18.623  -1.142   7.469  0.00  0.00     0.037 A 
ATOM     21  C24 ZIN A   1      19.449   0.959   8.336  0.00  0.00     0.013 A 
ATOM     22  S18 ZIN A   1      18.437  -2.826   7.945  0.00  0.00    -0.099 SA
ATOM     23  C20 ZIN A   1      18.284  -0.491   6.278  0.00  0.00     0.052 A 
ATOM     24  C17 ZIN A   1      19.144  -2.529   9.521  0.00  0.00     0.060 A 
ATOM     25 Cl21 ZIN A   1      17.553  -1.382   4.981  0.00  0.00    -0.083 Cl
ATOM     26  C22 ZIN A   1      18.530   0.856   6.135  0.00  0.00     0.025 A 
ATOM     27  C23 ZIN A   1      19.113   1.574   7.169  0.00  0.00     0.003 A 
ENDBRANCH  17  18
ENDBRANCH  16  17
ENDBRANCH   1  16
TORSDOF 6
ENDMDL
MODEL 5
REMARK VINA RESULT:      -7.8      4.074      7.615
REMARK  6 active torsions:
REMARK  status: ('A' for Active; 'I' for Inactive)
REMARK    1  A    between atoms: C5_5  and  C6_6 
REMARK    2  A    between atoms: C6_6  and  C8_7 
REMARK    3  A    between atoms: C6_6  and  O14_13 
REMARK    4  A    between atoms: C8_7  and  N9_8 
REMARK    5  A    between atoms: O14_13  and  C15_14 
REMARK    6  A    between atoms: C15_14  and  C16_15 
ROOT
ATOM      1  C6  ZIN A   1      18.640  -2.301  11.154  0.00  0.00     0.174 C 
ENDROOT
BRANCH   1   2
ATOM      2  C5  ZIN A   1      18.684  -1.343   9.991  0.00  0.00    -0.006 A 
ATOM      3  C4  ZIN A   1      17.620  -1.274   9.111  0.00  0.00     0.013 A 
ATOM      4  C3  ZIN A   1      17.660  -0.397   8.044  0.00  0.00     0.024 A 
ATOM      5  C2  ZIN A   1      18.767   0.412   7.856  0.00  0.00     0.035 A 
ATOM      6 Cl1  ZIN A   1      18.817   1.515   6.516  0.00  0.00    -0.084 Cl
ATOM      7  C28 ZIN A   1      19.835   0.339   8.732  0.00  0.00     0.048 A 
ATOM      8  C26 ZIN A   1      19.791  -0.535   9.803  0.00  0.00     0.044 A 
ATOM      9 Cl27 ZIN A   1      21.128  -0.623  10.907  0.00  0.00    -0.084 Cl
ENDBRANCH   1   2
BRANCH   1  10
ATOM     10  C8  ZIN A   1      17.401  -3.191  11.036  0.00  0.00     0.166 C 
BRANCH  10  11
ATOM     11  N9  ZIN A   1      17.749  -4.420  10.318  0.00  0.00    -0.347 N 
ATOM     12  C13 ZIN A   1      16.888  -5.360   9.874  0.00  0.00     0.209 A 
ATOM     13  N12 ZIN A   1      17.567  -6.304   9.283  0.00  0.00    -0.255 NA
ATOM     14  C11 ZIN A   1      18.874  -6.008   9.334  0.00  0.00     0.135 A 
ATOM     15  C10 ZIN A   1      19.009  -4.833   9.978  0.00  0.00     0.111 A 
ENDBRANCH  10  11
ENDBRANCH   1  10
BRANCH   1  16
ATOM     16  O14 ZIN A   1      18.581  -1.563  12.376  0.00  0.00    -0.375 OA
BRANCH  16  17
ATOM     17  C15 ZIN A   1      17.397  -0.777  12.526  0.00  0.00     0.208 C 
BRANCH  17  18
ATOM     18  C16 ZIN A   1      17.746   0.541  13.165  0.00  0.00    -0.016 A 
ATOM     19  C25 ZIN A   1      17.814   1.783  12.412  0.00  0.00    -0.009 A 
ATOM     20  C19 ZIN A   1      18.151   2.867  13.226  0.00  0.00     0.037 A 
ATOM     21  C24 ZIN A   1      17.576   2.010  11.039  0.00  0.00     0.013 A 
ATOM     22  S18 ZIN A   1      18.384   2.316  14.880  0.00  0.00    -0.099 SA
ATOM     23  C20 ZIN A   1      18.259   4.147  12.670  0.00  0.00     0.052 A 
ATOM     24  C17 ZIN A   1      18.019   0.656  14.450  0.00  0.00     0.060 A 
ATOM     25 Cl21 ZIN A   1      18.687   5.495  13.675  0.00  0.00    -0.083 Cl
ATOM     26  C22 ZIN A   1      18.027   4.337  11.327  0.00  0.00     0.025 A 
ATOM     27  C23 ZIN A   1      17.685   3.263  10.518  0.00  0.00     0.003 A 
ENDBRANCH  17  18
ENDBRANCH  16  17
ENDBRANCH   1  16
TORSDOF 6
ENDMDL
MODEL 6
REMARK VINA RESULT:      -7.8      3.443      7.637
REMARK  6 active torsions:
REMARK  status: ('A' for Active; 'I' for Inactive)
REMARK    1  A    between atoms: C5_5  and  C6_6 
REMARK    2  A    between atoms: C6_6  and  C8_7 
REMARK    3  A    between atoms: C6_6  and  O14_13 
REMARK    4  A    between atoms: C8_7  and  N9_8 
REMARK    5  A    between atoms: O14_13  and  C15_14 
REMARK    6  A    between atoms: C15_14  and  C16_15 
ROOT
ATOM      1  C6  ZIN A   1      19.005  -0.999  11.150  0.00  0.00     0.174 C 
ENDROOT
BRANCH   1   2
ATOM      2  C5  ZIN A   1      19.052  -2.388  10.568  0.00  0.00    -0.006 A 
ATOM      3  C4  ZIN A   1      19.740  -3.390  11.227  0.00  0.00     0.013 A 
ATOM      4  C3  ZIN A   1      19.784  -4.665  10.693  0.00  0.00     0.024 A 
ATOM      5  C2  ZIN A   1      19.139  -4.937   9.499  0.00  0.00     0.035 A 
ATOM      6 Cl1  ZIN A   1      19.194  -6.538   8.830  0.00  0.00    -0.084 Cl
ATOM      7  C28 ZIN A   1      18.456  -3.933   8.837  0.00  0.00     0.048 A 
ATOM      8  C26 ZIN A   1      18.408  -2.660   9.374  0.00  0.00     0.044 A 
ATOM      9 Cl27 ZIN A   1      17.545  -1.401   8.547  0.00  0.00    -0.084 Cl
ENDBRANCH   1   2
BRANCH   1  10
ATOM     10  C8  ZIN A   1      20.132  -0.156  10.551  0.00  0.00     0.166 C 
BRANCH  10  11
ATOM     11  N9  ZIN A   1      19.568   1.044   9.929  0.00  0.00    -0.347 N 
ATOM     12  C13 ZIN A   1      19.562   1.337   8.611  0.00  0.00     0.209 A 
ATOM     13  N12 ZIN A   1      18.970   2.487   8.440  0.00  0.00    -0.255 NA
ATOM     14  C11 ZIN A   1      18.589   2.970   9.632  0.00  0.00     0.135 A 
ATOM     15  C10 ZIN A   1      18.953   2.082  10.576  0.00  0.00     0.111 A 
ENDBRANCH  10  11
ENDBRANCH   1  10
BRANCH   1  16
ATOM     16  O14 ZIN A   1      19.166  -1.071  12.568  0.00  0.00    -0.375 OA
BRANCH  16  17
ATOM     17  C15 ZIN A   1      17.964  -0.832  13.303  0.00  0.00     0.208 C 
BRANCH  17  18
ATOM     18  C16 ZIN A   1      18.175   0.320  14.251  0.00  0.00    -0.016 A 
ATOM     19  C25 ZIN A   1      18.577   0.130  15.636  0.00  0.00    -0.009 A 
ATOM     20  C19 ZIN A   1      18.712   1.346  16.309  0.00  0.00     0.037 A 
ATOM     21  C24 ZIN A   1      18.847  -1.068  16.332  0.00  0.00     0.013 A 
ATOM     22  S18 ZIN A   1      18.327   2.673  15.219  0.00  0.00    -0.099 SA
ATOM     23  C20 ZIN A   1      19.097   1.357  17.655  0.00  0.00     0.052 A 
ATOM     24  C17 ZIN A   1      18.003   1.576  13.891  0.00  0.00     0.060 A 
ATOM     25 Cl21 ZIN A   1      19.256   2.865  18.498  0.00  0.00    -0.083 Cl
ATOM     26  C22 ZIN A   1      19.348   0.173  18.310  0.00  0.00     0.025 A 
ATOM     27  C23 ZIN A   1      19.221  -1.036  17.641  0.00  0.00     0.003 A 
ENDBRANCH  17  18
ENDBRANCH  16  17
ENDBRANCH   1  16
TORSDOF 6
ENDMDL
MODEL 7
REMARK VINA RESULT:      -7.7      2.634      4.379
REMARK  6 active torsions:
REMARK  status: ('A' for Active; 'I' for Inactive)
REMARK    1  A    between atoms: C5_5  and  C6_6 
REMARK    2  A    between atoms: C6_6  and  C8_7 
REMARK    3  A    between atoms: C6_6  and  O14_13 
REMARK    4  A    between atoms: C8_7  and  N9_8 
REMARK    5  A    between atoms: O14_13  and  C15_14 
REMARK    6  A    between atoms: C15_14  and  C16_15 
ROOT
ATOM      1  C6  ZIN A   1      18.959   1.200  11.725  0.00  0.00     0.174 C 
ENDROOT
BRANCH   1   2
ATOM      2  C5  ZIN A   1      19.102   2.510  12.456  0.00  0.00    -0.006 A 
ATOM      3  C4  ZIN A   1      19.763   3.566  11.858  0.00  0.00     0.013 A 
ATOM      4  C3  ZIN A   1      19.896   4.768  12.529  0.00  0.00     0.024 A 
ATOM      5  C2  ZIN A   1      19.367   4.912  13.800  0.00  0.00     0.035 A 
ATOM      6 Cl1  ZIN A   1      19.533   6.422  14.641  0.00  0.00    -0.084 Cl
ATOM      7  C28 ZIN A   1      18.711   3.853  14.400  0.00  0.00     0.048 A 
ATOM      8  C26 ZIN A   1      18.574   2.653  13.726  0.00  0.00     0.044 A 
ATOM      9 Cl27 ZIN A   1      17.745   1.326  14.478  0.00  0.00    -0.084 Cl
ENDBRANCH   1   2
BRANCH   1  10
ATOM     10  C8  ZIN A   1      20.144   0.294  12.062  0.00  0.00     0.166 C 
BRANCH  10  11
ATOM     11  N9  ZIN A   1      19.694  -1.099  12.117  0.00  0.00    -0.347 N 
ATOM     12  C13 ZIN A   1      18.615  -1.568  12.780  0.00  0.00     0.209 A 
ATOM     13  N12 ZIN A   1      18.536  -2.856  12.594  0.00  0.00    -0.255 NA
ATOM     14  C11 ZIN A   1      19.558  -3.255  11.821  0.00  0.00     0.135 A 
ATOM     15  C10 ZIN A   1      20.294  -2.171  11.512  0.00  0.00     0.111 A 
ENDBRANCH  10  11
ENDBRANCH   1  10
BRANCH   1  16
ATOM     16  O14 ZIN A   1      18.930   1.442  10.316  0.00  0.00    -0.375 OA
BRANCH  16  17
ATOM     17  C15 ZIN A   1      17.709   1.051   9.684  0.00  0.00     0.208 C 
BRANCH  17  18
ATOM     18  C16 ZIN A   1      17.956  -0.157   8.818  0.00  0.00    -0.016 A 
ATOM     19  C25 ZIN A   1      18.440  -0.054   7.451  0.00  0.00    -0.009 A 
ATOM     20  C19 ZIN A   1      18.594  -1.310   6.858  0.00  0.00     0.037 A 
ATOM     21  C24 ZIN A   1      18.768   1.097   6.703  0.00  0.00     0.013 A 
ATOM     22  S18 ZIN A   1      18.126  -2.565   7.999  0.00  0.00    -0.099 SA
ATOM     23  C20 ZIN A   1      19.055  -1.405   5.540  0.00  0.00     0.052 A 
ATOM     24  C17 ZIN A   1      17.744  -1.387   9.240  0.00  0.00     0.060 A 
ATOM     25 Cl21 ZIN A   1      19.239  -2.962   4.797  0.00  0.00    -0.083 Cl
ATOM     26  C22 ZIN A   1      19.363  -0.265   4.833  0.00  0.00     0.025 A 
ATOM     27  C23 ZIN A   1      19.216   0.983   5.422  0.00  0.00     0.003 A 
ENDBRANCH  17  18
ENDBRANCH  16  17
ENDBRANCH   1  16
TORSDOF 6
ENDMDL
MODEL 8
REMARK VINA RESULT:      -7.7      3.344      8.122
REMARK  6 active torsions:
REMARK  status: ('A' for Active; 'I' for Inactive)
REMARK    1  A    between atoms: C5_5  and  C6_6 
REMARK    2  A    between atoms: C6_6  and  C8_7 
REMARK    3  A    between atoms: C6_6  and  O14_13 
REMARK    4  A    between atoms: C8_7  and  N9_8 
REMARK    5  A    between atoms: O14_13  and  C15_14 
REMARK    6  A    between atoms: C15_14  and  C16_15 
ROOT
ATOM      1  C6  ZIN A   1      18.320  -0.517  10.125  0.00  0.00     0.174 C 
ENDROOT
BRANCH   1   2
ATOM      2  C5  ZIN A   1      18.408  -0.330   8.632  0.00  0.00    -0.006 A 
ATOM      3  C4  ZIN A   1      18.005  -1.343   7.783  0.00  0.00     0.013 A 
ATOM      4  C3  ZIN A   1      18.087  -1.172   6.414  0.00  0.00     0.024 A 
ATOM      5  C2  ZIN A   1      18.573   0.014   5.893  0.00  0.00     0.035 A 
ATOM      6 Cl1  ZIN A   1      18.675   0.229   4.173  0.00  0.00    -0.084 Cl
ATOM      7  C28 ZIN A   1      18.982   1.026   6.742  0.00  0.00     0.048 A 
ATOM      8  C26 ZIN A   1      18.895   0.856   8.112  0.00  0.00     0.044 A 
ATOM      9 Cl27 ZIN A   1      19.402   2.129   9.178  0.00  0.00    -0.084 Cl
ENDBRANCH   1   2
BRANCH   1  10
ATOM     10  C8  ZIN A   1      17.676  -1.870  10.432  0.00  0.00     0.166 C 
BRANCH  10  11
ATOM     11  N9  ZIN A   1      18.719  -2.844  10.765  0.00  0.00    -0.347 N 
ATOM     12  C13 ZIN A   1      19.675  -2.704  11.708  0.00  0.00     0.209 A 
ATOM     13  N12 ZIN A   1      20.417  -3.776  11.714  0.00  0.00    -0.255 NA
ATOM     14  C11 ZIN A   1      19.973  -4.627  10.777  0.00  0.00     0.135 A 
ATOM     15  C10 ZIN A   1      18.911  -4.062  10.172  0.00  0.00     0.111 A 
ENDBRANCH  10  11
ENDBRANCH   1  10
BRANCH   1  16
ATOM     16  O14 ZIN A   1      17.526   0.529  10.689  0.00  0.00    -0.375 OA
BRANCH  16  17
ATOM     17  C15 ZIN A   1      16.931   0.194  11.945  0.00  0.00     0.208 C 
BRANCH  17  18
ATOM     18  C16 ZIN A   1      17.513   1.068  13.025  0.00  0.00    -0.016 A 
ATOM     19  C25 ZIN A   1      17.913   0.548  14.323  0.00  0.00    -0.009 A 
ATOM     20  C19 ZIN A   1      18.427   1.550  15.149  0.00  0.00     0.037 A 
ATOM     21  C24 ZIN A   1      17.860  -0.776  14.810  0.00  0.00     0.013 A 
ATOM     22  S18 ZIN A   1      18.387   3.093  14.304  0.00  0.00    -0.099 SA
ATOM     23  C20 ZIN A   1      18.866   1.230  16.439  0.00  0.00     0.052 A 
ATOM     24  C17 ZIN A   1      17.694   2.365  12.868  0.00  0.00     0.060 A 
ATOM     25 Cl21 ZIN A   1      19.497   2.474  17.472  0.00  0.00    -0.083 Cl
ATOM     26  C22 ZIN A   1      18.798  -0.068  16.889  0.00  0.00     0.025 A 
ATOM     27  C23 ZIN A   1      18.293  -1.067  16.067  0.00  0.00     0.003 A 
ENDBRANCH  17  18
ENDBRANCH  16  17
ENDBRANCH   1  16
TORSDOF 6
ENDMDL
MODEL 9
REMARK VINA RESULT:      -7.6      2.519      7.201
REMARK  6 active torsions:
REMARK  status: ('A' for Active; 'I' for Inactive)
REMARK    1  A    between atoms: C5_5  and  C6_6 
REMARK    2  A    between atoms: C6_6  and  C8_7 
REMARK    3  A    between atoms: C6_6  and  O14_13 
REMARK    4  A    between atoms: C8_7  and  N9_8 
REMARK    5  A    between atoms: O14_13  and  C15_14 
REMARK    6  A    between atoms: C15_14  and  C16_15 
ROOT
ATOM      1  C6  ZIN A   1      18.611   1.440  10.737  0.00  0.00     0.174 C 
ENDROOT
BRANCH   1   2
ATOM      2  C5  ZIN A   1      18.498   1.014   9.296  0.00  0.00    -0.006 A 
ATOM      3  C4  ZIN A   1      19.117   1.754   8.306  0.00  0.00     0.013 A 
ATOM      4  C3  ZIN A   1      19.012   1.364   6.984  0.00  0.00     0.024 A 
ATOM      5  C2  ZIN A   1      18.287   0.233   6.652  0.00  0.00     0.035 A 
ATOM      6 Cl1  ZIN A   1      18.156  -0.256   4.991  0.00  0.00    -0.084 Cl
ATOM      7  C28 ZIN A   1      17.662  -0.504   7.641  0.00  0.00     0.048 A 
ATOM      8  C26 ZIN A   1      17.772  -0.116   8.965  0.00  0.00     0.044 A 
ATOM      9 Cl27 ZIN A   1      16.994  -1.045  10.208  0.00  0.00    -0.084 Cl
ENDBRANCH   1   2
BRANCH   1  10
ATOM     10  C8  ZIN A   1      19.270   2.818  10.813  0.00  0.00     0.166 C 
BRANCH  10  11
ATOM     11  N9  ZIN A   1      18.235   3.848  10.936  0.00  0.00    -0.347 N 
ATOM     12  C13 ZIN A   1      17.877   4.741   9.989  0.00  0.00     0.209 A 
ATOM     13  N12 ZIN A   1      16.922   5.493  10.463  0.00  0.00    -0.255 NA
ATOM     14  C11 ZIN A   1      16.645   5.117  11.720  0.00  0.00     0.135 A 
ATOM     15  C10 ZIN A   1      17.455   4.089  12.035  0.00  0.00     0.111 A 
ENDBRANCH  10  11
ENDBRANCH   1  10
BRANCH   1  16
ATOM     16  O14 ZIN A   1      19.407   0.491  11.453  0.00  0.00    -0.375 OA
BRANCH  16  17
ATOM     17  C15 ZIN A   1      20.149   1.054  12.536  0.00  0.00     0.208 C 
BRANCH  17  18
ATOM     18  C16 ZIN A   1      19.649   0.485  13.838  0.00  0.00    -0.016 A 
ATOM     19  C25 ZIN A   1      19.267   1.322  14.963  0.00  0.00    -0.009 A 
ATOM     20  C19 ZIN A   1      18.833   0.563  16.052  0.00  0.00     0.037 A 
ATOM     21  C24 ZIN A   1      19.268   2.730  15.071  0.00  0.00     0.013 A 
ATOM     22  S18 ZIN A   1      18.924  -1.149  15.655  0.00  0.00    -0.099 SA
ATOM     23  C20 ZIN A   1      18.421   1.204  17.226  0.00  0.00     0.052 A 
ATOM     24  C17 ZIN A   1      19.530  -0.812  14.045  0.00  0.00     0.060 A 
ATOM     25 Cl21 ZIN A   1      17.890   0.264  18.585  0.00  0.00    -0.083 Cl
ATOM     26  C22 ZIN A   1      18.437   2.578  17.305  0.00  0.00     0.025 A 
ATOM     27  C23 ZIN A   1      18.863   3.334  16.222  0.00  0.00     0.003 A 
ENDBRANCH  17  18
ENDBRANCH  16  17
ENDBRANCH   1  16
TORSDOF 6
ENDMDL
