MODEL 1
REMARK VINA RESULT:      -5.9      0.000      0.000
REMARK  7 active torsions:
REMARK  status: ('A' for Active; 'I' for Inactive)
REMARK    1  A    between atoms: C2_2  and  C3_3 
REMARK    2  A    between atoms: C3_3  and  C4_4 
REMARK    3  A    between atoms: C4_4  and  C5_5 
REMARK    4  A    between atoms: C5_5  and  C6_6 
REMARK    5  A    between atoms: C6_6  and  C7_7 
REMARK    6  A    between atoms: C10_10  and  O11_11 
REMARK    7  A    between atoms: C13_13  and  O14_14 
ROOT
ATOM      1  C7  <0> d   1      18.562   0.184   7.543  0.00  0.00    -0.025 A 
ATOM      2  C8  <0> d   1      18.850   0.918   6.409  0.00  0.00     0.012 A 
ATOM      3  C9  <0> d   1      19.190   0.276   5.234  0.00  0.00     0.037 A 
ATOM      4  C10 <0> d   1      19.240  -1.110   5.189  0.00  0.00     0.068 A 
ATOM      5  C12 <0> d   1      18.951  -1.850   6.326  0.00  0.00     0.073 A 
ATOM      6  C13 <0> d   1      18.616  -1.202   7.505  0.00  0.00     0.074 A 
ENDROOT
BRANCH   1   7
ATOM      7  C6  <0> d   1      18.192   0.888   8.823  0.00  0.00     0.041 C 
BRANCH   7   8
ATOM      8  C5  <0> d   1      19.172   2.037   9.073  0.00  0.00     0.005 C 
BRANCH   8   9
ATOM      9  C4  <0> d   1      18.417   3.233   9.656  0.00  0.00     0.000 C 
BRANCH   9  10
ATOM     10  C3  <0> d   1      17.823   2.851  11.012  0.00  0.00    -0.000 C 
BRANCH  10  11
ATOM     11  C2  <0> d   1      17.203   4.087  11.666  0.00  0.00    -0.005 C 
ATOM     12  C1  <0> d   1      17.108   5.215  10.636  0.00  0.00     0.005 C 
ENDBRANCH  10  11
ENDBRANCH   9  10
ENDBRANCH   8   9
ENDBRANCH   7   8
ENDBRANCH   1   7
BRANCH   6  13
ATOM     13  O14 <0> d   1      18.333  -1.925   8.621  0.00  0.00    -0.360 OA
ATOM     14  H32 <0> d   1      18.688  -1.545   9.436  0.00  0.00     0.217 HD
ENDBRANCH   6  13
BRANCH   4  15
ATOM     15  O11 <0> d   1      19.574  -1.742   4.034  0.00  0.00    -0.361 OA
ATOM     16  H30 <0> d   1      20.260  -2.414   4.137  0.00  0.00     0.217 HD
ENDBRANCH   4  15
TORSDOF 7
ENDMDL
MODEL 2
REMARK VINA RESULT:      -5.7      3.243      6.891
REMARK  7 active torsions:
REMARK  status: ('A' for Active; 'I' for Inactive)
REMARK    1  A    between atoms: C2_2  and  C3_3 
REMARK    2  A    between atoms: C3_3  and  C4_4 
REMARK    3  A    between atoms: C4_4  and  C5_5 
REMARK    4  A    between atoms: C5_5  and  C6_6 
REMARK    5  A    between atoms: C6_6  and  C7_7 
REMARK    6  A    between atoms: C10_10  and  O11_11 
REMARK    7  A    between atoms: C13_13  and  O14_14 
ROOT
ATOM      1  C7  <0> d   1      18.671   3.293  10.677  0.00  0.00    -0.025 A 
ATOM      2  C8  <0> d   1      17.422   3.881  10.718  0.00  0.00     0.012 A 
ATOM      3  C9  <0> d   1      17.095   4.744  11.746  0.00  0.00     0.037 A 
ATOM      4  C10 <0> d   1      18.023   5.024  12.740  0.00  0.00     0.068 A 
ATOM      5  C12 <0> d   1      19.277   4.435  12.701  0.00  0.00     0.073 A 
ATOM      6  C13 <0> d   1      19.601   3.566  11.671  0.00  0.00     0.074 A 
ENDROOT
BRANCH   1   7
ATOM      7  C6  <0> d   1      19.025   2.352   9.554  0.00  0.00     0.041 C 
BRANCH   7   8
ATOM      8  C5  <0> d   1      18.057   1.167   9.559  0.00  0.00     0.005 C 
BRANCH   8   9
ATOM      9  C4  <0> d   1      18.092   0.473   8.196  0.00  0.00     0.000 C 
BRANCH   9  10
ATOM     10  C3  <0> d   1      18.979   1.271   7.240  0.00  0.00    -0.000 C 
BRANCH  10  11
ATOM     11  C2  <0> d   1      18.942   0.628   5.852  0.00  0.00    -0.005 C 
ATOM     12  C1  <0> d   1      17.680  -0.227   5.720  0.00  0.00     0.005 C 
ENDBRANCH  10  11
ENDBRANCH   9  10
ENDBRANCH   8   9
ENDBRANCH   7   8
ENDBRANCH   1   7
BRANCH   6  13
ATOM     13  O14 <0> d   1      20.830   2.987  11.630  0.00  0.00    -0.360 OA
ATOM     14  H32 <0> d   1      21.277   2.952  12.487  0.00  0.00     0.217 HD
ENDBRANCH   6  13
BRANCH   4  15
ATOM     15  O11 <0> d   1      17.700   5.872  13.751  0.00  0.00    -0.361 OA
ATOM     16  H30 <0> d   1      17.863   6.803  13.551  0.00  0.00     0.217 HD
ENDBRANCH   4  15
TORSDOF 7
ENDMDL
MODEL 3
REMARK VINA RESULT:      -5.7      3.168      5.694
REMARK  7 active torsions:
REMARK  status: ('A' for Active; 'I' for Inactive)
REMARK    1  A    between atoms: C2_2  and  C3_3 
REMARK    2  A    between atoms: C3_3  and  C4_4 
REMARK    3  A    between atoms: C4_4  and  C5_5 
REMARK    4  A    between atoms: C5_5  and  C6_6 
REMARK    5  A    between atoms: C6_6  and  C7_7 
REMARK    6  A    between atoms: C10_10  and  O11_11 
REMARK    7  A    between atoms: C13_13  and  O14_14 
ROOT
ATOM      1  C7  <0> d   1      19.255  -0.928  11.132  0.00  0.00    -0.025 A 
ATOM      2  C8  <0> d   1      18.121  -0.556  11.826  0.00  0.00     0.012 A 
ATOM      3  C9  <0> d   1      18.187   0.442  12.781  0.00  0.00     0.037 A 
ATOM      4  C10 <0> d   1      19.395   1.073  13.043  0.00  0.00     0.068 A 
ATOM      5  C12 <0> d   1      20.535   0.701  12.348  0.00  0.00     0.073 A 
ATOM      6  C13 <0> d   1      20.467  -0.303  11.395  0.00  0.00     0.074 A 
ENDROOT
BRANCH   1   7
ATOM      7  C6  <0> d   1      19.180  -2.016  10.092  0.00  0.00     0.041 C 
BRANCH   7   8
ATOM      8  C5  <0> d   1      18.305  -1.546   8.927  0.00  0.00     0.005 C 
BRANCH   8   9
ATOM      9  C4  <0> d   1      19.124  -0.641   8.006  0.00  0.00     0.000 C 
BRANCH   9  10
ATOM     10  C3  <0> d   1      18.459   0.733   7.916  0.00  0.00    -0.000 C 
BRANCH  10  11
ATOM     11  C2  <0> d   1      19.404   1.796   8.479  0.00  0.00    -0.005 C 
ATOM     12  C1  <0> d   1      18.699   2.562   9.601  0.00  0.00     0.005 C 
ENDBRANCH  10  11
ENDBRANCH   9  10
ENDBRANCH   8   9
ENDBRANCH   7   8
ENDBRANCH   1   7
BRANCH   6  13
ATOM     13  O14 <0> d   1      21.583  -0.670  10.712  0.00  0.00    -0.360 OA
ATOM     14  H32 <0> d   1      21.420  -1.311  10.006  0.00  0.00     0.217 HD
ENDBRANCH   6  13
BRANCH   4  15
ATOM     15  O11 <0> d   1      19.460   2.052  13.983  0.00  0.00    -0.361 OA
ATOM     16  H30 <0> d   1      19.059   1.813  14.829  0.00  0.00     0.217 HD
ENDBRANCH   4  15
TORSDOF 7
ENDMDL
MODEL 4
REMARK VINA RESULT:      -5.7      3.633      5.675
REMARK  7 active torsions:
REMARK  status: ('A' for Active; 'I' for Inactive)
REMARK    1  A    between atoms: C2_2  and  C3_3 
REMARK    2  A    between atoms: C3_3  and  C4_4 
REMARK    3  A    between atoms: C4_4  and  C5_5 
REMARK    4  A    between atoms: C5_5  and  C6_6 
REMARK    5  A    between atoms: C6_6  and  C7_7 
REMARK    6  A    between atoms: C10_10  and  O11_11 
REMARK    7  A    between atoms: C13_13  and  O14_14 
ROOT
ATOM      1  C7  <0> d   1      19.516  -0.117  11.343  0.00  0.00    -0.025 A 
ATOM      2  C8  <0> d   1      18.236  -0.561  11.612  0.00  0.00     0.012 A 
ATOM      3  C9  <0> d   1      17.808  -0.696  12.920  0.00  0.00     0.037 A 
ATOM      4  C10 <0> d   1      18.665  -0.384  13.966  0.00  0.00     0.068 A 
ATOM      5  C12 <0> d   1      19.951   0.061  13.699  0.00  0.00     0.073 A 
ATOM      6  C13 <0> d   1      20.378   0.190  12.387  0.00  0.00     0.074 A 
ENDROOT
BRANCH   1   7
ATOM      7  C6  <0> d   1      19.978   0.028   9.917  0.00  0.00     0.041 C 
BRANCH   7   8
ATOM      8  C5  <0> d   1      19.015   0.945   9.160  0.00  0.00     0.005 C 
BRANCH   8   9
ATOM      9  C4  <0> d   1      19.202   2.387   9.637  0.00  0.00     0.000 C 
BRANCH   9  10
ATOM     10  C3  <0> d   1      17.882   2.913  10.203  0.00  0.00    -0.000 C 
BRANCH  10  11
ATOM     11  C2  <0> d   1      18.080   3.326  11.662  0.00  0.00    -0.005 C 
ATOM     12  C1  <0> d   1      19.540   3.729  11.885  0.00  0.00     0.005 C 
ENDBRANCH  10  11
ENDBRANCH   9  10
ENDBRANCH   8   9
ENDBRANCH   7   8
ENDBRANCH   1   7
BRANCH   6  13
ATOM     13  O14 <0> d   1      21.638   0.626  12.121  0.00  0.00    -0.360 OA
ATOM     14  H32 <0> d   1      21.671   1.427  11.581  0.00  0.00     0.217 HD
ENDBRANCH   6  13
BRANCH   4  15
ATOM     15  O11 <0> d   1      18.245  -0.518  15.251  0.00  0.00    -0.361 OA
ATOM     16  H30 <0> d   1      17.335  -0.831  15.337  0.00  0.00     0.217 HD
ENDBRANCH   4  15
TORSDOF 7
ENDMDL
MODEL 5
REMARK VINA RESULT:      -5.6      3.831      6.446
REMARK  7 active torsions:
REMARK  status: ('A' for Active; 'I' for Inactive)
REMARK    1  A    between atoms: C2_2  and  C3_3 
REMARK    2  A    between atoms: C3_3  and  C4_4 
REMARK    3  A    between atoms: C4_4  and  C5_5 
REMARK    4  A    between atoms: C5_5  and  C6_6 
REMARK    5  A    between atoms: C6_6  and  C7_7 
REMARK    6  A    between atoms: C10_10  and  O11_11 
REMARK    7  A    between atoms: C13_13  and  O14_14 
ROOT
ATOM      1  C7  <0> d   1      18.721   3.208  10.573  0.00  0.00    -0.025 A 
ATOM      2  C8  <0> d   1      17.463   3.776  10.600  0.00  0.00     0.012 A 
ATOM      3  C9  <0> d   1      17.096   4.603  11.645  0.00  0.00     0.037 A 
ATOM      4  C10 <0> d   1      17.995   4.865  12.671  0.00  0.00     0.068 A 
ATOM      5  C12 <0> d   1      19.258   4.295  12.646  0.00  0.00     0.073 A 
ATOM      6  C13 <0> d   1      19.620   3.462  11.599  0.00  0.00     0.074 A 
ENDROOT
BRANCH   1   7
ATOM      7  C6  <0> d   1      19.116   2.307   9.431  0.00  0.00     0.041 C 
BRANCH   7   8
ATOM      8  C5  <0> d   1      18.071   1.202   9.269  0.00  0.00     0.005 C 
BRANCH   8   9
ATOM      9  C4  <0> d   1      18.271   0.146  10.357  0.00  0.00     0.000 C 
BRANCH   9  10
ATOM     10  C3  <0> d   1      16.963  -0.054  11.123  0.00  0.00    -0.000 C 
BRANCH  10  11
ATOM     11  C2  <0> d   1      17.108   0.508  12.538  0.00  0.00    -0.005 C 
ATOM     12  C1  <0> d   1      18.529   0.256  13.044  0.00  0.00     0.005 C 
ENDBRANCH  10  11
ENDBRANCH   9  10
ENDBRANCH   8   9
ENDBRANCH   7   8
ENDBRANCH   1   7
BRANCH   6  13
ATOM     13  O14 <0> d   1      20.859   2.902  11.572  0.00  0.00    -0.360 OA
ATOM     14  H32 <0> d   1      20.919   2.108  11.023  0.00  0.00     0.217 HD
ENDBRANCH   6  13
BRANCH   4  15
ATOM     15  O11 <0> d   1      17.634   5.676  13.699  0.00  0.00    -0.361 OA
ATOM     16  H30 <0> d   1      16.784   6.118  13.572  0.00  0.00     0.217 HD
ENDBRANCH   4  15
TORSDOF 7
ENDMDL
MODEL 6
REMARK VINA RESULT:      -5.6      2.907      5.292
REMARK  7 active torsions:
REMARK  status: ('A' for Active; 'I' for Inactive)
REMARK    1  A    between atoms: C2_2  and  C3_3 
REMARK    2  A    between atoms: C3_3  and  C4_4 
REMARK    3  A    between atoms: C4_4  and  C5_5 
REMARK    4  A    between atoms: C5_5  and  C6_6 
REMARK    5  A    between atoms: C6_6  and  C7_7 
REMARK    6  A    between atoms: C10_10  and  O11_11 
REMARK    7  A    between atoms: C13_13  and  O14_14 
ROOT
ATOM      1  C7  <0> d   1      19.177   0.117  11.195  0.00  0.00    -0.025 A 
ATOM      2  C8  <0> d   1      17.878  -0.216  11.524  0.00  0.00     0.012 A 
ATOM      3  C9  <0> d   1      17.545  -1.530  11.793  0.00  0.00     0.037 A 
ATOM      4  C10 <0> d   1      18.517  -2.519  11.735  0.00  0.00     0.068 A 
ATOM      5  C12 <0> d   1      19.822  -2.187  11.404  0.00  0.00     0.073 A 
ATOM      6  C13 <0> d   1      20.152  -0.869  11.130  0.00  0.00     0.074 A 
ENDROOT
BRANCH   1   7
ATOM      7  C6  <0> d   1      19.537   1.551  10.902  0.00  0.00     0.041 C 
BRANCH   7   8
ATOM      8  C5  <0> d   1      18.718   2.048   9.709  0.00  0.00     0.005 C 
BRANCH   8   9
ATOM      9  C4  <0> d   1      19.429   1.668   8.409  0.00  0.00     0.000 C 
BRANCH   9  10
ATOM     10  C3  <0> d   1      18.534   0.738   7.589  0.00  0.00    -0.000 C 
BRANCH  10  11
ATOM     11  C2  <0> d   1      19.147  -0.663   7.557  0.00  0.00    -0.005 C 
ATOM     12  C1  <0> d   1      18.118  -1.682   8.052  0.00  0.00     0.005 C 
ENDBRANCH  10  11
ENDBRANCH   9  10
ENDBRANCH   8   9
ENDBRANCH   7   8
ENDBRANCH   1   7
BRANCH   6  13
ATOM     13  O14 <0> d   1      21.431  -0.541  10.806  0.00  0.00    -0.360 OA
ATOM     14  H32 <0> d   1      21.743  -0.941   9.983  0.00  0.00     0.217 HD
ENDBRANCH   6  13
BRANCH   4  15
ATOM     15  O11 <0> d   1      18.189  -3.811  11.998  0.00  0.00    -0.361 OA
ATOM     16  H30 <0> d   1      18.178  -4.030  12.939  0.00  0.00     0.217 HD
ENDBRANCH   4  15
TORSDOF 7
ENDMDL
MODEL 7
REMARK VINA RESULT:      -5.5      6.506      9.684
REMARK  7 active torsions:
REMARK  status: ('A' for Active; 'I' for Inactive)
REMARK    1  A    between atoms: C2_2  and  C3_3 
REMARK    2  A    between atoms: C3_3  and  C4_4 
REMARK    3  A    between atoms: C4_4  and  C5_5 
REMARK    4  A    between atoms: C5_5  and  C6_6 
REMARK    5  A    between atoms: C6_6  and  C7_7 
REMARK    6  A    between atoms: C10_10  and  O11_11 
REMARK    7  A    between atoms: C13_13  and  O14_14 
ROOT
ATOM      1  C7  <0> d   1      18.557  -0.295  15.823  0.00  0.00    -0.025 A 
ATOM      2  C8  <0> d   1      18.955  -0.865  17.016  0.00  0.00     0.012 A 
ATOM      3  C9  <0> d   1      19.308  -0.064  18.086  0.00  0.00     0.037 A 
ATOM      4  C10 <0> d   1      19.261   1.318  17.963  0.00  0.00     0.068 A 
ATOM      5  C12 <0> d   1      18.862   1.893  16.766  0.00  0.00     0.073 A 
ATOM      6  C13 <0> d   1      18.513   1.087  15.694  0.00  0.00     0.074 A 
ENDROOT
BRANCH   1   7
ATOM      7  C6  <0> d   1      18.173  -1.172  14.660  0.00  0.00     0.041 C 
BRANCH   7   8
ATOM      8  C5  <0> d   1      19.433  -1.583  13.895  0.00  0.00     0.005 C 
BRANCH   8   9
ATOM      9  C4  <0> d   1      19.109  -1.701  12.404  0.00  0.00     0.000 C 
BRANCH   9  10
ATOM     10  C3  <0> d   1      19.148  -3.171  11.987  0.00  0.00    -0.000 C 
BRANCH  10  11
ATOM     11  C2  <0> d   1      17.767  -3.596  11.485  0.00  0.00    -0.005 C 
ATOM     12  C1  <0> d   1      17.448  -5.003  11.996  0.00  0.00     0.005 C 
ENDBRANCH  10  11
ENDBRANCH   9  10
ENDBRANCH   8   9
ENDBRANCH   7   8
ENDBRANCH   1   7
BRANCH   6  13
ATOM     13  O14 <0> d   1      18.121   1.648  14.520  0.00  0.00    -0.360 OA
ATOM     14  H32 <0> d   1      17.163   1.651  14.386  0.00  0.00     0.217 HD
ENDBRANCH   6  13
BRANCH   4  15
ATOM     15  O11 <0> d   1      19.609   2.106  19.014  0.00  0.00    -0.361 OA
ATOM     16  H30 <0> d   1      19.415   1.718  19.877  0.00  0.00     0.217 HD
ENDBRANCH   4  15
TORSDOF 7
ENDMDL
MODEL 8
REMARK VINA RESULT:      -5.5      5.725      6.268
REMARK  7 active torsions:
REMARK  status: ('A' for Active; 'I' for Inactive)
REMARK    1  A    between atoms: C2_2  and  C3_3 
REMARK    2  A    between atoms: C3_3  and  C4_4 
REMARK    3  A    between atoms: C4_4  and  C5_5 
REMARK    4  A    between atoms: C5_5  and  C6_6 
REMARK    5  A    between atoms: C6_6  and  C7_7 
REMARK    6  A    between atoms: C10_10  and  O11_11 
REMARK    7  A    between atoms: C13_13  and  O14_14 
ROOT
ATOM      1  C7  <0> d   1      18.803  -2.923  11.985  0.00  0.00    -0.025 A 
ATOM      2  C8  <0> d   1      17.486  -3.296  11.803  0.00  0.00     0.012 A 
ATOM      3  C9  <0> d   1      17.176  -4.393  11.021  0.00  0.00     0.037 A 
ATOM      4  C10 <0> d   1      18.191  -5.124  10.418  0.00  0.00     0.068 A 
ATOM      5  C12 <0> d   1      19.514  -4.751  10.599  0.00  0.00     0.073 A 
ATOM      6  C13 <0> d   1      19.820  -3.647  11.379  0.00  0.00     0.074 A 
ENDROOT
BRANCH   1   7
ATOM      7  C6  <0> d   1      19.136  -1.726  12.838  0.00  0.00     0.041 C 
BRANCH   7   8
ATOM      8  C5  <0> d   1      17.871  -0.897  13.068  0.00  0.00     0.005 C 
BRANCH   8   9
ATOM      9  C4  <0> d   1      17.946  -0.220  14.438  0.00  0.00     0.000 C 
BRANCH   9  10
ATOM     10  C3  <0> d   1      18.418  -1.232  15.483  0.00  0.00    -0.000 C 
BRANCH  10  11
ATOM     11  C2  <0> d   1      17.450  -1.232  16.667  0.00  0.00    -0.005 C 
ATOM     12  C1  <0> d   1      17.455   0.148  17.330  0.00  0.00     0.005 C 
ENDBRANCH  10  11
ENDBRANCH   9  10
ENDBRANCH   8   9
ENDBRANCH   7   8
ENDBRANCH   1   7
BRANCH   6  13
ATOM     13  O14 <0> d   1      21.116  -3.279  11.559  0.00  0.00    -0.360 OA
ATOM     14  H32 <0> d   1      21.523  -3.647  12.355  0.00  0.00     0.217 HD
ENDBRANCH   6  13
BRANCH   4  15
ATOM     15  O11 <0> d   1      17.886  -6.202   9.649  0.00  0.00    -0.361 OA
ATOM     16  H30 <0> d   1      18.428  -6.981   9.831  0.00  0.00     0.217 HD
ENDBRANCH   4  15
TORSDOF 7
ENDMDL
MODEL 9
REMARK VINA RESULT:      -5.4      3.199      4.777
REMARK  7 active torsions:
REMARK  status: ('A' for Active; 'I' for Inactive)
REMARK    1  A    between atoms: C2_2  and  C3_3 
REMARK    2  A    between atoms: C3_3  and  C4_4 
REMARK    3  A    between atoms: C4_4  and  C5_5 
REMARK    4  A    between atoms: C5_5  and  C6_6 
REMARK    5  A    between atoms: C6_6  and  C7_7 
REMARK    6  A    between atoms: C10_10  and  O11_11 
REMARK    7  A    between atoms: C13_13  and  O14_14 
ROOT
ATOM      1  C7  <0> d   1      17.899   0.937   9.815  0.00  0.00    -0.025 A 
ATOM      2  C8  <0> d   1      17.391   0.008   8.929  0.00  0.00     0.012 A 
ATOM      3  C9  <0> d   1      17.816  -0.004   7.614  0.00  0.00     0.037 A 
ATOM      4  C10 <0> d   1      18.758   0.920   7.181  0.00  0.00     0.068 A 
ATOM      5  C12 <0> d   1      19.269   1.854   8.069  0.00  0.00     0.073 A 
ATOM      6  C13 <0> d   1      18.837   1.866   9.385  0.00  0.00     0.074 A 
ENDROOT
BRANCH   1   7
ATOM      7  C6  <0> d   1      17.432   0.947  11.248  0.00  0.00     0.041 C 
BRANCH   7   8
ATOM      8  C5  <0> d   1      17.009  -0.466  11.655  0.00  0.00     0.005 C 
BRANCH   8   9
ATOM      9  C4  <0> d   1      17.921  -0.971  12.774  0.00  0.00     0.000 C 
BRANCH   9  10
ATOM     10  C3  <0> d   1      18.342  -2.411  12.480  0.00  0.00    -0.000 C 
BRANCH  10  11
ATOM     11  C2  <0> d   1      19.609  -2.408  11.622  0.00  0.00    -0.005 C 
ATOM     12  C1  <0> d   1      20.151  -3.834  11.508  0.00  0.00     0.005 C 
ENDBRANCH  10  11
ENDBRANCH   9  10
ENDBRANCH   8   9
ENDBRANCH   7   8
ENDBRANCH   1   7
BRANCH   6  13
ATOM     13  O14 <0> d   1      19.336   2.781  10.258  0.00  0.00    -0.360 OA
ATOM     14  H32 <0> d   1      18.768   3.553  10.386  0.00  0.00     0.217 HD
ENDBRANCH   6  13
BRANCH   4  15
ATOM     15  O11 <0> d   1      19.175   0.909   5.889  0.00  0.00    -0.361 OA
ATOM     16  H30 <0> d   1      18.470   1.057   5.246  0.00  0.00     0.217 HD
ENDBRANCH   4  15
TORSDOF 7
ENDMDL
