MODEL 1
REMARK VINA RESULT:      -5.0      0.000      0.000
REMARK  0 active torsions:
REMARK  status: ('A' for Active; 'I' for Inactive)
ROOT
ATOM      1  O1  ZIN A   1      17.296  -0.033   8.402  0.00  0.00    -0.267 OA
ATOM      2  C2  ZIN A   1      17.862  -0.869   7.724  0.00  0.00     0.262 A 
ATOM      3  N3  ZIN A   1      17.849  -2.179   8.067  0.00  0.00    -0.317 N 
ATOM      4  C4  ZIN A   1      18.482  -3.115   7.309  0.00  0.00     0.212 A 
ATOM      5  N5  ZIN A   1      19.138  -2.851   6.223  0.00  0.00    -0.222 NA
ATOM      6  C6  ZIN A   1      19.242  -1.579   5.747  0.00  0.00     0.187 A 
ATOM      7  N7  ZIN A   1      19.818  -1.018   4.712  0.00  0.00    -0.154 NA
ATOM      8  N8  ZIN A   1      19.579   0.361   4.747  0.00  0.00    -0.286 N 
ATOM      9  C9  ZIN A   1      18.838   0.667   5.823  0.00  0.00     0.130 A 
ATOM     10  C10 ZIN A   1      18.582  -0.500   6.499  0.00  0.00     0.098 A 
ATOM     11  H11 ZIN A   1      17.378  -2.455   8.869  0.00  0.00     0.170 HD
ATOM     12  H13 ZIN A   1      19.899   1.000   4.091  0.00  0.00     0.188 HD
ENDROOT
TORSDOF 0
ENDMDL
MODEL 2
REMARK VINA RESULT:      -4.8      1.230      2.892
REMARK  0 active torsions:
REMARK  status: ('A' for Active; 'I' for Inactive)
ROOT
ATOM      1  O1  ZIN A   1      18.133   0.575   7.917  0.00  0.00    -0.267 OA
ATOM      2  C2  ZIN A   1      18.578  -0.006   6.945  0.00  0.00     0.262 A 
ATOM      3  N3  ZIN A   1      18.668   0.605   5.741  0.00  0.00    -0.317 N 
ATOM      4  C4  ZIN A   1      19.166  -0.044   4.653  0.00  0.00     0.212 A 
ATOM      5  N5  ZIN A   1      19.586  -1.270   4.667  0.00  0.00    -0.222 NA
ATOM      6  C6  ZIN A   1      19.560  -2.018   5.804  0.00  0.00     0.187 A 
ATOM      7  N7  ZIN A   1      19.904  -3.243   6.120  0.00  0.00    -0.154 NA
ATOM      8  N8  ZIN A   1      19.639  -3.458   7.478  0.00  0.00    -0.286 N 
ATOM      9  C9  ZIN A   1      19.119  -2.346   8.021  0.00  0.00     0.130 A 
ATOM     10  C10 ZIN A   1      19.043  -1.395   7.033  0.00  0.00     0.098 A 
ATOM     11  H11 ZIN A   1      18.373   1.525   5.651  0.00  0.00     0.170 HD
ATOM     12  H13 ZIN A   1      19.805  -4.286   7.955  0.00  0.00     0.188 HD
ENDROOT
TORSDOF 0
ENDMDL
MODEL 3
REMARK VINA RESULT:      -4.7      2.082      3.805
REMARK  0 active torsions:
REMARK  status: ('A' for Active; 'I' for Inactive)
ROOT
ATOM      1  O1  ZIN A   1      19.585  -1.759   4.196  0.00  0.00    -0.267 OA
ATOM      2  C2  ZIN A   1      19.398  -1.083   5.190  0.00  0.00     0.262 A 
ATOM      3  N3  ZIN A   1      19.220   0.256   5.107  0.00  0.00    -0.317 N 
ATOM      4  C4  ZIN A   1      19.012   1.013   6.219  0.00  0.00     0.212 A 
ATOM      5  N5  ZIN A   1      18.967   0.539   7.424  0.00  0.00    -0.222 NA
ATOM      6  C6  ZIN A   1      19.129  -0.790   7.672  0.00  0.00     0.187 A 
ATOM      7  N7  ZIN A   1      19.135  -1.543   8.745  0.00  0.00    -0.154 NA
ATOM      8  N8  ZIN A   1      19.355  -2.874   8.371  0.00  0.00    -0.286 N 
ATOM      9  C9  ZIN A   1      19.488  -2.955   7.038  0.00  0.00     0.130 A 
ATOM     10  C10 ZIN A   1      19.353  -1.688   6.527  0.00  0.00     0.098 A 
ATOM     11  H11 ZIN A   1      19.240   0.685   4.237  0.00  0.00     0.170 HD
ATOM     12  H13 ZIN A   1      19.404  -3.625   8.982  0.00  0.00     0.188 HD
ENDROOT
TORSDOF 0
ENDMDL
MODEL 4
REMARK VINA RESULT:      -4.7      9.834     10.654
REMARK  0 active torsions:
REMARK  status: ('A' for Active; 'I' for Inactive)
ROOT
ATOM      1  O1  ZIN A   1      17.887  -0.417  15.164  0.00  0.00    -0.267 OA
ATOM      2  C2  ZIN A   1      18.414   0.111  16.126  0.00  0.00     0.262 A 
ATOM      3  N3  ZIN A   1      18.585  -0.559  17.289  0.00  0.00    -0.317 N 
ATOM      4  C4  ZIN A   1      19.173   0.031  18.366  0.00  0.00     0.212 A 
ATOM      5  N5  ZIN A   1      19.610   1.251  18.379  0.00  0.00    -0.222 NA
ATOM      6  C6  ZIN A   1      19.510   2.054  17.283  0.00  0.00     0.187 A 
ATOM      7  N7  ZIN A   1      19.847   3.289  17.001  0.00  0.00    -0.154 NA
ATOM      8  N8  ZIN A   1      19.483   3.572  15.679  0.00  0.00    -0.286 N 
ATOM      9  C9  ZIN A   1      18.907   2.494  15.125  0.00  0.00     0.130 A 
ATOM     10  C10 ZIN A   1      18.892   1.498  16.069  0.00  0.00     0.098 A 
ATOM     11  H11 ZIN A   1      18.284  -1.479  17.357  0.00  0.00     0.170 HD
ATOM     12  H13 ZIN A   1      19.625   4.421  15.231  0.00  0.00     0.188 HD
ENDROOT
TORSDOF 0
ENDMDL
MODEL 5
REMARK VINA RESULT:      -4.3      1.738      2.672
REMARK  0 active torsions:
REMARK  status: ('A' for Active; 'I' for Inactive)
ROOT
ATOM      1  O1  ZIN A   1      19.247  -2.093   8.665  0.00  0.00    -0.267 OA
ATOM      2  C2  ZIN A   1      19.247  -1.140   7.908  0.00  0.00     0.262 A 
ATOM      3  N3  ZIN A   1      19.248   0.129   8.377  0.00  0.00    -0.317 N 
ATOM      4  C4  ZIN A   1      19.248   1.196   7.531  0.00  0.00     0.212 A 
ATOM      5  N5  ZIN A   1      19.247   1.100   6.238  0.00  0.00    -0.222 NA
ATOM      6  C6  ZIN A   1      19.247  -0.111   5.616  0.00  0.00     0.187 A 
ATOM      7  N7  ZIN A   1      19.245  -0.516   4.369  0.00  0.00    -0.154 NA
ATOM      8  N8  ZIN A   1      19.244  -1.916   4.341  0.00  0.00    -0.286 N 
ATOM      9  C9  ZIN A   1      19.246  -2.395   5.595  0.00  0.00     0.130 A 
ATOM     10  C10 ZIN A   1      19.252  -1.322   6.452  0.00  0.00     0.098 A 
ATOM     11  H11 ZIN A   1      19.249   0.283   9.335  0.00  0.00     0.170 HD
ATOM     12  H13 ZIN A   1      19.243  -2.459   3.537  0.00  0.00     0.188 HD
ENDROOT
TORSDOF 0
ENDMDL
MODEL 6
REMARK VINA RESULT:      -4.3      6.681      7.532
REMARK  0 active torsions:
REMARK  status: ('A' for Active; 'I' for Inactive)
ROOT
ATOM      1  O1  ZIN A   1      19.488   4.739  13.712  0.00  0.00    -0.267 OA
ATOM      2  C2  ZIN A   1      18.686   4.599  12.807  0.00  0.00     0.262 A 
ATOM      3  N3  ZIN A   1      17.518   5.282  12.792  0.00  0.00    -0.317 N 
ATOM      4  C4  ZIN A   1      16.620   5.125  11.781  0.00  0.00     0.212 A 
ATOM      5  N5  ZIN A   1      16.793   4.332  10.770  0.00  0.00    -0.222 NA
ATOM      6  C6  ZIN A   1      17.919   3.577  10.643  0.00  0.00     0.187 A 
ATOM      7  N7  ZIN A   1      18.365   2.711   9.765  0.00  0.00    -0.154 NA
ATOM      8  N8  ZIN A   1      19.620   2.247  10.177  0.00  0.00    -0.286 N 
ATOM      9  C9  ZIN A   1      19.965   2.833  11.333  0.00  0.00     0.130 A 
ATOM     10  C10 ZIN A   1      18.950   3.686  11.688  0.00  0.00     0.098 A 
ATOM     11  H11 ZIN A   1      17.316   5.896  13.515  0.00  0.00     0.170 HD
ATOM     12  H13 ZIN A   1      20.160   1.599   9.698  0.00  0.00     0.188 HD
ENDROOT
TORSDOF 0
ENDMDL
MODEL 7
REMARK VINA RESULT:      -4.3      5.405      6.978
REMARK  0 active torsions:
REMARK  status: ('A' for Active; 'I' for Inactive)
ROOT
ATOM      1  O1  ZIN A   1      16.156   0.038  11.735  0.00  0.00    -0.267 OA
ATOM      2  C2  ZIN A   1      17.077  -0.714  11.994  0.00  0.00     0.262 A 
ATOM      3  N3  ZIN A   1      17.449  -1.691  11.134  0.00  0.00    -0.317 N 
ATOM      4  C4  ZIN A   1      18.478  -2.534  11.422  0.00  0.00     0.212 A 
ATOM      5  N5  ZIN A   1      19.178  -2.482  12.512  0.00  0.00    -0.222 NA
ATOM      6  C6  ZIN A   1      18.926  -1.553  13.475  0.00  0.00     0.187 A 
ATOM      7  N7  ZIN A   1      19.443  -1.261  14.644  0.00  0.00    -0.154 NA
ATOM      8  N8  ZIN A   1      18.750  -0.175  15.193  0.00  0.00    -0.286 N 
ATOM      9  C9  ZIN A   1      17.782   0.219  14.351  0.00  0.00     0.130 A 
ATOM     10  C10 ZIN A   1      17.832  -0.595  13.246  0.00  0.00     0.098 A 
ATOM     11  H11 ZIN A   1      16.972  -1.794  10.295  0.00  0.00     0.170 HD
ATOM     12  H13 ZIN A   1      18.940   0.232  16.052  0.00  0.00     0.188 HD
ENDROOT
TORSDOF 0
ENDMDL
MODEL 8
REMARK VINA RESULT:      -4.3      9.384     10.508
REMARK  0 active torsions:
REMARK  status: ('A' for Active; 'I' for Inactive)
ROOT
ATOM      1  O1  ZIN A   1      19.655   1.853  18.615  0.00  0.00    -0.267 OA
ATOM      2  C2  ZIN A   1      19.257   1.825  17.466  0.00  0.00     0.262 A 
ATOM      3  N3  ZIN A   1      19.161   2.955  16.727  0.00  0.00    -0.317 N 
ATOM      4  C4  ZIN A   1      18.715   2.925  15.442  0.00  0.00     0.212 A 
ATOM      5  N5  ZIN A   1      18.351   1.845  14.823  0.00  0.00    -0.222 NA
ATOM      6  C6  ZIN A   1      18.391   0.629  15.433  0.00  0.00     0.187 A 
ATOM      7  N7  ZIN A   1      18.097  -0.599  15.079  0.00  0.00    -0.154 NA
ATOM      8  N8  ZIN A   1      18.347  -1.458  16.156  0.00  0.00    -0.286 N 
ATOM      9  C9  ZIN A   1      18.806  -0.754  17.202  0.00  0.00     0.130 A 
ATOM     10  C10 ZIN A   1      18.866   0.564  16.824  0.00  0.00     0.098 A 
ATOM     11  H11 ZIN A   1      19.415   3.804  17.122  0.00  0.00     0.170 HD
ATOM     12  H13 ZIN A   1      18.210  -2.418  16.148  0.00  0.00     0.188 HD
ENDROOT
TORSDOF 0
ENDMDL
MODEL 9
REMARK VINA RESULT:      -4.3      5.614      6.525
REMARK  0 active torsions:
REMARK  status: ('A' for Active; 'I' for Inactive)
ROOT
ATOM      1  O1  ZIN A   1      17.434   5.190   9.630  0.00  0.00    -0.267 OA
ATOM      2  C2  ZIN A   1      17.721   4.393  10.504  0.00  0.00     0.262 A 
ATOM      3  N3  ZIN A   1      17.358   4.602  11.792  0.00  0.00    -0.317 N 
ATOM      4  C4  ZIN A   1      17.680   3.711  12.770  0.00  0.00     0.212 A 
ATOM      5  N5  ZIN A   1      18.342   2.616  12.568  0.00  0.00    -0.222 NA
ATOM      6  C6  ZIN A   1      18.776   2.266  11.326  0.00  0.00     0.187 A 
ATOM      7  N7  ZIN A   1      19.446   1.257  10.824  0.00  0.00    -0.154 NA
ATOM      8  N8  ZIN A   1      19.599   1.448   9.446  0.00  0.00    -0.286 N 
ATOM      9  C9  ZIN A   1      19.012   2.598   9.079  0.00  0.00     0.130 A 
ATOM     10  C10 ZIN A   1      18.469   3.167  10.204  0.00  0.00     0.098 A 
ATOM     11  H11 ZIN A   1      16.859   5.401  12.022  0.00  0.00     0.170 HD
ATOM     12  H13 ZIN A   1      20.059   0.840   8.845  0.00  0.00     0.188 HD
ENDROOT
TORSDOF 0
ENDMDL
