MODEL 1
REMARK VINA RESULT:      -7.4      0.000      0.000
REMARK  1 active torsions:
REMARK  status: ('A' for Active; 'I' for Inactive)
REMARK    1  A    between atoms: N2_2  and  C4_4 
ROOT
ATOM      1  C4  ZIN A   1      19.201  -1.211   6.652  0.00  0.00     0.030 A 
ATOM      2  C5  ZIN A   1      19.009   0.062   6.079  0.00  0.00     0.031 A 
ATOM      3  C6  ZIN A   1      18.883   1.180   6.827  0.00  0.00     0.035 A 
ATOM      4  C7  ZIN A   1      18.943   1.099   8.245  0.00  0.00     0.074 A 
ATOM      5  N8  ZIN A   1      18.822   2.174   8.984  0.00  0.00    -0.246 NA
ATOM      6  C9  ZIN A   1      18.834   2.417  10.271  0.00  0.00     0.074 A 
ATOM      7  C10 ZIN A   1      18.671   3.742  10.763  0.00  0.00     0.035 A 
ATOM      8  C11 ZIN A   1      18.684   3.976  12.094  0.00  0.00     0.031 A 
ATOM      9  C12 ZIN A   1      18.857   2.945  13.039  0.00  0.00     0.030 A 
ATOM     10  N13 ZIN A   1      18.863   3.238  14.368  0.00  0.00    -0.390 N 
ATOM     11  C14 ZIN A   1      18.690   4.624  14.813  0.00  0.00     0.149 C 
ATOM     12  C15 ZIN A   1      19.042   2.169  15.353  0.00  0.00     0.149 C 
ATOM     13  C16 ZIN A   1      19.021   1.621  12.617  0.00  0.00     0.050 A 
ATOM     14  C17 ZIN A   1      19.013   1.353  11.279  0.00  0.00     0.036 A 
ATOM     15  S18 ZIN A   1      19.210  -0.282  10.603  0.00  0.00    -0.086 SA
ATOM     16  C19 ZIN A   1      19.145  -0.243   8.825  0.00  0.00     0.036 A 
ATOM     17  C20 ZIN A   1      19.263  -1.357   8.043  0.00  0.00     0.050 A 
ENDROOT
BRANCH   1  18
ATOM     18  N2  ZIN A   1      19.322  -2.304   5.851  0.00  0.00    -0.390 N 
ATOM     19  C1  ZIN A   1      19.751  -3.585   6.418  0.00  0.00     0.149 C 
ATOM     20  C3  ZIN A   1      19.022  -2.201   4.421  0.00  0.00     0.149 C 
ENDBRANCH   1  18
TORSDOF 1
ENDMDL
MODEL 2
REMARK VINA RESULT:      -7.4      1.773      3.280
REMARK  1 active torsions:
REMARK  status: ('A' for Active; 'I' for Inactive)
REMARK    1  A    between atoms: N2_2  and  C4_4 
ROOT
ATOM      1  C4  ZIN A   1      19.019   0.735   8.750  0.00  0.00     0.030 A 
ATOM      2  C5  ZIN A   1      18.841   2.133   8.741  0.00  0.00     0.031 A 
ATOM      3  C6  ZIN A   1      18.782   2.861   9.878  0.00  0.00     0.035 A 
ATOM      4  C7  ZIN A   1      18.900   2.220  11.141  0.00  0.00     0.074 A 
ATOM      5  N8  ZIN A   1      18.844   2.912  12.253  0.00  0.00    -0.246 NA
ATOM      6  C9  ZIN A   1      18.918   2.621  13.528  0.00  0.00     0.074 A 
ATOM      7  C10 ZIN A   1      18.817   3.641  14.514  0.00  0.00     0.035 A 
ATOM      8  C11 ZIN A   1      18.894   3.324  15.826  0.00  0.00     0.031 A 
ATOM      9  C12 ZIN A   1      19.075   2.000  16.272  0.00  0.00     0.030 A 
ATOM     10  N13 ZIN A   1      19.146   1.738  17.605  0.00  0.00    -0.390 N 
ATOM     11  C14 ZIN A   1      19.036   2.833  18.573  0.00  0.00     0.149 C 
ATOM     12  C15 ZIN A   1      19.334   0.363  18.072  0.00  0.00     0.149 C 
ATOM     13  C16 ZIN A   1      19.180   0.953  15.350  0.00  0.00     0.050 A 
ATOM     14  C17 ZIN A   1      19.107   1.242  14.018  0.00  0.00     0.036 A 
ATOM     15  S18 ZIN A   1      19.225   0.010  12.737  0.00  0.00    -0.086 SA
ATOM     16  C19 ZIN A   1      19.085   0.756  11.128  0.00  0.00     0.036 A 
ATOM     17  C20 ZIN A   1      19.135   0.045   9.962  0.00  0.00     0.050 A 
ENDROOT
BRANCH   1  18
ATOM     18  N2  ZIN A   1      19.071   0.052   7.575  0.00  0.00    -0.390 N 
ATOM     19  C1  ZIN A   1      18.895   0.762   6.305  0.00  0.00     0.149 C 
ATOM     20  C3  ZIN A   1      19.304  -1.395   7.578  0.00  0.00     0.149 C 
ENDBRANCH   1  18
TORSDOF 1
ENDMDL
MODEL 3
REMARK VINA RESULT:      -7.4      1.750      7.344
REMARK  1 active torsions:
REMARK  status: ('A' for Active; 'I' for Inactive)
REMARK    1  A    between atoms: N2_2  and  C4_4 
ROOT
ATOM      1  C4  ZIN A   1      19.022   0.456  14.820  0.00  0.00     0.030 A 
ATOM      2  C5  ZIN A   1      18.994   1.823  14.479  0.00  0.00     0.031 A 
ATOM      3  C6  ZIN A   1      19.002   2.248  13.196  0.00  0.00     0.035 A 
ATOM      4  C7  ZIN A   1      19.041   1.305  12.133  0.00  0.00     0.074 A 
ATOM      5  N8  ZIN A   1      19.049   1.701  10.885  0.00  0.00    -0.246 NA
ATOM      6  C9  ZIN A   1      19.081   1.098   9.723  0.00  0.00     0.074 A 
ATOM      7  C10 ZIN A   1      19.081   1.845   8.513  0.00  0.00     0.035 A 
ATOM      8  C11 ZIN A   1      19.114   1.206   7.322  0.00  0.00     0.031 A 
ATOM      9  C12 ZIN A   1      19.150  -0.198   7.221  0.00  0.00     0.030 A 
ATOM     10  N13 ZIN A   1      19.183  -0.789   5.996  0.00  0.00    -0.390 N 
ATOM     11  C14 ZIN A   1      19.181   0.037   4.785  0.00  0.00     0.149 C 
ATOM     12  C15 ZIN A   1      19.221  -2.249   5.887  0.00  0.00     0.149 C 
ATOM     13  C16 ZIN A   1      19.154  -0.989   8.376  0.00  0.00     0.050 A 
ATOM     14  C17 ZIN A   1      19.119  -0.373   9.593  0.00  0.00     0.036 A 
ATOM     15  S18 ZIN A   1      19.119  -1.253  11.141  0.00  0.00    -0.086 SA
ATOM     16  C19 ZIN A   1      19.070  -0.121  12.512  0.00  0.00     0.036 A 
ATOM     17  C20 ZIN A   1      19.067  -0.521  13.819  0.00  0.00     0.050 A 
ENDROOT
BRANCH   1  18
ATOM     18  N2  ZIN A   1      19.013   0.084  16.129  0.00  0.00    -0.390 N 
ATOM     19  C1  ZIN A   1      18.958  -1.336  16.486  0.00  0.00     0.149 C 
ATOM     20  C3  ZIN A   1      19.057   1.103  17.181  0.00  0.00     0.149 C 
ENDBRANCH   1  18
TORSDOF 1
ENDMDL
MODEL 4
REMARK VINA RESULT:      -7.4      1.788      2.508
REMARK  1 active torsions:
REMARK  status: ('A' for Active; 'I' for Inactive)
REMARK    1  A    between atoms: N2_2  and  C4_4 
ROOT
ATOM      1  C4  ZIN A   1      19.158  -0.070   7.453  0.00  0.00     0.030 A 
ATOM      2  C5  ZIN A   1      19.100   1.333   7.568  0.00  0.00     0.031 A 
ATOM      3  C6  ZIN A   1      19.055   1.959   8.764  0.00  0.00     0.035 A 
ATOM      4  C7  ZIN A   1      19.066   1.201   9.966  0.00  0.00     0.074 A 
ATOM      5  N8  ZIN A   1      19.022   1.793  11.134  0.00  0.00    -0.246 NA
ATOM      6  C9  ZIN A   1      19.018   1.385  12.379  0.00  0.00     0.074 A 
ATOM      7  C10 ZIN A   1      18.962   2.317  13.451  0.00  0.00     0.035 A 
ATOM      8  C11 ZIN A   1      18.958   1.879  14.730  0.00  0.00     0.031 A 
ATOM      9  C12 ZIN A   1      19.008   0.510  15.058  0.00  0.00     0.030 A 
ATOM     10  N13 ZIN A   1      19.001   0.125  16.362  0.00  0.00    -0.390 N 
ATOM     11  C14 ZIN A   1      18.943   1.135  17.424  0.00  0.00     0.149 C 
ATOM     12  C15 ZIN A   1      19.052  -1.298  16.707  0.00  0.00     0.149 C 
ATOM     13  C16 ZIN A   1      19.062  -0.457  14.047  0.00  0.00     0.050 A 
ATOM     14  C17 ZIN A   1      19.069  -0.045  12.745  0.00  0.00     0.036 A 
ATOM     15  S18 ZIN A   1      19.136  -1.163  11.362  0.00  0.00    -0.086 SA
ATOM     16  C19 ZIN A   1      19.127  -0.267   9.824  0.00  0.00     0.036 A 
ATOM     17  C20 ZIN A   1      19.166  -0.873   8.600  0.00  0.00     0.050 A 
ENDROOT
BRANCH   1  18
ATOM     18  N2  ZIN A   1      19.202  -0.648   6.222  0.00  0.00    -0.390 N 
ATOM     19  C1  ZIN A   1      19.223  -2.108   6.099  0.00  0.00     0.149 C 
ATOM     20  C3  ZIN A   1      19.227   0.189   5.020  0.00  0.00     0.149 C 
ENDBRANCH   1  18
TORSDOF 1
ENDMDL
MODEL 5
REMARK VINA RESULT:      -7.4      1.757      7.780
REMARK  1 active torsions:
REMARK  status: ('A' for Active; 'I' for Inactive)
REMARK    1  A    between atoms: N2_2  and  C4_4 
ROOT
ATOM      1  C4  ZIN A   1      19.076   2.136  16.259  0.00  0.00     0.030 A 
ATOM      2  C5  ZIN A   1      18.916   3.456  15.795  0.00  0.00     0.031 A 
ATOM      3  C6  ZIN A   1      18.847   3.756  14.479  0.00  0.00     0.035 A 
ATOM      4  C7  ZIN A   1      18.936   2.722  13.507  0.00  0.00     0.074 A 
ATOM      5  N8  ZIN A   1      18.870   2.996  12.228  0.00  0.00    -0.246 NA
ATOM      6  C9  ZIN A   1      18.919   2.289  11.126  0.00  0.00     0.074 A 
ATOM      7  C10 ZIN A   1      18.815   2.914   9.853  0.00  0.00     0.035 A 
ATOM      8  C11 ZIN A   1      18.867   2.170   8.727  0.00  0.00     0.031 A 
ATOM      9  C12 ZIN A   1      19.024   0.770   8.755  0.00  0.00     0.030 A 
ATOM     10  N13 ZIN A   1      19.071   0.070   7.590  0.00  0.00    -0.390 N 
ATOM     11  C14 ZIN A   1      18.957   0.773   6.308  0.00  0.00     0.149 C 
ATOM     12  C15 ZIN A   1      19.233  -1.385   7.615  0.00  0.00     0.149 C 
ATOM     13  C16 ZIN A   1      19.133   0.096   9.977  0.00  0.00     0.050 A 
ATOM     14  C17 ZIN A   1      19.082   0.822  11.132  0.00  0.00     0.036 A 
ATOM     15  S18 ZIN A   1      19.208   0.096  12.754  0.00  0.00    -0.086 SA
ATOM     16  C19 ZIN A   1      19.102   1.346  14.015  0.00  0.00     0.036 A 
ATOM     17  C20 ZIN A   1      19.175   1.075  15.352  0.00  0.00     0.050 A 
ENDROOT
BRANCH   1  18
ATOM     18  N2  ZIN A   1      19.140   1.891  17.596  0.00  0.00    -0.390 N 
ATOM     19  C1  ZIN A   1      19.392   0.532  18.081  0.00  0.00     0.149 C 
ATOM     20  C3  ZIN A   1      18.956   2.987  18.552  0.00  0.00     0.149 C 
ENDBRANCH   1  18
TORSDOF 1
ENDMDL
MODEL 6
REMARK VINA RESULT:      -7.4      0.337      7.408
REMARK  1 active torsions:
REMARK  status: ('A' for Active; 'I' for Inactive)
REMARK    1  A    between atoms: N2_2  and  C4_4 
ROOT
ATOM      1  C4  ZIN A   1      18.863   3.172  13.269  0.00  0.00     0.030 A 
ATOM      2  C5  ZIN A   1      18.634   4.200  12.332  0.00  0.00     0.031 A 
ATOM      3  C6  ZIN A   1      18.594   3.969  11.002  0.00  0.00     0.035 A 
ATOM      4  C7  ZIN A   1      18.785   2.653  10.501  0.00  0.00     0.074 A 
ATOM      5  N8  ZIN A   1      18.749   2.412   9.213  0.00  0.00    -0.246 NA
ATOM      6  C9  ZIN A   1      18.884   1.344   8.467  0.00  0.00     0.074 A 
ATOM      7  C10 ZIN A   1      18.785   1.427   7.051  0.00  0.00     0.035 A 
ATOM      8  C11 ZIN A   1      18.927   0.315   6.296  0.00  0.00     0.031 A 
ATOM      9  C12 ZIN A   1      19.173  -0.952   6.860  0.00  0.00     0.030 A 
ATOM     10  N13 ZIN A   1      19.308  -2.038   6.052  0.00  0.00    -0.390 N 
ATOM     11  C14 ZIN A   1      19.196  -1.888   4.598  0.00  0.00     0.149 C 
ATOM     12  C15 ZIN A   1      19.565  -3.357   6.634  0.00  0.00     0.149 C 
ATOM     13  C16 ZIN A   1      19.282  -1.099   8.247  0.00  0.00     0.050 A 
ATOM     14  C17 ZIN A   1      19.142   0.007   9.036  0.00  0.00     0.036 A 
ATOM     15  S18 ZIN A   1      19.256  -0.034  10.813  0.00  0.00    -0.086 SA
ATOM     16  C19 ZIN A   1      19.023   1.591  11.499  0.00  0.00     0.036 A 
ATOM     17  C20 ZIN A   1      19.064   1.856  12.838  0.00  0.00     0.050 A 
ENDROOT
BRANCH   1  18
ATOM     18  N2  ZIN A   1      18.894   3.462  14.598  0.00  0.00    -0.390 N 
ATOM     19  C1  ZIN A   1      19.099   2.390  15.576  0.00  0.00     0.149 C 
ATOM     20  C3  ZIN A   1      18.723   4.844  15.051  0.00  0.00     0.149 C 
ENDBRANCH   1  18
TORSDOF 1
ENDMDL
MODEL 7
REMARK VINA RESULT:      -7.1      2.741      8.488
REMARK  1 active torsions:
REMARK  status: ('A' for Active; 'I' for Inactive)
REMARK    1  A    between atoms: N2_2  and  C4_4 
ROOT
ATOM      1  C4  ZIN A   1      19.100   1.084  16.211  0.00  0.00     0.030 A 
ATOM      2  C5  ZIN A   1      18.845  -0.231  16.647  0.00  0.00     0.031 A 
ATOM      3  C6  ZIN A   1      18.714  -1.265  15.786  0.00  0.00     0.035 A 
ATOM      4  C7  ZIN A   1      18.834  -1.046  14.386  0.00  0.00     0.074 A 
ATOM      5  N8  ZIN A   1      18.711  -2.037  13.539  0.00  0.00    -0.246 NA
ATOM      6  C9  ZIN A   1      18.766  -2.152  12.235  0.00  0.00     0.074 A 
ATOM      7  C10 ZIN A   1      18.583  -3.415  11.607  0.00  0.00     0.035 A 
ATOM      8  C11 ZIN A   1      18.643  -3.516  10.261  0.00  0.00     0.031 A 
ATOM      9  C12 ZIN A   1      18.886  -2.404   9.431  0.00  0.00     0.030 A 
ATOM     10  N13 ZIN A   1      18.936  -2.564   8.081  0.00  0.00    -0.390 N 
ATOM     11  C14 ZIN A   1      18.738  -3.892   7.493  0.00  0.00     0.149 C 
ATOM     12  C15 ZIN A   1      19.187  -1.409   7.216  0.00  0.00     0.149 C 
ATOM     13  C16 ZIN A   1      19.073  -1.134   9.990  0.00  0.00     0.050 A 
ATOM     14  C17 ZIN A   1      19.019  -1.001  11.347  0.00  0.00     0.036 A 
ATOM     15  S18 ZIN A   1      19.240   0.552  12.191  0.00  0.00    -0.086 SA
ATOM     16  C19 ZIN A   1      19.102   0.340  13.952  0.00  0.00     0.036 A 
ATOM     17  C20 ZIN A   1      19.222   1.365  14.846  0.00  0.00     0.050 A 
ENDROOT
BRANCH   1  18
ATOM     18  N2  ZIN A   1      19.221   2.088  17.122  0.00  0.00    -0.390 N 
ATOM     19  C1  ZIN A   1      18.951   1.828  18.539  0.00  0.00     0.149 C 
ATOM     20  C3  ZIN A   1      19.622   3.428  16.687  0.00  0.00     0.149 C 
ENDBRANCH   1  18
TORSDOF 1
ENDMDL
MODEL 8
REMARK VINA RESULT:      -7.1      2.312      7.949
REMARK  1 active torsions:
REMARK  status: ('A' for Active; 'I' for Inactive)
REMARK    1  A    between atoms: N2_2  and  C4_4 
ROOT
ATOM      1  C4  ZIN A   1      19.121   0.486  15.587  0.00  0.00     0.030 A 
ATOM      2  C5  ZIN A   1      18.989  -0.917  15.584  0.00  0.00     0.031 A 
ATOM      3  C6  ZIN A   1      18.904  -1.631  14.440  0.00  0.00     0.035 A 
ATOM      4  C7  ZIN A   1      18.948  -0.971  13.182  0.00  0.00     0.074 A 
ATOM      5  N8  ZIN A   1      18.867  -1.649  12.064  0.00  0.00    -0.246 NA
ATOM      6  C9  ZIN A   1      18.877  -1.340  10.791  0.00  0.00     0.074 A 
ATOM      7  C10 ZIN A   1      18.767  -2.349   9.795  0.00  0.00     0.035 A 
ATOM      8  C11 ZIN A   1      18.778  -2.013   8.486  0.00  0.00     0.031 A 
ATOM      9  C12 ZIN A   1      18.898  -0.678   8.052  0.00  0.00     0.030 A 
ATOM     10  N13 ZIN A   1      18.904  -0.396   6.721  0.00  0.00    -0.390 N 
ATOM     11  C14 ZIN A   1      18.787  -1.481   5.743  0.00  0.00     0.149 C 
ATOM     12  C15 ZIN A   1      19.028   0.990   6.266  0.00  0.00     0.149 C 
ATOM     13  C16 ZIN A   1      19.009   0.360   8.984  0.00  0.00     0.050 A 
ATOM     14  C17 ZIN A   1      19.001   0.052  10.314  0.00  0.00     0.036 A 
ATOM     15  S18 ZIN A   1      19.135   1.270  11.606  0.00  0.00    -0.086 SA
ATOM     16  C19 ZIN A   1      19.087   0.499  13.209  0.00  0.00     0.036 A 
ATOM     17  C20 ZIN A   1      19.164   1.195  14.381  0.00  0.00     0.050 A 
ENDROOT
BRANCH   1  18
ATOM     18  N2  ZIN A   1      19.202   1.155  16.769  0.00  0.00    -0.390 N 
ATOM     19  C1  ZIN A   1      19.241   2.620  16.780  0.00  0.00     0.149 C 
ATOM     20  C3  ZIN A   1      19.250   0.412  18.031  0.00  0.00     0.149 C 
ENDBRANCH   1  18
TORSDOF 1
ENDMDL
MODEL 9
REMARK VINA RESULT:      -7.0      2.394      3.759
REMARK  1 active torsions:
REMARK  status: ('A' for Active; 'I' for Inactive)
REMARK    1  A    between atoms: N2_2  and  C4_4 
ROOT
ATOM      1  C4  ZIN A   1      19.003  -1.324   8.402  0.00  0.00     0.030 A 
ATOM      2  C5  ZIN A   1      18.842  -2.597   8.983  0.00  0.00     0.031 A 
ATOM      3  C6  ZIN A   1      18.796  -2.779  10.321  0.00  0.00     0.035 A 
ATOM      4  C7  ZIN A   1      18.911  -1.665  11.197  0.00  0.00     0.074 A 
ATOM      5  N8  ZIN A   1      18.868  -1.825  12.496  0.00  0.00    -0.246 NA
ATOM      6  C9  ZIN A   1      18.944  -1.025  13.530  0.00  0.00     0.074 A 
ATOM      7  C10 ZIN A   1      18.859  -1.535  14.855  0.00  0.00     0.035 A 
ATOM      8  C11 ZIN A   1      18.939  -0.695  15.911  0.00  0.00     0.031 A 
ATOM      9  C12 ZIN A   1      19.105   0.695  15.757  0.00  0.00     0.030 A 
ATOM     10  N13 ZIN A   1      19.180   1.494  16.855  0.00  0.00    -0.390 N 
ATOM     11  C14 ZIN A   1      19.086   0.908  18.195  0.00  0.00     0.149 C 
ATOM     12  C15 ZIN A   1      19.354   2.940  16.699  0.00  0.00     0.149 C 
ATOM     13  C16 ZIN A   1      19.197   1.258  14.479  0.00  0.00     0.050 A 
ATOM     14  C17 ZIN A   1      19.118   0.435  13.392  0.00  0.00     0.036 A 
ATOM     15  S18 ZIN A   1      19.219   1.014  11.712  0.00  0.00    -0.086 SA
ATOM     16  C19 ZIN A   1      19.079  -0.341  10.567  0.00  0.00     0.036 A 
ATOM     17  C20 ZIN A   1      19.128  -0.188   9.210  0.00  0.00     0.050 A 
ENDROOT
BRANCH   1  18
ATOM     18  N2  ZIN A   1      19.044  -1.198   7.047  0.00  0.00    -0.390 N 
ATOM     19  C1  ZIN A   1      18.890   0.121   6.429  0.00  0.00     0.149 C 
ATOM     20  C3  ZIN A   1      19.241  -2.382   6.207  0.00  0.00     0.149 C 
ENDBRANCH   1  18
TORSDOF 1
ENDMDL
