MODEL 1
REMARK VINA RESULT:      -8.5      0.000      0.000
REMARK  7 active torsions:
REMARK  status: ('A' for Active; 'I' for Inactive)
REMARK    1  A    between atoms: C2_2  and  C3_3 
REMARK    2  A    between atoms: C3_3  and  C4_4 
REMARK    3  A    between atoms: C4_4  and  C5_5 
REMARK    4  A    between atoms: N14_14  and  C15_15 
REMARK    5  A    between atoms: C15_15  and  C16_16 
REMARK    6  A    between atoms: C19_19  and  C20_20 
REMARK    7  A    between atoms: C25_25  and  C26_26 
ROOT
ATOM      1  C16 ZIN A   1      19.275   4.299  12.129  0.00  0.00    -0.040 A 
ATOM      2  C17 ZIN A   1      18.154   4.470  11.337  0.00  0.00     0.010 A 
ATOM      3  C18 ZIN A   1      17.897   3.596  10.301  0.00  0.00     0.013 A 
ATOM      4  C19 ZIN A   1      18.778   2.546  10.044  0.00  0.00    -0.025 A 
ATOM      5  C31 ZIN A   1      19.907   2.378  10.845  0.00  0.00     0.013 A 
ATOM      6  C32 ZIN A   1      20.150   3.255  11.883  0.00  0.00     0.010 A 
ENDROOT
BRANCH   1   7
ATOM      7  C15 ZIN A   1      19.546   5.253  13.263  0.00  0.00     0.172 C 
BRANCH   7   8
ATOM      8  N14 ZIN A   1      18.360   5.345  14.118  0.00  0.00    -0.299 N 
ATOM      9  C5  ZIN A   1      18.023   4.435  15.084  0.00  0.00     0.105 A 
ATOM     10  N6  ZIN A   1      16.933   4.736  15.703  0.00  0.00    -0.256 NA
ATOM     11  C7  ZIN A   1      16.437   5.985  15.126  0.00  0.00     0.136 A 
ATOM     12  C11 ZIN A   1      15.040   5.809  14.525  0.00  0.00     0.043 C 
ATOM     13  C8  ZIN A   1      16.345   7.090  16.186  0.00  0.00     0.043 C 
ATOM     14  C12 ZIN A   1      17.449   6.343  14.066  0.00  0.00     0.256 A 
ATOM     15  C10 ZIN A   1      14.126   6.821  15.251  0.00  0.00     0.003 C 
ATOM     16  C9  ZIN A   1      15.098   7.912  15.766  0.00  0.00     0.003 C 
ATOM     17  O13 ZIN A   1      17.446   7.308  13.332  0.00  0.00    -0.270 OA
BRANCH   9  18
ATOM     18  C4  ZIN A   1      18.843   3.208  15.393  0.00  0.00     0.078 C 
BRANCH  18  19
ATOM     19  C3  ZIN A   1      18.166   1.977  14.789  0.00  0.00     0.007 C 
BRANCH  19  20
ATOM     20  C2  ZIN A   1      18.642   0.722  15.522  0.00  0.00    -0.004 C 
ATOM     21  C1  ZIN A   1      17.440   0.003  16.138  0.00  0.00     0.005 C 
ENDBRANCH  19  20
ENDBRANCH  18  19
ENDBRANCH   9  18
ENDBRANCH   7   8
ENDBRANCH   1   7
BRANCH   4  22
ATOM     22  C20 ZIN A   1      18.511   1.607   8.929  0.00  0.00    -0.012 A 
ATOM     23  C25 ZIN A   1      17.843   0.396   9.170  0.00  0.00     0.026 A 
ATOM     24  C24 ZIN A   1      17.592  -0.474   8.114  0.00  0.00     0.016 A 
ATOM     25  C23 ZIN A   1      18.010  -0.150   6.838  0.00  0.00     0.001 A 
ATOM     26  C22 ZIN A   1      18.674   1.042   6.601  0.00  0.00     0.001 A 
ATOM     27  C21 ZIN A   1      18.926   1.918   7.637  0.00  0.00     0.013 A 
BRANCH  23  28
ATOM     28  C26 ZIN A   1      17.401   0.048  10.543  0.00  0.00     0.207 A 
ATOM     29  N30 ZIN A   1      16.243   0.369  11.109  0.00  0.00    -0.106 NA
ATOM     30  N29 ZIN A   1      16.246  -0.117  12.303  0.00  0.00    -0.021 NA
ATOM     31  N28 ZIN A   1      17.360  -0.730  12.506  0.00  0.00    -0.021 NA
ATOM     32  N27 ZIN A   1      18.086  -0.649  11.444  0.00  0.00    -0.106 NA
ENDBRANCH  23  28
ENDBRANCH   4  22
TORSDOF 7
ENDMDL
MODEL 2
REMARK VINA RESULT:      -8.4      4.438      6.985
REMARK  7 active torsions:
REMARK  status: ('A' for Active; 'I' for Inactive)
REMARK    1  A    between atoms: C2_2  and  C3_3 
REMARK    2  A    between atoms: C3_3  and  C4_4 
REMARK    3  A    between atoms: C4_4  and  C5_5 
REMARK    4  A    between atoms: N14_14  and  C15_15 
REMARK    5  A    between atoms: C15_15  and  C16_16 
REMARK    6  A    between atoms: C19_19  and  C20_20 
REMARK    7  A    between atoms: C25_25  and  C26_26 
ROOT
ATOM      1  C16 ZIN A   1      19.155  -1.980  10.807  0.00  0.00    -0.040 A 
ATOM      2  C17 ZIN A   1      18.801  -1.898   9.472  0.00  0.00     0.010 A 
ATOM      3  C18 ZIN A   1      18.121  -2.936   8.869  0.00  0.00     0.013 A 
ATOM      4  C19 ZIN A   1      17.800  -4.076   9.606  0.00  0.00    -0.025 A 
ATOM      5  C31 ZIN A   1      18.158  -4.154  10.952  0.00  0.00     0.013 A 
ATOM      6  C32 ZIN A   1      18.834  -3.107  11.545  0.00  0.00     0.010 A 
ENDROOT
BRANCH   1   7
ATOM      7  C15 ZIN A   1      19.893  -0.841  11.460  0.00  0.00     0.172 C 
BRANCH   7   8
ATOM      8  N14 ZIN A   1      19.112  -0.338  12.592  0.00  0.00    -0.299 N 
ATOM      9  C5  ZIN A   1      18.020   0.482  12.484  0.00  0.00     0.105 A 
ATOM     10  N6  ZIN A   1      17.504   0.789  13.625  0.00  0.00    -0.256 NA
ATOM     11  C7  ZIN A   1      18.301   0.125  14.655  0.00  0.00     0.136 A 
ATOM     12  C11 ZIN A   1      18.918   1.135  15.625  0.00  0.00     0.043 C 
ATOM     13  C8  ZIN A   1      17.446  -0.844  15.482  0.00  0.00     0.043 C 
ATOM     14  C12 ZIN A   1      19.366  -0.621  13.890  0.00  0.00     0.256 A 
ATOM     15  C10 ZIN A   1      18.408   0.751  17.032  0.00  0.00     0.003 C 
ATOM     16  C9  ZIN A   1      18.047  -0.751  16.909  0.00  0.00     0.003 C 
ATOM     17  O13 ZIN A   1      20.251  -1.319  14.337  0.00  0.00    -0.270 OA
BRANCH   9  18
ATOM     18  C4  ZIN A   1      17.478   0.975  11.167  0.00  0.00     0.078 C 
BRANCH  18  19
ATOM     19  C3  ZIN A   1      17.790   2.464  11.011  0.00  0.00     0.007 C 
BRANCH  19  20
ATOM     20  C2  ZIN A   1      19.057   2.635  10.171  0.00  0.00    -0.004 C 
ATOM     21  C1  ZIN A   1      18.922   1.832   8.876  0.00  0.00     0.005 C 
ENDBRANCH  19  20
ENDBRANCH  18  19
ENDBRANCH   9  18
ENDBRANCH   7   8
ENDBRANCH   1   7
BRANCH   4  22
ATOM     22  C20 ZIN A   1      17.073  -5.196   8.964  0.00  0.00    -0.012 A 
ATOM     23  C25 ZIN A   1      17.774  -6.158   8.220  0.00  0.00     0.026 A 
ATOM     24  C24 ZIN A   1      17.081  -7.209   7.628  0.00  0.00     0.016 A 
ATOM     25  C23 ZIN A   1      15.709  -7.296   7.764  0.00  0.00     0.001 A 
ATOM     26  C22 ZIN A   1      15.017  -6.344   8.493  0.00  0.00     0.001 A 
ATOM     27  C21 ZIN A   1      15.690  -5.298   9.091  0.00  0.00     0.013 A 
BRANCH  23  28
ATOM     28  C26 ZIN A   1      19.247  -6.058   8.071  0.00  0.00     0.207 A 
ATOM     29  N30 ZIN A   1      19.907  -5.575   7.025  0.00  0.00    -0.106 NA
ATOM     30  N29 ZIN A   1      21.167  -5.664   7.286  0.00  0.00    -0.021 NA
ATOM     31  N28 ZIN A   1      21.320  -6.183   8.454  0.00  0.00    -0.021 NA
ATOM     32  N27 ZIN A   1      20.161  -6.430   8.961  0.00  0.00    -0.106 NA
ENDBRANCH  23  28
ENDBRANCH   4  22
TORSDOF 7
ENDMDL
MODEL 3
REMARK VINA RESULT:      -8.3      4.252      9.039
REMARK  7 active torsions:
REMARK  status: ('A' for Active; 'I' for Inactive)
REMARK    1  A    between atoms: C2_2  and  C3_3 
REMARK    2  A    between atoms: C3_3  and  C4_4 
REMARK    3  A    between atoms: C4_4  and  C5_5 
REMARK    4  A    between atoms: N14_14  and  C15_15 
REMARK    5  A    between atoms: C15_15  and  C16_16 
REMARK    6  A    between atoms: C19_19  and  C20_20 
REMARK    7  A    between atoms: C25_25  and  C26_26 
ROOT
ATOM      1  C16 ZIN A   1      19.107  -2.181  10.975  0.00  0.00    -0.040 A 
ATOM      2  C17 ZIN A   1      20.078  -1.196  10.989  0.00  0.00     0.010 A 
ATOM      3  C18 ZIN A   1      19.723   0.125  11.175  0.00  0.00     0.013 A 
ATOM      4  C19 ZIN A   1      18.381   0.466  11.336  0.00  0.00    -0.025 A 
ATOM      5  C31 ZIN A   1      17.406  -0.531  11.320  0.00  0.00     0.013 A 
ATOM      6  C32 ZIN A   1      17.773  -1.848  11.140  0.00  0.00     0.010 A 
ENDROOT
BRANCH   1   7
ATOM      7  C15 ZIN A   1      19.502  -3.622  10.778  0.00  0.00     0.172 C 
BRANCH   7   8
ATOM      8  N14 ZIN A   1      18.684  -4.212   9.715  0.00  0.00    -0.299 N 
ATOM      9  C5  ZIN A   1      18.612  -3.737   8.433  0.00  0.00     0.105 A 
ATOM     10  N6  ZIN A   1      17.823  -4.427   7.682  0.00  0.00    -0.256 NA
ATOM     11  C7  ZIN A   1      17.274  -5.505   8.505  0.00  0.00     0.136 A 
ATOM     12  C11 ZIN A   1      15.747  -5.431   8.579  0.00  0.00     0.043 C 
ATOM     13  C8  ZIN A   1      17.641  -6.882   7.936  0.00  0.00     0.043 C 
ATOM     14  C12 ZIN A   1      17.900  -5.303   9.863  0.00  0.00     0.256 A 
ATOM     15  C10 ZIN A   1      15.222  -6.781   8.040  0.00  0.00     0.003 C 
ATOM     16  C9  ZIN A   1      16.403  -7.761   8.253  0.00  0.00     0.003 C 
ATOM     17  O13 ZIN A   1      17.736  -5.969  10.863  0.00  0.00    -0.270 OA
BRANCH   9  18
ATOM     18  C4  ZIN A   1      19.376  -2.531   7.947  0.00  0.00     0.078 C 
BRANCH  18  19
ATOM     19  C3  ZIN A   1      18.512  -1.742   6.962  0.00  0.00     0.007 C 
BRANCH  19  20
ATOM     20  C2  ZIN A   1      17.898  -0.536   7.675  0.00  0.00    -0.004 C 
ATOM     21  C1  ZIN A   1      18.854   0.654   7.579  0.00  0.00     0.005 C 
ENDBRANCH  19  20
ENDBRANCH  18  19
ENDBRANCH   9  18
ENDBRANCH   7   8
ENDBRANCH   1   7
BRANCH   4  22
ATOM     22  C20 ZIN A   1      17.992   1.883  11.531  0.00  0.00    -0.012 A 
ATOM     23  C25 ZIN A   1      17.895   2.418  12.825  0.00  0.00     0.026 A 
ATOM     24  C24 ZIN A   1      17.536   3.751  12.994  0.00  0.00     0.016 A 
ATOM     25  C23 ZIN A   1      17.266   4.539  11.892  0.00  0.00     0.001 A 
ATOM     26  C22 ZIN A   1      17.355   4.010  10.616  0.00  0.00     0.001 A 
ATOM     27  C21 ZIN A   1      17.716   2.691  10.431  0.00  0.00     0.013 A 
BRANCH  23  28
ATOM     28  C26 ZIN A   1      18.181   1.566  14.006  0.00  0.00     0.207 A 
ATOM     29  N30 ZIN A   1      17.329   0.755  14.624  0.00  0.00    -0.106 NA
ATOM     30  N29 ZIN A   1      17.961   0.198  15.599  0.00  0.00    -0.021 NA
ATOM     31  N28 ZIN A   1      19.174   0.628  15.616  0.00  0.00    -0.021 NA
ATOM     32  N27 ZIN A   1      19.339   1.464  14.648  0.00  0.00    -0.106 NA
ENDBRANCH  23  28
ENDBRANCH   4  22
TORSDOF 7
ENDMDL
MODEL 4
REMARK VINA RESULT:      -8.2      4.299      6.580
REMARK  7 active torsions:
REMARK  status: ('A' for Active; 'I' for Inactive)
REMARK    1  A    between atoms: C2_2  and  C3_3 
REMARK    2  A    between atoms: C3_3  and  C4_4 
REMARK    3  A    between atoms: C4_4  and  C5_5 
REMARK    4  A    between atoms: N14_14  and  C15_15 
REMARK    5  A    between atoms: C15_15  and  C16_16 
REMARK    6  A    between atoms: C19_19  and  C20_20 
REMARK    7  A    between atoms: C25_25  and  C26_26 
ROOT
ATOM      1  C16 ZIN A   1      19.193  -2.984  12.004  0.00  0.00    -0.040 A 
ATOM      2  C17 ZIN A   1      20.065  -3.804  11.310  0.00  0.00     0.010 A 
ATOM      3  C18 ZIN A   1      19.589  -4.655  10.334  0.00  0.00     0.013 A 
ATOM      4  C19 ZIN A   1      18.223  -4.697  10.056  0.00  0.00    -0.025 A 
ATOM      5  C31 ZIN A   1      17.348  -3.868  10.758  0.00  0.00     0.013 A 
ATOM      6  C32 ZIN A   1      17.837  -3.017  11.728  0.00  0.00     0.010 A 
ENDROOT
BRANCH   1   7
ATOM      7  C15 ZIN A   1      19.721  -2.053  13.064  0.00  0.00     0.172 C 
BRANCH   7   8
ATOM      8  N14 ZIN A   1      19.140  -0.721  12.878  0.00  0.00    -0.299 N 
ATOM      9  C5  ZIN A   1      18.293  -0.109  13.762  0.00  0.00     0.105 A 
ATOM     10  N6  ZIN A   1      17.917   1.062  13.374  0.00  0.00    -0.256 NA
ATOM     11  C7  ZIN A   1      18.556   1.317  12.084  0.00  0.00     0.136 A 
ATOM     12  C11 ZIN A   1      17.520   1.557  10.982  0.00  0.00     0.043 C 
ATOM     13  C8  ZIN A   1      19.458   2.557  12.145  0.00  0.00     0.043 C 
ATOM     14  C12 ZIN A   1      19.370   0.077  11.810  0.00  0.00     0.256 A 
ATOM     15  C10 ZIN A   1      17.822   2.957  10.403  0.00  0.00     0.003 C 
ATOM     16  C9  ZIN A   1      19.315   3.195  10.738  0.00  0.00     0.003 C 
ATOM     17  O13 ZIN A   1      20.073  -0.154  10.849  0.00  0.00    -0.270 OA
BRANCH   9  18
ATOM     18  C4  ZIN A   1      17.847  -0.738  15.058  0.00  0.00     0.078 C 
BRANCH  18  19
ATOM     19  C3  ZIN A   1      17.757   0.337  16.142  0.00  0.00     0.007 C 
BRANCH  19  20
ATOM     20  C2  ZIN A   1      17.835  -0.321  17.521  0.00  0.00    -0.004 C 
ATOM     21  C1  ZIN A   1      19.274  -0.252  18.038  0.00  0.00     0.005 C 
ENDBRANCH  19  20
ENDBRANCH  18  19
ENDBRANCH   9  18
ENDBRANCH   7   8
ENDBRANCH   1   7
BRANCH   4  22
ATOM     22  C20 ZIN A   1      17.704  -5.612   9.013  0.00  0.00    -0.012 A 
ATOM     23  C25 ZIN A   1      17.906  -5.322   7.655  0.00  0.00     0.026 A 
ATOM     24  C24 ZIN A   1      17.420  -6.193   6.685  0.00  0.00     0.016 A 
ATOM     25  C23 ZIN A   1      16.733  -7.330   7.060  0.00  0.00     0.001 A 
ATOM     26  C22 ZIN A   1      16.528  -7.614   8.400  0.00  0.00     0.001 A 
ATOM     27  C21 ZIN A   1      17.009  -6.763   9.374  0.00  0.00     0.013 A 
BRANCH  23  28
ATOM     28  C26 ZIN A   1      18.640  -4.096   7.255  0.00  0.00     0.207 A 
ATOM     29  N30 ZIN A   1      18.243  -2.840   7.434  0.00  0.00    -0.106 NA
ATOM     30  N29 ZIN A   1      19.159  -2.071   6.950  0.00  0.00    -0.021 NA
ATOM     31  N28 ZIN A   1      20.111  -2.796   6.477  0.00  0.00    -0.021 NA
ATOM     32  N27 ZIN A   1      19.824  -4.040   6.655  0.00  0.00    -0.106 NA
ENDBRANCH  23  28
ENDBRANCH   4  22
TORSDOF 7
ENDMDL
MODEL 5
REMARK VINA RESULT:      -8.2      3.965      6.351
REMARK  7 active torsions:
REMARK  status: ('A' for Active; 'I' for Inactive)
REMARK    1  A    between atoms: C2_2  and  C3_3 
REMARK    2  A    between atoms: C3_3  and  C4_4 
REMARK    3  A    between atoms: C4_4  and  C5_5 
REMARK    4  A    between atoms: N14_14  and  C15_15 
REMARK    5  A    between atoms: C15_15  and  C16_16 
REMARK    6  A    between atoms: C19_19  and  C20_20 
REMARK    7  A    between atoms: C25_25  and  C26_26 
ROOT
ATOM      1  C16 ZIN A   1      19.651  -1.369  11.250  0.00  0.00    -0.040 A 
ATOM      2  C17 ZIN A   1      18.495  -1.022  10.575  0.00  0.00     0.010 A 
ATOM      3  C18 ZIN A   1      17.732  -1.993   9.961  0.00  0.00     0.013 A 
ATOM      4  C19 ZIN A   1      18.135  -3.326  10.010  0.00  0.00    -0.025 A 
ATOM      5  C31 ZIN A   1      19.302  -3.672  10.691  0.00  0.00     0.013 A 
ATOM      6  C32 ZIN A   1      20.054  -2.693  11.307  0.00  0.00     0.010 A 
ENDROOT
BRANCH   1   7
ATOM      7  C15 ZIN A   1      20.477  -0.305  11.925  0.00  0.00     0.172 C 
BRANCH   7   8
ATOM      8  N14 ZIN A   1      19.695   0.312  13.000  0.00  0.00    -0.299 N 
ATOM      9  C5  ZIN A   1      19.205   1.590  12.973  0.00  0.00     0.105 A 
ATOM     10  N6  ZIN A   1      18.550   1.902  14.038  0.00  0.00    -0.256 NA
ATOM     11  C7  ZIN A   1      18.570   0.734  14.918  0.00  0.00     0.136 A 
ATOM     12  C11 ZIN A   1      19.229   1.054  16.261  0.00  0.00     0.043 C 
ATOM     13  C8  ZIN A   1      17.149   0.234  15.211  0.00  0.00     0.043 C 
ATOM     14  C12 ZIN A   1      19.355  -0.304  14.154  0.00  0.00     0.256 A 
ATOM     15  C10 ZIN A   1      18.175   0.742  17.347  0.00  0.00     0.003 C 
ATOM     16  C9  ZIN A   1      17.226  -0.280  16.673  0.00  0.00     0.003 C 
ATOM     17  O13 ZIN A   1      19.620  -1.436  14.498  0.00  0.00    -0.270 OA
BRANCH   9  18
ATOM     18  C4  ZIN A   1      19.411   2.536  11.817  0.00  0.00     0.078 C 
BRANCH  18  19
ATOM     19  C3  ZIN A   1      18.170   2.524  10.922  0.00  0.00     0.007 C 
BRANCH  19  20
ATOM     20  C2  ZIN A   1      18.534   3.065   9.539  0.00  0.00    -0.004 C 
ATOM     21  C1  ZIN A   1      19.143   1.943   8.696  0.00  0.00     0.005 C 
ENDBRANCH  19  20
ENDBRANCH  18  19
ENDBRANCH   9  18
ENDBRANCH   7   8
ENDBRANCH   1   7
BRANCH   4  22
ATOM     22  C20 ZIN A   1      17.323  -4.374   9.347  0.00  0.00    -0.012 A 
ATOM     23  C25 ZIN A   1      17.576  -4.725   8.012  0.00  0.00     0.026 A 
ATOM     24  C24 ZIN A   1      16.811  -5.715   7.404  0.00  0.00     0.016 A 
ATOM     25  C23 ZIN A   1      15.801  -6.339   8.109  0.00  0.00     0.001 A 
ATOM     26  C22 ZIN A   1      15.547  -5.988   9.424  0.00  0.00     0.001 A 
ATOM     27  C21 ZIN A   1      16.300  -5.012  10.044  0.00  0.00     0.013 A 
BRANCH  23  28
ATOM     28  C26 ZIN A   1      18.659  -4.049   7.256  0.00  0.00     0.207 A 
ATOM     29  N30 ZIN A   1      18.559  -2.914   6.571  0.00  0.00    -0.106 NA
ATOM     30  N29 ZIN A   1      19.717  -2.666   6.061  0.00  0.00    -0.021 NA
ATOM     31  N28 ZIN A   1      20.536  -3.599   6.400  0.00  0.00    -0.021 NA
ATOM     32  N27 ZIN A   1      19.918  -4.457   7.136  0.00  0.00    -0.106 NA
ENDBRANCH  23  28
ENDBRANCH   4  22
TORSDOF 7
ENDMDL
MODEL 6
REMARK VINA RESULT:      -8.1      3.308      8.227
REMARK  7 active torsions:
REMARK  status: ('A' for Active; 'I' for Inactive)
REMARK    1  A    between atoms: C2_2  and  C3_3 
REMARK    2  A    between atoms: C3_3  and  C4_4 
REMARK    3  A    between atoms: C4_4  and  C5_5 
REMARK    4  A    between atoms: N14_14  and  C15_15 
REMARK    5  A    between atoms: C15_15  and  C16_16 
REMARK    6  A    between atoms: C19_19  and  C20_20 
REMARK    7  A    between atoms: C25_25  and  C26_26 
ROOT
ATOM      1  C16 ZIN A   1      19.127  -1.091  12.907  0.00  0.00    -0.040 A 
ATOM      2  C17 ZIN A   1      20.204  -0.282  13.225  0.00  0.00     0.010 A 
ATOM      3  C18 ZIN A   1      20.001   0.919  13.873  0.00  0.00     0.013 A 
ATOM      4  C19 ZIN A   1      18.707   1.324  14.195  0.00  0.00    -0.025 A 
ATOM      5  C31 ZIN A   1      17.625   0.506  13.872  0.00  0.00     0.013 A 
ATOM      6  C32 ZIN A   1      17.840  -0.696  13.229  0.00  0.00     0.010 A 
ENDROOT
BRANCH   1   7
ATOM      7  C15 ZIN A   1      19.356  -2.404  12.205  0.00  0.00     0.172 C 
BRANCH   7   8
ATOM      8  N14 ZIN A   1      18.825  -2.329  10.842  0.00  0.00    -0.299 N 
ATOM      9  C5  ZIN A   1      17.789  -3.087  10.366  0.00  0.00     0.105 A 
ATOM     10  N6  ZIN A   1      17.505  -2.839   9.133  0.00  0.00    -0.256 NA
ATOM     11  C7  ZIN A   1      18.428  -1.800   8.677  0.00  0.00     0.136 A 
ATOM     12  C11 ZIN A   1      19.274  -2.281   7.495  0.00  0.00     0.043 C 
ATOM     13  C8  ZIN A   1      17.672  -0.545   8.221  0.00  0.00     0.043 C 
ATOM     14  C12 ZIN A   1      19.288  -1.499   9.880  0.00  0.00     0.256 A 
ATOM     15  C10 ZIN A   1      18.999  -1.296   6.337  0.00  0.00     0.003 C 
ATOM     16  C9  ZIN A   1      18.523  -0.001   7.043  0.00  0.00     0.003 C 
ATOM     17  O13 ZIN A   1      20.190  -0.694   9.965  0.00  0.00    -0.270 OA
BRANCH   9  18
ATOM     18  C4  ZIN A   1      17.054  -4.107  11.198  0.00  0.00     0.078 C 
BRANCH  18  19
ATOM     19  C3  ZIN A   1      17.750  -5.463  11.076  0.00  0.00     0.007 C 
BRANCH  19  20
ATOM     20  C2  ZIN A   1      17.092  -6.276   9.959  0.00  0.00    -0.004 C 
ATOM     21  C1  ZIN A   1      18.077  -6.440   8.800  0.00  0.00     0.005 C 
ENDBRANCH  19  20
ENDBRANCH  18  19
ENDBRANCH   9  18
ENDBRANCH   7   8
ENDBRANCH   1   7
BRANCH   4  22
ATOM     22  C20 ZIN A   1      18.482   2.616  14.886  0.00  0.00    -0.012 A 
ATOM     23  C25 ZIN A   1      18.177   3.769  14.146  0.00  0.00     0.026 A 
ATOM     24  C24 ZIN A   1      17.961   4.974  14.807  0.00  0.00     0.016 A 
ATOM     25  C23 ZIN A   1      18.059   5.034  16.183  0.00  0.00     0.001 A 
ATOM     26  C22 ZIN A   1      18.365   3.897  16.913  0.00  0.00     0.001 A 
ATOM     27  C21 ZIN A   1      18.577   2.693  16.273  0.00  0.00     0.013 A 
BRANCH  23  28
ATOM     28  C26 ZIN A   1      18.080   3.702  12.667  0.00  0.00     0.207 A 
ATOM     29  N30 ZIN A   1      16.972   3.536  11.952  0.00  0.00    -0.106 NA
ATOM     30  N29 ZIN A   1      17.311   3.532  10.707  0.00  0.00    -0.021 NA
ATOM     31  N28 ZIN A   1      18.585   3.690  10.617  0.00  0.00    -0.021 NA
ATOM     32  N27 ZIN A   1      19.082   3.802  11.801  0.00  0.00    -0.106 NA
ENDBRANCH  23  28
ENDBRANCH   4  22
TORSDOF 7
ENDMDL
MODEL 7
REMARK VINA RESULT:      -8.1      2.527      4.387
REMARK  7 active torsions:
REMARK  status: ('A' for Active; 'I' for Inactive)
REMARK    1  A    between atoms: C2_2  and  C3_3 
REMARK    2  A    between atoms: C3_3  and  C4_4 
REMARK    3  A    between atoms: C4_4  and  C5_5 
REMARK    4  A    between atoms: N14_14  and  C15_15 
REMARK    5  A    between atoms: C15_15  and  C16_16 
REMARK    6  A    between atoms: C19_19  and  C20_20 
REMARK    7  A    between atoms: C25_25  and  C26_26 
ROOT
ATOM      1  C16 ZIN A   1      18.455   2.763  12.426  0.00  0.00    -0.040 A 
ATOM      2  C17 ZIN A   1      19.657   2.176  12.075  0.00  0.00     0.010 A 
ATOM      3  C18 ZIN A   1      19.797   1.563  10.846  0.00  0.00     0.013 A 
ATOM      4  C19 ZIN A   1      18.720   1.526   9.963  0.00  0.00    -0.025 A 
ATOM      5  C31 ZIN A   1      17.510   2.120  10.321  0.00  0.00     0.013 A 
ATOM      6  C32 ZIN A   1      17.383   2.734  11.550  0.00  0.00     0.010 A 
ENDROOT
BRANCH   1   7
ATOM      7  C15 ZIN A   1      18.310   3.436  13.766  0.00  0.00     0.172 C 
BRANCH   7   8
ATOM      8  N14 ZIN A   1      18.496   2.448  14.831  0.00  0.00    -0.299 N 
ATOM      9  C5  ZIN A   1      19.270   2.638  15.945  0.00  0.00     0.105 A 
ATOM     10  N6  ZIN A   1      19.275   1.620  16.736  0.00  0.00    -0.256 NA
ATOM     11  C7  ZIN A   1      18.421   0.598  16.134  0.00  0.00     0.136 A 
ATOM     12  C11 ZIN A   1      19.198  -0.692  15.859  0.00  0.00     0.043 C 
ATOM     13  C8  ZIN A   1      17.247   0.240  17.055  0.00  0.00     0.043 C 
ATOM     14  C12 ZIN A   1      17.924   1.222  14.853  0.00  0.00     0.256 A 
ATOM     15  C10 ZIN A   1      18.470  -1.811  16.636  0.00  0.00     0.003 C 
ATOM     16  C9  ZIN A   1      17.026  -1.276  16.809  0.00  0.00     0.003 C 
ATOM     17  O13 ZIN A   1      17.180   0.736  14.030  0.00  0.00    -0.270 OA
BRANCH   9  18
ATOM     18  C4  ZIN A   1      20.037   3.907  16.217  0.00  0.00     0.078 C 
BRANCH  18  19
ATOM     19  C3  ZIN A   1      19.081   4.976  16.749  0.00  0.00     0.007 C 
BRANCH  19  20
ATOM     20  C2  ZIN A   1      19.300   6.282  15.982  0.00  0.00    -0.004 C 
ATOM     21  C1  ZIN A   1      20.483   6.120  15.026  0.00  0.00     0.005 C 
ENDBRANCH  19  20
ENDBRANCH  18  19
ENDBRANCH   9  18
ENDBRANCH   7   8
ENDBRANCH   1   7
BRANCH   4  22
ATOM     22  C20 ZIN A   1      18.862   0.865   8.644  0.00  0.00    -0.012 A 
ATOM     23  C25 ZIN A   1      18.830  -0.534   8.548  0.00  0.00     0.026 A 
ATOM     24  C24 ZIN A   1      18.958  -1.142   7.303  0.00  0.00     0.016 A 
ATOM     25  C23 ZIN A   1      19.127  -0.370   6.171  0.00  0.00     0.001 A 
ATOM     26  C22 ZIN A   1      19.165   1.011   6.266  0.00  0.00     0.001 A 
ATOM     27  C21 ZIN A   1      19.034   1.630   7.493  0.00  0.00     0.013 A 
BRANCH  23  28
ATOM     28  C26 ZIN A   1      18.655  -1.362   9.767  0.00  0.00     0.207 A 
ATOM     29  N30 ZIN A   1      19.609  -1.998  10.439  0.00  0.00    -0.106 NA
ATOM     30  N29 ZIN A   1      19.050  -2.600  11.432  0.00  0.00    -0.021 NA
ATOM     31  N28 ZIN A   1      17.784  -2.365  11.409  0.00  0.00    -0.021 NA
ATOM     32  N27 ZIN A   1      17.514  -1.605  10.403  0.00  0.00    -0.106 NA
ENDBRANCH  23  28
ENDBRANCH   4  22
TORSDOF 7
ENDMDL
MODEL 8
REMARK VINA RESULT:      -8.0      3.527      8.305
REMARK  7 active torsions:
REMARK  status: ('A' for Active; 'I' for Inactive)
REMARK    1  A    between atoms: C2_2  and  C3_3 
REMARK    2  A    between atoms: C3_3  and  C4_4 
REMARK    3  A    between atoms: C4_4  and  C5_5 
REMARK    4  A    between atoms: N14_14  and  C15_15 
REMARK    5  A    between atoms: C15_15  and  C16_16 
REMARK    6  A    between atoms: C19_19  and  C20_20 
REMARK    7  A    between atoms: C25_25  and  C26_26 
ROOT
ATOM      1  C16 ZIN A   1      19.030  -0.894  13.087  0.00  0.00    -0.040 A 
ATOM      2  C17 ZIN A   1      17.737  -0.411  13.185  0.00  0.00     0.010 A 
ATOM      3  C18 ZIN A   1      17.494   0.806  13.788  0.00  0.00     0.013 A 
ATOM      4  C19 ZIN A   1      18.554   1.544  14.312  0.00  0.00    -0.025 A 
ATOM      5  C31 ZIN A   1      19.856   1.054  14.211  0.00  0.00     0.013 A 
ATOM      6  C32 ZIN A   1      20.087  -0.162  13.601  0.00  0.00     0.010 A 
ENDROOT
BRANCH   1   7
ATOM      7  C15 ZIN A   1      19.289  -2.220  12.422  0.00  0.00     0.172 C 
BRANCH   7   8
ATOM      8  N14 ZIN A   1      18.774  -2.188  11.051  0.00  0.00    -0.299 N 
ATOM      9  C5  ZIN A   1      17.758  -2.976  10.581  0.00  0.00     0.105 A 
ATOM     10  N6  ZIN A   1      17.486  -2.762   9.339  0.00  0.00    -0.256 NA
ATOM     11  C7  ZIN A   1      18.397  -1.719   8.869  0.00  0.00     0.136 A 
ATOM     12  C11 ZIN A   1      19.265  -2.214   7.709  0.00  0.00     0.043 C 
ATOM     13  C8  ZIN A   1      17.625  -0.489   8.373  0.00  0.00     0.043 C 
ATOM     14  C12 ZIN A   1      19.235  -1.373  10.074  0.00  0.00     0.256 A 
ATOM     15  C10 ZIN A   1      18.988  -1.262   6.525  0.00  0.00     0.003 C 
ATOM     16  C9  ZIN A   1      18.481   0.040   7.192  0.00  0.00     0.003 C 
ATOM     17  O13 ZIN A   1      20.122  -0.551  10.151  0.00  0.00    -0.270 OA
BRANCH   9  18
ATOM     18  C4  ZIN A   1      17.030  -3.987  11.429  0.00  0.00     0.078 C 
BRANCH  18  19
ATOM     19  C3  ZIN A   1      17.790  -5.314  11.406  0.00  0.00     0.007 C 
BRANCH  19  20
ATOM     20  C2  ZIN A   1      17.362  -6.126  10.182  0.00  0.00    -0.004 C 
ATOM     21  C1  ZIN A   1      18.524  -6.205   9.190  0.00  0.00     0.005 C 
ENDBRANCH  19  20
ENDBRANCH  18  19
ENDBRANCH   9  18
ENDBRANCH   7   8
ENDBRANCH   1   7
BRANCH   4  22
ATOM     22  C20 ZIN A   1      18.300   2.850  14.966  0.00  0.00    -0.012 A 
ATOM     23  C25 ZIN A   1      18.322   2.955  16.365  0.00  0.00     0.026 A 
ATOM     24  C24 ZIN A   1      18.088   4.187  16.966  0.00  0.00     0.016 A 
ATOM     25  C23 ZIN A   1      17.825   5.297  16.188  0.00  0.00     0.001 A 
ATOM     26  C22 ZIN A   1      17.797   5.192  14.807  0.00  0.00     0.001 A 
ATOM     27  C21 ZIN A   1      18.032   3.978  14.195  0.00  0.00     0.013 A 
BRANCH  23  28
ATOM     28  C26 ZIN A   1      18.599   1.759  17.198  0.00  0.00     0.207 A 
ATOM     29  N30 ZIN A   1      17.856   0.660  17.281  0.00  0.00    -0.106 NA
ATOM     30  N29 ZIN A   1      18.437  -0.139  18.110  0.00  0.00    -0.021 NA
ATOM     31  N28 ZIN A   1      19.513   0.415  18.547  0.00  0.00    -0.021 NA
ATOM     32  N27 ZIN A   1      19.641   1.577  18.002  0.00  0.00    -0.106 NA
ENDBRANCH  23  28
ENDBRANCH   4  22
TORSDOF 7
ENDMDL
MODEL 9
REMARK VINA RESULT:      -8.0      3.047      8.022
REMARK  7 active torsions:
REMARK  status: ('A' for Active; 'I' for Inactive)
REMARK    1  A    between atoms: C2_2  and  C3_3 
REMARK    2  A    between atoms: C3_3  and  C4_4 
REMARK    3  A    between atoms: C4_4  and  C5_5 
REMARK    4  A    between atoms: N14_14  and  C15_15 
REMARK    5  A    between atoms: C15_15  and  C16_16 
REMARK    6  A    between atoms: C19_19  and  C20_20 
REMARK    7  A    between atoms: C25_25  and  C26_26 
ROOT
ATOM      1  C16 ZIN A   1      19.383   0.964   9.842  0.00  0.00    -0.040 A 
ATOM      2  C17 ZIN A   1      18.014   1.164   9.858  0.00  0.00     0.010 A 
ATOM      3  C18 ZIN A   1      17.463   2.126  10.679  0.00  0.00     0.013 A 
ATOM      4  C19 ZIN A   1      18.288   2.889  11.505  0.00  0.00    -0.025 A 
ATOM      5  C31 ZIN A   1      19.667   2.684  11.486  0.00  0.00     0.013 A 
ATOM      6  C32 ZIN A   1      20.207   1.723  10.656  0.00  0.00     0.010 A 
ENDROOT
BRANCH   1   7
ATOM      7  C15 ZIN A   1      19.979  -0.083   8.939  0.00  0.00     0.172 C 
BRANCH   7   8
ATOM      8  N14 ZIN A   1      19.305  -1.364   9.165  0.00  0.00    -0.299 N 
ATOM      9  C5  ZIN A   1      18.587  -2.045   8.218  0.00  0.00     0.105 A 
ATOM     10  N6  ZIN A   1      18.089  -3.149   8.659  0.00  0.00    -0.256 NA
ATOM     11  C7  ZIN A   1      18.488  -3.276  10.061  0.00  0.00     0.136 A 
ATOM     12  C11 ZIN A   1      17.270  -3.352  10.985  0.00  0.00     0.043 C 
ATOM     13  C8  ZIN A   1      19.319  -4.545  10.291  0.00  0.00     0.043 C 
ATOM     14  C12 ZIN A   1      19.309  -2.041  10.336  0.00  0.00     0.256 A 
ATOM     15  C10 ZIN A   1      17.394  -4.684  11.756  0.00  0.00     0.003 C 
ATOM     16  C9  ZIN A   1      18.908  -5.010  11.712  0.00  0.00     0.003 C 
ATOM     17  O13 ZIN A   1      19.852  -1.725  11.373  0.00  0.00    -0.270 OA
BRANCH   9  18
ATOM     18  C4  ZIN A   1      18.399  -1.555   6.805  0.00  0.00     0.078 C 
BRANCH  18  19
ATOM     19  C3  ZIN A   1      17.386  -0.409   6.793  0.00  0.00     0.007 C 
BRANCH  19  20
ATOM     20  C2  ZIN A   1      17.809   0.635   5.758  0.00  0.00    -0.004 C 
ATOM     21  C1  ZIN A   1      19.250   0.365   5.321  0.00  0.00     0.005 C 
ENDBRANCH  19  20
ENDBRANCH  18  19
ENDBRANCH   9  18
ENDBRANCH   7   8
ENDBRANCH   1   7
BRANCH   4  22
ATOM     22  C20 ZIN A   1      17.702   3.920  12.394  0.00  0.00    -0.012 A 
ATOM     23  C25 ZIN A   1      17.616   3.695  13.776  0.00  0.00     0.026 A 
ATOM     24  C24 ZIN A   1      17.070   4.674  14.600  0.00  0.00     0.016 A 
ATOM     25  C23 ZIN A   1      16.605   5.855  14.056  0.00  0.00     0.001 A 
ATOM     26  C22 ZIN A   1      16.684   6.074  12.691  0.00  0.00     0.001 A 
ATOM     27  C21 ZIN A   1      17.228   5.116  11.860  0.00  0.00     0.013 A 
BRANCH  23  28
ATOM     28  C26 ZIN A   1      18.111   2.422  14.356  0.00  0.00     0.207 A 
ATOM     29  N30 ZIN A   1      17.557   1.222  14.225  0.00  0.00    -0.106 NA
ATOM     30  N29 ZIN A   1      18.288   0.383  14.877  0.00  0.00    -0.021 NA
ATOM     31  N28 ZIN A   1      19.277   1.011  15.410  0.00  0.00    -0.021 NA
ATOM     32  N27 ZIN A   1      19.198   2.262  15.104  0.00  0.00    -0.106 NA
ENDBRANCH  23  28
ENDBRANCH   4  22
TORSDOF 7
ENDMDL
