MODEL 1
REMARK VINA RESULT:      -6.3      0.000      0.000
REMARK  5 active torsions:
REMARK  status: ('A' for Active; 'I' for Inactive)
REMARK    1  A    between atoms: C2_2  and  O4_3 
REMARK    2  A    between atoms: C2_2  and  C5_4 
REMARK    3  A    between atoms: C5_4  and  O7_5 
REMARK    4  A    between atoms: C5_4  and  C8_6 
REMARK    5  A    between atoms: C18_15  and  N19_16 
ROOT
ATOM      1  C8  ZIN A   1      17.684   0.155  16.822  0.00  0.00     0.131 C 
ATOM      2  C10 ZIN A   1      17.938  -1.273  16.321  0.00  0.00     0.149 C 
ATOM      3  N11 ZIN A   1      19.169  -1.271  15.519  0.00  0.00    -0.370 N 
ATOM      4  C12 ZIN A   1      19.356  -0.272  14.575  0.00  0.00     0.175 A 
ATOM      5  C13 ZIN A   1      18.593   0.885  14.634  0.00  0.00     0.144 A 
ATOM      6  N14 ZIN A   1      17.624   1.046  15.650  0.00  0.00    -0.373 N 
ATOM      7  C15 ZIN A   1      18.797   1.884  13.676  0.00  0.00     0.290 A 
ATOM      8  O16 ZIN A   1      18.142   2.915  13.700  0.00  0.00    -0.265 OA
ATOM      9  N17 ZIN A   1      19.734   1.682  12.724  0.00  0.00    -0.153 N 
ATOM     10  C18 ZIN A   1      20.455   0.528  12.707  0.00  0.00     0.703 A 
ATOM     11  N20 ZIN A   1      20.269  -0.414  13.606  0.00  0.00    -0.045 NA
ATOM     12  H28 ZIN A   1      19.842  -1.958  15.647  0.00  0.00     0.161 HD
ATOM     13  H29 ZIN A   1      16.936   1.725  15.577  0.00  0.00     0.160 HD
ATOM     14  H30 ZIN A   1      19.893   2.362  12.050  0.00  0.00     0.187 HD
ENDROOT
BRANCH   1  15
ATOM     15  C5  ZIN A   1      18.824   0.592  17.743  0.00  0.00     0.170 C 
BRANCH  15  16
ATOM     16  C2  ZIN A   1      18.301   1.612  18.756  0.00  0.00     0.145 C 
ATOM     17  C1  ZIN A   1      19.011   2.951  18.546  0.00  0.00     0.042 C 
BRANCH  16  18
ATOM     18  O4  ZIN A   1      16.894   1.785  18.573  0.00  0.00    -0.393 OA
ATOM     19  H24 ZIN A   1      16.368   1.008  18.803  0.00  0.00     0.210 HD
ENDBRANCH  16  18
ENDBRANCH  15  16
BRANCH  15  20
ATOM     20  O7  ZIN A   1      19.338  -0.547  18.438  0.00  0.00    -0.391 OA
ATOM     21  H25 ZIN A   1      19.441  -1.332  17.883  0.00  0.00     0.210 HD
ENDBRANCH  15  20
ENDBRANCH   1  15
BRANCH  10  22
ATOM     22  N19 ZIN A   1      21.401   0.344  11.731  0.00  0.00    -0.233 N 
ATOM     23  H31 ZIN A   1      21.268  -0.334  11.049  0.00  0.00     0.174 HD
ATOM     24  H32 ZIN A   1      22.202   0.890  11.722  0.00  0.00     0.174 HD
ENDBRANCH  10  22
TORSDOF 5
ENDMDL
MODEL 2
REMARK VINA RESULT:      -6.2      2.459      5.665
REMARK  5 active torsions:
REMARK  status: ('A' for Active; 'I' for Inactive)
REMARK    1  A    between atoms: C2_2  and  O4_3 
REMARK    2  A    between atoms: C2_2  and  C5_4 
REMARK    3  A    between atoms: C5_4  and  O7_5 
REMARK    4  A    between atoms: C5_4  and  C8_6 
REMARK    5  A    between atoms: C18_15  and  N19_16 
ROOT
ATOM      1  C8  ZIN A   1      18.709   0.848  12.502  0.00  0.00     0.131 C 
ATOM      2  C10 ZIN A   1      18.492   2.343  12.777  0.00  0.00     0.149 C 
ATOM      3  N11 ZIN A   1      19.139   2.678  14.053  0.00  0.00    -0.370 N 
ATOM      4  C12 ZIN A   1      18.949   1.843  15.144  0.00  0.00     0.175 A 
ATOM      5  C13 ZIN A   1      18.474   0.553  14.952  0.00  0.00     0.144 A 
ATOM      6  N14 ZIN A   1      18.180   0.092  13.649  0.00  0.00    -0.373 N 
ATOM      7  C15 ZIN A   1      18.292  -0.276  16.064  0.00  0.00     0.290 A 
ATOM      8  O16 ZIN A   1      17.875  -1.417  15.930  0.00  0.00    -0.265 OA
ATOM      9  N17 ZIN A   1      18.585   0.213  17.288  0.00  0.00    -0.153 N 
ATOM     10  C18 ZIN A   1      19.047   1.486  17.424  0.00  0.00     0.703 A 
ATOM     11  N20 ZIN A   1      19.222   2.271  16.383  0.00  0.00    -0.045 NA
ATOM     12  H28 ZIN A   1      19.691   3.471  14.132  0.00  0.00     0.161 HD
ATOM     13  H29 ZIN A   1      17.641  -0.704  13.514  0.00  0.00     0.160 HD
ATOM     14  H30 ZIN A   1      18.467  -0.345  18.073  0.00  0.00     0.187 HD
ENDROOT
BRANCH   1  15
ATOM     15  C5  ZIN A   1      20.203   0.563  12.341  0.00  0.00     0.170 C 
BRANCH  15  16
ATOM     16  C2  ZIN A   1      20.409  -0.473  11.234  0.00  0.00     0.145 C 
ATOM     17  C1  ZIN A   1      19.698  -0.008   9.962  0.00  0.00     0.042 C 
BRANCH  16  18
ATOM     18  O4  ZIN A   1      21.807  -0.619  10.973  0.00  0.00    -0.393 OA
ATOM     19  H24 ZIN A   1      22.106  -0.168  10.173  0.00  0.00     0.210 HD
ENDBRANCH  16  18
ENDBRANCH  15  16
BRANCH  15  20
ATOM     20  O7  ZIN A   1      20.884   1.771  11.996  0.00  0.00    -0.391 OA
ATOM     21  H25 ZIN A   1      21.808   1.642  11.743  0.00  0.00     0.210 HD
ENDBRANCH  15  20
ENDBRANCH   1  15
BRANCH  10  22
ATOM     22  N19 ZIN A   1      19.338   1.962  18.677  0.00  0.00    -0.233 N 
ATOM     23  H31 ZIN A   1      18.706   2.538  19.137  0.00  0.00     0.174 HD
ATOM     24  H32 ZIN A   1      20.176   1.725  19.104  0.00  0.00     0.174 HD
ENDBRANCH  10  22
TORSDOF 5
ENDMDL
MODEL 3
REMARK VINA RESULT:      -6.1      6.403      9.412
REMARK  5 active torsions:
REMARK  status: ('A' for Active; 'I' for Inactive)
REMARK    1  A    between atoms: C2_2  and  O4_3 
REMARK    2  A    between atoms: C2_2  and  C5_4 
REMARK    3  A    between atoms: C5_4  and  O7_5 
REMARK    4  A    between atoms: C5_4  and  C8_6 
REMARK    5  A    between atoms: C18_15  and  N19_16 
ROOT
ATOM      1  C8  ZIN A   1      17.884  -1.049   6.039  0.00  0.00     0.131 C 
ATOM      2  C10 ZIN A   1      17.913   0.417   5.586  0.00  0.00     0.149 C 
ATOM      3  N11 ZIN A   1      18.853   1.150   6.445  0.00  0.00    -0.370 N 
ATOM      4  C12 ZIN A   1      18.801   0.957   7.818  0.00  0.00     0.175 A 
ATOM      5  C13 ZIN A   1      18.143  -0.150   8.335  0.00  0.00     0.144 A 
ATOM      6  N14 ZIN A   1      17.523  -1.077   7.467  0.00  0.00    -0.373 N 
ATOM      7  C15 ZIN A   1      18.103  -0.331   9.721  0.00  0.00     0.290 A 
ATOM      8  O16 ZIN A   1      17.532  -1.294  10.210  0.00  0.00    -0.265 OA
ATOM      9  N17 ZIN A   1      18.708   0.585  10.509  0.00  0.00    -0.153 N 
ATOM     10  C18 ZIN A   1      19.339   1.656   9.953  0.00  0.00     0.703 A 
ATOM     11  N20 ZIN A   1      19.382   1.830   8.649  0.00  0.00    -0.045 NA
ATOM     12  H28 ZIN A   1      19.501   1.759   6.059  0.00  0.00     0.161 HD
ATOM     13  H29 ZIN A   1      16.876  -1.716   7.803  0.00  0.00     0.160 HD
ATOM     14  H30 ZIN A   1      18.694   0.480  11.473  0.00  0.00     0.187 HD
ENDROOT
BRANCH   1  15
ATOM     15  C5  ZIN A   1      19.263  -1.680   5.842  0.00  0.00     0.170 C 
BRANCH  15  16
ATOM     16  C2  ZIN A   1      19.109  -3.187   5.629  0.00  0.00     0.145 C 
ATOM     17  C1  ZIN A   1      19.940  -3.937   6.672  0.00  0.00     0.042 C 
BRANCH  16  18
ATOM     18  O4  ZIN A   1      17.734  -3.549   5.765  0.00  0.00    -0.393 OA
ATOM     19  H24 ZIN A   1      17.407  -3.519   6.674  0.00  0.00     0.210 HD
ENDBRANCH  16  18
ENDBRANCH  15  16
BRANCH  15  20
ATOM     20  O7  ZIN A   1      19.893  -1.099   4.699  0.00  0.00    -0.391 OA
ATOM     21  H25 ZIN A   1      20.781  -0.759   4.870  0.00  0.00     0.210 HD
ENDBRANCH  15  20
ENDBRANCH   1  15
BRANCH  10  22
ATOM     22  N19 ZIN A   1      19.947   2.574  10.770  0.00  0.00    -0.233 N 
ATOM     23  H31 ZIN A   1      19.458   2.960  11.514  0.00  0.00     0.174 HD
ATOM     24  H32 ZIN A   1      20.866   2.837  10.606  0.00  0.00     0.174 HD
ENDBRANCH  10  22
TORSDOF 5
ENDMDL
MODEL 4
REMARK VINA RESULT:      -5.9      5.904      8.822
REMARK  5 active torsions:
REMARK  status: ('A' for Active; 'I' for Inactive)
REMARK    1  A    between atoms: C2_2  and  O4_3 
REMARK    2  A    between atoms: C2_2  and  C5_4 
REMARK    3  A    between atoms: C5_4  and  O7_5 
REMARK    4  A    between atoms: C5_4  and  C8_6 
REMARK    5  A    between atoms: C18_15  and  N19_16 
ROOT
ATOM      1  C8  ZIN A   1      18.139  -2.128   7.413  0.00  0.00     0.131 C 
ATOM      2  C10 ZIN A   1      18.075  -0.598   7.298  0.00  0.00     0.149 C 
ATOM      3  N11 ZIN A   1      19.233  -0.032   8.003  0.00  0.00    -0.370 N 
ATOM      4  C12 ZIN A   1      19.559  -0.516   9.261  0.00  0.00     0.175 A 
ATOM      5  C13 ZIN A   1      19.045  -1.732   9.686  0.00  0.00     0.144 A 
ATOM      6  N14 ZIN A   1      18.188  -2.475   8.843  0.00  0.00    -0.373 N 
ATOM      7  C15 ZIN A   1      19.387  -2.208  10.957  0.00  0.00     0.290 A 
ATOM      8  O16 ZIN A   1      18.952  -3.275  11.363  0.00  0.00    -0.265 OA
ATOM      9  N17 ZIN A   1      20.208  -1.459  11.726  0.00  0.00    -0.153 N 
ATOM     10  C18 ZIN A   1      20.684  -0.271  11.263  0.00  0.00     0.703 A 
ATOM     11  N20 ZIN A   1      20.367   0.181  10.069  0.00  0.00    -0.045 NA
ATOM     12  H28 ZIN A   1      19.763   0.671   7.594  0.00  0.00     0.161 HD
ATOM     13  H29 ZIN A   1      17.645  -3.196   9.198  0.00  0.00     0.160 HD
ATOM     14  H30 ZIN A   1      20.459  -1.769  12.610  0.00  0.00     0.187 HD
ENDROOT
BRANCH   1  15
ATOM     15  C5  ZIN A   1      19.394  -2.648   6.712  0.00  0.00     0.170 C 
BRANCH  15  16
ATOM     16  C2  ZIN A   1      19.150  -4.077   6.221  0.00  0.00     0.145 C 
ATOM     17  C1  ZIN A   1      20.066  -5.040   6.979  0.00  0.00     0.042 C 
BRANCH  16  18
ATOM     18  O4  ZIN A   1      17.786  -4.433   6.454  0.00  0.00    -0.393 OA
ATOM     19  H24 ZIN A   1      17.627  -5.386   6.472  0.00  0.00     0.210 HD
ENDBRANCH  16  18
ENDBRANCH  15  16
BRANCH  15  20
ATOM     20  O7  ZIN A   1      19.700  -1.808   5.597  0.00  0.00    -0.391 OA
ATOM     21  H25 ZIN A   1      20.631  -1.552   5.542  0.00  0.00     0.210 HD
ENDBRANCH  15  20
ENDBRANCH   1  15
BRANCH  10  22
ATOM     22  N19 ZIN A   1      21.516   0.473  12.060  0.00  0.00    -0.233 N 
ATOM     23  H31 ZIN A   1      21.376   0.495  13.021  0.00  0.00     0.174 HD
ATOM     24  H32 ZIN A   1      22.243   0.978  11.665  0.00  0.00     0.174 HD
ENDBRANCH  10  22
TORSDOF 5
ENDMDL
MODEL 5
REMARK VINA RESULT:      -5.9      5.335      7.016
REMARK  5 active torsions:
REMARK  status: ('A' for Active; 'I' for Inactive)
REMARK    1  A    between atoms: C2_2  and  O4_3 
REMARK    2  A    between atoms: C2_2  and  C5_4 
REMARK    3  A    between atoms: C5_4  and  O7_5 
REMARK    4  A    between atoms: C5_4  and  C8_6 
REMARK    5  A    between atoms: C18_15  and  N19_16 
ROOT
ATOM      1  C8  ZIN A   1      18.819  -1.344  10.890  0.00  0.00     0.131 C 
ATOM      2  C10 ZIN A   1      18.940  -2.873  10.842  0.00  0.00     0.149 C 
ATOM      3  N11 ZIN A   1      19.488  -3.255   9.534  0.00  0.00    -0.370 N 
ATOM      4  C12 ZIN A   1      18.969  -2.668   8.389  0.00  0.00     0.175 A 
ATOM      5  C13 ZIN A   1      18.222  -1.503   8.489  0.00  0.00     0.144 A 
ATOM      6  N14 ZIN A   1      17.985  -0.917   9.753  0.00  0.00    -0.373 N 
ATOM      7  C15 ZIN A   1      17.709  -0.922   7.324  0.00  0.00     0.290 A 
ATOM      8  O16 ZIN A   1      17.047   0.104   7.377  0.00  0.00    -0.265 OA
ATOM      9  N17 ZIN A   1      17.960  -1.522   6.140  0.00  0.00    -0.153 N 
ATOM     10  C18 ZIN A   1      18.697  -2.666   6.095  0.00  0.00     0.703 A 
ATOM     11  N20 ZIN A   1      19.184  -3.216   7.187  0.00  0.00    -0.045 NA
ATOM     12  H28 ZIN A   1      20.202  -3.908   9.470  0.00  0.00     0.161 HD
ATOM     13  H29 ZIN A   1      17.291  -0.251   9.870  0.00  0.00     0.160 HD
ATOM     14  H30 ZIN A   1      17.615  -1.137   5.319  0.00  0.00     0.187 HD
ENDROOT
BRANCH   1  15
ATOM     15  C5  ZIN A   1      20.207  -0.711  10.778  0.00  0.00     0.170 C 
BRANCH  15  16
ATOM     16  C2  ZIN A   1      20.316   0.459  11.758  0.00  0.00     0.145 C 
ATOM     17  C1  ZIN A   1      19.482   0.158  13.005  0.00  0.00     0.042 C 
BRANCH  16  18
ATOM     18  O4  ZIN A   1      21.683   0.641  12.131  0.00  0.00    -0.393 OA
ATOM     19  H24 ZIN A   1      22.174   1.235  11.549  0.00  0.00     0.210 HD
ENDBRANCH  16  18
ENDBRANCH  15  16
BRANCH  15  20
ATOM     20  O7  ZIN A   1      21.202  -1.688  11.091  0.00  0.00    -0.391 OA
ATOM     21  H25 ZIN A   1      22.048  -1.543  10.646  0.00  0.00     0.210 HD
ENDBRANCH  15  20
ENDBRANCH   1  15
BRANCH  10  22
ATOM     22  N19 ZIN A   1      18.940  -3.258   4.883  0.00  0.00    -0.233 N 
ATOM     23  H31 ZIN A   1      18.827  -4.217   4.779  0.00  0.00     0.174 HD
ATOM     24  H32 ZIN A   1      19.225  -2.720   4.128  0.00  0.00     0.174 HD
ENDBRANCH  10  22
TORSDOF 5
ENDMDL
MODEL 6
REMARK VINA RESULT:      -5.9      6.944      9.725
REMARK  5 active torsions:
REMARK  status: ('A' for Active; 'I' for Inactive)
REMARK    1  A    between atoms: C2_2  and  O4_3 
REMARK    2  A    between atoms: C2_2  and  C5_4 
REMARK    3  A    between atoms: C5_4  and  O7_5 
REMARK    4  A    between atoms: C5_4  and  C8_6 
REMARK    5  A    between atoms: C18_15  and  N19_16 
ROOT
ATOM      1  C8  ZIN A   1      19.378  -2.346   6.283  0.00  0.00     0.131 C 
ATOM      2  C10 ZIN A   1      18.982  -3.801   5.999  0.00  0.00     0.149 C 
ATOM      3  N11 ZIN A   1      17.880  -4.166   6.900  0.00  0.00    -0.370 N 
ATOM      4  C12 ZIN A   1      17.967  -3.829   8.242  0.00  0.00     0.175 A 
ATOM      5  C13 ZIN A   1      18.880  -2.868   8.655  0.00  0.00     0.144 A 
ATOM      6  N14 ZIN A   1      19.722  -2.237   7.711  0.00  0.00    -0.373 N 
ATOM      7  C15 ZIN A   1      18.952  -2.538  10.012  0.00  0.00     0.290 A 
ATOM      8  O16 ZIN A   1      19.744  -1.696  10.409  0.00  0.00    -0.265 OA
ATOM      9  N17 ZIN A   1      18.127  -3.171  10.875  0.00  0.00    -0.153 N 
ATOM     10  C18 ZIN A   1      17.251  -4.108  10.420  0.00  0.00     0.703 A 
ATOM     11  N20 ZIN A   1      17.177  -4.422   9.145  0.00  0.00    -0.045 NA
ATOM     12  H28 ZIN A   1      17.102  -4.635   6.561  0.00  0.00     0.161 HD
ATOM     13  H29 ZIN A   1      20.507  -1.744   7.997  0.00  0.00     0.160 HD
ATOM     14  H30 ZIN A   1      18.160  -2.957  11.820  0.00  0.00     0.187 HD
ENDROOT
BRANCH   1  15
ATOM     15  C5  ZIN A   1      18.206  -1.418   5.962  0.00  0.00     0.170 C 
BRANCH  15  16
ATOM     16  C2  ZIN A   1      18.726  -0.163   5.258  0.00  0.00     0.145 C 
ATOM     17  C1  ZIN A   1      18.894   0.963   6.281  0.00  0.00     0.042 C 
BRANCH  16  18
ATOM     18  O4  ZIN A   1      19.987  -0.446   4.650  0.00  0.00    -0.393 OA
ATOM     19  H24 ZIN A   1      20.749  -0.196   5.188  0.00  0.00     0.210 HD
ENDBRANCH  16  18
ENDBRANCH  15  16
BRANCH  15  20
ATOM     20  O7  ZIN A   1      17.283  -2.095   5.106  0.00  0.00    -0.391 OA
ATOM     21  H25 ZIN A   1      17.189  -3.038   5.298  0.00  0.00     0.210 HD
ENDBRANCH  15  20
ENDBRANCH   1  15
BRANCH  10  22
ATOM     22  N19 ZIN A   1      16.423  -4.739  11.313  0.00  0.00    -0.233 N 
ATOM     23  H31 ZIN A   1      16.244  -5.689  11.222  0.00  0.00     0.174 HD
ATOM     24  H32 ZIN A   1      16.016  -4.237  12.036  0.00  0.00     0.174 HD
ENDBRANCH  10  22
TORSDOF 5
ENDMDL
MODEL 7
REMARK VINA RESULT:      -5.7      6.342      8.882
REMARK  5 active torsions:
REMARK  status: ('A' for Active; 'I' for Inactive)
REMARK    1  A    between atoms: C2_2  and  O4_3 
REMARK    2  A    between atoms: C2_2  and  C5_4 
REMARK    3  A    between atoms: C5_4  and  O7_5 
REMARK    4  A    between atoms: C5_4  and  C8_6 
REMARK    5  A    between atoms: C18_15  and  N19_16 
ROOT
ATOM      1  C8  ZIN A   1      18.400  -3.069   7.590  0.00  0.00     0.131 C 
ATOM      2  C10 ZIN A   1      19.070  -1.689   7.635  0.00  0.00     0.149 C 
ATOM      3  N11 ZIN A   1      19.862  -1.598   8.869  0.00  0.00    -0.370 N 
ATOM      4  C12 ZIN A   1      19.298  -2.019  10.064  0.00  0.00     0.175 A 
ATOM      5  C13 ZIN A   1      18.174  -2.833  10.047  0.00  0.00     0.144 A 
ATOM      6  N14 ZIN A   1      17.602  -3.229   8.817  0.00  0.00    -0.373 N 
ATOM      7  C15 ZIN A   1      17.620  -3.253  11.261  0.00  0.00     0.290 A 
ATOM      8  O16 ZIN A   1      16.631  -3.970  11.282  0.00  0.00    -0.265 OA
ATOM      9  N17 ZIN A   1      18.203  -2.846  12.410  0.00  0.00    -0.153 N 
ATOM     10  C18 ZIN A   1      19.304  -2.045  12.373  0.00  0.00     0.703 A 
ATOM     11  N20 ZIN A   1      19.830  -1.649  11.234  0.00  0.00    -0.045 NA
ATOM     12  H28 ZIN A   1      20.766  -1.248   8.849  0.00  0.00     0.161 HD
ATOM     13  H29 ZIN A   1      16.705  -3.596   8.782  0.00  0.00     0.160 HD
ATOM     14  H30 ZIN A   1      17.837  -3.125  13.264  0.00  0.00     0.187 HD
ENDROOT
BRANCH   1  15
ATOM     15  C5  ZIN A   1      19.469  -4.161   7.523  0.00  0.00     0.170 C 
BRANCH  15  16
ATOM     16  C2  ZIN A   1      18.856  -5.442   6.953  0.00  0.00     0.145 C 
ATOM     17  C1  ZIN A   1      18.630  -6.447   8.085  0.00  0.00     0.042 C 
BRANCH  16  18
ATOM     18  O4  ZIN A   1      17.606  -5.136   6.332  0.00  0.00    -0.393 OA
ATOM     19  H24 ZIN A   1      16.837  -5.482   6.803  0.00  0.00     0.210 HD
ENDBRANCH  16  18
ENDBRANCH  15  16
BRANCH  15  20
ATOM     20  O7  ZIN A   1      20.539  -3.730   6.680  0.00  0.00    -0.391 OA
ATOM     21  H25 ZIN A   1      20.273  -3.551   5.768  0.00  0.00     0.210 HD
ENDBRANCH  15  20
ENDBRANCH   1  15
BRANCH  10  22
ATOM     22  N19 ZIN A   1      19.879  -1.644  13.552  0.00  0.00    -0.233 N 
ATOM     23  H31 ZIN A   1      20.155  -2.304  14.207  0.00  0.00     0.174 HD
ATOM     24  H32 ZIN A   1      20.010  -0.700  13.731  0.00  0.00     0.174 HD
ENDBRANCH  10  22
TORSDOF 5
ENDMDL
MODEL 8
REMARK VINA RESULT:      -5.7      4.846      7.090
REMARK  5 active torsions:
REMARK  status: ('A' for Active; 'I' for Inactive)
REMARK    1  A    between atoms: C2_2  and  O4_3 
REMARK    2  A    between atoms: C2_2  and  C5_4 
REMARK    3  A    between atoms: C5_4  and  O7_5 
REMARK    4  A    between atoms: C5_4  and  C8_6 
REMARK    5  A    between atoms: C18_15  and  N19_16 
ROOT
ATOM      1  C8  ZIN A   1      18.198  -2.271   8.803  0.00  0.00     0.131 C 
ATOM      2  C10 ZIN A   1      19.427  -1.506   8.291  0.00  0.00     0.149 C 
ATOM      3  N11 ZIN A   1      20.091  -0.874   9.439  0.00  0.00    -0.370 N 
ATOM      4  C12 ZIN A   1      19.322  -0.198  10.374  0.00  0.00     0.175 A 
ATOM      5  C13 ZIN A   1      17.952  -0.416  10.429  0.00  0.00     0.144 A 
ATOM      6  N14 ZIN A   1      17.341  -1.321   9.532  0.00  0.00    -0.373 N 
ATOM      7  C15 ZIN A   1      17.192   0.272  11.380  0.00  0.00     0.290 A 
ATOM      8  O16 ZIN A   1      15.984   0.103  11.456  0.00  0.00    -0.265 OA
ATOM      9  N17 ZIN A   1      17.823   1.128  12.214  0.00  0.00    -0.153 N 
ATOM     10  C18 ZIN A   1      19.169   1.309  12.118  0.00  0.00     0.703 A 
ATOM     11  N20 ZIN A   1      19.890   0.664  11.226  0.00  0.00    -0.045 NA
ATOM     12  H28 ZIN A   1      21.054  -0.929   9.543  0.00  0.00     0.161 HD
ATOM     13  H29 ZIN A   1      16.380  -1.317   9.400  0.00  0.00     0.160 HD
ATOM     14  H30 ZIN A   1      17.316   1.616  12.882  0.00  0.00     0.187 HD
ENDROOT
BRANCH   1  15
ATOM     15  C5  ZIN A   1      18.641  -3.393   9.743  0.00  0.00     0.170 C 
BRANCH  15  16
ATOM     16  C2  ZIN A   1      17.628  -4.538   9.686  0.00  0.00     0.145 C 
ATOM     17  C1  ZIN A   1      16.860  -4.606  11.008  0.00  0.00     0.042 C 
BRANCH  16  18
ATOM     18  O4  ZIN A   1      16.712  -4.309   8.614  0.00  0.00    -0.393 OA
ATOM     19  H24 ZIN A   1      16.995  -3.624   7.993  0.00  0.00     0.210 HD
ENDBRANCH  16  18
ENDBRANCH  15  16
BRANCH  15  20
ATOM     20  O7  ZIN A   1      19.926  -3.873   9.340  0.00  0.00    -0.391 OA
ATOM     21  H25 ZIN A   1      20.506  -4.110  10.076  0.00  0.00     0.210 HD
ENDBRANCH  15  20
ENDBRANCH   1  15
BRANCH  10  22
ATOM     22  N19 ZIN A   1      19.789   2.184  12.973  0.00  0.00    -0.233 N 
ATOM     23  H31 ZIN A   1      19.841   3.127  12.750  0.00  0.00     0.174 HD
ATOM     24  H32 ZIN A   1      20.175   1.860  13.802  0.00  0.00     0.174 HD
ENDBRANCH  10  22
TORSDOF 5
ENDMDL
MODEL 9
REMARK VINA RESULT:      -5.6      3.833      5.897
REMARK  5 active torsions:
REMARK  status: ('A' for Active; 'I' for Inactive)
REMARK    1  A    between atoms: C2_2  and  O4_3 
REMARK    2  A    between atoms: C2_2  and  C5_4 
REMARK    3  A    between atoms: C5_4  and  O7_5 
REMARK    4  A    between atoms: C5_4  and  C8_6 
REMARK    5  A    between atoms: C18_15  and  N19_16 
ROOT
ATOM      1  C8  ZIN A   1      20.151  -0.337  12.080  0.00  0.00     0.131 C 
ATOM      2  C10 ZIN A   1      20.058   0.513  13.355  0.00  0.00     0.149 C 
ATOM      3  N11 ZIN A   1      18.870   1.370  13.255  0.00  0.00    -0.370 N 
ATOM      4  C12 ZIN A   1      18.629   2.053  12.072  0.00  0.00     0.175 A 
ATOM      5  C13 ZIN A   1      19.274   1.663  10.907  0.00  0.00     0.144 A 
ATOM      6  N14 ZIN A   1      20.177   0.576  10.925  0.00  0.00    -0.373 N 
ATOM      7  C15 ZIN A   1      19.018   2.361   9.722  0.00  0.00     0.290 A 
ATOM      8  O16 ZIN A   1      19.569   2.043   8.678  0.00  0.00    -0.265 OA
ATOM      9  N17 ZIN A   1      18.148   3.394   9.757  0.00  0.00    -0.153 N 
ATOM     10  C18 ZIN A   1      17.542   3.739  10.926  0.00  0.00     0.703 A 
ATOM     11  N20 ZIN A   1      17.778   3.086  12.044  0.00  0.00    -0.045 NA
ATOM     12  H28 ZIN A   1      18.261   1.458  14.005  0.00  0.00     0.161 HD
ATOM     13  H29 ZIN A   1      20.800   0.436  10.194  0.00  0.00     0.160 HD
ATOM     14  H30 ZIN A   1      17.954   3.892   8.947  0.00  0.00     0.187 HD
ENDROOT
BRANCH   1  15
ATOM     15  C5  ZIN A   1      18.935  -1.259  11.981  0.00  0.00     0.170 C 
BRANCH  15  16
ATOM     16  C2  ZIN A   1      19.344  -2.576  11.319  0.00  0.00     0.145 C 
ATOM     17  C1  ZIN A   1      18.710  -2.667   9.930  0.00  0.00     0.042 C 
BRANCH  16  18
ATOM     18  O4  ZIN A   1      20.767  -2.626  11.198  0.00  0.00    -0.393 OA
ATOM     19  H24 ZIN A   1      21.099  -3.436  10.789  0.00  0.00     0.210 HD
ENDBRANCH  16  18
ENDBRANCH  15  16
BRANCH  15  20
ATOM     20  O7  ZIN A   1      18.430  -1.522  13.292  0.00  0.00    -0.391 OA
ATOM     21  H25 ZIN A   1      19.114  -1.586  13.972  0.00  0.00     0.210 HD
ENDBRANCH  15  20
ENDBRANCH   1  15
BRANCH  10  22
ATOM     22  N19 ZIN A   1      16.663   4.791  10.940  0.00  0.00    -0.233 N 
ATOM     23  H31 ZIN A   1      16.051   4.922  10.198  0.00  0.00     0.174 HD
ATOM     24  H32 ZIN A   1      16.653   5.405  11.690  0.00  0.00     0.174 HD
ENDBRANCH  10  22
TORSDOF 5
ENDMDL
