MODEL 1
REMARK VINA RESULT:      -6.9      0.000      0.000
REMARK  6 active torsions:
REMARK  status: ('A' for Active; 'I' for Inactive)
REMARK    1  A    between atoms: O2_2  and  C3_3 
REMARK    2  A    between atoms: C3_3  and  C5_5 
REMARK    3  A    between atoms: C14_11  and  C16_12 
REMARK    4  A    between atoms: N23_19  and  C25_21 
REMARK    5  A    between atoms: C25_21  and  C26_22 
REMARK    6  A    between atoms: C26_22  and  C27_23 
ROOT
ATOM      1  C5  ZIN A   1      17.251   0.436   9.733  0.00  0.00     0.125 C 
ATOM      2  C7  ZIN A   1      17.217  -0.656   8.653  0.00  0.00     0.203 C 
ATOM      3  C9  ZIN A   1      17.252   0.041   7.274  0.00  0.00     0.036 C 
ATOM      4  C10 ZIN A   1      18.752   0.198   6.947  0.00  0.00     0.035 C 
ATOM      5  C11 ZIN A   1      19.487  -0.420   8.160  0.00  0.00     0.189 C 
ATOM      6  C13 ZIN A   1      19.700   0.694   9.197  0.00  0.00     0.043 C 
ATOM      7  C14 ZIN A   1      18.370   1.427   9.404  0.00  0.00     0.036 C 
ATOM      8  N23 ZIN A   1      18.504  -1.398   8.736  0.00  0.00    -0.062 N 
ATOM      9  H24 ZIN A   1      18.469  -2.238   8.177  0.00  0.00     0.280 HD
ENDROOT
BRANCH   7  10
ATOM     10  C16 ZIN A   1      18.518   2.427  10.523  0.00  0.00    -0.053 A 
ATOM     11  C22 ZIN A   1      17.396   3.017  11.075  0.00  0.00     0.009 A 
ATOM     12  C21 ZIN A   1      17.531   3.929  12.105  0.00  0.00     0.019 A 
ATOM     13  C19 ZIN A   1      18.789   4.259  12.575  0.00  0.00     0.006 A 
ATOM     14  C18 ZIN A   1      19.912   3.673  12.019  0.00  0.00     0.019 A 
ATOM     15  I20 ZIN A   1      18.995   5.649  14.130  0.00  0.00    -0.045 I 
ATOM     16  C17 ZIN A   1      19.776   2.757  10.993  0.00  0.00     0.009 A 
ENDBRANCH   7  10
BRANCH   1  17
ATOM     17  C3  ZIN A   1      17.512  -0.191  11.078  0.00  0.00     0.265 C 
ATOM     18  O4  ZIN A   1      16.682  -0.914  11.579  0.00  0.00    -0.265 OA
BRANCH  17  19
ATOM     19  O2  ZIN A   1      18.665   0.051  11.720  0.00  0.00    -0.326 OA
ATOM     20  C1  ZIN A   1      18.636   0.004  13.171  0.00  0.00     0.213 C 
ENDBRANCH  17  19
ENDBRANCH   1  17
BRANCH   8  21
ATOM     21  C25 ZIN A   1      18.847  -1.718  10.128  0.00  0.00     0.238 C 
BRANCH  21  22
ATOM     22  C26 ZIN A   1      19.192  -3.203  10.240  0.00  0.00     0.059 C 
BRANCH  22  23
ATOM     23  C27 ZIN A   1      19.483  -3.551  11.701  0.00  0.00     0.223 C 
ATOM     24  F28 ZIN A   1      20.814  -3.966  11.826  0.00  0.00    -0.255 F 
ENDBRANCH  22  23
ENDBRANCH  21  22
ENDBRANCH   8  21
TORSDOF 6
ENDMDL
MODEL 2
REMARK VINA RESULT:      -6.9      3.017      5.234
REMARK  6 active torsions:
REMARK  status: ('A' for Active; 'I' for Inactive)
REMARK    1  A    between atoms: O2_2  and  C3_3 
REMARK    2  A    between atoms: C3_3  and  C5_5 
REMARK    3  A    between atoms: C14_11  and  C16_12 
REMARK    4  A    between atoms: N23_19  and  C25_21 
REMARK    5  A    between atoms: C25_21  and  C26_22 
REMARK    6  A    between atoms: C26_22  and  C27_23 
ROOT
ATOM      1  C5  ZIN A   1      19.812   2.353  11.209  0.00  0.00     0.125 C 
ATOM      2  C7  ZIN A   1      19.784   3.131  12.534  0.00  0.00     0.203 C 
ATOM      3  C9  ZIN A   1      19.148   4.512  12.258  0.00  0.00     0.036 C 
ATOM      4  C10 ZIN A   1      17.632   4.296  12.452  0.00  0.00     0.035 C 
ATOM      5  C11 ZIN A   1      17.491   2.801  12.828  0.00  0.00     0.189 C 
ATOM      6  C13 ZIN A   1      17.337   2.003  11.525  0.00  0.00     0.043 C 
ATOM      7  C14 ZIN A   1      18.433   2.444  10.549  0.00  0.00     0.036 C 
ATOM      8  N23 ZIN A   1      18.819   2.440  13.430  0.00  0.00    -0.062 N 
ATOM      9  H24 ZIN A   1      18.890   2.793  14.372  0.00  0.00     0.280 HD
ENDROOT
BRANCH   7  10
ATOM     10  C16 ZIN A   1      18.393   1.571   9.320  0.00  0.00    -0.053 A 
ATOM     11  C22 ZIN A   1      19.314   1.760   8.308  0.00  0.00     0.009 A 
ATOM     12  C21 ZIN A   1      19.281   0.956   7.184  0.00  0.00     0.019 A 
ATOM     13  C19 ZIN A   1      18.318  -0.030   7.068  0.00  0.00     0.006 A 
ATOM     14  C18 ZIN A   1      17.392  -0.215   8.079  0.00  0.00     0.019 A 
ATOM     15  I20 ZIN A   1      18.260  -1.243   5.360  0.00  0.00    -0.045 I 
ATOM     16  C17 ZIN A   1      17.430   0.585   9.205  0.00  0.00     0.009 A 
ENDBRANCH   7  10
BRANCH   1  17
ATOM     17  C3  ZIN A   1      20.149   0.910  11.477  0.00  0.00     0.265 C 
ATOM     18  O4  ZIN A   1      21.193   0.622  12.016  0.00  0.00    -0.265 OA
BRANCH  17  19
ATOM     19  O2  ZIN A   1      19.291  -0.058  11.120  0.00  0.00    -0.326 OA
ATOM     20  C1  ZIN A   1      19.832  -1.398  10.969  0.00  0.00     0.213 C 
ENDBRANCH  17  19
ENDBRANCH   1  17
BRANCH   8  21
ATOM     21  C25 ZIN A   1      19.018   0.984  13.408  0.00  0.00     0.238 C 
BRANCH  21  22
ATOM     22  C26 ZIN A   1      18.739   0.411  14.798  0.00  0.00     0.059 C 
BRANCH  22  23
ATOM     23  C27 ZIN A   1      18.653  -1.114  14.713  0.00  0.00     0.223 C 
ATOM     24  F28 ZIN A   1      19.927  -1.642  14.477  0.00  0.00    -0.255 F 
ENDBRANCH  22  23
ENDBRANCH  21  22
ENDBRANCH   8  21
TORSDOF 6
ENDMDL
MODEL 3
REMARK VINA RESULT:      -6.9      3.643      6.426
REMARK  6 active torsions:
REMARK  status: ('A' for Active; 'I' for Inactive)
REMARK    1  A    between atoms: O2_2  and  C3_3 
REMARK    2  A    between atoms: C3_3  and  C5_5 
REMARK    3  A    between atoms: C14_11  and  C16_12 
REMARK    4  A    between atoms: N23_19  and  C25_21 
REMARK    5  A    between atoms: C25_21  and  C26_22 
REMARK    6  A    between atoms: C26_22  and  C27_23 
ROOT
ATOM      1  C5  ZIN A   1      17.391  -0.348  12.856  0.00  0.00     0.125 C 
ATOM      2  C7  ZIN A   1      17.448   0.833  13.838  0.00  0.00     0.203 C 
ATOM      3  C9  ZIN A   1      17.493   0.255  15.271  0.00  0.00     0.036 C 
ATOM      4  C10 ZIN A   1      18.993   0.047  15.567  0.00  0.00     0.035 C 
ATOM      5  C11 ZIN A   1      19.719   0.518  14.285  0.00  0.00     0.189 C 
ATOM      6  C13 ZIN A   1      19.840  -0.690  13.343  0.00  0.00     0.043 C 
ATOM      7  C14 ZIN A   1      18.468  -1.366  13.239  0.00  0.00     0.036 C 
ATOM      8  N23 ZIN A   1      18.768   1.495  13.654  0.00  0.00    -0.062 N 
ATOM      9  H24 ZIN A   1      18.795   2.380  14.138  0.00  0.00     0.280 HD
ENDROOT
BRANCH   7  10
ATOM     10  C16 ZIN A   1      18.528  -2.464  12.207  0.00  0.00    -0.053 A 
ATOM     11  C22 ZIN A   1      17.361  -2.954  11.651  0.00  0.00     0.009 A 
ATOM     12  C21 ZIN A   1      17.415  -3.956  10.701  0.00  0.00     0.019 A 
ATOM     13  C19 ZIN A   1      18.637  -4.477  10.316  0.00  0.00     0.006 A 
ATOM     14  C18 ZIN A   1      19.804  -3.991  10.876  0.00  0.00     0.019 A 
ATOM     15  I20 ZIN A   1      18.720  -6.003   8.882  0.00  0.00    -0.045 I 
ATOM     16  C17 ZIN A   1      19.749  -2.985  11.822  0.00  0.00     0.009 A 
ENDBRANCH   7  10
BRANCH   1  17
ATOM     17  C3  ZIN A   1      17.639   0.148  11.455  0.00  0.00     0.265 C 
ATOM     18  O4  ZIN A   1      16.807   0.824  10.897  0.00  0.00    -0.265 OA
BRANCH  17  19
ATOM     19  O2  ZIN A   1      18.783  -0.162  10.827  0.00  0.00    -0.326 OA
ATOM     20  C1  ZIN A   1      18.729  -0.290   9.381  0.00  0.00     0.213 C 
ENDBRANCH  17  19
ENDBRANCH   1  17
BRANCH   8  21
ATOM     21  C25 ZIN A   1      19.080   1.676  12.230  0.00  0.00     0.238 C 
BRANCH  21  22
ATOM     22  C26 ZIN A   1      19.549   3.111  11.989  0.00  0.00     0.059 C 
BRANCH  22  23
ATOM     23  C27 ZIN A   1      18.589   3.806  11.023  0.00  0.00     0.223 C 
ATOM     24  F28 ZIN A   1      18.645   3.177   9.774  0.00  0.00    -0.255 F 
ENDBRANCH  22  23
ENDBRANCH  21  22
ENDBRANCH   8  21
TORSDOF 6
ENDMDL
MODEL 4
REMARK VINA RESULT:      -6.6      2.591      4.543
REMARK  6 active torsions:
REMARK  status: ('A' for Active; 'I' for Inactive)
REMARK    1  A    between atoms: O2_2  and  C3_3 
REMARK    2  A    between atoms: C3_3  and  C5_5 
REMARK    3  A    between atoms: C14_11  and  C16_12 
REMARK    4  A    between atoms: N23_19  and  C25_21 
REMARK    5  A    between atoms: C25_21  and  C26_22 
REMARK    6  A    between atoms: C26_22  and  C27_23 
ROOT
ATOM      1  C5  ZIN A   1      19.747  -2.150  11.872  0.00  0.00     0.125 C 
ATOM      2  C7  ZIN A   1      19.627  -2.949  10.565  0.00  0.00     0.203 C 
ATOM      3  C9  ZIN A   1      18.918  -4.283  10.889  0.00  0.00     0.036 C 
ATOM      4  C10 ZIN A   1      17.412  -3.977  10.740  0.00  0.00     0.035 C 
ATOM      5  C11 ZIN A   1      17.350  -2.484  10.339  0.00  0.00     0.189 C 
ATOM      6  C13 ZIN A   1      17.288  -1.654  11.630  0.00  0.00     0.043 C 
ATOM      7  C14 ZIN A   1      18.388  -2.144  12.578  0.00  0.00     0.036 C 
ATOM      8  N23 ZIN A   1      18.676  -2.216   9.687  0.00  0.00    -0.062 N 
ATOM      9  H24 ZIN A   1      18.694  -2.590   8.750  0.00  0.00     0.280 HD
ENDROOT
BRANCH   7  10
ATOM     10  C16 ZIN A   1      18.442  -1.248  13.790  0.00  0.00    -0.053 A 
ATOM     11  C22 ZIN A   1      17.538  -0.212  13.923  0.00  0.00     0.009 A 
ATOM     12  C21 ZIN A   1      17.584   0.606  15.038  0.00  0.00     0.019 A 
ATOM     13  C19 ZIN A   1      18.541   0.393  16.012  0.00  0.00     0.006 A 
ATOM     14  C18 ZIN A   1      19.450  -0.641  15.875  0.00  0.00     0.019 A 
ATOM     15  I20 ZIN A   1      18.617   1.638  17.696  0.00  0.00    -0.045 I 
ATOM     16  C17 ZIN A   1      19.400  -1.461  14.764  0.00  0.00     0.009 A 
ENDBRANCH   7  10
BRANCH   1  17
ATOM     17  C3  ZIN A   1      20.162  -0.736  11.564  0.00  0.00     0.265 C 
ATOM     18  O4  ZIN A   1      21.229  -0.520  11.038  0.00  0.00    -0.265 OA
BRANCH  17  19
ATOM     19  O2  ZIN A   1      19.348   0.286  11.873  0.00  0.00    -0.326 OA
ATOM     20  C1  ZIN A   1      19.956   1.599  12.001  0.00  0.00     0.213 C 
ENDBRANCH  17  19
ENDBRANCH   1  17
BRANCH   8  21
ATOM     21  C25 ZIN A   1      18.964  -0.775   9.673  0.00  0.00     0.238 C 
BRANCH  21  22
ATOM     22  C26 ZIN A   1      18.319  -0.138   8.441  0.00  0.00     0.059 C 
BRANCH  22  23
ATOM     23  C27 ZIN A   1      19.199   1.008   7.940  0.00  0.00     0.223 C 
ATOM     24  F28 ZIN A   1      18.949   2.156   8.700  0.00  0.00    -0.255 F 
ENDBRANCH  22  23
ENDBRANCH  21  22
ENDBRANCH   8  21
TORSDOF 6
ENDMDL
MODEL 5
REMARK VINA RESULT:      -6.4      3.799      6.110
REMARK  6 active torsions:
REMARK  status: ('A' for Active; 'I' for Inactive)
REMARK    1  A    between atoms: O2_2  and  C3_3 
REMARK    2  A    between atoms: C3_3  and  C5_5 
REMARK    3  A    between atoms: C14_11  and  C16_12 
REMARK    4  A    between atoms: N23_19  and  C25_21 
REMARK    5  A    between atoms: C25_21  and  C26_22 
REMARK    6  A    between atoms: C26_22  and  C27_23 
ROOT
ATOM      1  C5  ZIN A   1      17.535   1.506  11.921  0.00  0.00     0.125 C 
ATOM      2  C7  ZIN A   1      17.710   1.764  13.426  0.00  0.00     0.203 C 
ATOM      3  C9  ZIN A   1      17.767   0.393  14.138  0.00  0.00     0.036 C 
ATOM      4  C10 ZIN A   1      19.259  -0.001  14.119  0.00  0.00     0.035 C 
ATOM      5  C11 ZIN A   1      19.968   1.168  13.396  0.00  0.00     0.189 C 
ATOM      6  C13 ZIN A   1      19.970   0.858  11.891  0.00  0.00     0.043 C 
ATOM      7  C14 ZIN A   1      18.552   0.452  11.475  0.00  0.00     0.036 C 
ATOM      8  N23 ZIN A   1      19.065   2.348  13.617  0.00  0.00    -0.062 N 
ATOM      9  H24 ZIN A   1      19.171   2.706  14.555  0.00  0.00     0.280 HD
ENDROOT
BRANCH   7  10
ATOM     10  C16 ZIN A   1      18.496   0.285   9.977  0.00  0.00    -0.053 A 
ATOM     11  C22 ZIN A   1      19.640   0.457   9.221  0.00  0.00     0.009 A 
ATOM     12  C21 ZIN A   1      19.591   0.298   7.848  0.00  0.00     0.019 A 
ATOM     13  C19 ZIN A   1      18.394  -0.022   7.232  0.00  0.00     0.006 A 
ATOM     14  C18 ZIN A   1      17.249  -0.188   7.989  0.00  0.00     0.019 A 
ATOM     15  I20 ZIN A   1      18.316  -0.253   5.151  0.00  0.00    -0.045 I 
ATOM     16  C17 ZIN A   1      17.300  -0.034   9.362  0.00  0.00     0.009 A 
ENDBRANCH   7  10
BRANCH   1  17
ATOM     17  C3  ZIN A   1      17.765   2.784  11.158  0.00  0.00     0.265 C 
ATOM     18  O4  ZIN A   1      18.799   2.948  10.552  0.00  0.00    -0.265 OA
BRANCH  17  19
ATOM     19  O2  ZIN A   1      16.825   3.741  11.151  0.00  0.00    -0.326 OA
ATOM     20  C1  ZIN A   1      17.095   4.926  10.357  0.00  0.00     0.213 C 
ENDBRANCH  17  19
ENDBRANCH   1  17
BRANCH   8  21
ATOM     21  C25 ZIN A   1      19.337   3.401  12.628  0.00  0.00     0.238 C 
BRANCH  21  22
ATOM     22  C26 ZIN A   1      19.717   4.693  13.352  0.00  0.00     0.059 C 
BRANCH  22  23
ATOM     23  C27 ZIN A   1      18.447   5.435  13.772  0.00  0.00     0.223 C 
ATOM     24  F28 ZIN A   1      18.032   4.977  15.028  0.00  0.00    -0.255 F 
ENDBRANCH  22  23
ENDBRANCH  21  22
ENDBRANCH   8  21
TORSDOF 6
ENDMDL
MODEL 6
REMARK VINA RESULT:      -6.3      3.896      6.671
REMARK  6 active torsions:
REMARK  status: ('A' for Active; 'I' for Inactive)
REMARK    1  A    between atoms: O2_2  and  C3_3 
REMARK    2  A    between atoms: C3_3  and  C5_5 
REMARK    3  A    between atoms: C14_11  and  C16_12 
REMARK    4  A    between atoms: N23_19  and  C25_21 
REMARK    5  A    between atoms: C25_21  and  C26_22 
REMARK    6  A    between atoms: C26_22  and  C27_23 
ROOT
ATOM      1  C5  ZIN A   1      17.488  -0.269  12.839  0.00  0.00     0.125 C 
ATOM      2  C7  ZIN A   1      17.464   0.881  13.858  0.00  0.00     0.203 C 
ATOM      3  C9  ZIN A   1      17.244   0.267  15.259  0.00  0.00     0.036 C 
ATOM      4  C10 ZIN A   1      18.662  -0.051  15.779  0.00  0.00     0.035 C 
ATOM      5  C11 ZIN A   1      19.610   0.401  14.643  0.00  0.00     0.189 C 
ATOM      6  C13 ZIN A   1      19.802  -0.789  13.690  0.00  0.00     0.043 C 
ATOM      7  C14 ZIN A   1      18.424  -1.367  13.349  0.00  0.00     0.036 C 
ATOM      8  N23 ZIN A   1      18.835   1.456  13.906  0.00  0.00    -0.062 N 
ATOM      9  H24 ZIN A   1      18.841   2.324  14.419  0.00  0.00     0.280 HD
ENDROOT
BRANCH   7  10
ATOM     10  C16 ZIN A   1      18.576  -2.442  12.302  0.00  0.00    -0.053 A 
ATOM     11  C22 ZIN A   1      19.823  -2.973  12.033  0.00  0.00     0.009 A 
ATOM     12  C21 ZIN A   1      19.961  -3.962  11.077  0.00  0.00     0.019 A 
ATOM     13  C19 ZIN A   1      18.853  -4.411  10.382  0.00  0.00     0.006 A 
ATOM     14  C18 ZIN A   1      17.606  -3.875  10.647  0.00  0.00     0.019 A 
ATOM     15  I20 ZIN A   1      19.063  -5.903   8.926  0.00  0.00    -0.045 I 
ATOM     16  C17 ZIN A   1      17.468  -2.890  11.607  0.00  0.00     0.009 A 
ENDBRANCH   7  10
BRANCH   1  17
ATOM     17  C3  ZIN A   1      17.986   0.242  11.512  0.00  0.00     0.265 C 
ATOM     18  O4  ZIN A   1      19.098  -0.043  11.133  0.00  0.00    -0.265 OA
BRANCH  17  19
ATOM     19  O2  ZIN A   1      17.195   1.014  10.750  0.00  0.00    -0.326 OA
ATOM     20  C1  ZIN A   1      17.695   1.377   9.435  0.00  0.00     0.213 C 
ENDBRANCH  17  19
ENDBRANCH   1  17
BRANCH   8  21
ATOM     21  C25 ZIN A   1      19.381   1.649  12.555  0.00  0.00     0.238 C 
BRANCH  21  22
ATOM     22  C26 ZIN A   1      19.489   3.145  12.259  0.00  0.00     0.059 C 
BRANCH  22  23
ATOM     23  C27 ZIN A   1      19.217   3.940  13.537  0.00  0.00     0.223 C 
ATOM     24  F28 ZIN A   1      19.792   5.211  13.429  0.00  0.00    -0.255 F 
ENDBRANCH  22  23
ENDBRANCH  21  22
ENDBRANCH   8  21
TORSDOF 6
ENDMDL
MODEL 7
REMARK VINA RESULT:      -5.8      4.901      7.808
REMARK  6 active torsions:
REMARK  status: ('A' for Active; 'I' for Inactive)
REMARK    1  A    between atoms: O2_2  and  C3_3 
REMARK    2  A    between atoms: C3_3  and  C5_5 
REMARK    3  A    between atoms: C14_11  and  C16_12 
REMARK    4  A    between atoms: N23_19  and  C25_21 
REMARK    5  A    between atoms: C25_21  and  C26_22 
REMARK    6  A    between atoms: C26_22  and  C27_23 
ROOT
ATOM      1  C5  ZIN A   1      19.119   5.775  14.784  0.00  0.00     0.125 C 
ATOM      2  C7  ZIN A   1      18.691   6.843  15.802  0.00  0.00     0.203 C 
ATOM      3  C9  ZIN A   1      18.158   8.061  15.014  0.00  0.00     0.036 C 
ATOM      4  C10 ZIN A   1      16.656   7.775  14.811  0.00  0.00     0.035 C 
ATOM      5  C11 ZIN A   1      16.417   6.408  15.496  0.00  0.00     0.189 C 
ATOM      6  C13 ZIN A   1      16.665   5.310  14.450  0.00  0.00     0.043 C 
ATOM      7  C14 ZIN A   1      18.001   5.592  13.754  0.00  0.00     0.036 C 
ATOM      8  N23 ZIN A   1      17.505   6.311  16.527  0.00  0.00    -0.062 N 
ATOM      9  H24 ZIN A   1      17.288   6.885  17.327  0.00  0.00     0.280 HD
ENDROOT
BRANCH   7  10
ATOM     10  C16 ZIN A   1      18.336   4.449  12.829  0.00  0.00    -0.053 A 
ATOM     11  C22 ZIN A   1      19.617   4.319  12.327  0.00  0.00     0.009 A 
ATOM     12  C21 ZIN A   1      19.925   3.268  11.484  0.00  0.00     0.019 A 
ATOM     13  C19 ZIN A   1      18.949   2.354  11.133  0.00  0.00     0.006 A 
ATOM     14  C18 ZIN A   1      17.665   2.488  11.631  0.00  0.00     0.019 A 
ATOM     15  I20 ZIN A   1      19.413   0.766   9.847  0.00  0.00    -0.045 I 
ATOM     16  C17 ZIN A   1      17.359   3.535  12.479  0.00  0.00     0.009 A 
ENDBRANCH   7  10
BRANCH   1  17
ATOM     17  C3  ZIN A   1      19.369   4.470  15.495  0.00  0.00     0.265 C 
ATOM     18  O4  ZIN A   1      20.296   4.369  16.264  0.00  0.00    -0.265 OA
BRANCH  17  19
ATOM     19  O2  ZIN A   1      18.562   3.421  15.276  0.00  0.00    -0.326 OA
ATOM     20  C1  ZIN A   1      19.135   2.098  15.455  0.00  0.00     0.213 C 
ENDBRANCH  17  19
ENDBRANCH   1  17
BRANCH   8  21
ATOM     21  C25 ZIN A   1      17.710   4.914  16.932  0.00  0.00     0.238 C 
BRANCH  21  22
ATOM     22  C26 ZIN A   1      17.322   4.748  18.402  0.00  0.00     0.059 C 
BRANCH  22  23
ATOM     23  C27 ZIN A   1      17.709   3.346  18.877  0.00  0.00     0.223 C 
ATOM     24  F28 ZIN A   1      19.103   3.233  18.912  0.00  0.00    -0.255 F 
ENDBRANCH  22  23
ENDBRANCH  21  22
ENDBRANCH   8  21
TORSDOF 6
ENDMDL
MODEL 8
REMARK VINA RESULT:      -5.6      2.431      3.516
REMARK  6 active torsions:
REMARK  status: ('A' for Active; 'I' for Inactive)
REMARK    1  A    between atoms: O2_2  and  C3_3 
REMARK    2  A    between atoms: C3_3  and  C5_5 
REMARK    3  A    between atoms: C14_11  and  C16_12 
REMARK    4  A    between atoms: N23_19  and  C25_21 
REMARK    5  A    between atoms: C25_21  and  C26_22 
REMARK    6  A    between atoms: C26_22  and  C27_23 
ROOT
ATOM      1  C5  ZIN A   1      17.503   2.360  12.420  0.00  0.00     0.125 C 
ATOM      2  C7  ZIN A   1      17.861   1.197  11.482  0.00  0.00     0.203 C 
ATOM      3  C9  ZIN A   1      17.779   1.719  10.029  0.00  0.00     0.036 C 
ATOM      4  C10 ZIN A   1      19.184   2.280   9.730  0.00  0.00     0.035 C 
ATOM      5  C11 ZIN A   1      19.989   2.047  11.030  0.00  0.00     0.189 C 
ATOM      6  C13 ZIN A   1      19.797   3.279  11.928  0.00  0.00     0.043 C 
ATOM      7  C14 ZIN A   1      18.300   3.600  12.004  0.00  0.00     0.036 C 
ATOM      8  N23 ZIN A   1      19.301   0.888  11.693  0.00  0.00    -0.062 N 
ATOM      9  H24 ZIN A   1      19.551   0.021  11.242  0.00  0.00     0.280 HD
ENDROOT
BRANCH   7  10
ATOM     10  C16 ZIN A   1      18.075   4.713  12.995  0.00  0.00    -0.053 A 
ATOM     11  C22 ZIN A   1      16.789   5.118  13.299  0.00  0.00     0.009 A 
ATOM     12  C21 ZIN A   1      16.582   6.135  14.213  0.00  0.00     0.019 A 
ATOM     13  C19 ZIN A   1      17.663   6.754  14.813  0.00  0.00     0.006 A 
ATOM     14  C18 ZIN A   1      18.950   6.353  14.504  0.00  0.00     0.019 A 
ATOM     15  I20 ZIN A   1      17.351   8.303  16.190  0.00  0.00    -0.045 I 
ATOM     16  C17 ZIN A   1      19.156   5.333  13.595  0.00  0.00     0.009 A 
ENDBRANCH   7  10
BRANCH   1  17
ATOM     17  C3  ZIN A   1      17.850   1.991  13.839  0.00  0.00     0.265 C 
ATOM     18  O4  ZIN A   1      17.262   1.089  14.389  0.00  0.00    -0.265 OA
BRANCH  17  19
ATOM     19  O2  ZIN A   1      18.811   2.661  14.492  0.00  0.00    -0.326 OA
ATOM     20  C1  ZIN A   1      18.763   2.636  15.944  0.00  0.00     0.213 C 
ENDBRANCH  17  19
ENDBRANCH   1  17
BRANCH   8  21
ATOM     21  C25 ZIN A   1      19.632   0.840  13.124  0.00  0.00     0.238 C 
BRANCH  21  22
ATOM     22  C26 ZIN A   1      20.196  -0.539  13.470  0.00  0.00     0.059 C 
BRANCH  22  23
ATOM     23  C27 ZIN A   1      19.163  -1.614  13.127  0.00  0.00     0.223 C 
ATOM     24  F28 ZIN A   1      19.819  -2.770  12.691  0.00  0.00    -0.255 F 
ENDBRANCH  22  23
ENDBRANCH  21  22
ENDBRANCH   8  21
TORSDOF 6
ENDMDL
MODEL 9
REMARK VINA RESULT:      -5.3      2.586      4.302
REMARK  6 active torsions:
REMARK  status: ('A' for Active; 'I' for Inactive)
REMARK    1  A    between atoms: O2_2  and  C3_3 
REMARK    2  A    between atoms: C3_3  and  C5_5 
REMARK    3  A    between atoms: C14_11  and  C16_12 
REMARK    4  A    between atoms: N23_19  and  C25_21 
REMARK    5  A    between atoms: C25_21  and  C26_22 
REMARK    6  A    between atoms: C26_22  and  C27_23 
ROOT
ATOM      1  C5  ZIN A   1      19.714  -2.182  11.293  0.00  0.00     0.125 C 
ATOM      2  C7  ZIN A   1      19.639  -3.459  10.441  0.00  0.00     0.203 C 
ATOM      3  C9  ZIN A   1      19.667  -4.670  11.401  0.00  0.00     0.036 C 
ATOM      4  C10 ZIN A   1      18.188  -4.925  11.761  0.00  0.00     0.035 C 
ATOM      5  C11 ZIN A   1      17.400  -3.843  10.985  0.00  0.00     0.189 C 
ATOM      6  C13 ZIN A   1      17.301  -2.600  11.883  0.00  0.00     0.043 C 
ATOM      7  C14 ZIN A   1      18.696  -2.281  12.431  0.00  0.00     0.036 C 
ATOM      8  N23 ZIN A   1      18.286  -3.496   9.823  0.00  0.00    -0.062 N 
ATOM      9  H24 ZIN A   1      18.237  -4.212   9.113  0.00  0.00     0.280 HD
ENDROOT
BRANCH   7  10
ATOM     10  C16 ZIN A   1      18.650  -0.982  13.196  0.00  0.00    -0.053 A 
ATOM     11  C22 ZIN A   1      19.795  -0.492  13.794  0.00  0.00     0.009 A 
ATOM     12  C21 ZIN A   1      19.754   0.702  14.490  0.00  0.00     0.019 A 
ATOM     13  C19 ZIN A   1      18.565   1.399  14.596  0.00  0.00     0.006 A 
ATOM     14  C18 ZIN A   1      17.418   0.905  14.002  0.00  0.00     0.019 A 
ATOM     15  I20 ZIN A   1      18.500   3.204  15.658  0.00  0.00    -0.045 I 
ATOM     16  C17 ZIN A   1      17.461  -0.285  13.302  0.00  0.00     0.009 A 
ENDBRANCH   7  10
BRANCH   1  17
ATOM     17  C3  ZIN A   1      19.398  -0.984  10.436  0.00  0.00     0.265 C 
ATOM     18  O4  ZIN A   1      18.311  -0.460  10.507  0.00  0.00    -0.265 OA
BRANCH  17  19
ATOM     19  O2  ZIN A   1      20.322  -0.498   9.593  0.00  0.00    -0.326 OA
ATOM     20  C1  ZIN A   1      19.985   0.716   8.872  0.00  0.00     0.213 C 
ENDBRANCH  17  19
ENDBRANCH   1  17
BRANCH   8  21
ATOM     21  C25 ZIN A   1      17.918  -2.188   9.264  0.00  0.00     0.238 C 
BRANCH  21  22
ATOM     22  C26 ZIN A   1      17.859  -2.284   7.739  0.00  0.00     0.059 C 
BRANCH  22  23
ATOM     23  C27 ZIN A   1      18.460  -3.616   7.287  0.00  0.00     0.223 C 
ATOM     24  F28 ZIN A   1      19.609  -3.375   6.526  0.00  0.00    -0.255 F 
ENDBRANCH  22  23
ENDBRANCH  21  22
ENDBRANCH   8  21
TORSDOF 6
ENDMDL
