MODEL 1
REMARK VINA RESULT:      -8.0      0.000      0.000
REMARK  5 active torsions:
REMARK  status: ('A' for Active; 'I' for Inactive)
REMARK    1  A    between atoms: N2_2  and  C4_4 
REMARK    2  A    between atoms: N2_2  and  C13_13 
REMARK    3  A    between atoms: C4_4  and  C5_5 
REMARK    4  A    between atoms: C6_6  and  C7_7 
REMARK    5  A    between atoms: C13_13  and  C14_14 
ROOT
ATOM      1  C1  ZIN A   1      18.015  -3.802  10.503  0.00  0.00     0.270 C 
ATOM      2  N2  ZIN A   1      18.724  -2.517  10.572  0.00  0.00    -0.068 N 
ATOM      3  H3  ZIN A   1      19.262  -2.383   9.729  0.00  0.00     0.280 HD
ENDROOT
BRANCH   2   4
ATOM      4  C4  ZIN A   1      19.627  -2.518  11.733  0.00  0.00     0.262 C 
BRANCH   4   5
ATOM      5  C5  ZIN A   1      18.911  -1.938  12.925  0.00  0.00     0.001 C 
ATOM      6  C6  ZIN A   1      19.590  -1.266  13.844  0.00  0.00     0.009 C 
BRANCH   6   7
ATOM      7  C7  ZIN A   1      18.889  -0.696  15.014  0.00  0.00    -0.036 A 
ATOM      8  C12 ZIN A   1      18.977   0.668  15.287  0.00  0.00     0.011 A 
ATOM      9  C11 ZIN A   1      18.314   1.195  16.377  0.00  0.00     0.001 A 
ATOM     10  C10 ZIN A   1      17.572   0.370  17.204  0.00  0.00     0.000 A 
ATOM     11  C9  ZIN A   1      17.487  -0.986  16.941  0.00  0.00     0.001 A 
ATOM     12  C8  ZIN A   1      18.140  -1.523  15.851  0.00  0.00     0.011 A 
ENDBRANCH   6   7
ENDBRANCH   4   5
ENDBRANCH   2   4
BRANCH   2  13
ATOM     13  C13 ZIN A   1      17.751  -1.427  10.711  0.00  0.00     0.274 C 
BRANCH  13  14
ATOM     14  C14 ZIN A   1      18.181  -0.257   9.863  0.00  0.00    -0.021 A 
ATOM     15  C23 ZIN A   1      18.639  -0.462   8.598  0.00  0.00     0.010 A 
ATOM     16  C22 ZIN A   1      19.037   0.606   7.797  0.00  0.00     0.002 A 
ATOM     17  C21 ZIN A   1      18.990   1.886   8.260  0.00  0.00     0.012 A 
ATOM     18  C20 ZIN A   1      18.530   2.135   9.564  0.00  0.00    -0.025 A 
ATOM     19  C15 ZIN A   1      18.120   1.049  10.377  0.00  0.00    -0.018 A 
ATOM     20  C19 ZIN A   1      18.467   3.442  10.079  0.00  0.00     0.012 A 
ATOM     21  C16 ZIN A   1      17.660   1.298  11.682  0.00  0.00     0.013 A 
ATOM     22  C17 ZIN A   1      17.614   2.577  12.146  0.00  0.00     0.001 A 
ATOM     23  C18 ZIN A   1      18.016   3.645  11.346  0.00  0.00     0.001 A 
ENDBRANCH  13  14
ENDBRANCH   2  13
TORSDOF 5
ENDMDL
MODEL 2
REMARK VINA RESULT:      -8.0      2.153      6.982
REMARK  5 active torsions:
REMARK  status: ('A' for Active; 'I' for Inactive)
REMARK    1  A    between atoms: N2_2  and  C4_4 
REMARK    2  A    between atoms: N2_2  and  C13_13 
REMARK    3  A    between atoms: C4_4  and  C5_5 
REMARK    4  A    between atoms: C6_6  and  C7_7 
REMARK    5  A    between atoms: C13_13  and  C14_14 
ROOT
ATOM      1  C1  ZIN A   1      19.627   4.462  13.723  0.00  0.00     0.270 C 
ATOM      2  N2  ZIN A   1      18.661   3.500  13.176  0.00  0.00    -0.068 N 
ATOM      3  H3  ZIN A   1      19.156   2.724  12.761  0.00  0.00     0.280 HD
ENDROOT
BRANCH   2   4
ATOM      4  C4  ZIN A   1      17.841   4.160  12.150  0.00  0.00     0.262 C 
BRANCH   4   5
ATOM      5  C5  ZIN A   1      17.631   3.218  10.993  0.00  0.00     0.001 C 
ATOM      6  C6  ZIN A   1      18.673   2.638  10.414  0.00  0.00     0.009 C 
BRANCH   6   7
ATOM      7  C7  ZIN A   1      18.468   1.713   9.278  0.00  0.00    -0.036 A 
ATOM      8  C12 ZIN A   1      19.125   1.934   8.068  0.00  0.00     0.011 A 
ATOM      9  C11 ZIN A   1      18.935   1.064   7.014  0.00  0.00     0.001 A 
ATOM     10  C10 ZIN A   1      18.086  -0.019   7.153  0.00  0.00     0.000 A 
ATOM     11  C9  ZIN A   1      17.427  -0.240   8.349  0.00  0.00     0.001 A 
ATOM     12  C8  ZIN A   1      17.613   0.619   9.411  0.00  0.00     0.011 A 
ENDBRANCH   6   7
ENDBRANCH   4   5
ENDBRANCH   2   4
BRANCH   2  13
ATOM     13  C13 ZIN A   1      17.794   3.009  14.254  0.00  0.00     0.274 C 
BRANCH  13  14
ATOM     14  C14 ZIN A   1      18.019   1.531  14.447  0.00  0.00    -0.021 A 
ATOM     15  C23 ZIN A   1      17.788   0.665  13.423  0.00  0.00     0.010 A 
ATOM     16  C22 ZIN A   1      17.996  -0.704  13.581  0.00  0.00     0.002 A 
ATOM     17  C21 ZIN A   1      18.426  -1.216  14.767  0.00  0.00     0.012 A 
ATOM     18  C20 ZIN A   1      18.668  -0.353  15.848  0.00  0.00    -0.025 A 
ATOM     19  C15 ZIN A   1      18.462   1.039  15.686  0.00  0.00    -0.018 A 
ATOM     20  C19 ZIN A   1      19.112  -0.844  17.089  0.00  0.00     0.012 A 
ATOM     21  C16 ZIN A   1      18.704   1.904  16.769  0.00  0.00     0.013 A 
ATOM     22  C17 ZIN A   1      19.133   1.392  17.955  0.00  0.00     0.001 A 
ATOM     23  C18 ZIN A   1      19.337   0.022  18.114  0.00  0.00     0.001 A 
ENDBRANCH  13  14
ENDBRANCH   2  13
TORSDOF 5
ENDMDL
MODEL 3
REMARK VINA RESULT:      -8.0      2.184      7.037
REMARK  5 active torsions:
REMARK  status: ('A' for Active; 'I' for Inactive)
REMARK    1  A    between atoms: N2_2  and  C4_4 
REMARK    2  A    between atoms: N2_2  and  C13_13 
REMARK    3  A    between atoms: C4_4  and  C5_5 
REMARK    4  A    between atoms: C6_6  and  C7_7 
REMARK    5  A    between atoms: C13_13  and  C14_14 
ROOT
ATOM      1  C1  ZIN A   1      19.578   4.614  14.060  0.00  0.00     0.270 C 
ATOM      2  N2  ZIN A   1      18.697   3.651  13.386  0.00  0.00    -0.068 N 
ATOM      3  H3  ZIN A   1      19.251   2.902  12.998  0.00  0.00     0.280 HD
ENDROOT
BRANCH   2   4
ATOM      4  C4  ZIN A   1      17.966   4.329  12.306  0.00  0.00     0.262 C 
BRANCH   4   5
ATOM      5  C5  ZIN A   1      17.722   3.358  11.180  0.00  0.00     0.001 C 
ATOM      6  C6  ZIN A   1      18.747   2.799  10.551  0.00  0.00     0.009 C 
BRANCH   6   7
ATOM      7  C7  ZIN A   1      18.508   1.847   9.446  0.00  0.00    -0.036 A 
ATOM      8  C12 ZIN A   1      17.625   0.781   9.620  0.00  0.00     0.011 A 
ATOM      9  C11 ZIN A   1      17.400  -0.101   8.582  0.00  0.00     0.001 A 
ATOM     10  C10 ZIN A   1      18.057   0.064   7.376  0.00  0.00     0.000 A 
ATOM     11  C9  ZIN A   1      18.939   1.116   7.201  0.00  0.00     0.001 A 
ATOM     12  C8  ZIN A   1      19.167   2.007   8.228  0.00  0.00     0.011 A 
ENDBRANCH   6   7
ENDBRANCH   4   5
ENDBRANCH   2   4
BRANCH   2  13
ATOM     13  C13 ZIN A   1      17.739   3.102  14.354  0.00  0.00     0.274 C 
BRANCH  13  14
ATOM     14  C14 ZIN A   1      17.978   1.622  14.514  0.00  0.00    -0.021 A 
ATOM     15  C23 ZIN A   1      17.747   0.775  13.474  0.00  0.00     0.010 A 
ATOM     16  C22 ZIN A   1      17.968  -0.595  13.601  0.00  0.00     0.002 A 
ATOM     17  C21 ZIN A   1      18.411  -1.128  14.773  0.00  0.00     0.012 A 
ATOM     18  C20 ZIN A   1      18.653  -0.286  15.871  0.00  0.00    -0.025 A 
ATOM     19  C15 ZIN A   1      18.434   1.108  15.740  0.00  0.00    -0.018 A 
ATOM     20  C19 ZIN A   1      19.111  -0.798  17.097  0.00  0.00     0.012 A 
ATOM     21  C16 ZIN A   1      18.677   1.952  16.838  0.00  0.00     0.013 A 
ATOM     22  C17 ZIN A   1      19.118   1.419  18.010  0.00  0.00     0.001 A 
ATOM     23  C18 ZIN A   1      19.335   0.048  18.139  0.00  0.00     0.001 A 
ENDBRANCH  13  14
ENDBRANCH   2  13
TORSDOF 5
ENDMDL
MODEL 4
REMARK VINA RESULT:      -8.0      2.553      5.474
REMARK  5 active torsions:
REMARK  status: ('A' for Active; 'I' for Inactive)
REMARK    1  A    between atoms: N2_2  and  C4_4 
REMARK    2  A    between atoms: N2_2  and  C13_13 
REMARK    3  A    between atoms: C4_4  and  C5_5 
REMARK    4  A    between atoms: C6_6  and  C7_7 
REMARK    5  A    between atoms: C13_13  and  C14_14 
ROOT
ATOM      1  C1  ZIN A   1      18.152   4.149  17.362  0.00  0.00     0.270 C 
ATOM      2  N2  ZIN A   1      18.219   3.342  16.136  0.00  0.00    -0.068 N 
ATOM      3  H3  ZIN A   1      17.285   3.186  15.784  0.00  0.00     0.280 HD
ENDROOT
BRANCH   2   4
ATOM      4  C4  ZIN A   1      18.850   2.049  16.435  0.00  0.00     0.262 C 
BRANCH   4   5
ATOM      5  C5  ZIN A   1      18.840   1.188  15.199  0.00  0.00     0.001 C 
ATOM      6  C6  ZIN A   1      17.691   0.732  14.718  0.00  0.00     0.009 C 
BRANCH   6   7
ATOM      7  C7  ZIN A   1      17.681  -0.113  13.505  0.00  0.00    -0.036 A 
ATOM      8  C12 ZIN A   1      18.348  -1.337  13.499  0.00  0.00     0.011 A 
ATOM      9  C11 ZIN A   1      18.328  -2.125  12.366  0.00  0.00     0.001 A 
ATOM     10  C10 ZIN A   1      17.658  -1.697  11.234  0.00  0.00     0.000 A 
ATOM     11  C9  ZIN A   1      17.000  -0.480  11.232  0.00  0.00     0.001 A 
ATOM     12  C8  ZIN A   1      17.007   0.313  12.360  0.00  0.00     0.011 A 
ENDBRANCH   6   7
ENDBRANCH   4   5
ENDBRANCH   2   4
BRANCH   2  13
ATOM     13  C13 ZIN A   1      19.012   4.051  15.124  0.00  0.00     0.274 C 
BRANCH  13  14
ATOM     14  C14 ZIN A   1      18.122   4.445  13.973  0.00  0.00    -0.021 A 
ATOM     15  C23 ZIN A   1      17.072   5.286  14.177  0.00  0.00     0.010 A 
ATOM     16  C22 ZIN A   1      16.242   5.665  13.124  0.00  0.00     0.002 A 
ATOM     17  C21 ZIN A   1      16.450   5.197  11.863  0.00  0.00     0.012 A 
ATOM     18  C20 ZIN A   1      17.520   4.322  11.615  0.00  0.00    -0.025 A 
ATOM     19  C15 ZIN A   1      18.368   3.940  12.685  0.00  0.00    -0.018 A 
ATOM     20  C19 ZIN A   1      17.768   3.817  10.327  0.00  0.00     0.012 A 
ATOM     21  C16 ZIN A   1      19.439   3.064  12.438  0.00  0.00     0.013 A 
ATOM     22  C17 ZIN A   1      19.647   2.595  11.177  0.00  0.00     0.001 A 
ATOM     23  C18 ZIN A   1      18.814   2.971  10.125  0.00  0.00     0.001 A 
ENDBRANCH  13  14
ENDBRANCH   2  13
TORSDOF 5
ENDMDL
MODEL 5
REMARK VINA RESULT:      -7.8      2.355      7.250
REMARK  5 active torsions:
REMARK  status: ('A' for Active; 'I' for Inactive)
REMARK    1  A    between atoms: N2_2  and  C4_4 
REMARK    2  A    between atoms: N2_2  and  C13_13 
REMARK    3  A    between atoms: C4_4  and  C5_5 
REMARK    4  A    between atoms: C6_6  and  C7_7 
REMARK    5  A    between atoms: C13_13  and  C14_14 
ROOT
ATOM      1  C1  ZIN A   1      20.059   5.551  14.898  0.00  0.00     0.270 C 
ATOM      2  N2  ZIN A   1      19.727   4.360  14.104  0.00  0.00    -0.068 N 
ATOM      3  H3  ZIN A   1      20.458   3.671  14.210  0.00  0.00     0.280 HD
ENDROOT
BRANCH   2   4
ATOM      4  C4  ZIN A   1      19.609   4.733  12.687  0.00  0.00     0.262 C 
BRANCH   4   5
ATOM      5  C5  ZIN A   1      19.399   3.493  11.858  0.00  0.00     0.001 C 
ATOM      6  C6  ZIN A   1      18.614   3.535  10.790  0.00  0.00     0.009 C 
BRANCH   6   7
ATOM      7  C7  ZIN A   1      18.408   2.318   9.976  0.00  0.00    -0.036 A 
ATOM      8  C12 ZIN A   1      19.016   2.200   8.727  0.00  0.00     0.011 A 
ATOM      9  C11 ZIN A   1      18.825   1.059   7.975  0.00  0.00     0.001 A 
ATOM     10  C10 ZIN A   1      18.023   0.038   8.453  0.00  0.00     0.000 A 
ATOM     11  C9  ZIN A   1      17.412   0.153   9.689  0.00  0.00     0.001 A 
ATOM     12  C8  ZIN A   1      17.600   1.285  10.452  0.00  0.00     0.011 A 
ENDBRANCH   6   7
ENDBRANCH   4   5
ENDBRANCH   2   4
BRANCH   2  13
ATOM     13  C13 ZIN A   1      18.453   3.799  14.570  0.00  0.00     0.274 C 
BRANCH  13  14
ATOM     14  C14 ZIN A   1      18.717   2.778  15.647  0.00  0.00    -0.021 A 
ATOM     15  C23 ZIN A   1      19.033   3.182  16.908  0.00  0.00     0.010 A 
ATOM     16  C22 ZIN A   1      19.275   2.253  17.919  0.00  0.00     0.002 A 
ATOM     17  C21 ZIN A   1      19.214   0.916  17.672  0.00  0.00     0.012 A 
ATOM     18  C20 ZIN A   1      18.897   0.462  16.380  0.00  0.00    -0.025 A 
ATOM     19  C15 ZIN A   1      18.646   1.406  15.354  0.00  0.00    -0.018 A 
ATOM     20  C19 ZIN A   1      18.824  -0.911  16.086  0.00  0.00     0.012 A 
ATOM     21  C16 ZIN A   1      18.329   0.953  14.061  0.00  0.00     0.013 A 
ATOM     22  C17 ZIN A   1      18.269  -0.384  13.814  0.00  0.00     0.001 A 
ATOM     23  C18 ZIN A   1      18.515  -1.313  14.824  0.00  0.00     0.001 A 
ENDBRANCH  13  14
ENDBRANCH   2  13
TORSDOF 5
ENDMDL
MODEL 6
REMARK VINA RESULT:      -7.8      1.867      7.070
REMARK  5 active torsions:
REMARK  status: ('A' for Active; 'I' for Inactive)
REMARK    1  A    between atoms: N2_2  and  C4_4 
REMARK    2  A    between atoms: N2_2  and  C13_13 
REMARK    3  A    between atoms: C4_4  and  C5_5 
REMARK    4  A    between atoms: C6_6  and  C7_7 
REMARK    5  A    between atoms: C13_13  and  C14_14 
ROOT
ATOM      1  C1  ZIN A   1      20.047   3.480  11.845  0.00  0.00     0.270 C 
ATOM      2  N2  ZIN A   1      19.211   2.449  11.215  0.00  0.00    -0.068 N 
ATOM      3  H3  ZIN A   1      19.796   1.689  10.899  0.00  0.00     0.280 HD
ENDROOT
BRANCH   2   4
ATOM      4  C4  ZIN A   1      18.501   3.029  10.066  0.00  0.00     0.262 C 
BRANCH   4   5
ATOM      5  C5  ZIN A   1      18.866   2.271   8.816  0.00  0.00     0.001 C 
ATOM      6  C6  ZIN A   1      18.370   1.059   8.607  0.00  0.00     0.009 C 
BRANCH   6   7
ATOM      7  C7  ZIN A   1      18.728   0.315   7.380  0.00  0.00    -0.036 A 
ATOM      8  C12 ZIN A   1      18.875  -1.071   7.421  0.00  0.00     0.011 A 
ATOM      9  C11 ZIN A   1      19.203  -1.761   6.271  0.00  0.00     0.001 A 
ATOM     10  C10 ZIN A   1      19.396  -1.079   5.083  0.00  0.00     0.000 A 
ATOM     11  C9  ZIN A   1      19.258   0.297   5.039  0.00  0.00     0.001 A 
ATOM     12  C8  ZIN A   1      18.925   0.997   6.180  0.00  0.00     0.011 A 
ENDBRANCH   6   7
ENDBRANCH   4   5
ENDBRANCH   2   4
BRANCH   2  13
ATOM     13  C13 ZIN A   1      18.236   1.945  12.189  0.00  0.00     0.274 C 
BRANCH  13  14
ATOM     14  C14 ZIN A   1      18.609   0.541  12.594  0.00  0.00    -0.021 A 
ATOM     15  C23 ZIN A   1      19.148  -0.313  11.681  0.00  0.00     0.010 A 
ATOM     16  C22 ZIN A   1      19.503  -1.612  12.037  0.00  0.00     0.002 A 
ATOM     17  C21 ZIN A   1      19.312  -2.069  13.306  0.00  0.00     0.012 A 
ATOM     18  C20 ZIN A   1      18.751  -1.219  14.273  0.00  0.00    -0.025 A 
ATOM     19  C15 ZIN A   1      18.395   0.105  13.912  0.00  0.00    -0.018 A 
ATOM     20  C19 ZIN A   1      18.538  -1.654  15.592  0.00  0.00     0.012 A 
ATOM     21  C16 ZIN A   1      17.834   0.956  14.880  0.00  0.00     0.013 A 
ATOM     22  C17 ZIN A   1      17.641   0.500  16.147  0.00  0.00     0.001 A 
ATOM     23  C18 ZIN A   1      17.993  -0.802  16.503  0.00  0.00     0.001 A 
ENDBRANCH  13  14
ENDBRANCH   2  13
TORSDOF 5
ENDMDL
MODEL 7
REMARK VINA RESULT:      -7.7      1.787      4.847
REMARK  5 active torsions:
REMARK  status: ('A' for Active; 'I' for Inactive)
REMARK    1  A    between atoms: N2_2  and  C4_4 
REMARK    2  A    between atoms: N2_2  and  C13_13 
REMARK    3  A    between atoms: C4_4  and  C5_5 
REMARK    4  A    between atoms: C6_6  and  C7_7 
REMARK    5  A    between atoms: C13_13  and  C14_14 
ROOT
ATOM      1  C1  ZIN A   1      18.754   2.098  15.571  0.00  0.00     0.270 C 
ATOM      2  N2  ZIN A   1      18.301   1.435  14.341  0.00  0.00    -0.068 N 
ATOM      3  H3  ZIN A   1      17.511   1.934  13.960  0.00  0.00     0.280 HD
ENDROOT
BRANCH   2   4
ATOM      4  C4  ZIN A   1      17.905   0.053  14.647  0.00  0.00     0.262 C 
BRANCH   4   5
ATOM      5  C5  ZIN A   1      17.954  -0.773  13.388  0.00  0.00     0.001 C 
ATOM      6  C6  ZIN A   1      18.595  -1.934  13.382  0.00  0.00     0.009 C 
BRANCH   6   7
ATOM      7  C7  ZIN A   1      18.644  -2.746  12.147  0.00  0.00    -0.036 A 
ATOM      8  C12 ZIN A   1      17.526  -2.825  11.317  0.00  0.00     0.011 A 
ATOM      9  C11 ZIN A   1      17.581  -3.578  10.161  0.00  0.00     0.001 A 
ATOM     10  C10 ZIN A   1      18.737  -4.262   9.833  0.00  0.00     0.000 A 
ATOM     11  C9  ZIN A   1      19.846  -4.193  10.656  0.00  0.00     0.001 A 
ATOM     12  C8  ZIN A   1      19.806  -3.439  11.810  0.00  0.00     0.011 A 
ENDBRANCH   6   7
ENDBRANCH   4   5
ENDBRANCH   2   4
BRANCH   2  13
ATOM     13  C13 ZIN A   1      19.394   1.424  13.359  0.00  0.00     0.274 C 
BRANCH  13  14
ATOM     14  C14 ZIN A   1      18.981   2.210  12.140  0.00  0.00    -0.021 A 
ATOM     15  C23 ZIN A   1      18.431   3.447  12.278  0.00  0.00     0.010 A 
ATOM     16  C22 ZIN A   1      18.049   4.190  11.163  0.00  0.00     0.002 A 
ATOM     17  C21 ZIN A   1      18.204   3.696   9.904  0.00  0.00     0.012 A 
ATOM     18  C20 ZIN A   1      18.762   2.419   9.723  0.00  0.00    -0.025 A 
ATOM     19  C15 ZIN A   1      19.156   1.666  10.857  0.00  0.00    -0.018 A 
ATOM     20  C19 ZIN A   1      18.939   1.875   8.439  0.00  0.00     0.012 A 
ATOM     21  C16 ZIN A   1      19.715   0.388  10.676  0.00  0.00     0.013 A 
ATOM     22  C17 ZIN A   1      19.869  -0.107   9.418  0.00  0.00     0.001 A 
ATOM     23  C18 ZIN A   1      19.483   0.635   8.302  0.00  0.00     0.001 A 
ENDBRANCH  13  14
ENDBRANCH   2  13
TORSDOF 5
ENDMDL
MODEL 8
REMARK VINA RESULT:      -7.6      1.253      3.061
REMARK  5 active torsions:
REMARK  status: ('A' for Active; 'I' for Inactive)
REMARK    1  A    between atoms: N2_2  and  C4_4 
REMARK    2  A    between atoms: N2_2  and  C13_13 
REMARK    3  A    between atoms: C4_4  and  C5_5 
REMARK    4  A    between atoms: C6_6  and  C7_7 
REMARK    5  A    between atoms: C13_13  and  C14_14 
ROOT
ATOM      1  C1  ZIN A   1      19.666  -2.606  11.054  0.00  0.00     0.270 C 
ATOM      2  N2  ZIN A   1      18.860  -1.531  11.647  0.00  0.00    -0.068 N 
ATOM      3  H3  ZIN A   1      19.452  -0.740  11.851  0.00  0.00     0.280 HD
ENDROOT
BRANCH   2   4
ATOM      4  C4  ZIN A   1      18.241  -2.012  12.891  0.00  0.00     0.262 C 
BRANCH   4   5
ATOM      5  C5  ZIN A   1      18.348  -0.945  13.949  0.00  0.00     0.001 C 
ATOM      6  C6  ZIN A   1      18.776  -1.258  15.165  0.00  0.00     0.009 C 
BRANCH   6   7
ATOM      7  C7  ZIN A   1      18.881  -0.211  16.204  0.00  0.00    -0.036 A 
ATOM      8  C12 ZIN A   1      18.966  -0.567  17.549  0.00  0.00     0.011 A 
ATOM      9  C11 ZIN A   1      19.071   0.414  18.514  0.00  0.00     0.001 A 
ATOM     10  C10 ZIN A   1      19.081   1.748  18.149  0.00  0.00     0.000 A 
ATOM     11  C9  ZIN A   1      18.990   2.107  16.816  0.00  0.00     0.001 A 
ATOM     12  C8  ZIN A   1      18.891   1.136  15.843  0.00  0.00     0.011 A 
ENDBRANCH   6   7
ENDBRANCH   4   5
ENDBRANCH   2   4
BRANCH   2  13
ATOM     13  C13 ZIN A   1      17.810  -1.128  10.703  0.00  0.00     0.274 C 
BRANCH  13  14
ATOM     14  C14 ZIN A   1      18.254   0.102   9.953  0.00  0.00    -0.021 A 
ATOM     15  C23 ZIN A   1      18.541   1.249  10.628  0.00  0.00     0.010 A 
ATOM     16  C22 ZIN A   1      18.958   2.394   9.952  0.00  0.00     0.002 A 
ATOM     17  C21 ZIN A   1      19.081   2.403   8.596  0.00  0.00     0.012 A 
ATOM     18  C20 ZIN A   1      18.787   1.240   7.865  0.00  0.00    -0.025 A 
ATOM     19  C15 ZIN A   1      18.368   0.073   8.553  0.00  0.00    -0.018 A 
ATOM     20  C19 ZIN A   1      18.902   1.209   6.465  0.00  0.00     0.012 A 
ATOM     21  C16 ZIN A   1      18.074  -1.091   7.821  0.00  0.00     0.013 A 
ATOM     22  C17 ZIN A   1      18.195  -1.082   6.466  0.00  0.00     0.001 A 
ATOM     23  C18 ZIN A   1      18.609   0.065   5.790  0.00  0.00     0.001 A 
ENDBRANCH  13  14
ENDBRANCH   2  13
TORSDOF 5
ENDMDL
MODEL 9
REMARK VINA RESULT:      -7.4      2.137      4.420
REMARK  5 active torsions:
REMARK  status: ('A' for Active; 'I' for Inactive)
REMARK    1  A    between atoms: N2_2  and  C4_4 
REMARK    2  A    between atoms: N2_2  and  C13_13 
REMARK    3  A    between atoms: C4_4  and  C5_5 
REMARK    4  A    between atoms: C6_6  and  C7_7 
REMARK    5  A    between atoms: C13_13  and  C14_14 
ROOT
ATOM      1  C1  ZIN A   1      16.739   5.003  11.888  0.00  0.00     0.270 C 
ATOM      2  N2  ZIN A   1      17.623   3.927  12.357  0.00  0.00    -0.068 N 
ATOM      3  H3  ZIN A   1      17.065   3.171  12.728  0.00  0.00     0.280 HD
ENDROOT
BRANCH   2   4
ATOM      4  C4  ZIN A   1      18.509   4.444  13.409  0.00  0.00     0.262 C 
BRANCH   4   5
ATOM      5  C5  ZIN A   1      18.409   3.562  14.627  0.00  0.00     0.001 C 
ATOM      6  C6  ZIN A   1      18.942   2.347  14.611  0.00  0.00     0.009 C 
BRANCH   6   7
ATOM      7  C7  ZIN A   1      18.844   1.481  15.805  0.00  0.00    -0.036 A 
ATOM      8  C12 ZIN A   1      18.340   0.186  15.691  0.00  0.00     0.011 A 
ATOM      9  C11 ZIN A   1      18.258  -0.620  16.808  0.00  0.00     0.001 A 
ATOM     10  C10 ZIN A   1      18.664  -0.142  18.040  0.00  0.00     0.000 A 
ATOM     11  C9  ZIN A   1      19.159   1.144  18.161  0.00  0.00     0.001 A 
ATOM     12  C8  ZIN A   1      19.252   1.957  17.051  0.00  0.00     0.011 A 
ENDBRANCH   6   7
ENDBRANCH   4   5
ENDBRANCH   2   4
BRANCH   2  13
ATOM     13  C13 ZIN A   1      18.432   3.433  11.235  0.00  0.00     0.274 C 
BRANCH  13  14
ATOM     14  C14 ZIN A   1      18.007   2.029  10.888  0.00  0.00    -0.021 A 
ATOM     15  C23 ZIN A   1      17.381   1.255  11.816  0.00  0.00     0.010 A 
ATOM     16  C22 ZIN A   1      16.977  -0.043  11.513  0.00  0.00     0.002 A 
ATOM     17  C21 ZIN A   1      17.206  -0.580  10.283  0.00  0.00     0.012 A 
ATOM     18  C20 ZIN A   1      17.857   0.186   9.302  0.00  0.00    -0.025 A 
ATOM     19  C15 ZIN A   1      18.263   1.509   9.609  0.00  0.00    -0.018 A 
ATOM     20  C19 ZIN A   1      18.112  -0.333   8.021  0.00  0.00     0.012 A 
ATOM     21  C16 ZIN A   1      18.914   2.276   8.627  0.00  0.00     0.013 A 
ATOM     22  C17 ZIN A   1      19.145   1.739   7.398  0.00  0.00     0.001 A 
ATOM     23  C18 ZIN A   1      18.744   0.439   7.095  0.00  0.00     0.001 A 
ENDBRANCH  13  14
ENDBRANCH   2  13
TORSDOF 5
ENDMDL
