MODEL 1
REMARK VINA RESULT:      -7.8      0.000      0.000
REMARK  9 active torsions:
REMARK  status: ('A' for Active; 'I' for Inactive)
REMARK    1  A    between atoms: O2_2  and  N3_3 
REMARK    2  A    between atoms: C4_4  and  C5_5 
REMARK    3  A    between atoms: C4_4  and  C27_25 
REMARK       I    between atoms: C5_5  and  N7_7 
REMARK    4  A    between atoms: N7_7  and  C8_8 
REMARK    5  A    between atoms: C13_12  and  C14_13 
REMARK    6  A    between atoms: C17_16  and  C18_17 
REMARK    7  A    between atoms: C18_17  and  O19_18 
REMARK    8  A    between atoms: O19_18  and  C20_19 
REMARK    9  A    between atoms: C30_28  and  N31_29 
ROOT
ATOM      1  C8  ZIN A   1      19.321  -2.176   8.825  0.00  0.00     0.211 C 
ATOM      2  C10 ZIN A   1      18.238  -2.155   9.891  0.00  0.00     0.251 C 
ATOM      3  O11 ZIN A   1      17.413  -2.956  10.277  0.00  0.00    -0.271 OA
ATOM      4  N12 ZIN A   1      18.557  -0.896  10.237  0.00  0.00    -0.293 N 
ATOM      5  C13 ZIN A   1      17.975   0.185  10.921  0.00  0.00     0.121 C 
ATOM      6  C17 ZIN A   1      18.294   1.428  10.587  0.00  0.00    -0.013 C 
ATOM      7  C23 ZIN A   1      19.275   1.889   9.559  0.00  0.00     0.115 C 
ATOM      8  S24 ZIN A   1      19.648   0.596   8.335  0.00  0.00    -0.136 SA
ATOM      9  C25 ZIN A   1      19.814  -0.861   9.420  0.00  0.00     0.187 C 
ENDROOT
BRANCH   1  10
ATOM     10  N7  ZIN A   1      18.805  -2.049   7.461  0.00  0.00    -0.339 N 
ATOM     11  C5  ZIN A   1      19.332  -2.794   6.469  0.00  0.00     0.275 C 
ATOM     12  O6  ZIN A   1      20.293  -3.505   6.687  0.00  0.00    -0.266 OA
ATOM     13  H36 ZIN A   1      18.085  -1.427   7.271  0.00  0.00     0.163 HD
BRANCH  11  14
ATOM     14  C4  ZIN A   1      18.739  -2.747   5.112  0.00  0.00     0.180 C 
ATOM     15  N3  ZIN A   1      19.125  -1.837   4.262  0.00  0.00    -0.126 NA
BRANCH  15  16
ATOM     16  O2  ZIN A   1      20.029  -0.827   4.671  0.00  0.00    -0.261 OA
ATOM     17  C1  ZIN A   1      19.434   0.466   4.806  0.00  0.00     0.240 C 
ENDBRANCH  15  16
BRANCH  14  18
ATOM     18  C27 ZIN A   1      17.710  -3.733   4.721  0.00  0.00     0.102 A 
ATOM     19  N32 ZIN A   1      17.482  -4.844   5.421  0.00  0.00    -0.222 NA
ATOM     20  C30 ZIN A   1      16.550  -5.632   4.984  0.00  0.00     0.164 A 
ATOM     21  S29 ZIN A   1      15.850  -4.958   3.516  0.00  0.00    -0.062 SA
ATOM     22  C28 ZIN A   1      16.938  -3.577   3.626  0.00  0.00     0.087 A 
BRANCH  20  23
ATOM     23  N31 ZIN A   1      16.168  -6.824   5.577  0.00  0.00    -0.378 N 
ATOM     24  H45 ZIN A   1      16.613  -7.130   6.382  0.00  0.00     0.158 HD
ATOM     25  H46 ZIN A   1      15.454  -7.353   5.188  0.00  0.00     0.158 HD
ENDBRANCH  20  23
ENDBRANCH  14  18
ENDBRANCH  11  14
ENDBRANCH   1  10
BRANCH   5  26
ATOM     26  C14 ZIN A   1      17.014  -0.062  12.008  0.00  0.00     0.227 C 
ATOM     27  O15 ZIN A   1      15.812  -0.047  11.777  0.00  0.00    -0.643 OA
ATOM     28  O16 ZIN A   1      17.416  -0.284  13.142  0.00  0.00    -0.643 OA
ENDBRANCH   5  26
BRANCH   6  29
ATOM     29  C18 ZIN A   1      17.574   2.517  11.341  0.00  0.00     0.216 C 
BRANCH  29  30
ATOM     30  O19 ZIN A   1      17.054   3.494  10.402  0.00  0.00    -0.317 OA
BRANCH  30  31
ATOM     31  C20 ZIN A   1      17.028   4.774  10.806  0.00  0.00     0.255 C 
ATOM     32  C21 ZIN A   1      16.679   5.106  12.234  0.00  0.00     0.126 C 
ATOM     33  O22 ZIN A   1      17.286   5.659  10.025  0.00  0.00    -0.266 OA
ENDBRANCH  30  31
ENDBRANCH  29  30
ENDBRANCH   6  29
TORSDOF 9
ENDMDL
MODEL 2
REMARK VINA RESULT:      -7.3      3.340      5.103
REMARK  9 active torsions:
REMARK  status: ('A' for Active; 'I' for Inactive)
REMARK    1  A    between atoms: O2_2  and  N3_3 
REMARK    2  A    between atoms: C4_4  and  C5_5 
REMARK    3  A    between atoms: C4_4  and  C27_25 
REMARK       I    between atoms: C5_5  and  N7_7 
REMARK    4  A    between atoms: N7_7  and  C8_8 
REMARK    5  A    between atoms: C13_12  and  C14_13 
REMARK    6  A    between atoms: C17_16  and  C18_17 
REMARK    7  A    between atoms: C18_17  and  O19_18 
REMARK    8  A    between atoms: O19_18  and  C20_19 
REMARK    9  A    between atoms: C30_28  and  N31_29 
ROOT
ATOM      1  C8  ZIN A   1      17.036   0.615  10.345  0.00  0.00     0.211 C 
ATOM      2  C10 ZIN A   1      17.672   1.952  10.689  0.00  0.00     0.251 C 
ATOM      3  O11 ZIN A   1      18.029   2.912  10.040  0.00  0.00    -0.271 OA
ATOM      4  N12 ZIN A   1      17.679   1.649  11.998  0.00  0.00    -0.293 N 
ATOM      5  C13 ZIN A   1      18.327   2.073  13.172  0.00  0.00     0.121 C 
ATOM      6  C17 ZIN A   1      18.545   1.211  14.155  0.00  0.00    -0.013 C 
ATOM      7  C23 ZIN A   1      18.143  -0.225  14.235  0.00  0.00     0.115 C 
ATOM      8  S24 ZIN A   1      17.787  -0.932  12.598  0.00  0.00    -0.136 SA
ATOM      9  C25 ZIN A   1      16.827   0.424  11.844  0.00  0.00     0.187 C 
ENDROOT
BRANCH   1  10
ATOM     10  N7  ZIN A   1      17.971  -0.344   9.754  0.00  0.00    -0.339 N 
ATOM     11  C5  ZIN A   1      17.807  -0.748   8.479  0.00  0.00     0.275 C 
ATOM     12  O6  ZIN A   1      16.834  -0.385   7.847  0.00  0.00    -0.266 OA
ATOM     13  H36 ZIN A   1      18.708  -0.691  10.281  0.00  0.00     0.163 HD
BRANCH  11  14
ATOM     14  C4  ZIN A   1      18.813  -1.632   7.845  0.00  0.00     0.180 C 
ATOM     15  N3  ZIN A   1      19.436  -1.244   6.769  0.00  0.00    -0.126 NA
BRANCH  15  16
ATOM     16  O2  ZIN A   1      19.075  -0.027   6.142  0.00  0.00    -0.261 OA
ATOM     17  C1  ZIN A   1      19.114  -0.075   4.713  0.00  0.00     0.240 C 
ENDBRANCH  15  16
BRANCH  14  18
ATOM     18  C27 ZIN A   1      19.110  -2.955   8.435  0.00  0.00     0.102 A 
ATOM     19  N32 ZIN A   1      19.159  -3.155   9.752  0.00  0.00    -0.222 NA
ATOM     20  C30 ZIN A   1      19.424  -4.359  10.153  0.00  0.00     0.164 A 
ATOM     21  S29 ZIN A   1      19.661  -5.404   8.757  0.00  0.00    -0.062 SA
ATOM     22  C28 ZIN A   1      19.356  -4.044   7.680  0.00  0.00     0.087 A 
BRANCH  20  23
ATOM     23  N31 ZIN A   1      19.512  -4.760  11.475  0.00  0.00    -0.378 N 
ATOM     24  H45 ZIN A   1      19.041  -4.267  12.165  0.00  0.00     0.158 HD
ATOM     25  H46 ZIN A   1      20.045  -5.535  11.712  0.00  0.00     0.158 HD
ENDBRANCH  20  23
ENDBRANCH  14  18
ENDBRANCH  11  14
ENDBRANCH   1  10
BRANCH   5  26
ATOM     26  C14 ZIN A   1      18.760   3.473  13.308  0.00  0.00     0.227 C 
ATOM     27  O15 ZIN A   1      19.771   3.859  12.736  0.00  0.00    -0.643 OA
ATOM     28  O16 ZIN A   1      18.110   4.252  13.992  0.00  0.00    -0.643 OA
ENDBRANCH   5  26
BRANCH   6  29
ATOM     29  C18 ZIN A   1      19.296   1.750  15.346  0.00  0.00     0.216 C 
BRANCH  29  30
ATOM     30  O19 ZIN A   1      18.517   1.528  16.551  0.00  0.00    -0.317 OA
BRANCH  30  31
ATOM     31  C20 ZIN A   1      19.170   1.037  17.616  0.00  0.00     0.255 C 
ATOM     32  C21 ZIN A   1      19.184  -0.448  17.873  0.00  0.00     0.126 C 
ATOM     33  O22 ZIN A   1      19.747   1.787  18.368  0.00  0.00    -0.266 OA
ENDBRANCH  30  31
ENDBRANCH  29  30
ENDBRANCH   6  29
TORSDOF 9
ENDMDL
MODEL 3
REMARK VINA RESULT:      -7.2      3.714      9.009
REMARK  9 active torsions:
REMARK  status: ('A' for Active; 'I' for Inactive)
REMARK    1  A    between atoms: O2_2  and  N3_3 
REMARK    2  A    between atoms: C4_4  and  C5_5 
REMARK    3  A    between atoms: C4_4  and  C27_25 
REMARK       I    between atoms: C5_5  and  N7_7 
REMARK    4  A    between atoms: N7_7  and  C8_8 
REMARK    5  A    between atoms: C13_12  and  C14_13 
REMARK    6  A    between atoms: C17_16  and  C18_17 
REMARK    7  A    between atoms: C18_17  and  O19_18 
REMARK    8  A    between atoms: O19_18  and  C20_19 
REMARK    9  A    between atoms: C30_28  and  N31_29 
ROOT
ATOM      1  C8  ZIN A   1      20.274   0.180  11.155  0.00  0.00     0.211 C 
ATOM      2  C10 ZIN A   1      19.840   0.070   9.703  0.00  0.00     0.251 C 
ATOM      3  O11 ZIN A   1      19.771   0.850   8.778  0.00  0.00    -0.271 OA
ATOM      4  N12 ZIN A   1      19.562  -1.237   9.852  0.00  0.00    -0.293 N 
ATOM      5  C13 ZIN A   1      18.816  -2.235   9.200  0.00  0.00     0.121 C 
ATOM      6  C17 ZIN A   1      18.288  -3.230   9.899  0.00  0.00    -0.013 C 
ATOM      7  C23 ZIN A   1      18.409  -3.500  11.362  0.00  0.00     0.115 C 
ATOM      8  S24 ZIN A   1      18.899  -2.019  12.298  0.00  0.00    -0.136 SA
ATOM      9  C25 ZIN A   1      20.196  -1.342  11.208  0.00  0.00     0.187 C 
ENDROOT
BRANCH   1  10
ATOM     10  N7  ZIN A   1      19.294   0.850  12.012  0.00  0.00    -0.339 N 
ATOM     11  C5  ZIN A   1      19.371   2.180  12.213  0.00  0.00     0.275 C 
ATOM     12  O6  ZIN A   1      20.304   2.811  11.756  0.00  0.00    -0.266 OA
ATOM     13  H36 ZIN A   1      18.590   0.335  12.437  0.00  0.00     0.163 HD
BRANCH  11  14
ATOM     14  C4  ZIN A   1      18.318   2.875  12.989  0.00  0.00     0.180 C 
ATOM     15  N3  ZIN A   1      17.266   3.349  12.383  0.00  0.00    -0.126 NA
BRANCH  15  16
ATOM     16  O2  ZIN A   1      17.180   3.297  10.971  0.00  0.00    -0.261 OA
ATOM     17  C1  ZIN A   1      17.332   4.566  10.332  0.00  0.00     0.240 C 
ENDBRANCH  15  16
BRANCH  14  18
ATOM     18  C27 ZIN A   1      18.460   3.031  14.453  0.00  0.00     0.102 A 
ATOM     19  N32 ZIN A   1      18.825   2.025  15.246  0.00  0.00    -0.222 NA
ATOM     20  C30 ZIN A   1      18.920   2.282  16.513  0.00  0.00     0.164 A 
ATOM     21  S29 ZIN A   1      18.503   3.967  16.804  0.00  0.00    -0.062 SA
ATOM     22  C28 ZIN A   1      18.223   4.200  15.081  0.00  0.00     0.087 A 
BRANCH  20  23
ATOM     23  N31 ZIN A   1      19.289   1.370  17.488  0.00  0.00    -0.378 N 
ATOM     24  H45 ZIN A   1      19.419   0.437  17.256  0.00  0.00     0.158 HD
ATOM     25  H46 ZIN A   1      19.417   1.664  18.404  0.00  0.00     0.158 HD
ENDBRANCH  20  23
ENDBRANCH  14  18
ENDBRANCH  11  14
ENDBRANCH   1  10
BRANCH   5  26
ATOM     26  C14 ZIN A   1      18.623  -2.174   7.742  0.00  0.00     0.227 C 
ATOM     27  O15 ZIN A   1      19.360  -2.810   7.000  0.00  0.00    -0.643 OA
ATOM     28  O16 ZIN A   1      17.726  -1.487   7.271  0.00  0.00    -0.643 OA
ENDBRANCH   5  26
BRANCH   6  29
ATOM     29  C18 ZIN A   1      17.460  -4.216   9.115  0.00  0.00     0.216 C 
BRANCH  29  30
ATOM     30  O19 ZIN A   1      17.938  -5.562   9.372  0.00  0.00    -0.317 OA
BRANCH  30  31
ATOM     31  C20 ZIN A   1      18.795  -6.084   8.480  0.00  0.00     0.255 C 
ATOM     32  C21 ZIN A   1      18.395  -6.206   7.033  0.00  0.00     0.126 C 
ATOM     33  O22 ZIN A   1      19.888  -6.455   8.839  0.00  0.00    -0.266 OA
ENDBRANCH  30  31
ENDBRANCH  29  30
ENDBRANCH   6  29
TORSDOF 9
ENDMDL
MODEL 4
REMARK VINA RESULT:      -7.0      2.852      4.394
REMARK  9 active torsions:
REMARK  status: ('A' for Active; 'I' for Inactive)
REMARK    1  A    between atoms: O2_2  and  N3_3 
REMARK    2  A    between atoms: C4_4  and  C5_5 
REMARK    3  A    between atoms: C4_4  and  C27_25 
REMARK       I    between atoms: C5_5  and  N7_7 
REMARK    4  A    between atoms: N7_7  and  C8_8 
REMARK    5  A    between atoms: C13_12  and  C14_13 
REMARK    6  A    between atoms: C17_16  and  C18_17 
REMARK    7  A    between atoms: C18_17  and  O19_18 
REMARK    8  A    between atoms: O19_18  and  C20_19 
REMARK    9  A    between atoms: C30_28  and  N31_29 
ROOT
ATOM      1  C8  ZIN A   1      17.462  -5.346   8.724  0.00  0.00     0.211 C 
ATOM      2  C10 ZIN A   1      17.136  -4.664  10.043  0.00  0.00     0.251 C 
ATOM      3  O11 ZIN A   1      16.374  -4.905  10.955  0.00  0.00    -0.271 OA
ATOM      4  N12 ZIN A   1      18.027  -3.689   9.796  0.00  0.00    -0.293 N 
ATOM      5  C13 ZIN A   1      18.307  -2.384  10.239  0.00  0.00     0.121 C 
ATOM      6  C17 ZIN A   1      18.860  -1.509   9.411  0.00  0.00    -0.013 C 
ATOM      7  C23 ZIN A   1      19.304  -1.720   8.001  0.00  0.00     0.115 C 
ATOM      8  S24 ZIN A   1      18.517  -3.173   7.241  0.00  0.00    -0.136 SA
ATOM      9  C25 ZIN A   1      18.633  -4.376   8.608  0.00  0.00     0.187 C 
ENDROOT
BRANCH   1  10
ATOM     10  N7  ZIN A   1      16.437  -5.157   7.696  0.00  0.00    -0.339 N 
ATOM     11  C5  ZIN A   1      16.212  -6.122   6.782  0.00  0.00     0.275 C 
ATOM     12  O6  ZIN A   1      16.919  -7.111   6.756  0.00  0.00    -0.266 OA
ATOM     13  H36 ZIN A   1      15.921  -4.337   7.671  0.00  0.00     0.163 HD
BRANCH  11  14
ATOM     14  C4  ZIN A   1      15.103  -5.980   5.811  0.00  0.00     0.180 C 
ATOM     15  N3  ZIN A   1      13.893  -6.325   6.148  0.00  0.00    -0.126 NA
BRANCH  15  16
ATOM     16  O2  ZIN A   1      13.655  -6.938   7.402  0.00  0.00    -0.261 OA
ATOM     17  C1  ZIN A   1      12.542  -7.835   7.410  0.00  0.00     0.240 C 
ENDBRANCH  15  16
BRANCH  14  18
ATOM     18  C27 ZIN A   1      15.369  -5.446   4.458  0.00  0.00     0.102 A 
ATOM     19  N32 ZIN A   1      14.450  -5.454   3.493  0.00  0.00    -0.222 NA
ATOM     20  C30 ZIN A   1      14.796  -4.954   2.349  0.00  0.00     0.164 A 
ATOM     21  S29 ZIN A   1      16.466  -4.403   2.429  0.00  0.00    -0.062 SA
ATOM     22  C28 ZIN A   1      16.561  -4.921   4.110  0.00  0.00     0.087 A 
BRANCH  20  23
ATOM     23  N31 ZIN A   1      13.981  -4.870   1.233  0.00  0.00    -0.378 N 
ATOM     24  H45 ZIN A   1      13.987  -5.581   0.573  0.00  0.00     0.158 HD
ATOM     25  H46 ZIN A   1      13.402  -4.101   1.112  0.00  0.00     0.158 HD
ENDBRANCH  20  23
ENDBRANCH  14  18
ENDBRANCH  11  14
ENDBRANCH   1  10
BRANCH   5  26
ATOM     26  C14 ZIN A   1      17.987  -1.991  11.621  0.00  0.00     0.227 C 
ATOM     27  O15 ZIN A   1      16.899  -1.493  11.879  0.00  0.00    -0.643 OA
ATOM     28  O16 ZIN A   1      18.808  -2.163  12.512  0.00  0.00    -0.643 OA
ENDBRANCH   5  26
BRANCH   6  29
ATOM     29  C18 ZIN A   1      19.067  -0.122   9.964  0.00  0.00     0.216 C 
BRANCH  29  30
ATOM     30  O19 ZIN A   1      17.927   0.710   9.623  0.00  0.00    -0.317 OA
BRANCH  30  31
ATOM     31  C20 ZIN A   1      17.771   1.845  10.323  0.00  0.00     0.255 C 
ATOM     32  C21 ZIN A   1      18.491   3.098   9.897  0.00  0.00     0.126 C 
ATOM     33  O22 ZIN A   1      17.051   1.862  11.294  0.00  0.00    -0.266 OA
ENDBRANCH  30  31
ENDBRANCH  29  30
ENDBRANCH   6  29
TORSDOF 9
ENDMDL
MODEL 5
REMARK VINA RESULT:      -7.0      3.218      8.309
REMARK  9 active torsions:
REMARK  status: ('A' for Active; 'I' for Inactive)
REMARK    1  A    between atoms: O2_2  and  N3_3 
REMARK    2  A    between atoms: C4_4  and  C5_5 
REMARK    3  A    between atoms: C4_4  and  C27_25 
REMARK       I    between atoms: C5_5  and  N7_7 
REMARK    4  A    between atoms: N7_7  and  C8_8 
REMARK    5  A    between atoms: C13_12  and  C14_13 
REMARK    6  A    between atoms: C17_16  and  C18_17 
REMARK    7  A    between atoms: C18_17  and  O19_18 
REMARK    8  A    between atoms: O19_18  and  C20_19 
REMARK    9  A    between atoms: C30_28  and  N31_29 
ROOT
ATOM      1  C8  ZIN A   1      17.741  -2.967  11.455  0.00  0.00     0.211 C 
ATOM      2  C10 ZIN A   1      18.534  -4.207  11.076  0.00  0.00     0.251 C 
ATOM      3  O11 ZIN A   1      19.062  -5.100  11.703  0.00  0.00    -0.271 OA
ATOM      4  N12 ZIN A   1      18.419  -3.919   9.768  0.00  0.00    -0.293 N 
ATOM      5  C13 ZIN A   1      19.047  -4.262   8.557  0.00  0.00     0.121 C 
ATOM      6  C17 ZIN A   1      19.082  -3.389   7.560  0.00  0.00    -0.013 C 
ATOM      7  C23 ZIN A   1      18.480  -2.024   7.502  0.00  0.00     0.115 C 
ATOM      8  S24 ZIN A   1      18.128  -1.355   9.157  0.00  0.00    -0.136 SA
ATOM      9  C25 ZIN A   1      17.416  -2.823   9.972  0.00  0.00     0.187 C 
ENDROOT
BRANCH   1  10
ATOM     10  N7  ZIN A   1      18.567  -1.881  11.985  0.00  0.00    -0.339 N 
ATOM     11  C5  ZIN A   1      17.984  -0.810  12.560  0.00  0.00     0.275 C 
ATOM     12  O6  ZIN A   1      16.773  -0.703  12.559  0.00  0.00    -0.266 OA
ATOM     13  H36 ZIN A   1      19.533  -1.931  11.921  0.00  0.00     0.163 HD
BRANCH  11  14
ATOM     14  C4  ZIN A   1      18.819   0.237  13.194  0.00  0.00     0.180 C 
ATOM     15  N3  ZIN A   1      19.590  -0.064  14.201  0.00  0.00    -0.126 NA
BRANCH  15  16
ATOM     16  O2  ZIN A   1      19.548  -1.364  14.759  0.00  0.00    -0.261 OA
ATOM     17  C1  ZIN A   1      18.982  -1.417  16.070  0.00  0.00     0.240 C 
ENDBRANCH  15  16
BRANCH  14  18
ATOM     18  C27 ZIN A   1      18.778   1.624  12.684  0.00  0.00     0.102 A 
ATOM     19  N32 ZIN A   1      18.564   1.907  11.399  0.00  0.00    -0.222 NA
ATOM     20  C30 ZIN A   1      18.545   3.161  11.070  0.00  0.00     0.164 A 
ATOM     21  S29 ZIN A   1      18.837   4.148  12.497  0.00  0.00    -0.062 SA
ATOM     22  C28 ZIN A   1      18.961   2.694  13.483  0.00  0.00     0.087 A 
BRANCH  20  23
ATOM     23  N31 ZIN A   1      18.333   3.648   9.791  0.00  0.00    -0.378 N 
ATOM     24  H45 ZIN A   1      19.088   3.902   9.237  0.00  0.00     0.158 HD
ATOM     25  H46 ZIN A   1      17.430   3.734   9.448  0.00  0.00     0.158 HD
ENDBRANCH  20  23
ENDBRANCH  14  18
ENDBRANCH  11  14
ENDBRANCH   1  10
BRANCH   5  26
ATOM     26  C14 ZIN A   1      19.662  -5.590   8.397  0.00  0.00     0.227 C 
ATOM     27  O15 ZIN A   1      20.869  -5.726   8.549  0.00  0.00    -0.643 OA
ATOM     28  O16 ZIN A   1      18.968  -6.556   8.113  0.00  0.00    -0.643 OA
ENDBRANCH   5  26
BRANCH   6  29
ATOM     29  C18 ZIN A   1      19.827  -3.831   6.326  0.00  0.00     0.216 C 
BRANCH  29  30
ATOM     30  O19 ZIN A   1      18.890  -3.998   5.230  0.00  0.00    -0.317 OA
BRANCH  30  31
ATOM     31  C20 ZIN A   1      18.644  -2.920   4.469  0.00  0.00     0.255 C 
ATOM     32  C21 ZIN A   1      17.246  -2.652   3.973  0.00  0.00     0.126 C 
ATOM     33  O22 ZIN A   1      19.543  -2.165   4.183  0.00  0.00    -0.266 OA
ENDBRANCH  30  31
ENDBRANCH  29  30
ENDBRANCH   6  29
TORSDOF 9
ENDMDL
MODEL 6
REMARK VINA RESULT:      -6.9      3.804      9.071
REMARK  9 active torsions:
REMARK  status: ('A' for Active; 'I' for Inactive)
REMARK    1  A    between atoms: O2_2  and  N3_3 
REMARK    2  A    between atoms: C4_4  and  C5_5 
REMARK    3  A    between atoms: C4_4  and  C27_25 
REMARK       I    between atoms: C5_5  and  N7_7 
REMARK    4  A    between atoms: N7_7  and  C8_8 
REMARK    5  A    between atoms: C13_12  and  C14_13 
REMARK    6  A    between atoms: C17_16  and  C18_17 
REMARK    7  A    between atoms: C18_17  and  O19_18 
REMARK    8  A    between atoms: O19_18  and  C20_19 
REMARK    9  A    between atoms: C30_28  and  N31_29 
ROOT
ATOM      1  C8  ZIN A   1      20.026  -0.660  11.256  0.00  0.00     0.211 C 
ATOM      2  C10 ZIN A   1      19.829  -0.678   9.749  0.00  0.00     0.251 C 
ATOM      3  O11 ZIN A   1      19.926   0.154   8.872  0.00  0.00    -0.271 OA
ATOM      4  N12 ZIN A   1      19.505  -1.982   9.774  0.00  0.00    -0.293 N 
ATOM      5  C13 ZIN A   1      18.854  -2.919   8.952  0.00  0.00     0.121 C 
ATOM      6  C17 ZIN A   1      18.200  -3.935   9.498  0.00  0.00    -0.013 C 
ATOM      7  C23 ZIN A   1      18.077  -4.290  10.943  0.00  0.00     0.115 C 
ATOM      8  S24 ZIN A   1      18.440  -2.878  12.031  0.00  0.00    -0.136 SA
ATOM      9  C25 ZIN A   1      19.909  -2.180  11.205  0.00  0.00     0.187 C 
ENDROOT
BRANCH   1  10
ATOM     10  N7  ZIN A   1      18.934  -0.010  11.983  0.00  0.00    -0.339 N 
ATOM     11  C5  ZIN A   1      19.180   0.618  13.150  0.00  0.00     0.275 C 
ATOM     12  O6  ZIN A   1      20.291   0.570  13.643  0.00  0.00    -0.266 OA
ATOM     13  H36 ZIN A   1      18.032  -0.033  11.626  0.00  0.00     0.163 HD
BRANCH  11  14
ATOM     14  C4  ZIN A   1      18.100   1.369  13.830  0.00  0.00     0.180 C 
ATOM     15  N3  ZIN A   1      17.419   0.807  14.789  0.00  0.00    -0.126 NA
BRANCH  15  16
ATOM     16  O2  ZIN A   1      17.636  -0.556  15.105  0.00  0.00    -0.261 OA
ATOM     17  C1  ZIN A   1      18.046  -0.781  16.456  0.00  0.00     0.240 C 
ENDBRANCH  15  16
BRANCH  14  18
ATOM     18  C27 ZIN A   1      17.795   2.757  13.424  0.00  0.00     0.102 A 
ATOM     19  N32 ZIN A   1      17.440   3.075  12.179  0.00  0.00    -0.222 NA
ATOM     20  C30 ZIN A   1      17.192   4.325  11.941  0.00  0.00     0.164 A 
ATOM     21  S29 ZIN A   1      17.428   5.262  13.412  0.00  0.00    -0.062 SA
ATOM     22  C28 ZIN A   1      17.862   3.794  14.283  0.00  0.00     0.087 A 
BRANCH  20  23
ATOM     23  N31 ZIN A   1      16.807   4.844  10.716  0.00  0.00    -0.378 N 
ATOM     24  H45 ZIN A   1      16.852   5.800  10.558  0.00  0.00     0.158 HD
ATOM     25  H46 ZIN A   1      16.492   4.252  10.015  0.00  0.00     0.158 HD
ENDBRANCH  20  23
ENDBRANCH  14  18
ENDBRANCH  11  14
ENDBRANCH   1  10
BRANCH   5  26
ATOM     26  C14 ZIN A   1      18.899  -2.772   7.488  0.00  0.00     0.227 C 
ATOM     27  O15 ZIN A   1      18.112  -2.023   6.924  0.00  0.00    -0.643 OA
ATOM     28  O16 ZIN A   1      19.724  -3.397   6.836  0.00  0.00    -0.643 OA
ENDBRANCH   5  26
BRANCH   6  29
ATOM     29  C18 ZIN A   1      17.488  -4.851   8.535  0.00  0.00     0.216 C 
BRANCH  29  30
ATOM     30  O19 ZIN A   1      18.135  -6.151   8.536  0.00  0.00    -0.317 OA
BRANCH  30  31
ATOM     31  C20 ZIN A   1      17.852  -6.974   7.514  0.00  0.00     0.255 C 
ATOM     32  C21 ZIN A   1      16.663  -7.896   7.595  0.00  0.00     0.126 C 
ATOM     33  O22 ZIN A   1      18.550  -6.973   6.527  0.00  0.00    -0.266 OA
ENDBRANCH  30  31
ENDBRANCH  29  30
ENDBRANCH   6  29
TORSDOF 9
ENDMDL
MODEL 7
REMARK VINA RESULT:      -6.9      2.056      3.379
REMARK  9 active torsions:
REMARK  status: ('A' for Active; 'I' for Inactive)
REMARK    1  A    between atoms: O2_2  and  N3_3 
REMARK    2  A    between atoms: C4_4  and  C5_5 
REMARK    3  A    between atoms: C4_4  and  C27_25 
REMARK       I    between atoms: C5_5  and  N7_7 
REMARK    4  A    between atoms: N7_7  and  C8_8 
REMARK    5  A    between atoms: C13_12  and  C14_13 
REMARK    6  A    between atoms: C17_16  and  C18_17 
REMARK    7  A    between atoms: C18_17  and  O19_18 
REMARK    8  A    between atoms: O19_18  and  C20_19 
REMARK    9  A    between atoms: C30_28  and  N31_29 
ROOT
ATOM      1  C8  ZIN A   1      18.664  -3.872   9.664  0.00  0.00     0.211 C 
ATOM      2  C10 ZIN A   1      17.706  -3.227  10.652  0.00  0.00     0.251 C 
ATOM      3  O11 ZIN A   1      16.836  -3.646  11.386  0.00  0.00    -0.271 OA
ATOM      4  N12 ZIN A   1      18.205  -2.007  10.390  0.00  0.00    -0.293 N 
ATOM      5  C13 ZIN A   1      17.829  -0.662  10.545  0.00  0.00     0.121 C 
ATOM      6  C17 ZIN A   1      18.257   0.249   9.682  0.00  0.00    -0.013 C 
ATOM      7  C23 ZIN A   1      19.175   0.063   8.518  0.00  0.00     0.115 C 
ATOM      8  S24 ZIN A   1      19.264  -1.672   7.982  0.00  0.00    -0.136 SA
ATOM      9  C25 ZIN A   1      19.368  -2.521   9.593  0.00  0.00     0.187 C 
ENDROOT
BRANCH   1  10
ATOM     10  N7  ZIN A   1      18.030  -4.273   8.407  0.00  0.00    -0.339 N 
ATOM     11  C5  ZIN A   1      18.545  -5.287   7.685  0.00  0.00     0.275 C 
ATOM     12  O6  ZIN A   1      19.586  -5.811   8.030  0.00  0.00    -0.266 OA
ATOM     13  H36 ZIN A   1      17.239  -3.807   8.093  0.00  0.00     0.163 HD
BRANCH  11  14
ATOM     14  C4  ZIN A   1      17.843  -5.765   6.471  0.00  0.00     0.180 C 
ATOM     15  N3  ZIN A   1      17.520  -7.022   6.357  0.00  0.00    -0.126 NA
BRANCH  15  16
ATOM     16  O2  ZIN A   1      17.936  -7.952   7.341  0.00  0.00    -0.261 OA
ATOM     17  C1  ZIN A   1      17.318  -9.236   7.227  0.00  0.00     0.240 C 
ENDBRANCH  15  16
BRANCH  14  18
ATOM     18  C27 ZIN A   1      17.508  -4.815   5.389  0.00  0.00     0.102 A 
ATOM     19  N32 ZIN A   1      18.081  -3.616   5.288  0.00  0.00    -0.222 NA
ATOM     20  C30 ZIN A   1      17.711  -2.871   4.294  0.00  0.00     0.164 A 
ATOM     21  S29 ZIN A   1      16.492  -3.717   3.347  0.00  0.00    -0.062 SA
ATOM     22  C28 ZIN A   1      16.596  -5.097   4.437  0.00  0.00     0.087 A 
BRANCH  20  23
ATOM     23  N31 ZIN A   1      18.195  -1.602   4.022  0.00  0.00    -0.378 N 
ATOM     24  H45 ZIN A   1      17.707  -1.014   3.425  0.00  0.00     0.158 HD
ATOM     25  H46 ZIN A   1      19.022  -1.301   4.429  0.00  0.00     0.158 HD
ENDBRANCH  20  23
ENDBRANCH  14  18
ENDBRANCH  11  14
ENDBRANCH   1  10
BRANCH   5  26
ATOM     26  C14 ZIN A   1      16.962  -0.265  11.667  0.00  0.00     0.227 C 
ATOM     27  O15 ZIN A   1      15.790   0.023  11.461  0.00  0.00    -0.643 OA
ATOM     28  O16 ZIN A   1      17.412  -0.222  12.803  0.00  0.00    -0.643 OA
ENDBRANCH   5  26
BRANCH   6  29
ATOM     29  C18 ZIN A   1      17.752   1.652   9.902  0.00  0.00     0.216 C 
BRANCH  29  30
ATOM     30  O19 ZIN A   1      18.798   2.453  10.512  0.00  0.00    -0.317 OA
BRANCH  30  31
ATOM     31  C20 ZIN A   1      18.444   3.232  11.546  0.00  0.00     0.255 C 
ATOM     32  C21 ZIN A   1      19.476   4.094  12.227  0.00  0.00     0.126 C 
ATOM     33  O22 ZIN A   1      17.298   3.244  11.929  0.00  0.00    -0.266 OA
ENDBRANCH  30  31
ENDBRANCH  29  30
ENDBRANCH   6  29
TORSDOF 9
ENDMDL
MODEL 8
REMARK VINA RESULT:      -6.8      3.617      5.834
REMARK  9 active torsions:
REMARK  status: ('A' for Active; 'I' for Inactive)
REMARK    1  A    between atoms: O2_2  and  N3_3 
REMARK    2  A    between atoms: C4_4  and  C5_5 
REMARK    3  A    between atoms: C4_4  and  C27_25 
REMARK       I    between atoms: C5_5  and  N7_7 
REMARK    4  A    between atoms: N7_7  and  C8_8 
REMARK    5  A    between atoms: C13_12  and  C14_13 
REMARK    6  A    between atoms: C17_16  and  C18_17 
REMARK    7  A    between atoms: C18_17  and  O19_18 
REMARK    8  A    between atoms: O19_18  and  C20_19 
REMARK    9  A    between atoms: C30_28  and  N31_29 
ROOT
ATOM      1  C8  ZIN A   1      17.461   1.915  11.071  0.00  0.00     0.211 C 
ATOM      2  C10 ZIN A   1      17.982   3.268  11.525  0.00  0.00     0.251 C 
ATOM      3  O11 ZIN A   1      18.263   4.302  10.957  0.00  0.00    -0.271 OA
ATOM      4  N12 ZIN A   1      18.005   2.865  12.807  0.00  0.00    -0.293 N 
ATOM      5  C13 ZIN A   1      18.608   3.248  14.019  0.00  0.00     0.121 C 
ATOM      6  C17 ZIN A   1      18.890   2.333  14.936  0.00  0.00    -0.013 C 
ATOM      7  C23 ZIN A   1      18.607   0.867  14.899  0.00  0.00     0.115 C 
ATOM      8  S24 ZIN A   1      18.321   0.263  13.208  0.00  0.00    -0.136 SA
ATOM      9  C25 ZIN A   1      17.259   1.590  12.548  0.00  0.00     0.187 C 
ENDROOT
BRANCH   1  10
ATOM     10  N7  ZIN A   1      18.475   1.084  10.420  0.00  0.00    -0.339 N 
ATOM     11  C5  ZIN A   1      18.107   0.154   9.516  0.00  0.00     0.275 C 
ATOM     12  O6  ZIN A   1      16.928  -0.057   9.307  0.00  0.00    -0.266 OA
ATOM     13  H36 ZIN A   1      19.413   1.201  10.640  0.00  0.00     0.163 HD
BRANCH  11  14
ATOM     14  C4  ZIN A   1      19.138  -0.611   8.777  0.00  0.00     0.180 C 
ATOM     15  N3  ZIN A   1      20.008  -1.331   9.427  0.00  0.00    -0.126 NA
BRANCH  15  16
ATOM     16  O2  ZIN A   1      20.038  -1.295  10.842  0.00  0.00    -0.261 OA
ATOM     17  C1  ZIN A   1      19.941  -2.582  11.458  0.00  0.00     0.240 C 
ENDBRANCH  15  16
BRANCH  14  18
ATOM     18  C27 ZIN A   1      19.179  -0.558   7.300  0.00  0.00     0.102 A 
ATOM     19  N32 ZIN A   1      19.201  -1.658   6.546  0.00  0.00    -0.222 NA
ATOM     20  C30 ZIN A   1      19.232  -1.488   5.262  0.00  0.00     0.164 A 
ATOM     21  S29 ZIN A   1      19.249   0.234   4.897  0.00  0.00    -0.062 SA
ATOM     22  C28 ZIN A   1      19.203   0.604   6.618  0.00  0.00     0.087 A 
BRANCH  20  23
ATOM     23  N31 ZIN A   1      19.254  -2.504   4.321  0.00  0.00    -0.378 N 
ATOM     24  H45 ZIN A   1      18.476  -2.667   3.764  0.00  0.00     0.158 HD
ATOM     25  H46 ZIN A   1      20.047  -3.052   4.218  0.00  0.00     0.158 HD
ENDBRANCH  20  23
ENDBRANCH  14  18
ENDBRANCH  11  14
ENDBRANCH   1  10
BRANCH   5  26
ATOM     26  C14 ZIN A   1      18.924   4.664  14.268  0.00  0.00     0.227 C 
ATOM     27  O15 ZIN A   1      18.106   5.384  14.826  0.00  0.00    -0.643 OA
ATOM     28  O16 ZIN A   1      20.004   5.121  13.920  0.00  0.00    -0.643 OA
ENDBRANCH   5  26
BRANCH   6  29
ATOM     29  C18 ZIN A   1      19.586   2.836  16.174  0.00  0.00     0.216 C 
BRANCH  29  30
ATOM     30  O19 ZIN A   1      18.617   2.994  17.243  0.00  0.00    -0.317 OA
BRANCH  30  31
ATOM     31  C20 ZIN A   1      18.647   2.086  18.231  0.00  0.00     0.255 C 
ATOM     32  C21 ZIN A   1      17.384   1.749  18.983  0.00  0.00     0.126 C 
ATOM     33  O22 ZIN A   1      19.685   1.537  18.516  0.00  0.00    -0.266 OA
ENDBRANCH  30  31
ENDBRANCH  29  30
ENDBRANCH   6  29
TORSDOF 9
ENDMDL
MODEL 9
REMARK VINA RESULT:      -6.8      3.623      8.638
REMARK  9 active torsions:
REMARK  status: ('A' for Active; 'I' for Inactive)
REMARK    1  A    between atoms: O2_2  and  N3_3 
REMARK    2  A    between atoms: C4_4  and  C5_5 
REMARK    3  A    between atoms: C4_4  and  C27_25 
REMARK       I    between atoms: C5_5  and  N7_7 
REMARK    4  A    between atoms: N7_7  and  C8_8 
REMARK    5  A    between atoms: C13_12  and  C14_13 
REMARK    6  A    between atoms: C17_16  and  C18_17 
REMARK    7  A    between atoms: C18_17  and  O19_18 
REMARK    8  A    between atoms: O19_18  and  C20_19 
REMARK    9  A    between atoms: C30_28  and  N31_29 
ROOT
ATOM      1  C8  ZIN A   1      17.602  -2.481  11.804  0.00  0.00     0.211 C 
ATOM      2  C10 ZIN A   1      18.221  -3.780  11.317  0.00  0.00     0.251 C 
ATOM      3  O11 ZIN A   1      18.576  -4.805  11.859  0.00  0.00    -0.271 OA
ATOM      4  N12 ZIN A   1      18.218  -3.343  10.046  0.00  0.00    -0.293 N 
ATOM      5  C13 ZIN A   1      18.850  -3.649   8.828  0.00  0.00     0.121 C 
ATOM      6  C17 ZIN A   1      19.067  -2.692   7.936  0.00  0.00    -0.013 C 
ATOM      7  C23 ZIN A   1      18.678  -1.252   8.010  0.00  0.00     0.115 C 
ATOM      8  S24 ZIN A   1      18.344  -0.715   9.715  0.00  0.00    -0.136 SA
ATOM      9  C25 ZIN A   1      17.380  -2.133  10.336  0.00  0.00     0.187 C 
ENDROOT
BRANCH   1  10
ATOM     10  N7  ZIN A   1      18.552  -1.595  12.481  0.00  0.00    -0.339 N 
ATOM     11  C5  ZIN A   1      18.108  -0.502  13.133  0.00  0.00     0.275 C 
ATOM     12  O6  ZIN A   1      16.931  -0.202  13.085  0.00  0.00    -0.266 OA
ATOM     13  H36 ZIN A   1      19.501  -1.795  12.459  0.00  0.00     0.163 HD
BRANCH  11  14
ATOM     14  C4  ZIN A   1      19.053   0.333  13.909  0.00  0.00     0.180 C 
ATOM     15  N3  ZIN A   1      19.889   1.119  13.291  0.00  0.00    -0.126 NA
BRANCH  15  16
ATOM     16  O2  ZIN A   1      19.969   1.094  11.878  0.00  0.00    -0.261 OA
ATOM     17  C1  ZIN A   1      19.786   2.372  11.263  0.00  0.00     0.240 C 
ENDBRANCH  15  16
BRANCH  14  18
ATOM     18  C27 ZIN A   1      19.049   0.275  15.387  0.00  0.00     0.102 A 
ATOM     19  N32 ZIN A   1      19.160   1.366  16.145  0.00  0.00    -0.222 NA
ATOM     20  C30 ZIN A   1      19.138   1.192  17.429  0.00  0.00     0.164 A 
ATOM     21  S29 ZIN A   1      18.974  -0.523  17.788  0.00  0.00    -0.062 SA
ATOM     22  C28 ZIN A   1      18.938  -0.885  16.065  0.00  0.00     0.087 A 
BRANCH  20  23
ATOM     23  N31 ZIN A   1      19.235   2.200  18.374  0.00  0.00    -0.378 N 
ATOM     24  H45 ZIN A   1      20.058   2.320  18.873  0.00  0.00     0.158 HD
ATOM     25  H46 ZIN A   1      18.481   2.788  18.535  0.00  0.00     0.158 HD
ENDBRANCH  20  23
ENDBRANCH  14  18
ENDBRANCH  11  14
ENDBRANCH   1  10
BRANCH   5  26
ATOM     26  C14 ZIN A   1      19.268  -5.031   8.542  0.00  0.00     0.227 C 
ATOM     27  O15 ZIN A   1      18.502  -5.797   7.972  0.00  0.00    -0.643 OA
ATOM     28  O16 ZIN A   1      20.381  -5.415   8.875  0.00  0.00    -0.643 OA
ENDBRANCH   5  26
BRANCH   6  29
ATOM     29  C18 ZIN A   1      19.800  -3.111   6.688  0.00  0.00     0.216 C 
BRANCH  29  30
ATOM     30  O19 ZIN A   1      18.854  -3.261   5.597  0.00  0.00    -0.317 OA
BRANCH  30  31
ATOM     31  C20 ZIN A   1      18.707  -2.214   4.770  0.00  0.00     0.255 C 
ATOM     32  C21 ZIN A   1      17.331  -1.805   4.310  0.00  0.00     0.126 C 
ATOM     33  O22 ZIN A   1      19.677  -1.600   4.396  0.00  0.00    -0.266 OA
ENDBRANCH  30  31
ENDBRANCH  29  30
ENDBRANCH   6  29
TORSDOF 9
ENDMDL
