MODEL 1
REMARK VINA RESULT:      -6.7      0.000      0.000
REMARK  14 active torsions:
REMARK  status: ('A' for Active; 'I' for Inactive)
REMARK    1  A    between atoms: C2_2  and  C3_3 
REMARK    2  A    between atoms: C3_3  and  C4_4 
REMARK    3  A    between atoms: C4_4  and  S5_5 
REMARK    4  A    between atoms: S5_5  and  N8_8 
REMARK    5  A    between atoms: N8_8  and  C9_9 
REMARK    6  A    between atoms: C9_9  and  C11_10 
REMARK    7  A    between atoms: C9_9  and  C31_30 
REMARK    8  A    between atoms: C11_10  and  C12_11 
REMARK    9  A    between atoms: C15_14  and  O16_15 
REMARK   10  A    between atoms: O16_15  and  C17_16 
REMARK   11  A    between atoms: C17_16  and  C18_17 
REMARK   12  A    between atoms: C18_17  and  C19_18 
REMARK   13  A    between atoms: C19_18  and  C20_19 
REMARK   14  A    between atoms: C20_19  and  C21_20 
ROOT
ATOM      1  C12 ZIN A   1      18.003   1.012  10.897  0.00  0.00    -0.056 A 
ATOM      2  C13 ZIN A   1      17.060   0.132  11.394  0.00  0.00     0.010 A 
ATOM      3  C14 ZIN A   1      17.459  -1.061  11.966  0.00  0.00     0.037 A 
ATOM      4  C15 ZIN A   1      18.809  -1.374  12.042  0.00  0.00     0.068 A 
ATOM      5  C29 ZIN A   1      19.754  -0.489  11.544  0.00  0.00     0.037 A 
ATOM      6  C30 ZIN A   1      19.349   0.699  10.967  0.00  0.00     0.010 A 
ENDROOT
BRANCH   1   7
ATOM      7  C11 ZIN A   1      17.565   2.312  10.274  0.00  0.00     0.075 C 
BRANCH   7   8
ATOM      8  C9  ZIN A   1      17.945   3.473  11.195  0.00  0.00     0.197 C 
BRANCH   8   9
ATOM      9  N8  ZIN A   1      17.669   3.105  12.586  0.00  0.00    -0.304 N 
ATOM     10  H43 ZIN A   1      17.056   2.378  12.782  0.00  0.00     0.173 HD
BRANCH   9  11
ATOM     11  S5  ZIN A   1      18.401   3.928  13.822  0.00  0.00     0.227 S 
ATOM     12  O6  ZIN A   1      17.353   4.691  14.404  0.00  0.00    -0.206 OA
ATOM     13  O7  ZIN A   1      19.516   4.561  13.210  0.00  0.00    -0.206 OA
BRANCH  11  14
ATOM     14  C4  ZIN A   1      18.952   2.631  14.965  0.00  0.00     0.163 C 
BRANCH  14  15
ATOM     15  C3  ZIN A   1      18.196   1.335  14.668  0.00  0.00     0.016 C 
BRANCH  15  16
ATOM     16  C2  ZIN A   1      18.950   0.153  15.281  0.00  0.00    -0.004 C 
ATOM     17  C1  ZIN A   1      17.951  -0.928  15.701  0.00  0.00     0.005 C 
ENDBRANCH  15  16
ENDBRANCH  14  15
ENDBRANCH  11  14
ENDBRANCH   9  11
ENDBRANCH   8   9
BRANCH   8  18
ATOM     18  C31 ZIN A   1      17.138   4.691  10.828  0.00  0.00     0.197 C 
ATOM     19  O32 ZIN A   1      17.568   5.482  10.007  0.00  0.00    -0.646 OA
ATOM     20  O33 ZIN A   1      16.054   4.885  11.351  0.00  0.00    -0.646 OA
ENDBRANCH   8  18
ENDBRANCH   7   8
ENDBRANCH   1   7
BRANCH   4  21
ATOM     21  O16 ZIN A   1      19.204  -2.546  12.604  0.00  0.00    -0.351 OA
BRANCH  21  22
ATOM     22  C17 ZIN A   1      19.922  -3.457  11.769  0.00  0.00     0.175 C 
BRANCH  22  23
ATOM     23  C18 ZIN A   1      18.935  -4.232  10.892  0.00  0.00     0.027 C 
BRANCH  23  24
ATOM     24  C19 ZIN A   1      19.182  -3.887   9.423  0.00  0.00     0.002 C 
BRANCH  24  25
ATOM     25  C20 ZIN A   1      18.022  -3.037   8.898  0.00  0.00     0.005 C 
BRANCH  25  26
ATOM     26  C21 ZIN A   1      18.571  -1.922   8.005  0.00  0.00    -0.011 C 
ATOM     27  C28 ZIN A   1      17.542  -0.793   7.906  0.00  0.00     0.032 C 
ATOM     28  C27 ZIN A   1      18.063   0.283   6.950  0.00  0.00     0.232 C 
ATOM     29  N24 ZIN A   1      18.280  -0.302   5.622  0.00  0.00    -0.075 N 
ATOM     30  C23 ZIN A   1      19.318  -1.337   5.697  0.00  0.00     0.232 C 
ATOM     31  H25 ZIN A   1      18.572   0.420   4.981  0.00  0.00     0.277 HD
ATOM     32  H26 ZIN A   1      17.419  -0.713   5.293  0.00  0.00     0.277 HD
ATOM     33  C22 ZIN A   1      18.845  -2.474   6.604  0.00  0.00     0.032 C 
ENDBRANCH  25  26
ENDBRANCH  24  25
ENDBRANCH  23  24
ENDBRANCH  22  23
ENDBRANCH  21  22
ENDBRANCH   4  21
TORSDOF 14
ENDMDL
MODEL 2
REMARK VINA RESULT:      -6.6      3.291      7.854
REMARK  14 active torsions:
REMARK  status: ('A' for Active; 'I' for Inactive)
REMARK    1  A    between atoms: C2_2  and  C3_3 
REMARK    2  A    between atoms: C3_3  and  C4_4 
REMARK    3  A    between atoms: C4_4  and  S5_5 
REMARK    4  A    between atoms: S5_5  and  N8_8 
REMARK    5  A    between atoms: N8_8  and  C9_9 
REMARK    6  A    between atoms: C9_9  and  C11_10 
REMARK    7  A    between atoms: C9_9  and  C31_30 
REMARK    8  A    between atoms: C11_10  and  C12_11 
REMARK    9  A    between atoms: C15_14  and  O16_15 
REMARK   10  A    between atoms: O16_15  and  C17_16 
REMARK   11  A    between atoms: C17_16  and  C18_17 
REMARK   12  A    between atoms: C18_17  and  C19_18 
REMARK   13  A    between atoms: C19_18  and  C20_19 
REMARK   14  A    between atoms: C20_19  and  C21_20 
ROOT
ATOM      1  C12 ZIN A   1      18.711   0.333   8.207  0.00  0.00    -0.056 A 
ATOM      2  C13 ZIN A   1      19.361   1.511   8.520  0.00  0.00     0.010 A 
ATOM      3  C14 ZIN A   1      18.880   2.320   9.532  0.00  0.00     0.037 A 
ATOM      4  C15 ZIN A   1      17.744   1.947  10.235  0.00  0.00     0.068 A 
ATOM      5  C29 ZIN A   1      17.092   0.764   9.919  0.00  0.00     0.037 A 
ATOM      6  C30 ZIN A   1      17.574  -0.038   8.903  0.00  0.00     0.010 A 
ENDROOT
BRANCH   1   7
ATOM      7  C11 ZIN A   1      19.237  -0.547   7.103  0.00  0.00     0.075 C 
BRANCH   7   8
ATOM      8  C9  ZIN A   1      18.843  -2.000   7.377  0.00  0.00     0.197 C 
BRANCH   8   9
ATOM      9  N8  ZIN A   1      19.579  -2.495   8.543  0.00  0.00    -0.304 N 
ATOM     10  H43 ZIN A   1      20.492  -2.206   8.698  0.00  0.00     0.173 HD
BRANCH   9  11
ATOM     11  S5  ZIN A   1      18.853  -3.548   9.595  0.00  0.00     0.227 S 
ATOM     12  O6  ZIN A   1      19.696  -4.692   9.582  0.00  0.00    -0.206 OA
ATOM     13  O7  ZIN A   1      17.508  -3.624   9.144  0.00  0.00    -0.206 OA
BRANCH  11  14
ATOM     14  C4  ZIN A   1      18.940  -2.713  11.203  0.00  0.00     0.163 C 
BRANCH  14  15
ATOM     15  C3  ZIN A   1      20.028  -1.637  11.161  0.00  0.00     0.016 C 
BRANCH  15  16
ATOM     16  C2  ZIN A   1      19.702  -0.543  12.180  0.00  0.00    -0.004 C 
ATOM     17  C1  ZIN A   1      20.826   0.496  12.190  0.00  0.00     0.005 C 
ENDBRANCH  15  16
ENDBRANCH  14  15
ENDBRANCH  11  14
ENDBRANCH   9  11
ENDBRANCH   8   9
BRANCH   8  18
ATOM     18  C31 ZIN A   1      19.177  -2.846   6.176  0.00  0.00     0.197 C 
ATOM     19  O32 ZIN A   1      20.138  -3.595   6.206  0.00  0.00    -0.646 OA
ATOM     20  O33 ZIN A   1      18.486  -2.782   5.174  0.00  0.00    -0.646 OA
ENDBRANCH   8  18
ENDBRANCH   7   8
ENDBRANCH   1   7
BRANCH   4  21
ATOM     21  O16 ZIN A   1      17.269   2.740  11.230  0.00  0.00    -0.351 OA
BRANCH  21  22
ATOM     22  C17 ZIN A   1      17.766   2.498  12.548  0.00  0.00     0.175 C 
BRANCH  22  23
ATOM     23  C18 ZIN A   1      17.749   3.801  13.349  0.00  0.00     0.027 C 
BRANCH  23  24
ATOM     24  C19 ZIN A   1      18.129   3.511  14.801  0.00  0.00     0.002 C 
BRANCH  24  25
ATOM     25  C20 ZIN A   1      19.003   2.256  14.859  0.00  0.00     0.005 C 
BRANCH  25  26
ATOM     26  C21 ZIN A   1      18.603   1.411  16.069  0.00  0.00    -0.011 C 
ATOM     27  C28 ZIN A   1      19.320   1.931  17.318  0.00  0.00     0.032 C 
ATOM     28  C27 ZIN A   1      18.978   1.033  18.508  0.00  0.00     0.232 C 
ATOM     29  N24 ZIN A   1      19.412  -0.341  18.230  0.00  0.00    -0.075 N 
ATOM     30  C23 ZIN A   1      18.674  -0.871  17.077  0.00  0.00     0.232 C 
ATOM     31  H25 ZIN A   1      19.233  -0.920  19.037  0.00  0.00     0.277 HD
ATOM     32  H26 ZIN A   1      20.400  -0.345  18.027  0.00  0.00     0.277 HD
ATOM     33  C22 ZIN A   1      19.005  -0.048  15.832  0.00  0.00     0.032 C 
ENDBRANCH  25  26
ENDBRANCH  24  25
ENDBRANCH  23  24
ENDBRANCH  22  23
ENDBRANCH  21  22
ENDBRANCH   4  21
TORSDOF 14
ENDMDL
MODEL 3
REMARK VINA RESULT:      -6.6      3.385      7.504
REMARK  14 active torsions:
REMARK  status: ('A' for Active; 'I' for Inactive)
REMARK    1  A    between atoms: C2_2  and  C3_3 
REMARK    2  A    between atoms: C3_3  and  C4_4 
REMARK    3  A    between atoms: C4_4  and  S5_5 
REMARK    4  A    between atoms: S5_5  and  N8_8 
REMARK    5  A    between atoms: N8_8  and  C9_9 
REMARK    6  A    between atoms: C9_9  and  C11_10 
REMARK    7  A    between atoms: C9_9  and  C31_30 
REMARK    8  A    between atoms: C11_10  and  C12_11 
REMARK    9  A    between atoms: C15_14  and  O16_15 
REMARK   10  A    between atoms: O16_15  and  C17_16 
REMARK   11  A    between atoms: C17_16  and  C18_17 
REMARK   12  A    between atoms: C18_17  and  C19_18 
REMARK   13  A    between atoms: C19_18  and  C20_19 
REMARK   14  A    between atoms: C20_19  and  C21_20 
ROOT
ATOM      1  C12 ZIN A   1      18.679   0.384   7.569  0.00  0.00    -0.056 A 
ATOM      2  C13 ZIN A   1      17.668  -0.020   8.421  0.00  0.00     0.010 A 
ATOM      3  C14 ZIN A   1      17.328   0.759   9.510  0.00  0.00     0.037 A 
ATOM      4  C15 ZIN A   1      18.001   1.949   9.747  0.00  0.00     0.068 A 
ATOM      5  C29 ZIN A   1      19.015   2.352   8.891  0.00  0.00     0.037 A 
ATOM      6  C30 ZIN A   1      19.356   1.566   7.807  0.00  0.00     0.010 A 
ENDROOT
BRANCH   1   7
ATOM      7  C11 ZIN A   1      19.049  -0.469   6.383  0.00  0.00     0.075 C 
BRANCH   7   8
ATOM      8  C9  ZIN A   1      18.695  -1.929   6.675  0.00  0.00     0.197 C 
BRANCH   8   9
ATOM      9  N8  ZIN A   1      19.566  -2.441   7.736  0.00  0.00    -0.304 N 
ATOM     10  H43 ZIN A   1      20.496  -2.167   7.774  0.00  0.00     0.173 HD
BRANCH   9  11
ATOM     11  S5  ZIN A   1      18.964  -3.486   8.869  0.00  0.00     0.227 S 
ATOM     12  O6  ZIN A   1      19.756  -4.657   8.723  0.00  0.00    -0.206 OA
ATOM     13  O7  ZIN A   1      17.566  -3.512   8.616  0.00  0.00    -0.206 OA
BRANCH  11  14
ATOM     14  C4  ZIN A   1      19.308  -2.680  10.457  0.00  0.00     0.163 C 
BRANCH  14  15
ATOM     15  C3  ZIN A   1      19.292  -3.726  11.574  0.00  0.00     0.016 C 
BRANCH  15  16
ATOM     16  C2  ZIN A   1      17.850  -3.961  12.031  0.00  0.00    -0.004 C 
ATOM     17  C1  ZIN A   1      17.513  -5.449  11.913  0.00  0.00     0.005 C 
ENDBRANCH  15  16
ENDBRANCH  14  15
ENDBRANCH  11  14
ENDBRANCH   9  11
ENDBRANCH   8   9
BRANCH   8  18
ATOM     18  C31 ZIN A   1      18.888  -2.751   5.426  0.00  0.00     0.197 C 
ATOM     19  O32 ZIN A   1      19.622  -2.350   4.540  0.00  0.00    -0.646 OA
ATOM     20  O33 ZIN A   1      18.310  -3.817   5.303  0.00  0.00    -0.646 OA
ENDBRANCH   8  18
ENDBRANCH   7   8
ENDBRANCH   1   7
BRANCH   4  21
ATOM     21  O16 ZIN A   1      17.668   2.717  10.817  0.00  0.00    -0.351 OA
BRANCH  21  22
ATOM     22  C17 ZIN A   1      18.739   3.179  11.643  0.00  0.00     0.175 C 
BRANCH  22  23
ATOM     23  C18 ZIN A   1      19.314   2.005  12.438  0.00  0.00     0.027 C 
BRANCH  23  24
ATOM     24  C19 ZIN A   1      18.249   1.468  13.395  0.00  0.00     0.002 C 
BRANCH  24  25
ATOM     25  C20 ZIN A   1      18.172  -0.055  13.269  0.00  0.00     0.005 C 
BRANCH  25  26
ATOM     26  C21 ZIN A   1      17.981  -0.673  14.655  0.00  0.00    -0.011 C 
ATOM     27  C28 ZIN A   1      17.442   0.387  15.619  0.00  0.00     0.032 C 
ATOM     28  C27 ZIN A   1      17.328  -0.217  17.021  0.00  0.00     0.232 C 
ATOM     29  N24 ZIN A   1      18.650  -0.664  17.473  0.00  0.00    -0.075 N 
ATOM     30  C23 ZIN A   1      19.142  -1.732  16.595  0.00  0.00     0.232 C 
ATOM     31  H25 ZIN A   1      18.582  -1.013  18.418  0.00  0.00     0.277 HD
ATOM     32  H26 ZIN A   1      19.293   0.113  17.449  0.00  0.00     0.277 HD
ATOM     33  C22 ZIN A   1      19.326  -1.188  15.177  0.00  0.00     0.032 C 
ENDBRANCH  25  26
ENDBRANCH  24  25
ENDBRANCH  23  24
ENDBRANCH  22  23
ENDBRANCH  21  22
ENDBRANCH   4  21
TORSDOF 14
ENDMDL
MODEL 4
REMARK VINA RESULT:      -6.6      2.856      7.207
REMARK  14 active torsions:
REMARK  status: ('A' for Active; 'I' for Inactive)
REMARK    1  A    between atoms: C2_2  and  C3_3 
REMARK    2  A    between atoms: C3_3  and  C4_4 
REMARK    3  A    between atoms: C4_4  and  S5_5 
REMARK    4  A    between atoms: S5_5  and  N8_8 
REMARK    5  A    between atoms: N8_8  and  C9_9 
REMARK    6  A    between atoms: C9_9  and  C11_10 
REMARK    7  A    between atoms: C9_9  and  C31_30 
REMARK    8  A    between atoms: C11_10  and  C12_11 
REMARK    9  A    between atoms: C15_14  and  O16_15 
REMARK   10  A    between atoms: O16_15  and  C17_16 
REMARK   11  A    between atoms: C17_16  and  C18_17 
REMARK   12  A    between atoms: C18_17  and  C19_18 
REMARK   13  A    between atoms: C19_18  and  C20_19 
REMARK   14  A    between atoms: C20_19  and  C21_20 
ROOT
ATOM      1  C12 ZIN A   1      18.723   3.026  10.272  0.00  0.00    -0.056 A 
ATOM      2  C13 ZIN A   1      17.548   3.735  10.438  0.00  0.00     0.010 A 
ATOM      3  C14 ZIN A   1      17.380   4.548  11.543  0.00  0.00     0.037 A 
ATOM      4  C15 ZIN A   1      18.392   4.652  12.485  0.00  0.00     0.068 A 
ATOM      5  C29 ZIN A   1      19.571   3.940  12.317  0.00  0.00     0.037 A 
ATOM      6  C30 ZIN A   1      19.732   3.125  11.214  0.00  0.00     0.010 A 
ENDROOT
BRANCH   1   7
ATOM      7  C11 ZIN A   1      18.904   2.140   9.067  0.00  0.00     0.075 C 
BRANCH   7   8
ATOM      8  C9  ZIN A   1      17.932   0.962   9.150  0.00  0.00     0.197 C 
BRANCH   8   9
ATOM      9  N8  ZIN A   1      18.409   0.003  10.150  0.00  0.00    -0.304 N 
ATOM     10  H43 ZIN A   1      19.271  -0.428  10.036  0.00  0.00     0.173 HD
BRANCH   9  11
ATOM     11  S5  ZIN A   1      17.478  -0.345  11.474  0.00  0.00     0.227 S 
ATOM     12  O6  ZIN A   1      16.195   0.170  11.146  0.00  0.00    -0.206 OA
ATOM     13  O7  ZIN A   1      18.218   0.176  12.570  0.00  0.00    -0.206 OA
BRANCH  11  14
ATOM     14  C4  ZIN A   1      17.439  -2.158  11.536  0.00  0.00     0.163 C 
BRANCH  14  15
ATOM     15  C3  ZIN A   1      18.492  -2.657  12.527  0.00  0.00     0.016 C 
BRANCH  15  16
ATOM     16  C2  ZIN A   1      19.816  -2.883  11.794  0.00  0.00    -0.004 C 
ATOM     17  C1  ZIN A   1      19.962  -4.367  11.451  0.00  0.00     0.005 C 
ENDBRANCH  15  16
ENDBRANCH  14  15
ENDBRANCH  11  14
ENDBRANCH   9  11
ENDBRANCH   8   9
BRANCH   8  18
ATOM     18  C31 ZIN A   1      17.847   0.285   7.806  0.00  0.00     0.197 C 
ATOM     19  O32 ZIN A   1      18.308   0.831   6.819  0.00  0.00    -0.646 OA
ATOM     20  O33 ZIN A   1      17.318  -0.809   7.707  0.00  0.00    -0.646 OA
ENDBRANCH   8  18
ENDBRANCH   7   8
ENDBRANCH   1   7
BRANCH   4  21
ATOM     21  O16 ZIN A   1      18.229   5.451  13.573  0.00  0.00    -0.351 OA
BRANCH  21  22
ATOM     22  C17 ZIN A   1      17.975   4.804  14.821  0.00  0.00     0.175 C 
BRANCH  22  23
ATOM     23  C18 ZIN A   1      19.224   4.883  15.702  0.00  0.00     0.027 C 
BRANCH  23  24
ATOM     24  C19 ZIN A   1      19.492   3.514  16.328  0.00  0.00     0.002 C 
BRANCH  24  25
ATOM     25  C20 ZIN A   1      18.825   2.427  15.482  0.00  0.00     0.005 C 
BRANCH  25  26
ATOM     26  C21 ZIN A   1      18.531   1.207  16.357  0.00  0.00    -0.011 C 
ATOM     27  C28 ZIN A   1      19.126   1.421  17.751  0.00  0.00     0.032 C 
ATOM     28  C27 ZIN A   1      18.897   0.167  18.596  0.00  0.00     0.232 C 
ATOM     29  N24 ZIN A   1      19.545  -0.984  17.957  0.00  0.00    -0.075 N 
ATOM     30  C23 ZIN A   1      18.929  -1.239  16.649  0.00  0.00     0.232 C 
ATOM     31  H25 ZIN A   1      19.438  -1.799  18.543  0.00  0.00     0.277 HD
ATOM     32  H26 ZIN A   1      20.527  -0.788  17.832  0.00  0.00     0.277 HD
ATOM     33  C22 ZIN A   1      19.160  -0.039  15.729  0.00  0.00     0.032 C 
ENDBRANCH  25  26
ENDBRANCH  24  25
ENDBRANCH  23  24
ENDBRANCH  22  23
ENDBRANCH  21  22
ENDBRANCH   4  21
TORSDOF 14
ENDMDL
MODEL 5
REMARK VINA RESULT:      -6.6      2.858      4.657
REMARK  14 active torsions:
REMARK  status: ('A' for Active; 'I' for Inactive)
REMARK    1  A    between atoms: C2_2  and  C3_3 
REMARK    2  A    between atoms: C3_3  and  C4_4 
REMARK    3  A    between atoms: C4_4  and  S5_5 
REMARK    4  A    between atoms: S5_5  and  N8_8 
REMARK    5  A    between atoms: N8_8  and  C9_9 
REMARK    6  A    between atoms: C9_9  and  C11_10 
REMARK    7  A    between atoms: C9_9  and  C31_30 
REMARK    8  A    between atoms: C11_10  and  C12_11 
REMARK    9  A    between atoms: C15_14  and  O16_15 
REMARK   10  A    between atoms: O16_15  and  C17_16 
REMARK   11  A    between atoms: C17_16  and  C18_17 
REMARK   12  A    between atoms: C18_17  and  C19_18 
REMARK   13  A    between atoms: C19_18  and  C20_19 
REMARK   14  A    between atoms: C20_19  and  C21_20 
ROOT
ATOM      1  C12 ZIN A   1      18.059   4.248  12.514  0.00  0.00    -0.056 A 
ATOM      2  C13 ZIN A   1      19.277   3.595  12.561  0.00  0.00     0.010 A 
ATOM      3  C14 ZIN A   1      19.769   2.966  11.434  0.00  0.00     0.037 A 
ATOM      4  C15 ZIN A   1      19.040   2.990  10.254  0.00  0.00     0.068 A 
ATOM      5  C29 ZIN A   1      17.819   3.645  10.208  0.00  0.00     0.037 A 
ATOM      6  C30 ZIN A   1      17.328   4.268  11.340  0.00  0.00     0.010 A 
ENDROOT
BRANCH   1   7
ATOM      7  C11 ZIN A   1      17.525   4.933  13.745  0.00  0.00     0.075 C 
BRANCH   7   8
ATOM      8  C9  ZIN A   1      18.563   4.850  14.866  0.00  0.00     0.197 C 
BRANCH   8   9
ATOM      9  N8  ZIN A   1      18.100   3.917  15.894  0.00  0.00    -0.304 N 
ATOM     10  H43 ZIN A   1      17.182   3.958  16.209  0.00  0.00     0.173 HD
BRANCH   9  11
ATOM     11  S5  ZIN A   1      19.139   2.792  16.522  0.00  0.00     0.227 S 
ATOM     12  O6  ZIN A   1      20.237   3.557  17.001  0.00  0.00    -0.206 OA
ATOM     13  O7  ZIN A   1      19.307   1.846  15.475  0.00  0.00    -0.206 OA
BRANCH  11  14
ATOM     14  C4  ZIN A   1      18.227   2.055  17.906  0.00  0.00     0.163 C 
BRANCH  14  15
ATOM     15  C3  ZIN A   1      18.450   0.541  17.914  0.00  0.00     0.016 C 
BRANCH  15  16
ATOM     16  C2  ZIN A   1      17.313  -0.145  17.153  0.00  0.00    -0.004 C 
ATOM     17  C1  ZIN A   1      17.833  -1.433  16.510  0.00  0.00     0.005 C 
ENDBRANCH  15  16
ENDBRANCH  14  15
ENDBRANCH  11  14
ENDBRANCH   9  11
ENDBRANCH   8   9
BRANCH   8  18
ATOM     18  C31 ZIN A   1      18.754   6.216  15.475  0.00  0.00     0.197 C 
ATOM     19  O32 ZIN A   1      18.250   6.477  16.553  0.00  0.00    -0.646 OA
ATOM     20  O33 ZIN A   1      19.413   7.058  14.890  0.00  0.00    -0.646 OA
ENDBRANCH   8  18
ENDBRANCH   7   8
ENDBRANCH   1   7
BRANCH   4  21
ATOM     21  O16 ZIN A   1      19.522   2.372   9.144  0.00  0.00    -0.351 OA
BRANCH  21  22
ATOM     22  C17 ZIN A   1      18.563   1.820   8.240  0.00  0.00     0.175 C 
BRANCH  22  23
ATOM     23  C18 ZIN A   1      19.118   0.531   7.630  0.00  0.00     0.027 C 
BRANCH  23  24
ATOM     24  C19 ZIN A   1      18.568  -0.673   8.397  0.00  0.00     0.002 C 
BRANCH  24  25
ATOM     25  C20 ZIN A   1      17.398  -0.226   9.276  0.00  0.00     0.005 C 
BRANCH  25  26
ATOM     26  C21 ZIN A   1      17.654  -0.652  10.723  0.00  0.00    -0.011 C 
ATOM     27  C28 ZIN A   1      17.021   0.365  11.676  0.00  0.00     0.032 C 
ATOM     28  C27 ZIN A   1      17.348  -0.024  13.119  0.00  0.00     0.232 C 
ATOM     29  N24 ZIN A   1      18.803  -0.034  13.309  0.00  0.00    -0.075 N 
ATOM     30  C23 ZIN A   1      19.410  -1.058  12.450  0.00  0.00     0.232 C 
ATOM     31  H25 ZIN A   1      19.015  -0.239  14.274  0.00  0.00     0.277 HD
ATOM     32  H26 ZIN A   1      19.178   0.871  13.068  0.00  0.00     0.277 HD
ATOM     33  C22 ZIN A   1      19.162  -0.709  10.981  0.00  0.00     0.032 C 
ENDBRANCH  25  26
ENDBRANCH  24  25
ENDBRANCH  23  24
ENDBRANCH  22  23
ENDBRANCH  21  22
ENDBRANCH   4  21
TORSDOF 14
ENDMDL
MODEL 6
REMARK VINA RESULT:      -6.5      2.375      4.014
REMARK  14 active torsions:
REMARK  status: ('A' for Active; 'I' for Inactive)
REMARK    1  A    between atoms: C2_2  and  C3_3 
REMARK    2  A    between atoms: C3_3  and  C4_4 
REMARK    3  A    between atoms: C4_4  and  S5_5 
REMARK    4  A    between atoms: S5_5  and  N8_8 
REMARK    5  A    between atoms: N8_8  and  C9_9 
REMARK    6  A    between atoms: C9_9  and  C11_10 
REMARK    7  A    between atoms: C9_9  and  C31_30 
REMARK    8  A    between atoms: C11_10  and  C12_11 
REMARK    9  A    between atoms: C15_14  and  O16_15 
REMARK   10  A    between atoms: O16_15  and  C17_16 
REMARK   11  A    between atoms: C17_16  and  C18_17 
REMARK   12  A    between atoms: C18_17  and  C19_18 
REMARK   13  A    between atoms: C19_18  and  C20_19 
REMARK   14  A    between atoms: C20_19  and  C21_20 
ROOT
ATOM      1  C12 ZIN A   1      18.113   1.239   9.188  0.00  0.00    -0.056 A 
ATOM      2  C13 ZIN A   1      17.385   0.071   9.319  0.00  0.00     0.010 A 
ATOM      3  C14 ZIN A   1      17.538  -0.947   8.396  0.00  0.00     0.037 A 
ATOM      4  C15 ZIN A   1      18.423  -0.795   7.339  0.00  0.00     0.068 A 
ATOM      5  C29 ZIN A   1      19.153   0.377   7.210  0.00  0.00     0.037 A 
ATOM      6  C30 ZIN A   1      18.993   1.394   8.131  0.00  0.00     0.010 A 
ENDROOT
BRANCH   1   7
ATOM      7  C11 ZIN A   1      17.945   2.347  10.195  0.00  0.00     0.075 C 
BRANCH   7   8
ATOM      8  C9  ZIN A   1      18.962   2.169  11.324  0.00  0.00     0.197 C 
BRANCH   8   9
ATOM      9  N8  ZIN A   1      18.313   1.531  12.472  0.00  0.00    -0.304 N 
ATOM     10  H43 ZIN A   1      17.672   2.029  13.004  0.00  0.00     0.173 HD
BRANCH   9  11
ATOM     11  S5  ZIN A   1      18.674  -0.036  12.863  0.00  0.00     0.227 S 
ATOM     12  O6  ZIN A   1      19.720  -0.389  11.968  0.00  0.00    -0.206 OA
ATOM     13  O7  ZIN A   1      17.420  -0.705  12.824  0.00  0.00    -0.206 OA
BRANCH  11  14
ATOM     14  C4  ZIN A   1      19.297   0.053  14.564  0.00  0.00     0.163 C 
BRANCH  14  15
ATOM     15  C3  ZIN A   1      19.158  -1.317  15.230  0.00  0.00     0.016 C 
BRANCH  15  16
ATOM     16  C2  ZIN A   1      18.734  -1.135  16.689  0.00  0.00    -0.004 C 
ATOM     17  C1  ZIN A   1      17.224  -0.900  16.756  0.00  0.00     0.005 C 
ENDBRANCH  15  16
ENDBRANCH  14  15
ENDBRANCH  11  14
ENDBRANCH   9  11
ENDBRANCH   8   9
BRANCH   8  18
ATOM     18  C31 ZIN A   1      19.499   3.516  11.733  0.00  0.00     0.197 C 
ATOM     19  O32 ZIN A   1      20.697   3.734  11.691  0.00  0.00    -0.646 OA
ATOM     20  O33 ZIN A   1      18.734   4.389  12.107  0.00  0.00    -0.646 OA
ENDBRANCH   8  18
ENDBRANCH   7   8
ENDBRANCH   1   7
BRANCH   4  21
ATOM     21  O16 ZIN A   1      18.575  -1.794   6.431  0.00  0.00    -0.351 OA
BRANCH  21  22
ATOM     22  C17 ZIN A   1      19.617  -2.741   6.675  0.00  0.00     0.175 C 
BRANCH  22  23
ATOM     23  C18 ZIN A   1      19.129  -4.145   6.309  0.00  0.00     0.027 C 
BRANCH  23  24
ATOM     24  C19 ZIN A   1      19.699  -5.157   7.303  0.00  0.00     0.002 C 
BRANCH  24  25
ATOM     25  C20 ZIN A   1      18.551  -5.915   7.974  0.00  0.00     0.005 C 
BRANCH  25  26
ATOM     26  C21 ZIN A   1      18.423  -5.463   9.430  0.00  0.00    -0.011 C 
ATOM     27  C28 ZIN A   1      17.363  -4.364   9.535  0.00  0.00     0.032 C 
ATOM     28  C27 ZIN A   1      17.297  -3.862  10.978  0.00  0.00     0.232 C 
ATOM     29  N24 ZIN A   1      18.603  -3.323  11.373  0.00  0.00    -0.075 N 
ATOM     30  C23 ZIN A   1      19.611  -4.390  11.345  0.00  0.00     0.232 C 
ATOM     31  H25 ZIN A   1      18.542  -2.945  12.307  0.00  0.00     0.277 HD
ATOM     32  H26 ZIN A   1      18.871  -2.591  10.732  0.00  0.00     0.277 HD
ATOM     33  C22 ZIN A   1      19.767  -4.912   9.916  0.00  0.00     0.032 C 
ENDBRANCH  25  26
ENDBRANCH  24  25
ENDBRANCH  23  24
ENDBRANCH  22  23
ENDBRANCH  21  22
ENDBRANCH   4  21
TORSDOF 14
ENDMDL
MODEL 7
REMARK VINA RESULT:      -6.5      3.312      6.923
REMARK  14 active torsions:
REMARK  status: ('A' for Active; 'I' for Inactive)
REMARK    1  A    between atoms: C2_2  and  C3_3 
REMARK    2  A    between atoms: C3_3  and  C4_4 
REMARK    3  A    between atoms: C4_4  and  S5_5 
REMARK    4  A    between atoms: S5_5  and  N8_8 
REMARK    5  A    between atoms: N8_8  and  C9_9 
REMARK    6  A    between atoms: C9_9  and  C11_10 
REMARK    7  A    between atoms: C9_9  and  C31_30 
REMARK    8  A    between atoms: C11_10  and  C12_11 
REMARK    9  A    between atoms: C15_14  and  O16_15 
REMARK   10  A    between atoms: O16_15  and  C17_16 
REMARK   11  A    between atoms: C17_16  and  C18_17 
REMARK   12  A    between atoms: C18_17  and  C19_18 
REMARK   13  A    between atoms: C19_18  and  C20_19 
REMARK   14  A    between atoms: C20_19  and  C21_20 
ROOT
ATOM      1  C12 ZIN A   1      19.115  -0.630   9.959  0.00  0.00    -0.056 A 
ATOM      2  C13 ZIN A   1      20.090  -0.621  10.939  0.00  0.00     0.010 A 
ATOM      3  C14 ZIN A   1      19.731  -0.578  12.272  0.00  0.00     0.037 A 
ATOM      4  C15 ZIN A   1      18.391  -0.545  12.628  0.00  0.00     0.068 A 
ATOM      5  C29 ZIN A   1      17.414  -0.554  11.644  0.00  0.00     0.037 A 
ATOM      6  C30 ZIN A   1      17.777  -0.592  10.311  0.00  0.00     0.010 A 
ENDROOT
BRANCH   1   7
ATOM      7  C11 ZIN A   1      19.509  -0.678   8.506  0.00  0.00     0.075 C 
BRANCH   7   8
ATOM      8  C9  ZIN A   1      18.860  -1.894   7.841  0.00  0.00     0.197 C 
BRANCH   8   9
ATOM      9  N8  ZIN A   1      19.644  -3.093   8.144  0.00  0.00    -0.304 N 
ATOM     10  H43 ZIN A   1      20.589  -3.015   8.352  0.00  0.00     0.173 HD
BRANCH   9  11
ATOM     11  S5  ZIN A   1      18.920  -4.582   8.132  0.00  0.00     0.227 S 
ATOM     12  O6  ZIN A   1      19.513  -5.251   7.027  0.00  0.00    -0.206 OA
ATOM     13  O7  ZIN A   1      17.528  -4.295   8.154  0.00  0.00    -0.206 OA
BRANCH  11  14
ATOM     14  C4  ZIN A   1      19.438  -5.350   9.692  0.00  0.00     0.163 C 
BRANCH  14  15
ATOM     15  C3  ZIN A   1      19.676  -4.262  10.741  0.00  0.00     0.016 C 
BRANCH  15  16
ATOM     16  C2  ZIN A   1      18.438  -4.132  11.631  0.00  0.00    -0.004 C 
ATOM     17  C1  ZIN A   1      17.618  -5.422  11.557  0.00  0.00     0.005 C 
ENDBRANCH  15  16
ENDBRANCH  14  15
ENDBRANCH  11  14
ENDBRANCH   9  11
ENDBRANCH   8   9
BRANCH   8  18
ATOM     18  C31 ZIN A   1      18.815  -1.686   6.349  0.00  0.00     0.197 C 
ATOM     19  O32 ZIN A   1      19.699  -2.142   5.644  0.00  0.00    -0.646 OA
ATOM     20  O33 ZIN A   1      17.896  -1.063   5.848  0.00  0.00    -0.646 OA
ENDBRANCH   8  18
ENDBRANCH   7   8
ENDBRANCH   1   7
BRANCH   4  21
ATOM     21  O16 ZIN A   1      18.035  -0.502  13.939  0.00  0.00    -0.351 OA
BRANCH  21  22
ATOM     22  C17 ZIN A   1      19.075  -0.246  14.885  0.00  0.00     0.175 C 
BRANCH  22  23
ATOM     23  C18 ZIN A   1      18.891   1.152  15.480  0.00  0.00     0.027 C 
BRANCH  23  24
ATOM     24  C19 ZIN A   1      17.912   1.948  14.616  0.00  0.00     0.002 C 
BRANCH  24  25
ATOM     25  C20 ZIN A   1      18.687   2.961  13.769  0.00  0.00     0.005 C 
BRANCH  25  26
ATOM     26  C21 ZIN A   1      17.971   3.162  12.432  0.00  0.00    -0.011 C 
ATOM     27  C28 ZIN A   1      18.960   2.951  11.284  0.00  0.00     0.032 C 
ATOM     28  C27 ZIN A   1      18.258   3.231   9.954  0.00  0.00     0.232 C 
ATOM     29  N24 ZIN A   1      17.773   4.616   9.935  0.00  0.00    -0.075 N 
ATOM     30  C23 ZIN A   1      16.769   4.806  10.989  0.00  0.00     0.232 C 
ATOM     31  H25 ZIN A   1      17.357   4.814   9.037  0.00  0.00     0.277 HD
ATOM     32  H26 ZIN A   1      18.547   5.244  10.092  0.00  0.00     0.277 HD
ATOM     33  C22 ZIN A   1      17.414   4.587  12.358  0.00  0.00     0.032 C 
ENDBRANCH  25  26
ENDBRANCH  24  25
ENDBRANCH  23  24
ENDBRANCH  22  23
ENDBRANCH  21  22
ENDBRANCH   4  21
TORSDOF 14
ENDMDL
MODEL 8
REMARK VINA RESULT:      -6.5      2.644      4.497
REMARK  14 active torsions:
REMARK  status: ('A' for Active; 'I' for Inactive)
REMARK    1  A    between atoms: C2_2  and  C3_3 
REMARK    2  A    between atoms: C3_3  and  C4_4 
REMARK    3  A    between atoms: C4_4  and  S5_5 
REMARK    4  A    between atoms: S5_5  and  N8_8 
REMARK    5  A    between atoms: N8_8  and  C9_9 
REMARK    6  A    between atoms: C9_9  and  C11_10 
REMARK    7  A    between atoms: C9_9  and  C31_30 
REMARK    8  A    between atoms: C11_10  and  C12_11 
REMARK    9  A    between atoms: C15_14  and  O16_15 
REMARK   10  A    between atoms: O16_15  and  C17_16 
REMARK   11  A    between atoms: C17_16  and  C18_17 
REMARK   12  A    between atoms: C18_17  and  C19_18 
REMARK   13  A    between atoms: C19_18  and  C20_19 
REMARK   14  A    between atoms: C20_19  and  C21_20 
ROOT
ATOM      1  C12 ZIN A   1      17.862   4.428  13.047  0.00  0.00    -0.056 A 
ATOM      2  C13 ZIN A   1      19.144   3.917  12.972  0.00  0.00     0.010 A 
ATOM      3  C14 ZIN A   1      19.595   3.348  11.796  0.00  0.00     0.037 A 
ATOM      4  C15 ZIN A   1      18.759   3.292  10.690  0.00  0.00     0.068 A 
ATOM      5  C29 ZIN A   1      17.473   3.806  10.767  0.00  0.00     0.037 A 
ATOM      6  C30 ZIN A   1      17.025   4.368  11.947  0.00  0.00     0.010 A 
ENDROOT
BRANCH   1   7
ATOM      7  C11 ZIN A   1      17.373   5.048  14.331  0.00  0.00     0.075 C 
BRANCH   7   8
ATOM      8  C9  ZIN A   1      18.481   4.978  15.384  0.00  0.00     0.197 C 
BRANCH   8   9
ATOM      9  N8  ZIN A   1      17.988   4.269  16.567  0.00  0.00    -0.304 N 
ATOM     10  H43 ZIN A   1      17.071   4.395  16.860  0.00  0.00     0.173 HD
BRANCH   9  11
ATOM     11  S5  ZIN A   1      18.992   3.255  17.405  0.00  0.00     0.227 S 
ATOM     12  O6  ZIN A   1      18.717   3.537  18.770  0.00  0.00    -0.206 OA
ATOM     13  O7  ZIN A   1      20.278   3.498  16.851  0.00  0.00    -0.206 OA
BRANCH  11  14
ATOM     14  C4  ZIN A   1      18.417   1.589  16.972  0.00  0.00     0.163 C 
BRANCH  14  15
ATOM     15  C3  ZIN A   1      18.789   1.283  15.520  0.00  0.00     0.016 C 
BRANCH  15  16
ATOM     16  C2  ZIN A   1      17.522   0.948  14.729  0.00  0.00    -0.004 C 
ATOM     17  C1  ZIN A   1      17.908   0.421  13.345  0.00  0.00     0.005 C 
ENDBRANCH  15  16
ENDBRANCH  14  15
ENDBRANCH  11  14
ENDBRANCH   9  11
ENDBRANCH   8   9
BRANCH   8  18
ATOM     18  C31 ZIN A   1      18.895   6.374  15.771  0.00  0.00     0.197 C 
ATOM     19  O32 ZIN A   1      19.489   7.077  14.973  0.00  0.00    -0.646 OA
ATOM     20  O33 ZIN A   1      18.634   6.802  16.883  0.00  0.00    -0.646 OA
ENDBRANCH   8  18
ENDBRANCH   7   8
ENDBRANCH   1   7
BRANCH   4  21
ATOM     21  O16 ZIN A   1      19.199   2.734   9.532  0.00  0.00    -0.351 OA
BRANCH  21  22
ATOM     22  C17 ZIN A   1      19.186   1.307   9.453  0.00  0.00     0.175 C 
BRANCH  22  23
ATOM     23  C18 ZIN A   1      18.415   0.871   8.205  0.00  0.00     0.027 C 
BRANCH  23  24
ATOM     24  C19 ZIN A   1      17.746  -0.479   8.466  0.00  0.00     0.002 C 
BRANCH  24  25
ATOM     25  C20 ZIN A   1      17.672  -0.729   9.974  0.00  0.00     0.005 C 
BRANCH  25  26
ATOM     26  C21 ZIN A   1      18.093  -2.169  10.275  0.00  0.00    -0.011 C 
ATOM     27  C28 ZIN A   1      19.342  -2.164  11.159  0.00  0.00     0.032 C 
ATOM     28  C27 ZIN A   1      19.803  -3.604  11.391  0.00  0.00     0.232 C 
ATOM     29  N24 ZIN A   1      20.116  -4.234  10.103  0.00  0.00    -0.075 N 
ATOM     30  C23 ZIN A   1      18.905  -4.308   9.277  0.00  0.00     0.232 C 
ATOM     31  H25 ZIN A   1      20.470  -5.166  10.262  0.00  0.00     0.277 HD
ATOM     32  H26 ZIN A   1      20.816  -3.687   9.624  0.00  0.00     0.277 HD
ATOM     33  C22 ZIN A   1      18.409  -2.895   8.965  0.00  0.00     0.032 C 
ENDBRANCH  25  26
ENDBRANCH  24  25
ENDBRANCH  23  24
ENDBRANCH  22  23
ENDBRANCH  21  22
ENDBRANCH   4  21
TORSDOF 14
ENDMDL
MODEL 9
REMARK VINA RESULT:      -6.5      3.606      7.744
REMARK  14 active torsions:
REMARK  status: ('A' for Active; 'I' for Inactive)
REMARK    1  A    between atoms: C2_2  and  C3_3 
REMARK    2  A    between atoms: C3_3  and  C4_4 
REMARK    3  A    between atoms: C4_4  and  S5_5 
REMARK    4  A    between atoms: S5_5  and  N8_8 
REMARK    5  A    between atoms: N8_8  and  C9_9 
REMARK    6  A    between atoms: C9_9  and  C11_10 
REMARK    7  A    between atoms: C9_9  and  C31_30 
REMARK    8  A    between atoms: C11_10  and  C12_11 
REMARK    9  A    between atoms: C15_14  and  O16_15 
REMARK   10  A    between atoms: O16_15  and  C17_16 
REMARK   11  A    between atoms: C17_16  and  C18_17 
REMARK   12  A    between atoms: C18_17  and  C19_18 
REMARK   13  A    between atoms: C19_18  and  C20_19 
REMARK   14  A    between atoms: C20_19  and  C21_20 
ROOT
ATOM      1  C12 ZIN A   1      18.096  -4.027  10.273  0.00  0.00    -0.056 A 
ATOM      2  C13 ZIN A   1      19.393  -4.235  10.704  0.00  0.00     0.010 A 
ATOM      3  C14 ZIN A   1      19.904  -3.490  11.750  0.00  0.00     0.037 A 
ATOM      4  C15 ZIN A   1      19.113  -2.533  12.368  0.00  0.00     0.068 A 
ATOM      5  C29 ZIN A   1      17.812  -2.325  11.935  0.00  0.00     0.037 A 
ATOM      6  C30 ZIN A   1      17.308  -3.069  10.885  0.00  0.00     0.010 A 
ENDROOT
BRANCH   1   7
ATOM      7  C11 ZIN A   1      17.542  -4.841   9.133  0.00  0.00     0.075 C 
BRANCH   7   8
ATOM      8  C9  ZIN A   1      18.499  -4.765   7.941  0.00  0.00     0.197 C 
BRANCH   8   9
ATOM      9  N8  ZIN A   1      17.904  -3.941   6.886  0.00  0.00    -0.304 N 
ATOM     10  H43 ZIN A   1      17.040  -4.180   6.515  0.00  0.00     0.173 HD
BRANCH   9  11
ATOM     11  S5  ZIN A   1      18.705  -2.605   6.328  0.00  0.00     0.227 S 
ATOM     12  O6  ZIN A   1      17.893  -2.128   5.264  0.00  0.00    -0.206 OA
ATOM     13  O7  ZIN A   1      20.029  -3.062   6.091  0.00  0.00    -0.206 OA
BRANCH  11  14
ATOM     14  C4  ZIN A   1      18.673  -1.443   7.721  0.00  0.00     0.163 C 
BRANCH  14  15
ATOM     15  C3  ZIN A   1      17.800  -0.239   7.360  0.00  0.00     0.016 C 
BRANCH  15  16
ATOM     16  C2  ZIN A   1      18.684   0.887   6.818  0.00  0.00    -0.004 C 
ATOM     17  C1  ZIN A   1      19.249   1.700   7.984  0.00  0.00     0.005 C 
ENDBRANCH  15  16
ENDBRANCH  14  15
ENDBRANCH  11  14
ENDBRANCH   9  11
ENDBRANCH   8   9
BRANCH   8  18
ATOM     18  C31 ZIN A   1      18.752  -6.154   7.412  0.00  0.00     0.197 C 
ATOM     19  O32 ZIN A   1      19.312  -6.304   6.340  0.00  0.00    -0.646 OA
ATOM     20  O33 ZIN A   1      18.397  -7.126   8.056  0.00  0.00    -0.646 OA
ENDBRANCH   8  18
ENDBRANCH   7   8
ENDBRANCH   1   7
BRANCH   4  21
ATOM     21  O16 ZIN A   1      19.612  -1.799  13.396  0.00  0.00    -0.351 OA
BRANCH  21  22
ATOM     22  C17 ZIN A   1      19.298  -0.405  13.412  0.00  0.00     0.175 C 
BRANCH  22  23
ATOM     23  C18 ZIN A   1      20.440   0.384  12.768  0.00  0.00     0.027 C 
BRANCH  23  24
ATOM     24  C19 ZIN A   1      19.928   1.083  11.508  0.00  0.00     0.002 C 
BRANCH  24  25
ATOM     25  C20 ZIN A   1      18.468   1.494  11.710  0.00  0.00     0.005 C 
BRANCH  25  26
ATOM     26  C21 ZIN A   1      18.369   3.020  11.758  0.00  0.00    -0.011 C 
ATOM     27  C28 ZIN A   1      17.819   3.456  13.119  0.00  0.00     0.032 C 
ATOM     28  C27 ZIN A   1      17.649   4.976  13.131  0.00  0.00     0.232 C 
ATOM     29  N24 ZIN A   1      16.714   5.376  12.073  0.00  0.00    -0.075 N 
ATOM     30  C23 ZIN A   1      17.269   5.026  10.760  0.00  0.00     0.232 C 
ATOM     31  H25 ZIN A   1      16.562   6.373  12.118  0.00  0.00     0.277 HD
ATOM     32  H26 ZIN A   1      15.835   4.898  12.204  0.00  0.00     0.277 HD
ATOM     33  C22 ZIN A   1      17.425   3.508  10.656  0.00  0.00     0.032 C 
ENDBRANCH  25  26
ENDBRANCH  24  25
ENDBRANCH  23  24
ENDBRANCH  22  23
ENDBRANCH  21  22
ENDBRANCH   4  21
TORSDOF 14
ENDMDL
