MODEL 1
REMARK VINA RESULT:      -6.7      0.000      0.000
REMARK  2 active torsions:
REMARK  status: ('A' for Active; 'I' for Inactive)
REMARK    1  A    between atoms: N6_6  and  O7_7 
REMARK    2  A    between atoms: C8_8  and  C9_9 
ROOT
ATOM      1  C1  ZIN A   1      18.516  -0.023   4.082  0.00  0.00     0.048 C 
ATOM      2  C2  ZIN A   1      18.832  -0.626   5.426  0.00  0.00    -0.055 A 
ATOM      3  C3  ZIN A   1      19.214  -1.932   5.523  0.00  0.00     0.083 A 
ATOM      4  C4  ZIN A   1      19.505  -2.471   6.788  0.00  0.00     0.272 A 
ATOM      5  O5  ZIN A   1      19.848  -3.638   6.890  0.00  0.00    -0.266 OA
ATOM      6  N6  ZIN A   1      19.405  -1.702   7.889  0.00  0.00    -0.192 N 
ATOM      7  C8  ZIN A   1      19.026  -0.401   7.794  0.00  0.00     0.048 A 
ATOM      8  C15 ZIN A   1      18.743   0.151   6.590  0.00  0.00     0.035 A 
ENDROOT
BRANCH   7   9
ATOM      9  C9  ZIN A   1      18.923   0.438   9.041  0.00  0.00     0.038 C 
ATOM     10  C14 ZIN A   1      17.506   0.335   9.609  0.00  0.00     0.011 C 
ATOM     11  C13 ZIN A   1      17.400   1.187  10.876  0.00  0.00     0.001 C 
ATOM     12  C12 ZIN A   1      17.710   2.646  10.536  0.00  0.00     0.000 C 
ATOM     13  C11 ZIN A   1      19.127   2.749   9.968  0.00  0.00     0.001 C 
ATOM     14  C10 ZIN A   1      19.232   1.897   8.702  0.00  0.00     0.011 C 
ENDBRANCH   7   9
BRANCH   6  15
ATOM     15  O7  ZIN A   1      19.700  -2.253   9.159  0.00  0.00    -0.280 OA
ATOM     16  H20 ZIN A   1      20.050  -1.613   9.793  0.00  0.00     0.245 HD
ENDBRANCH   6  15
TORSDOF 2
ENDMDL
MODEL 2
REMARK VINA RESULT:      -6.5      1.975      5.141
REMARK  2 active torsions:
REMARK  status: ('A' for Active; 'I' for Inactive)
REMARK    1  A    between atoms: N6_6  and  O7_7 
REMARK    2  A    between atoms: C8_8  and  C9_9 
ROOT
ATOM      1  C1  ZIN A   1      17.669   4.202  10.612  0.00  0.00     0.048 C 
ATOM      2  C2  ZIN A   1      18.490   2.944  10.493  0.00  0.00    -0.055 A 
ATOM      3  C3  ZIN A   1      19.222   2.495  11.553  0.00  0.00     0.083 A 
ATOM      4  C4  ZIN A   1      19.977   1.318  11.417  0.00  0.00     0.272 A 
ATOM      5  O5  ZIN A   1      20.637   0.905  12.357  0.00  0.00    -0.266 OA
ATOM      6  N6  ZIN A   1      19.976   0.646  10.251  0.00  0.00    -0.192 N 
ATOM      7  C8  ZIN A   1      19.247   1.090   9.195  0.00  0.00     0.048 A 
ATOM      8  C15 ZIN A   1      18.504   2.218   9.293  0.00  0.00     0.035 A 
ENDROOT
BRANCH   7   9
ATOM      9  C9  ZIN A   1      19.262   0.318   7.901  0.00  0.00     0.038 C 
ATOM     10  C14 ZIN A   1      19.029   1.278   6.732  0.00  0.00     0.011 C 
ATOM     11  C13 ZIN A   1      19.044   0.494   5.418  0.00  0.00     0.001 C 
ATOM     12  C12 ZIN A   1      17.937  -0.561   5.440  0.00  0.00     0.000 C 
ATOM     13  C11 ZIN A   1      18.169  -1.521   6.609  0.00  0.00     0.001 C 
ATOM     14  C10 ZIN A   1      18.155  -0.737   7.923  0.00  0.00     0.011 C 
ENDBRANCH   7   9
BRANCH   6  15
ATOM     15  O7  ZIN A   1      20.740  -0.540  10.124  0.00  0.00    -0.280 OA
ATOM     16  H20 ZIN A   1      20.347  -1.199   9.536  0.00  0.00     0.245 HD
ENDBRANCH   6  15
TORSDOF 2
ENDMDL
MODEL 3
REMARK VINA RESULT:      -6.4      6.466      8.875
REMARK  2 active torsions:
REMARK  status: ('A' for Active; 'I' for Inactive)
REMARK    1  A    between atoms: N6_6  and  O7_7 
REMARK    2  A    between atoms: C8_8  and  C9_9 
ROOT
ATOM      1  C1  ZIN A   1      17.021  -1.272  16.767  0.00  0.00     0.048 C 
ATOM      2  C2  ZIN A   1      17.858  -0.019  16.717  0.00  0.00    -0.055 A 
ATOM      3  C3  ZIN A   1      18.444   0.464  17.850  0.00  0.00     0.083 A 
ATOM      4  C4  ZIN A   1      19.221   1.632  17.777  0.00  0.00     0.272 A 
ATOM      5  O5  ZIN A   1      19.752   2.076  18.783  0.00  0.00    -0.266 OA
ATOM      6  N6  ZIN A   1      19.381   2.264  16.598  0.00  0.00    -0.192 N 
ATOM      7  C8  ZIN A   1      18.799   1.784  15.470  0.00  0.00     0.048 A 
ATOM      8  C15 ZIN A   1      18.048   0.658  15.504  0.00  0.00     0.035 A 
ENDROOT
BRANCH   7   9
ATOM      9  C9  ZIN A   1      18.995   2.510  14.164  0.00  0.00     0.038 C 
ATOM     10  C14 ZIN A   1      17.835   3.483  13.943  0.00  0.00     0.011 C 
ATOM     11  C13 ZIN A   1      18.033   4.221  12.617  0.00  0.00     0.001 C 
ATOM     12  C12 ZIN A   1      18.075   3.208  11.471  0.00  0.00     0.000 C 
ATOM     13  C11 ZIN A   1      19.235   2.234  11.692  0.00  0.00     0.001 C 
ATOM     14  C10 ZIN A   1      19.036   1.497  13.018  0.00  0.00     0.011 C 
ENDBRANCH   7   9
BRANCH   6  15
ATOM     15  O7  ZIN A   1      20.166   3.441  16.535  0.00  0.00    -0.280 OA
ATOM     16  H20 ZIN A   1      19.924   4.036  15.812  0.00  0.00     0.245 HD
ENDBRANCH   6  15
TORSDOF 2
ENDMDL
MODEL 4
REMARK VINA RESULT:      -6.4      3.197      5.130
REMARK  2 active torsions:
REMARK  status: ('A' for Active; 'I' for Inactive)
REMARK    1  A    between atoms: N6_6  and  O7_7 
REMARK    2  A    between atoms: C8_8  and  C9_9 
ROOT
ATOM      1  C1  ZIN A   1      20.019  -3.770  11.558  0.00  0.00     0.048 C 
ATOM      2  C2  ZIN A   1      19.218  -2.493  11.596  0.00  0.00    -0.055 A 
ATOM      3  C3  ZIN A   1      18.718  -2.029  12.777  0.00  0.00     0.083 A 
ATOM      4  C4  ZIN A   1      17.975  -0.836  12.788  0.00  0.00     0.272 A 
ATOM      5  O5  ZIN A   1      17.522  -0.409  13.837  0.00  0.00    -0.266 OA
ATOM      6  N6  ZIN A   1      17.763  -0.163  11.641  0.00  0.00    -0.192 N 
ATOM      7  C8  ZIN A   1      18.262  -0.623  10.465  0.00  0.00     0.048 A 
ATOM      8  C15 ZIN A   1      18.985  -1.767  10.420  0.00  0.00     0.035 A 
ENDROOT
BRANCH   7   9
ATOM      9  C9  ZIN A   1      18.011   0.150   9.196  0.00  0.00     0.038 C 
ATOM     10  C14 ZIN A   1      17.547  -0.809   8.098  0.00  0.00     0.011 C 
ATOM     11  C13 ZIN A   1      17.292  -0.025   6.809  0.00  0.00     0.001 C 
ATOM     12  C12 ZIN A   1      18.583   0.667   6.369  0.00  0.00     0.000 C 
ATOM     13  C11 ZIN A   1      19.047   1.627   7.467  0.00  0.00     0.001 C 
ATOM     14  C10 ZIN A   1      19.302   0.843   8.756  0.00  0.00     0.011 C 
ENDBRANCH   7   9
BRANCH   6  15
ATOM     15  O7  ZIN A   1      17.015   1.039  11.661  0.00  0.00    -0.280 OA
ATOM     16  H20 ZIN A   1      16.881   1.403  12.547  0.00  0.00     0.245 HD
ENDBRANCH   6  15
TORSDOF 2
ENDMDL
MODEL 5
REMARK VINA RESULT:      -6.2      4.573      6.811
REMARK  2 active torsions:
REMARK  status: ('A' for Active; 'I' for Inactive)
REMARK    1  A    between atoms: N6_6  and  O7_7 
REMARK    2  A    between atoms: C8_8  and  C9_9 
ROOT
ATOM      1  C1  ZIN A   1      18.139  -0.983  15.452  0.00  0.00     0.048 C 
ATOM      2  C2  ZIN A   1      18.802  -0.949  14.099  0.00  0.00    -0.055 A 
ATOM      3  C3  ZIN A   1      19.687   0.043  13.790  0.00  0.00     0.083 A 
ATOM      4  C4  ZIN A   1      20.293   0.053  12.522  0.00  0.00     0.272 A 
ATOM      5  O5  ZIN A   1      21.086   0.934  12.232  0.00  0.00    -0.266 OA
ATOM      6  N6  ZIN A   1      19.999  -0.909  11.627  0.00  0.00    -0.192 N 
ATOM      7  C8  ZIN A   1      19.120  -1.897  11.933  0.00  0.00     0.048 A 
ATOM      8  C15 ZIN A   1      18.521  -1.939  13.147  0.00  0.00     0.035 A 
ENDROOT
BRANCH   7   9
ATOM      9  C9  ZIN A   1      18.809  -2.961  10.912  0.00  0.00     0.038 C 
ATOM     10  C14 ZIN A   1      17.377  -3.459  11.115  0.00  0.00     0.011 C 
ATOM     11  C13 ZIN A   1      17.061  -4.540  10.079  0.00  0.00     0.001 C 
ATOM     12  C12 ZIN A   1      18.036  -5.707  10.246  0.00  0.00     0.000 C 
ATOM     13  C11 ZIN A   1      19.469  -5.209  10.043  0.00  0.00     0.001 C 
ATOM     14  C10 ZIN A   1      19.784  -4.128  11.079  0.00  0.00     0.011 C 
ENDBRANCH   7   9
BRANCH   6  15
ATOM     15  O7  ZIN A   1      20.615  -0.891  10.352  0.00  0.00    -0.280 OA
ATOM     16  H20 ZIN A   1      21.019  -1.733  10.100  0.00  0.00     0.245 HD
ENDBRANCH   6  15
TORSDOF 2
ENDMDL
MODEL 6
REMARK VINA RESULT:      -6.2      4.200      6.369
REMARK  2 active torsions:
REMARK  status: ('A' for Active; 'I' for Inactive)
REMARK    1  A    between atoms: N6_6  and  O7_7 
REMARK    2  A    between atoms: C8_8  and  C9_9 
ROOT
ATOM      1  C1  ZIN A   1      18.731   4.004  11.941  0.00  0.00     0.048 C 
ATOM      2  C2  ZIN A   1      18.247   2.576  11.932  0.00  0.00    -0.055 A 
ATOM      3  C3  ZIN A   1      17.820   2.001  10.771  0.00  0.00     0.083 A 
ATOM      4  C4  ZIN A   1      17.374   0.668  10.789  0.00  0.00     0.272 A 
ATOM      5  O5  ZIN A   1      16.989   0.140   9.758  0.00  0.00    -0.266 OA
ATOM      6  N6  ZIN A   1      17.371  -0.027  11.942  0.00  0.00    -0.192 N 
ATOM      7  C8  ZIN A   1      17.797   0.544  13.097  0.00  0.00     0.048 A 
ATOM      8  C15 ZIN A   1      18.237   1.824  13.115  0.00  0.00     0.035 A 
ENDROOT
BRANCH   7   9
ATOM      9  C9  ZIN A   1      17.783  -0.257  14.374  0.00  0.00     0.038 C 
ATOM     10  C14 ZIN A   1      17.336   0.637  15.532  0.00  0.00     0.011 C 
ATOM     11  C13 ZIN A   1      17.323  -0.176  16.829  0.00  0.00     0.001 C 
ATOM     12  C12 ZIN A   1      18.727  -0.711  17.110  0.00  0.00     0.000 C 
ATOM     13  C11 ZIN A   1      19.175  -1.606  15.951  0.00  0.00     0.001 C 
ATOM     14  C10 ZIN A   1      19.188  -0.792  14.655  0.00  0.00     0.011 C 
ENDBRANCH   7   9
BRANCH   6  15
ATOM     15  O7  ZIN A   1      16.921  -1.370  11.949  0.00  0.00    -0.280 OA
ATOM     16  H20 ZIN A   1      16.579  -1.674  11.098  0.00  0.00     0.245 HD
ENDBRANCH   6  15
TORSDOF 2
ENDMDL
MODEL 7
REMARK VINA RESULT:      -6.2      3.730      5.498
REMARK  2 active torsions:
REMARK  status: ('A' for Active; 'I' for Inactive)
REMARK    1  A    between atoms: N6_6  and  O7_7 
REMARK    2  A    between atoms: C8_8  and  C9_9 
ROOT
ATOM      1  C1  ZIN A   1      16.946   4.743  10.912  0.00  0.00     0.048 C 
ATOM      2  C2  ZIN A   1      17.835   3.531  10.809  0.00  0.00    -0.055 A 
ATOM      3  C3  ZIN A   1      18.400   3.191   9.615  0.00  0.00     0.083 A 
ATOM      4  C4  ZIN A   1      19.227   2.056   9.545  0.00  0.00     0.272 A 
ATOM      5  O5  ZIN A   1      19.740   1.740   8.483  0.00  0.00    -0.266 OA
ATOM      6  N6  ZIN A   1      19.453   1.316  10.647  0.00  0.00    -0.192 N 
ATOM      7  C8  ZIN A   1      18.892   1.654  11.836  0.00  0.00     0.048 A 
ATOM      8  C15 ZIN A   1      18.094   2.744  11.940  0.00  0.00     0.035 A 
ENDROOT
BRANCH   7   9
ATOM      9  C9  ZIN A   1      19.162   0.810  13.054  0.00  0.00     0.038 C 
ATOM     10  C14 ZIN A   1      18.228  -0.402  13.052  0.00  0.00     0.011 C 
ATOM     11  C13 ZIN A   1      18.502  -1.260  14.289  0.00  0.00     0.001 C 
ATOM     12  C12 ZIN A   1      18.258  -0.430  15.550  0.00  0.00     0.000 C 
ATOM     13  C11 ZIN A   1      19.192   0.783  15.553  0.00  0.00     0.001 C 
ATOM     14  C10 ZIN A   1      18.918   1.640  14.315  0.00  0.00     0.011 C 
ENDBRANCH   7   9
BRANCH   6  15
ATOM     15  O7  ZIN A   1      20.288   0.175  10.566  0.00  0.00    -0.280 OA
ATOM     16  H20 ZIN A   1      20.856   0.159   9.784  0.00  0.00     0.245 HD
ENDBRANCH   6  15
TORSDOF 2
ENDMDL
MODEL 8
REMARK VINA RESULT:      -6.2      3.628      6.211
REMARK  2 active torsions:
REMARK  status: ('A' for Active; 'I' for Inactive)
REMARK    1  A    between atoms: N6_6  and  O7_7 
REMARK    2  A    between atoms: C8_8  and  C9_9 
ROOT
ATOM      1  C1  ZIN A   1      19.334  -1.412  13.963  0.00  0.00     0.048 C 
ATOM      2  C2  ZIN A   1      18.782  -0.154  13.344  0.00  0.00    -0.055 A 
ATOM      3  C3  ZIN A   1      18.457   0.915  14.128  0.00  0.00     0.083 A 
ATOM      4  C4  ZIN A   1      17.945   2.077  13.526  0.00  0.00     0.272 A 
ATOM      5  O5  ZIN A   1      17.650   3.041  14.215  0.00  0.00    -0.266 OA
ATOM      6  N6  ZIN A   1      17.778   2.129  12.191  0.00  0.00    -0.192 N 
ATOM      7  C8  ZIN A   1      18.102   1.067  11.410  0.00  0.00     0.048 A 
ATOM      8  C15 ZIN A   1      18.602  -0.066  11.956  0.00  0.00     0.035 A 
ENDROOT
BRANCH   7   9
ATOM      9  C9  ZIN A   1      17.906   1.152   9.918  0.00  0.00     0.038 C 
ATOM     10  C14 ZIN A   1      17.453  -0.208   9.386  0.00  0.00     0.011 C 
ATOM     11  C13 ZIN A   1      17.254  -0.123   7.871  0.00  0.00     0.001 C 
ATOM     12  C12 ZIN A   1      18.573   0.272   7.205  0.00  0.00     0.000 C 
ATOM     13  C11 ZIN A   1      19.027   1.634   7.738  0.00  0.00     0.001 C 
ATOM     14  C10 ZIN A   1      19.225   1.547   9.253  0.00  0.00     0.011 C 
ENDBRANCH   7   9
BRANCH   6  15
ATOM     15  O7  ZIN A   1      17.263   3.305  11.594  0.00  0.00    -0.280 OA
ATOM     16  H20 ZIN A   1      17.655   4.122  11.933  0.00  0.00     0.245 HD
ENDBRANCH   6  15
TORSDOF 2
ENDMDL
MODEL 9
REMARK VINA RESULT:      -6.2      3.179      6.296
REMARK  2 active torsions:
REMARK  status: ('A' for Active; 'I' for Inactive)
REMARK    1  A    between atoms: N6_6  and  O7_7 
REMARK    2  A    between atoms: C8_8  and  C9_9 
ROOT
ATOM      1  C1  ZIN A   1      16.614   5.432  12.081  0.00  0.00     0.048 C 
ATOM      2  C2  ZIN A   1      17.385   4.145  12.228  0.00  0.00    -0.055 A 
ATOM      3  C3  ZIN A   1      17.840   3.751  13.452  0.00  0.00     0.083 A 
ATOM      4  C4  ZIN A   1      18.556   2.546  13.563  0.00  0.00     0.272 A 
ATOM      5  O5  ZIN A   1      18.969   2.181  14.652  0.00  0.00    -0.266 OA
ATOM      6  N6  ZIN A   1      18.788   1.796  12.470  0.00  0.00    -0.192 N 
ATOM      7  C8  ZIN A   1      18.335   2.186  11.251  0.00  0.00     0.048 A 
ATOM      8  C15 ZIN A   1      17.637   3.338  11.109  0.00  0.00     0.035 A 
ENDROOT
BRANCH   7   9
ATOM      9  C9  ZIN A   1      18.607   1.327  10.044  0.00  0.00     0.038 C 
ATOM     10  C14 ZIN A   1      18.906   2.221   8.839  0.00  0.00     0.011 C 
ATOM     11  C13 ZIN A   1      19.183   1.348   7.612  0.00  0.00     0.001 C 
ATOM     12  C12 ZIN A   1      17.957   0.484   7.315  0.00  0.00     0.000 C 
ATOM     13  C11 ZIN A   1      17.657  -0.411   8.520  0.00  0.00     0.001 C 
ATOM     14  C10 ZIN A   1      17.381   0.462   9.746  0.00  0.00     0.011 C 
ENDBRANCH   7   9
BRANCH   6  15
ATOM     15  O7  ZIN A   1      19.509   0.583  12.592  0.00  0.00    -0.280 OA
ATOM     16  H20 ZIN A   1      20.417   0.697  12.904  0.00  0.00     0.245 HD
ENDBRANCH   6  15
TORSDOF 2
ENDMDL
