MODEL 1
REMARK VINA RESULT:      -5.8      0.000      0.000
REMARK  8 active torsions:
REMARK  status: ('A' for Active; 'I' for Inactive)
REMARK    1  A    between atoms: C2_2  and  C3_3 
REMARK    2  A    between atoms: C3_3  and  C4_4 
REMARK    3  A    between atoms: C4_4  and  N5_5 
REMARK    4  A    between atoms: C7_7  and  O9_8 
REMARK    5  A    between atoms: C10_9  and  O12_10 
REMARK    6  A    between atoms: C13_11  and  O15_12 
REMARK    7  A    between atoms: C16_13  and  C18_14 
REMARK    8  A    between atoms: C18_14  and  O19_15 
ROOT
ATOM      1  N5  ZIN A   1      18.622   0.445   9.637  0.00  0.00     0.100 N 
ATOM      2  C6  ZIN A   1      19.164  -0.837  10.106  0.00  0.00     0.307 C 
ATOM      3  C7  ZIN A   1      20.563  -0.620  10.686  0.00  0.00     0.177 C 
ATOM      4  C10 ZIN A   1      20.480   0.374  11.847  0.00  0.00     0.179 C 
ATOM      5  C13 ZIN A   1      19.869   1.684  11.343  0.00  0.00     0.184 C 
ATOM      6  C16 ZIN A   1      18.489   1.401  10.743  0.00  0.00     0.277 C 
ENDROOT
BRANCH   1   7
ATOM      7  C4  ZIN A   1      17.339   0.255   8.948  0.00  0.00     0.273 C 
BRANCH   7   8
ATOM      8  C3  ZIN A   1      17.595  -0.085   7.479  0.00  0.00     0.030 C 
BRANCH   8   9
ATOM      9  C2  ZIN A   1      18.603   0.907   6.894  0.00  0.00    -0.003 C 
ATOM     10  C1  ZIN A   1      19.084   0.403   5.532  0.00  0.00     0.005 C 
ENDBRANCH   8   9
ENDBRANCH   7   8
ENDBRANCH   1   7
BRANCH   6  11
ATOM     11  C18 ZIN A   1      17.883   2.705  10.221  0.00  0.00     0.202 C 
BRANCH  11  12
ATOM     12  O19 ZIN A   1      17.031   3.269  11.221  0.00  0.00    -0.399 OA
ATOM     13  H36 ZIN A   1      16.196   2.795  11.337  0.00  0.00     0.209 HD
ENDBRANCH  11  12
ENDBRANCH   6  11
BRANCH   5  14
ATOM     14  O15 ZIN A   1      19.737   2.599  12.433  0.00  0.00    -0.391 OA
ATOM     15  H33 ZIN A   1      18.896   2.530  12.905  0.00  0.00     0.210 HD
ENDBRANCH   5  14
BRANCH   3  16
ATOM     16  O9  ZIN A   1      21.082  -1.865  11.159  0.00  0.00    -0.391 OA
ATOM     17  H31 ZIN A   1      20.734  -2.134  12.021  0.00  0.00     0.210 HD
ENDBRANCH   3  16
BRANCH   4  18
ATOM     18  O12 ZIN A   1      21.791   0.624  12.358  0.00  0.00    -0.390 OA
ATOM     19  H32 ZIN A   1      22.463   0.006  12.035  0.00  0.00     0.210 HD
ENDBRANCH   4  18
TORSDOF 8
ENDMDL
MODEL 2
REMARK VINA RESULT:      -5.6      3.268      5.268
REMARK  8 active torsions:
REMARK  status: ('A' for Active; 'I' for Inactive)
REMARK    1  A    between atoms: C2_2  and  C3_3 
REMARK    2  A    between atoms: C3_3  and  C4_4 
REMARK    3  A    between atoms: C4_4  and  N5_5 
REMARK    4  A    between atoms: C7_7  and  O9_8 
REMARK    5  A    between atoms: C10_9  and  O12_10 
REMARK    6  A    between atoms: C13_11  and  O15_12 
REMARK    7  A    between atoms: C16_13  and  C18_14 
REMARK    8  A    between atoms: C18_14  and  O19_15 
ROOT
ATOM      1  N5  ZIN A   1      18.584  -0.528  13.277  0.00  0.00     0.100 N 
ATOM      2  C6  ZIN A   1      19.322  -1.750  12.932  0.00  0.00     0.307 C 
ATOM      3  C7  ZIN A   1      19.863  -1.635  11.505  0.00  0.00     0.177 C 
ATOM      4  C10 ZIN A   1      20.785  -0.417  11.410  0.00  0.00     0.179 C 
ATOM      5  C13 ZIN A   1      20.006   0.835  11.821  0.00  0.00     0.184 C 
ATOM      6  C16 ZIN A   1      19.461   0.650  13.239  0.00  0.00     0.277 C 
ENDROOT
BRANCH   1   7
ATOM      7  C4  ZIN A   1      17.934  -0.657  14.588  0.00  0.00     0.273 C 
BRANCH   7   8
ATOM      8  C3  ZIN A   1      18.923  -1.258  15.589  0.00  0.00     0.030 C 
BRANCH   8   9
ATOM      9  C2  ZIN A   1      18.601  -0.744  16.994  0.00  0.00    -0.003 C 
ATOM     10  C1  ZIN A   1      17.186  -0.163  17.014  0.00  0.00     0.005 C 
ENDBRANCH   8   9
ENDBRANCH   7   8
ENDBRANCH   1   7
BRANCH   6  11
ATOM     11  C18 ZIN A   1      18.665   1.892  13.646  0.00  0.00     0.202 C 
BRANCH  11  12
ATOM     12  O19 ZIN A   1      19.505   2.771  14.397  0.00  0.00    -0.399 OA
ATOM     13  H36 ZIN A   1      20.287   3.072  13.916  0.00  0.00     0.209 HD
ENDBRANCH  11  12
ENDBRANCH   6  11
BRANCH   5  14
ATOM     14  O15 ZIN A   1      20.875   1.970  11.788  0.00  0.00    -0.391 OA
ATOM     15  H33 ZIN A   1      20.435   2.796  11.546  0.00  0.00     0.210 HD
ENDBRANCH   5  14
BRANCH   3  16
ATOM     16  O9  ZIN A   1      20.597  -2.817  11.177  0.00  0.00    -0.391 OA
ATOM     17  H31 ZIN A   1      20.266  -3.618  11.606  0.00  0.00     0.210 HD
ENDBRANCH   3  16
BRANCH   4  18
ATOM     18  O12 ZIN A   1      21.250  -0.272  10.066  0.00  0.00    -0.390 OA
ATOM     19  H32 ZIN A   1      21.684  -1.062   9.714  0.00  0.00     0.210 HD
ENDBRANCH   4  18
TORSDOF 8
ENDMDL
MODEL 3
REMARK VINA RESULT:      -5.5      1.260      3.198
REMARK  8 active torsions:
REMARK  status: ('A' for Active; 'I' for Inactive)
REMARK    1  A    between atoms: C2_2  and  C3_3 
REMARK    2  A    between atoms: C3_3  and  C4_4 
REMARK    3  A    between atoms: C4_4  and  N5_5 
REMARK    4  A    between atoms: C7_7  and  O9_8 
REMARK    5  A    between atoms: C10_9  and  O12_10 
REMARK    6  A    between atoms: C13_11  and  O15_12 
REMARK    7  A    between atoms: C16_13  and  C18_14 
REMARK    8  A    between atoms: C18_14  and  O19_15 
ROOT
ATOM      1  N5  ZIN A   1      18.587   0.516   9.747  0.00  0.00     0.100 N 
ATOM      2  C6  ZIN A   1      19.314   1.737  10.118  0.00  0.00     0.307 C 
ATOM      3  C7  ZIN A   1      19.798   1.626  11.565  0.00  0.00     0.177 C 
ATOM      4  C10 ZIN A   1      20.712   0.405  11.700  0.00  0.00     0.179 C 
ATOM      5  C13 ZIN A   1      19.947  -0.846  11.263  0.00  0.00     0.184 C 
ATOM      6  C16 ZIN A   1      19.458  -0.664   9.824  0.00  0.00     0.277 C 
ENDROOT
BRANCH   1   7
ATOM      7  C4  ZIN A   1      17.990   0.644   8.412  0.00  0.00     0.273 C 
BRANCH   7   8
ATOM      8  C3  ZIN A   1      18.991   1.312   7.468  0.00  0.00     0.030 C 
BRANCH   8   9
ATOM      9  C2  ZIN A   1      18.814   0.750   6.055  0.00  0.00    -0.003 C 
ATOM     10  C1  ZIN A   1      17.501  -0.032   5.978  0.00  0.00     0.005 C 
ENDBRANCH   8   9
ENDBRANCH   7   8
ENDBRANCH   1   7
BRANCH   6  11
ATOM     11  C18 ZIN A   1      18.676  -1.904   9.389  0.00  0.00     0.202 C 
BRANCH  11  12
ATOM     12  O19 ZIN A   1      19.558  -2.818   8.733  0.00  0.00    -0.399 OA
ATOM     13  H36 ZIN A   1      19.816  -2.543   7.843  0.00  0.00     0.209 HD
ENDBRANCH  11  12
ENDBRANCH   6  11
BRANCH   5  14
ATOM     14  O15 ZIN A   1      20.810  -1.982  11.333  0.00  0.00    -0.391 OA
ATOM     15  H33 ZIN A   1      21.750  -1.760  11.382  0.00  0.00     0.210 HD
ENDBRANCH   5  14
BRANCH   3  16
ATOM     16  O9  ZIN A   1      20.521   2.807  11.919  0.00  0.00    -0.391 OA
ATOM     17  H31 ZIN A   1      20.394   3.544  11.306  0.00  0.00     0.210 HD
ENDBRANCH   3  16
BRANCH   4  18
ATOM     18  O12 ZIN A   1      21.122   0.264  13.062  0.00  0.00    -0.390 OA
ATOM     19  H32 ZIN A   1      20.777  -0.529  13.496  0.00  0.00     0.210 HD
ENDBRANCH   4  18
TORSDOF 8
ENDMDL
MODEL 4
REMARK VINA RESULT:      -5.5      2.114      4.412
REMARK  8 active torsions:
REMARK  status: ('A' for Active; 'I' for Inactive)
REMARK    1  A    between atoms: C2_2  and  C3_3 
REMARK    2  A    between atoms: C3_3  and  C4_4 
REMARK    3  A    between atoms: C4_4  and  N5_5 
REMARK    4  A    between atoms: C7_7  and  O9_8 
REMARK    5  A    between atoms: C10_9  and  O12_10 
REMARK    6  A    between atoms: C13_11  and  O15_12 
REMARK    7  A    between atoms: C16_13  and  C18_14 
REMARK    8  A    between atoms: C18_14  and  O19_15 
ROOT
ATOM      1  N5  ZIN A   1      19.447   1.781  10.293  0.00  0.00     0.100 N 
ATOM      2  C6  ZIN A   1      18.579   1.528   9.136  0.00  0.00     0.307 C 
ATOM      3  C7  ZIN A   1      19.193   0.427   8.268  0.00  0.00     0.177 C 
ATOM      4  C10 ZIN A   1      19.347  -0.847   9.102  0.00  0.00     0.179 C 
ATOM      5  C13 ZIN A   1      20.214  -0.545  10.326  0.00  0.00     0.184 C 
ATOM      6  C16 ZIN A   1      19.572   0.584  11.135  0.00  0.00     0.277 C 
ENDROOT
BRANCH   1   7
ATOM      7  C4  ZIN A   1      18.961   2.926  11.075  0.00  0.00     0.273 C 
BRANCH   7   8
ATOM      8  C3  ZIN A   1      17.542   3.283  10.627  0.00  0.00     0.030 C 
BRANCH   8   9
ATOM      9  C2  ZIN A   1      17.385   4.805  10.598  0.00  0.00    -0.003 C 
ATOM     10  C1  ZIN A   1      16.653   5.267  11.860  0.00  0.00     0.005 C 
ENDBRANCH   8   9
ENDBRANCH   7   8
ENDBRANCH   1   7
BRANCH   6  11
ATOM     11  C18 ZIN A   1      20.446   0.903  12.349  0.00  0.00     0.202 C 
BRANCH  11  12
ATOM     12  O19 ZIN A   1      21.804   0.560  12.062  0.00  0.00    -0.399 OA
ATOM     13  H36 ZIN A   1      22.033   0.616  11.125  0.00  0.00     0.209 HD
ENDBRANCH  11  12
ENDBRANCH   6  11
BRANCH   5  14
ATOM     14  O15 ZIN A   1      20.317  -1.716  11.138  0.00  0.00    -0.391 OA
ATOM     15  H33 ZIN A   1      19.489  -1.972  11.566  0.00  0.00     0.210 HD
ENDBRANCH   5  14
BRANCH   3  16
ATOM     16  O9  ZIN A   1      18.338   0.168   7.151  0.00  0.00    -0.391 OA
ATOM     17  H31 ZIN A   1      18.292  -0.765   6.900  0.00  0.00     0.210 HD
ENDBRANCH   3  16
BRANCH   4  18
ATOM     18  O12 ZIN A   1      19.970  -1.863   8.312  0.00  0.00    -0.390 OA
ATOM     19  H32 ZIN A   1      20.913  -1.713   8.154  0.00  0.00     0.210 HD
ENDBRANCH   4  18
TORSDOF 8
ENDMDL
MODEL 5
REMARK VINA RESULT:      -5.5      2.712      4.269
REMARK  8 active torsions:
REMARK  status: ('A' for Active; 'I' for Inactive)
REMARK    1  A    between atoms: C2_2  and  C3_3 
REMARK    2  A    between atoms: C3_3  and  C4_4 
REMARK    3  A    between atoms: C4_4  and  N5_5 
REMARK    4  A    between atoms: C7_7  and  O9_8 
REMARK    5  A    between atoms: C10_9  and  O12_10 
REMARK    6  A    between atoms: C13_11  and  O15_12 
REMARK    7  A    between atoms: C16_13  and  C18_14 
REMARK    8  A    between atoms: C18_14  and  O19_15 
ROOT
ATOM      1  N5  ZIN A   1      18.530  -0.930  11.880  0.00  0.00     0.100 N 
ATOM      2  C6  ZIN A   1      17.518  -0.424  12.817  0.00  0.00     0.307 C 
ATOM      3  C7  ZIN A   1      18.209   0.277  13.988  0.00  0.00     0.177 C 
ATOM      4  C10 ZIN A   1      19.059   1.433  13.454  0.00  0.00     0.179 C 
ATOM      5  C13 ZIN A   1      20.073   0.888  12.445  0.00  0.00     0.184 C 
ATOM      6  C16 ZIN A   1      19.328   0.168  11.318  0.00  0.00     0.277 C 
ENDROOT
BRANCH   1   7
ATOM      7  C4  ZIN A   1      17.910  -1.728  10.815  0.00  0.00     0.273 C 
BRANCH   7   8
ATOM      8  C3  ZIN A   1      17.854  -3.196  11.245  0.00  0.00     0.030 C 
BRANCH   8   9
ATOM      9  C2  ZIN A   1      19.248  -3.653  11.680  0.00  0.00    -0.003 C 
ATOM     10  C1  ZIN A   1      19.783  -4.682  10.682  0.00  0.00     0.005 C 
ENDBRANCH   8   9
ENDBRANCH   7   8
ENDBRANCH   1   7
BRANCH   6  11
ATOM     11  C18 ZIN A   1      20.338  -0.396  10.317  0.00  0.00     0.202 C 
BRANCH  11  12
ATOM     12  O19 ZIN A   1      21.596  -0.592  10.969  0.00  0.00    -0.399 OA
ATOM     13  H36 ZIN A   1      21.888   0.166  11.493  0.00  0.00     0.209 HD
ENDBRANCH  11  12
ENDBRANCH   6  11
BRANCH   5  14
ATOM     14  O15 ZIN A   1      20.833   1.968  11.901  0.00  0.00    -0.391 OA
ATOM     15  H33 ZIN A   1      20.503   2.844  12.143  0.00  0.00     0.210 HD
ENDBRANCH   5  14
BRANCH   3  16
ATOM     16  O9  ZIN A   1      17.223   0.785  14.889  0.00  0.00    -0.391 OA
ATOM     17  H31 ZIN A   1      17.193   0.325  15.739  0.00  0.00     0.210 HD
ENDBRANCH   3  16
BRANCH   4  18
ATOM     18  O12 ZIN A   1      19.751   2.058  14.537  0.00  0.00    -0.390 OA
ATOM     19  H32 ZIN A   1      20.693   2.204  14.369  0.00  0.00     0.210 HD
ENDBRANCH   4  18
TORSDOF 8
ENDMDL
MODEL 6
REMARK VINA RESULT:      -5.5      3.130      5.627
REMARK  8 active torsions:
REMARK  status: ('A' for Active; 'I' for Inactive)
REMARK    1  A    between atoms: C2_2  and  C3_3 
REMARK    2  A    between atoms: C3_3  and  C4_4 
REMARK    3  A    between atoms: C4_4  and  N5_5 
REMARK    4  A    between atoms: C7_7  and  O9_8 
REMARK    5  A    between atoms: C10_9  and  O12_10 
REMARK    6  A    between atoms: C13_11  and  O15_12 
REMARK    7  A    between atoms: C16_13  and  C18_14 
REMARK    8  A    between atoms: C18_14  and  O19_15 
ROOT
ATOM      1  N5  ZIN A   1      18.748  -1.162  12.613  0.00  0.00     0.100 N 
ATOM      2  C6  ZIN A   1      18.257  -2.493  12.232  0.00  0.00     0.307 C 
ATOM      3  C7  ZIN A   1      17.816  -2.476  10.766  0.00  0.00     0.177 C 
ATOM      4  C10 ZIN A   1      19.005  -2.080   9.886  0.00  0.00     0.179 C 
ATOM      5  C13 ZIN A   1      19.528  -0.713  10.334  0.00  0.00     0.184 C 
ATOM      6  C16 ZIN A   1      19.919  -0.780  11.812  0.00  0.00     0.277 C 
ENDROOT
BRANCH   1   7
ATOM      7  C4  ZIN A   1      19.050  -1.103  14.048  0.00  0.00     0.273 C 
BRANCH   7   8
ATOM      8  C3  ZIN A   1      17.892  -0.427  14.785  0.00  0.00     0.030 C 
BRANCH   8   9
ATOM      9  C2  ZIN A   1      17.725  -1.064  16.167  0.00  0.00    -0.003 C 
ATOM     10  C1  ZIN A   1      19.097  -1.463  16.714  0.00  0.00     0.005 C 
ENDBRANCH   8   9
ENDBRANCH   7   8
ENDBRANCH   1   7
BRANCH   6  11
ATOM     11  C18 ZIN A   1      20.424   0.590  12.269  0.00  0.00     0.202 C 
BRANCH  11  12
ATOM     12  O19 ZIN A   1      21.846   0.644  12.130  0.00  0.00    -0.399 OA
ATOM     13  H36 ZIN A   1      22.265   1.345  12.648  0.00  0.00     0.209 HD
ENDBRANCH  11  12
ENDBRANCH   6  11
BRANCH   5  14
ATOM     14  O15 ZIN A   1      20.672  -0.361   9.553  0.00  0.00    -0.391 OA
ATOM     15  H33 ZIN A   1      21.334   0.155  10.034  0.00  0.00     0.210 HD
ENDBRANCH   5  14
BRANCH   3  16
ATOM     16  O9  ZIN A   1      17.356  -3.776  10.392  0.00  0.00    -0.391 OA
ATOM     17  H31 ZIN A   1      17.896  -4.204   9.713  0.00  0.00     0.210 HD
ENDBRANCH   3  16
BRANCH   4  18
ATOM     18  O12 ZIN A   1      18.586  -2.008   8.522  0.00  0.00    -0.390 OA
ATOM     19  H32 ZIN A   1      18.991  -1.283   8.024  0.00  0.00     0.210 HD
ENDBRANCH   4  18
TORSDOF 8
ENDMDL
MODEL 7
REMARK VINA RESULT:      -5.5      3.360      6.114
REMARK  8 active torsions:
REMARK  status: ('A' for Active; 'I' for Inactive)
REMARK    1  A    between atoms: C2_2  and  C3_3 
REMARK    2  A    between atoms: C3_3  and  C4_4 
REMARK    3  A    between atoms: C4_4  and  N5_5 
REMARK    4  A    between atoms: C7_7  and  O9_8 
REMARK    5  A    between atoms: C10_9  and  O12_10 
REMARK    6  A    between atoms: C13_11  and  O15_12 
REMARK    7  A    between atoms: C16_13  and  C18_14 
REMARK    8  A    between atoms: C18_14  and  O19_15 
ROOT
ATOM      1  N5  ZIN A   1      19.247   0.747  13.826  0.00  0.00     0.100 N 
ATOM      2  C6  ZIN A   1      18.165   1.562  14.395  0.00  0.00     0.307 C 
ATOM      3  C7  ZIN A   1      18.482   3.045  14.195  0.00  0.00     0.177 C 
ATOM      4  C10 ZIN A   1      18.630   3.334  12.699  0.00  0.00     0.179 C 
ATOM      5  C13 ZIN A   1      19.729   2.439  12.121  0.00  0.00     0.184 C 
ATOM      6  C16 ZIN A   1      19.376   0.973  12.380  0.00  0.00     0.277 C 
ENDROOT
BRANCH   1   7
ATOM      7  C4  ZIN A   1      19.045  -0.677  14.120  0.00  0.00     0.273 C 
BRANCH   7   8
ATOM      8  C3  ZIN A   1      18.114  -0.821  15.326  0.00  0.00     0.030 C 
BRANCH   8   9
ATOM      9  C2  ZIN A   1      18.882  -1.453  16.490  0.00  0.00    -0.003 C 
ATOM     10  C1  ZIN A   1      19.050  -0.423  17.609  0.00  0.00     0.005 C 
ENDBRANCH   8   9
ENDBRANCH   7   8
ENDBRANCH   1   7
BRANCH   6  11
ATOM     11  C18 ZIN A   1      20.482   0.075  11.821  0.00  0.00     0.202 C 
BRANCH  11  12
ATOM     12  O19 ZIN A   1      21.757   0.649  12.120  0.00  0.00    -0.399 OA
ATOM     13  H36 ZIN A   1      22.298   0.114  12.716  0.00  0.00     0.209 HD
ENDBRANCH  11  12
ENDBRANCH   6  11
BRANCH   5  14
ATOM     14  O15 ZIN A   1      19.834   2.663  10.713  0.00  0.00    -0.391 OA
ATOM     15  H33 ZIN A   1      20.710   2.955  10.425  0.00  0.00     0.210 HD
ENDBRANCH   5  14
BRANCH   3  16
ATOM     16  O9  ZIN A   1      17.420   3.837  14.733  0.00  0.00    -0.391 OA
ATOM     17  H31 ZIN A   1      17.001   3.452  15.515  0.00  0.00     0.210 HD
ENDBRANCH   3  16
BRANCH   4  18
ATOM     18  O12 ZIN A   1      18.980   4.706  12.509  0.00  0.00    -0.390 OA
ATOM     19  H32 ZIN A   1      18.254   5.256  12.183  0.00  0.00     0.210 HD
ENDBRANCH   4  18
TORSDOF 8
ENDMDL
MODEL 8
REMARK VINA RESULT:      -5.5      3.029      5.007
REMARK  8 active torsions:
REMARK  status: ('A' for Active; 'I' for Inactive)
REMARK    1  A    between atoms: C2_2  and  C3_3 
REMARK    2  A    between atoms: C3_3  and  C4_4 
REMARK    3  A    between atoms: C4_4  and  N5_5 
REMARK    4  A    between atoms: C7_7  and  O9_8 
REMARK    5  A    between atoms: C10_9  and  O12_10 
REMARK    6  A    between atoms: C13_11  and  O15_12 
REMARK    7  A    between atoms: C16_13  and  C18_14 
REMARK    8  A    between atoms: C18_14  and  O19_15 
ROOT
ATOM      1  N5  ZIN A   1      18.478  -0.422  12.942  0.00  0.00     0.100 N 
ATOM      2  C6  ZIN A   1      19.505  -1.465  12.824  0.00  0.00     0.307 C 
ATOM      3  C7  ZIN A   1      19.913  -1.618  11.357  0.00  0.00     0.177 C 
ATOM      4  C10 ZIN A   1      20.456  -0.283  10.842  0.00  0.00     0.179 C 
ATOM      5  C13 ZIN A   1      19.386   0.796  11.020  0.00  0.00     0.184 C 
ATOM      6  C16 ZIN A   1      18.992   0.880  12.497  0.00  0.00     0.277 C 
ENDROOT
BRANCH   1   7
ATOM      7  C4  ZIN A   1      17.963  -0.343  14.315  0.00  0.00     0.273 C 
BRANCH   7   8
ATOM      8  C3  ZIN A   1      18.607  -1.440  15.165  0.00  0.00     0.030 C 
BRANCH   8   9
ATOM      9  C2  ZIN A   1      18.407  -1.119  16.648  0.00  0.00    -0.003 C 
ATOM     10  C1  ZIN A   1      16.962  -0.676  16.884  0.00  0.00     0.005 C 
ENDBRANCH   8   9
ENDBRANCH   7   8
ENDBRANCH   1   7
BRANCH   6  11
ATOM     11  C18 ZIN A   1      17.908   1.944  12.676  0.00  0.00     0.202 C 
BRANCH  11  12
ATOM     12  O19 ZIN A   1      17.073   1.975  11.516  0.00  0.00    -0.399 OA
ATOM     13  H36 ZIN A   1      17.412   2.533  10.803  0.00  0.00     0.209 HD
ENDBRANCH  11  12
ENDBRANCH   6  11
BRANCH   5  14
ATOM     14  O15 ZIN A   1      19.904   2.058  10.592  0.00  0.00    -0.391 OA
ATOM     15  H33 ZIN A   1      20.363   2.551  11.286  0.00  0.00     0.210 HD
ENDBRANCH   5  14
BRANCH   3  16
ATOM     16  O9  ZIN A   1      20.926  -2.621  11.246  0.00  0.00    -0.391 OA
ATOM     17  H31 ZIN A   1      21.656  -2.379  10.659  0.00  0.00     0.210 HD
ENDBRANCH   3  16
BRANCH   4  18
ATOM     18  O12 ZIN A   1      20.787  -0.404   9.457  0.00  0.00    -0.390 OA
ATOM     19  H32 ZIN A   1      20.020  -0.508   8.877  0.00  0.00     0.210 HD
ENDBRANCH   4  18
TORSDOF 8
ENDMDL
MODEL 9
REMARK VINA RESULT:      -5.4      1.225      3.420
REMARK  8 active torsions:
REMARK  status: ('A' for Active; 'I' for Inactive)
REMARK    1  A    between atoms: C2_2  and  C3_3 
REMARK    2  A    between atoms: C3_3  and  C4_4 
REMARK    3  A    between atoms: C4_4  and  N5_5 
REMARK    4  A    between atoms: C7_7  and  O9_8 
REMARK    5  A    between atoms: C10_9  and  O12_10 
REMARK    6  A    between atoms: C13_11  and  O15_12 
REMARK    7  A    between atoms: C16_13  and  C18_14 
REMARK    8  A    between atoms: C18_14  and  O19_15 
ROOT
ATOM      1  N5  ZIN A   1      18.477   0.743  10.201  0.00  0.00     0.100 N 
ATOM      2  C6  ZIN A   1      17.896   2.090  10.278  0.00  0.00     0.307 C 
ATOM      3  C7  ZIN A   1      17.567   2.423  11.734  0.00  0.00     0.177 C 
ATOM      4  C10 ZIN A   1      18.847   2.351  12.571  0.00  0.00     0.179 C 
ATOM      5  C13 ZIN A   1      19.458   0.954  12.436  0.00  0.00     0.184 C 
ATOM      6  C16 ZIN A   1      19.733   0.663  10.958  0.00  0.00     0.277 C 
ENDROOT
BRANCH   1   7
ATOM      7  C4  ZIN A   1      18.679   0.335   8.804  0.00  0.00     0.273 C 
BRANCH   7   8
ATOM      8  C3  ZIN A   1      19.211   1.522   7.999  0.00  0.00     0.030 C 
BRANCH   8   9
ATOM      9  C2  ZIN A   1      18.912   1.306   6.514  0.00  0.00    -0.003 C 
ATOM     10  C1  ZIN A   1      18.923  -0.193   6.204  0.00  0.00     0.005 C 
ENDBRANCH   8   9
ENDBRANCH   7   8
ENDBRANCH   1   7
BRANCH   6  11
ATOM     11  C18 ZIN A   1      20.326  -0.740  10.817  0.00  0.00     0.202 C 
BRANCH  11  12
ATOM     12  O19 ZIN A   1      21.750  -0.669  10.927  0.00  0.00    -0.399 OA
ATOM     13  H36 ZIN A   1      22.220  -1.246  10.310  0.00  0.00     0.209 HD
ENDBRANCH  11  12
ENDBRANCH   6  11
BRANCH   5  14
ATOM     14  O15 ZIN A   1      20.683   0.896  13.170  0.00  0.00    -0.391 OA
ATOM     15  H33 ZIN A   1      20.573   0.974  14.127  0.00  0.00     0.210 HD
ENDBRANCH   5  14
BRANCH   3  16
ATOM     16  O9  ZIN A   1      17.019   3.741  11.811  0.00  0.00    -0.391 OA
ATOM     17  H31 ZIN A   1      16.083   3.764  12.051  0.00  0.00     0.210 HD
ENDBRANCH   3  16
BRANCH   4  18
ATOM     18  O12 ZIN A   1      18.536   2.606  13.943  0.00  0.00    -0.390 OA
ATOM     19  H32 ZIN A   1      19.083   2.110  14.568  0.00  0.00     0.210 HD
ENDBRANCH   4  18
TORSDOF 8
ENDMDL
