MODEL 1
REMARK VINA RESULT:      -9.3      0.000      0.000
REMARK  7 active torsions:
REMARK  status: ('A' for Active; 'I' for Inactive)
REMARK    1  A    between atoms: C2_2  and  C4_4 
REMARK    2  A    between atoms: C4_4  and  O6_6 
REMARK    3  A    between atoms: O6_6  and  C7_7 
REMARK    4  A    between atoms: C7_7  and  C8_8 
REMARK    5  A    between atoms: C8_8  and  C10_10 
REMARK    6  A    between atoms: C12_12  and  C14_13 
REMARK    7  A    between atoms: C40_35  and  O42_36 
ROOT
ATOM      1  C10 ZIN A   1      19.181  -0.553  12.373  0.00  0.00     0.160 C 
ATOM      2  O11 ZIN A   1      18.154   0.443  12.200  0.00  0.00    -0.339 OA
ATOM      3  C12 ZIN A   1      18.869   1.649  11.859  0.00  0.00     0.266 C 
ATOM      4  O20 ZIN A   1      19.913   1.212  10.964  0.00  0.00    -0.352 OA
ATOM      5  C21 ZIN A   1      20.372  -0.042  11.509  0.00  0.00     0.168 C 
ATOM      6  C23 ZIN A   1      20.530  -1.045  10.333  0.00  0.00     0.041 C 
ATOM      7  C24 ZIN A   1      19.136  -1.668  10.218  0.00  0.00     0.004 C 
ATOM      8  C26 ZIN A   1      19.075  -3.022   9.531  0.00  0.00    -0.001 C 
ATOM      9  C28 ZIN A   1      19.532  -2.886   8.078  0.00  0.00     0.010 C 
ATOM     10  C29 ZIN A   1      19.505  -4.259   7.398  0.00  0.00     0.036 C 
ATOM     11  C30 ZIN A   1      18.111  -4.834   7.554  0.00  0.00    -0.064 A 
ATOM     12  C31 ZIN A   1      17.473  -5.274   6.478  0.00  0.00     0.058 A 
ATOM     13  C32 ZIN A   1      16.112  -5.819   6.586  0.00  0.00     0.172 A 
ATOM     14  O33 ZIN A   1      15.537  -6.260   5.607  0.00  0.00    -0.289 OA
ATOM     15  C34 ZIN A   1      15.458  -5.821   7.906  0.00  0.00     0.052 A 
ATOM     16  C35 ZIN A   1      16.116  -5.384   8.968  0.00  0.00    -0.009 A 
ATOM     17  C36 ZIN A   1      17.518  -4.879   8.932  0.00  0.00     0.004 A 
ATOM     18  C37 ZIN A   1      18.376  -5.821   9.779  0.00  0.00     0.025 C 
ATOM     19  C38 ZIN A   1      17.616  -3.502   9.590  0.00  0.00     0.035 C 
ATOM     20  C40 ZIN A   1      17.114  -3.593  11.029  0.00  0.00     0.124 C 
ATOM     21  C43 ZIN A   1      17.304  -2.267  11.781  0.00  0.00     0.045 C 
ATOM     22  C44 ZIN A   1      18.767  -1.877  11.743  0.00  0.00     0.004 C 
ATOM     23  C45 ZIN A   1      19.623  -3.023  12.288  0.00  0.00     0.019 C 
ENDROOT
BRANCH   1  24
ATOM     24  C8  ZIN A   1      19.564  -0.717  13.821  0.00  0.00     0.188 C 
ATOM     25  O9  ZIN A   1      20.661  -0.378  14.197  0.00  0.00    -0.292 OA
BRANCH  24  26
ATOM     26  C7  ZIN A   1      18.580  -1.302  14.800  0.00  0.00     0.260 C 
BRANCH  26  27
ATOM     27  O6  ZIN A   1      17.696  -0.256  15.281  0.00  0.00    -0.314 OA
BRANCH  27  28
ATOM     28  C4  ZIN A   1      17.441  -0.232  16.599  0.00  0.00     0.262 C 
ATOM     29  O5  ZIN A   1      16.619  -0.983  17.068  0.00  0.00    -0.265 OA
BRANCH  28  30
ATOM     30  C2  ZIN A   1      18.179   0.730  17.493  0.00  0.00     0.077 C 
ATOM     31  C1  ZIN A   1      19.266  -0.021  18.263  0.00  0.00     0.020 C 
ATOM     32  C3  ZIN A   1      18.822   1.826  16.641  0.00  0.00     0.020 C 
ENDBRANCH  28  30
ENDBRANCH  27  28
ENDBRANCH  26  27
ENDBRANCH  24  26
ENDBRANCH   1  24
BRANCH   3  33
ATOM     33  C14 ZIN A   1      17.940   2.640  11.155  0.00  0.00     0.041 C 
ATOM     34  C19 ZIN A   1      18.687   3.308  10.000  0.00  0.00     0.009 C 
ATOM     35  C18 ZIN A   1      17.757   4.298   9.296  0.00  0.00     0.001 C 
ATOM     36  C17 ZIN A   1      17.302   5.365  10.292  0.00  0.00     0.000 C 
ATOM     37  C16 ZIN A   1      16.554   4.698  11.449  0.00  0.00     0.001 C 
ATOM     38  C15 ZIN A   1      17.484   3.707  12.153  0.00  0.00     0.009 C 
ENDBRANCH   3  33
BRANCH  20  39
ATOM     39  O42 ZIN A   1      17.835  -4.622  11.710  0.00  0.00    -0.395 OA
ATOM     40  H78 ZIN A   1      18.274  -5.251  11.120  0.00  0.00     0.210 HD
ENDBRANCH  20  39
TORSDOF 7
ENDMDL
MODEL 2
REMARK VINA RESULT:      -8.9      4.792     11.104
REMARK  7 active torsions:
REMARK  status: ('A' for Active; 'I' for Inactive)
REMARK    1  A    between atoms: C2_2  and  C4_4 
REMARK    2  A    between atoms: C4_4  and  O6_6 
REMARK    3  A    between atoms: O6_6  and  C7_7 
REMARK    4  A    between atoms: C7_7  and  C8_8 
REMARK    5  A    between atoms: C8_8  and  C10_10 
REMARK    6  A    between atoms: C12_12  and  C14_13 
REMARK    7  A    between atoms: C40_35  and  O42_36 
ROOT
ATOM      1  C10 ZIN A   1      18.519   4.422  14.361  0.00  0.00     0.160 C 
ATOM      2  O11 ZIN A   1      17.868   3.148  14.182  0.00  0.00    -0.339 OA
ATOM      3  C12 ZIN A   1      18.845   2.176  14.613  0.00  0.00     0.266 C 
ATOM      4  O20 ZIN A   1      19.452   2.765  15.782  0.00  0.00    -0.352 OA
ATOM      5  C21 ZIN A   1      19.581   4.167  15.471  0.00  0.00     0.168 C 
ATOM      6  C23 ZIN A   1      19.127   4.978  16.715  0.00  0.00     0.041 C 
ATOM      7  C24 ZIN A   1      17.617   5.126  16.501  0.00  0.00     0.004 C 
ATOM      8  C26 ZIN A   1      16.957   6.274  17.244  0.00  0.00    -0.001 C 
ATOM      9  C28 ZIN A   1      17.090   6.061  18.752  0.00  0.00     0.010 C 
ATOM     10  C29 ZIN A   1      16.456   7.240  19.498  0.00  0.00     0.036 C 
ATOM     11  C30 ZIN A   1      15.024   7.384  19.020  0.00  0.00    -0.064 A 
ATOM     12  C31 ZIN A   1      14.050   7.440  19.918  0.00  0.00     0.058 A 
ATOM     13  C32 ZIN A   1      12.647   7.559  19.492  0.00  0.00     0.172 A 
ATOM     14  O33 ZIN A   1      11.752   7.650  20.313  0.00  0.00    -0.289 OA
ATOM     15  C34 ZIN A   1      12.348   7.567  18.050  0.00  0.00     0.052 A 
ATOM     16  C35 ZIN A   1      13.338   7.518  17.171  0.00  0.00    -0.009 A 
ATOM     17  C36 ZIN A   1      14.780   7.460  17.541  0.00  0.00     0.004 A 
ATOM     18  C37 ZIN A   1      15.448   8.736  17.022  0.00  0.00     0.025 C 
ATOM     19  C38 ZIN A   1      15.476   6.296  16.835  0.00  0.00     0.035 C 
ATOM     20  C40 ZIN A   1      15.313   6.451  15.325  0.00  0.00     0.124 C 
ATOM     21  C43 ZIN A   1      16.098   5.376  14.556  0.00  0.00     0.045 C 
ATOM     22  C44 ZIN A   1      17.558   5.446  14.953  0.00  0.00     0.004 C 
ATOM     23  C45 ZIN A   1      18.086   6.866  14.739  0.00  0.00     0.019 C 
ENDROOT
BRANCH   1  24
ATOM     24  C8  ZIN A   1      19.145   4.914  13.082  0.00  0.00     0.188 C 
ATOM     25  O9  ZIN A   1      20.251   5.399  13.100  0.00  0.00    -0.292 OA
BRANCH  24  26
ATOM     26  C7  ZIN A   1      18.392   4.803  11.782  0.00  0.00     0.260 C 
BRANCH  26  27
ATOM     27  O6  ZIN A   1      18.925   3.696  11.007  0.00  0.00    -0.314 OA
BRANCH  27  28
ATOM     28  C4  ZIN A   1      18.084   2.689  10.724  0.00  0.00     0.262 C 
ATOM     29  O5  ZIN A   1      16.935   2.741  11.094  0.00  0.00    -0.265 OA
BRANCH  28  30
ATOM     30  C2  ZIN A   1      18.572   1.496   9.945  0.00  0.00     0.077 C 
ATOM     31  C1  ZIN A   1      19.277   1.971   8.673  0.00  0.00     0.020 C 
ATOM     32  C3  ZIN A   1      19.552   0.693  10.802  0.00  0.00     0.020 C 
ENDBRANCH  28  30
ENDBRANCH  27  28
ENDBRANCH  26  27
ENDBRANCH  24  26
ENDBRANCH   1  24
BRANCH   3  33
ATOM     33  C14 ZIN A   1      18.161   0.855  14.972  0.00  0.00     0.041 C 
ATOM     34  C19 ZIN A   1      17.848   0.833  16.469  0.00  0.00     0.009 C 
ATOM     35  C18 ZIN A   1      17.164  -0.488  16.827  0.00  0.00     0.001 C 
ATOM     36  C17 ZIN A   1      18.094  -1.652  16.484  0.00  0.00     0.000 C 
ATOM     37  C16 ZIN A   1      18.409  -1.631  14.987  0.00  0.00     0.001 C 
ATOM     38  C15 ZIN A   1      19.092  -0.309  14.628  0.00  0.00     0.009 C 
ENDBRANCH   3  33
BRANCH  20  39
ATOM     39  O42 ZIN A   1      15.788   7.742  14.935  0.00  0.00    -0.395 OA
ATOM     40  H78 ZIN A   1      16.613   7.721  14.430  0.00  0.00     0.210 HD
ENDBRANCH  20  39
TORSDOF 7
ENDMDL
MODEL 3
REMARK VINA RESULT:      -8.7      2.847      5.441
REMARK  7 active torsions:
REMARK  status: ('A' for Active; 'I' for Inactive)
REMARK    1  A    between atoms: C2_2  and  C4_4 
REMARK    2  A    between atoms: C4_4  and  O6_6 
REMARK    3  A    between atoms: O6_6  and  C7_7 
REMARK    4  A    between atoms: C7_7  and  C8_8 
REMARK    5  A    between atoms: C8_8  and  C10_10 
REMARK    6  A    between atoms: C12_12  and  C14_13 
REMARK    7  A    between atoms: C40_35  and  O42_36 
ROOT
ATOM      1  C10 ZIN A   1      18.348  -4.554   8.751  0.00  0.00     0.160 C 
ATOM      2  O11 ZIN A   1      17.756  -3.242   8.670  0.00  0.00    -0.339 OA
ATOM      3  C12 ZIN A   1      18.863  -2.361   8.384  0.00  0.00     0.266 C 
ATOM      4  O20 ZIN A   1      19.671  -3.087   7.434  0.00  0.00    -0.352 OA
ATOM      5  C21 ZIN A   1      19.639  -4.456   7.887  0.00  0.00     0.168 C 
ATOM      6  C23 ZIN A   1      19.414  -5.365   6.647  0.00  0.00     0.041 C 
ATOM      7  C24 ZIN A   1      17.888  -5.425   6.533  0.00  0.00     0.004 C 
ATOM      8  C26 ZIN A   1      17.332  -6.612   5.765  0.00  0.00    -0.001 C 
ATOM      9  C28 ZIN A   1      17.802  -6.554   4.311  0.00  0.00     0.010 C 
ATOM     10  C29 ZIN A   1      17.271  -7.772   3.547  0.00  0.00     0.036 C 
ATOM     11  C30 ZIN A   1      15.763  -7.806   3.707  0.00  0.00    -0.064 A 
ATOM     12  C31 ZIN A   1      15.004  -7.908   2.624  0.00  0.00     0.058 A 
ATOM     13  C32 ZIN A   1      13.538  -7.924   2.738  0.00  0.00     0.172 A 
ATOM     14  O33 ZIN A   1      12.838  -8.056   1.750  0.00  0.00    -0.289 OA
ATOM     15  C34 ZIN A   1      12.934  -7.777   4.073  0.00  0.00     0.052 A 
ATOM     16  C35 ZIN A   1      13.711  -7.685   5.141  0.00  0.00    -0.009 A 
ATOM     17  C36 ZIN A   1      15.200  -7.726   5.096  0.00  0.00     0.004 A 
ATOM     18  C37 ZIN A   1      15.657  -8.972   5.858  0.00  0.00     0.025 C 
ATOM     19  C38 ZIN A   1      15.800  -6.529   5.836  0.00  0.00     0.035 C 
ATOM     20  C40 ZIN A   1      15.304  -6.528   7.280  0.00  0.00     0.124 C 
ATOM     21  C43 ZIN A   1      15.971  -5.418   8.107  0.00  0.00     0.045 C 
ATOM     22  C44 ZIN A   1      17.475  -5.589   8.052  0.00  0.00     0.004 C 
ATOM     23  C45 ZIN A   1      17.852  -7.003   8.499  0.00  0.00     0.019 C 
ENDROOT
BRANCH   1  24
ATOM     24  C8  ZIN A   1      18.650  -4.946  10.174  0.00  0.00     0.188 C 
ATOM     25  O9  ZIN A   1      19.744  -5.367  10.465  0.00  0.00    -0.292 OA
BRANCH  24  26
ATOM     26  C7  ZIN A   1      17.588  -4.811  11.235  0.00  0.00     0.260 C 
BRANCH  26  27
ATOM     27  O6  ZIN A   1      18.099  -4.009  12.332  0.00  0.00    -0.314 OA
BRANCH  27  28
ATOM     28  C4  ZIN A   1      18.069  -2.676  12.178  0.00  0.00     0.262 C 
ATOM     29  O5  ZIN A   1      17.098  -2.146  11.693  0.00  0.00    -0.265 OA
BRANCH  28  30
ATOM     30  C2  ZIN A   1      19.246  -1.841  12.611  0.00  0.00     0.077 C 
ATOM     31  C1  ZIN A   1      19.350  -0.605  11.716  0.00  0.00     0.020 C 
ATOM     32  C3  ZIN A   1      19.054  -1.404  14.064  0.00  0.00     0.020 C 
ENDBRANCH  28  30
ENDBRANCH  27  28
ENDBRANCH  26  27
ENDBRANCH  24  26
ENDBRANCH   1  24
BRANCH   3  33
ATOM     33  C14 ZIN A   1      18.360  -1.053   7.771  0.00  0.00     0.041 C 
ATOM     34  C19 ZIN A   1      18.302  -1.193   6.249  0.00  0.00     0.009 C 
ATOM     35  C18 ZIN A   1      17.797   0.115   5.635  0.00  0.00     0.001 C 
ATOM     36  C17 ZIN A   1      18.750   1.252   6.006  0.00  0.00     0.000 C 
ATOM     37  C16 ZIN A   1      18.809   1.393   7.529  0.00  0.00     0.001 C 
ATOM     38  C15 ZIN A   1      19.313   0.084   8.143  0.00  0.00     0.009 C 
ENDBRANCH   3  33
BRANCH  20  39
ATOM     39  O42 ZIN A   1      15.600  -7.793   7.875  0.00  0.00    -0.395 OA
ATOM     40  H78 ZIN A   1      15.129  -8.537   7.473  0.00  0.00     0.210 HD
ENDBRANCH  20  39
TORSDOF 7
ENDMDL
MODEL 4
REMARK VINA RESULT:      -7.5      2.054      4.996
REMARK  7 active torsions:
REMARK  status: ('A' for Active; 'I' for Inactive)
REMARK    1  A    between atoms: C2_2  and  C4_4 
REMARK    2  A    between atoms: C4_4  and  O6_6 
REMARK    3  A    between atoms: O6_6  and  C7_7 
REMARK    4  A    between atoms: C7_7  and  C8_8 
REMARK    5  A    between atoms: C8_8  and  C10_10 
REMARK    6  A    between atoms: C12_12  and  C14_13 
REMARK    7  A    between atoms: C40_35  and  O42_36 
ROOT
ATOM      1  C10 ZIN A   1      18.620   1.293  12.041  0.00  0.00     0.160 C 
ATOM      2  O11 ZIN A   1      19.504   1.087  13.161  0.00  0.00    -0.339 OA
ATOM      3  C12 ZIN A   1      18.694   1.373  14.322  0.00  0.00     0.266 C 
ATOM      4  O20 ZIN A   1      17.408   0.791  14.021  0.00  0.00    -0.352 OA
ATOM      5  C21 ZIN A   1      17.193   1.065  12.621  0.00  0.00     0.168 C 
ATOM      6  C23 ZIN A   1      16.645  -0.229  11.959  0.00  0.00     0.041 C 
ATOM      7  C24 ZIN A   1      17.919  -0.980  11.559  0.00  0.00     0.004 C 
ATOM      8  C26 ZIN A   1      17.755  -2.013  10.457  0.00  0.00    -0.001 C 
ATOM      9  C28 ZIN A   1      16.811  -3.122  10.923  0.00  0.00     0.010 C 
ATOM     10  C29 ZIN A   1      16.618  -4.142   9.796  0.00  0.00     0.036 C 
ATOM     11  C30 ZIN A   1      17.987  -4.636   9.369  0.00  0.00    -0.064 A 
ATOM     12  C31 ZIN A   1      18.210  -5.942   9.313  0.00  0.00     0.058 A 
ATOM     13  C32 ZIN A   1      19.530  -6.459   8.923  0.00  0.00     0.172 A 
ATOM     14  O33 ZIN A   1      19.729  -7.658   8.833  0.00  0.00    -0.289 OA
ATOM     15  C34 ZIN A   1      20.609  -5.496   8.644  0.00  0.00     0.052 A 
ATOM     16  C35 ZIN A   1      20.361  -4.196   8.699  0.00  0.00    -0.009 A 
ATOM     17  C36 ZIN A   1      19.030  -3.613   9.026  0.00  0.00     0.004 A 
ATOM     18  C37 ZIN A   1      18.542  -2.843   7.797  0.00  0.00     0.025 C 
ATOM     19  C38 ZIN A   1      19.148  -2.587  10.154  0.00  0.00     0.035 C 
ATOM     20  C40 ZIN A   1      20.128  -1.492   9.740  0.00  0.00     0.124 C 
ATOM     21  C43 ZIN A   1      20.194  -0.366  10.784  0.00  0.00     0.045 C 
ATOM     22  C44 ZIN A   1      18.806   0.202  10.993  0.00  0.00     0.004 C 
ATOM     23  C45 ZIN A   1      18.218   0.640   9.651  0.00  0.00     0.019 C 
ENDROOT
BRANCH   1  24
ATOM     24  C8  ZIN A   1      18.777   2.670  11.451  0.00  0.00     0.188 C 
ATOM     25  O9  ZIN A   1      19.834   3.004  10.972  0.00  0.00    -0.292 OA
BRANCH  24  26
ATOM     26  C7  ZIN A   1      17.615   3.629  11.457  0.00  0.00     0.260 C 
BRANCH  26  27
ATOM     27  O6  ZIN A   1      18.057   4.922  11.948  0.00  0.00    -0.314 OA
BRANCH  27  28
ATOM     28  C4  ZIN A   1      18.297   5.024  13.265  0.00  0.00     0.262 C 
ATOM     29  O5  ZIN A   1      19.400   5.323  13.656  0.00  0.00    -0.265 OA
BRANCH  28  30
ATOM     30  C2  ZIN A   1      17.190   4.767  14.254  0.00  0.00     0.077 C 
ATOM     31  C1  ZIN A   1      17.733   4.917  15.676  0.00  0.00     0.020 C 
ATOM     32  C3  ZIN A   1      16.061   5.774  14.030  0.00  0.00     0.020 C 
ENDBRANCH  28  30
ENDBRANCH  27  28
ENDBRANCH  26  27
ENDBRANCH  24  26
ENDBRANCH   1  24
BRANCH   3  33
ATOM     33  C14 ZIN A   1      19.298   0.722  15.568  0.00  0.00     0.041 C 
ATOM     34  C19 ZIN A   1      18.782  -0.712  15.695  0.00  0.00     0.009 C 
ATOM     35  C18 ZIN A   1      19.387  -1.363  16.941  0.00  0.00     0.001 C 
ATOM     36  C17 ZIN A   1      18.981  -0.563  18.181  0.00  0.00     0.000 C 
ATOM     37  C16 ZIN A   1      19.497   0.872  18.054  0.00  0.00     0.001 C 
ATOM     38  C15 ZIN A   1      18.893   1.522  16.807  0.00  0.00     0.009 C 
ENDBRANCH   3  33
BRANCH  20  39
ATOM     39  O42 ZIN A   1      19.712  -0.942   8.489  0.00  0.00    -0.395 OA
ATOM     40  H78 ZIN A   1      18.825  -0.555   8.505  0.00  0.00     0.210 HD
ENDBRANCH  20  39
TORSDOF 7
ENDMDL
MODEL 5
REMARK VINA RESULT:      -7.1      1.441      2.125
REMARK  7 active torsions:
REMARK  status: ('A' for Active; 'I' for Inactive)
REMARK    1  A    between atoms: C2_2  and  C4_4 
REMARK    2  A    between atoms: C4_4  and  O6_6 
REMARK    3  A    between atoms: O6_6  and  C7_7 
REMARK    4  A    between atoms: C7_7  and  C8_8 
REMARK    5  A    between atoms: C8_8  and  C10_10 
REMARK    6  A    between atoms: C12_12  and  C14_13 
REMARK    7  A    between atoms: C40_35  and  O42_36 
ROOT
ATOM      1  C10 ZIN A   1      19.297  -2.203  11.061  0.00  0.00     0.160 C 
ATOM      2  O11 ZIN A   1      18.454  -1.040  11.185  0.00  0.00    -0.339 OA
ATOM      3  C12 ZIN A   1      19.269   0.053  10.708  0.00  0.00     0.266 C 
ATOM      4  O20 ZIN A   1      19.965  -0.485   9.565  0.00  0.00    -0.352 OA
ATOM      5  C21 ZIN A   1      20.310  -1.834   9.938  0.00  0.00     0.168 C 
ATOM      6  C23 ZIN A   1      19.993  -2.760   8.732  0.00  0.00     0.041 C 
ATOM      7  C24 ZIN A   1      18.525  -3.133   8.957  0.00  0.00     0.004 C 
ATOM      8  C26 ZIN A   1      18.055  -4.403   8.268  0.00  0.00    -0.001 C 
ATOM      9  C28 ZIN A   1      18.159  -4.238   6.752  0.00  0.00     0.010 C 
ATOM     10  C29 ZIN A   1      17.720  -5.534   6.060  0.00  0.00     0.036 C 
ATOM     11  C30 ZIN A   1      16.326  -5.879   6.549  0.00  0.00    -0.064 A 
ATOM     12  C31 ZIN A   1      15.376  -6.126   5.658  0.00  0.00     0.058 A 
ATOM     13  C32 ZIN A   1      14.008  -6.444   6.093  0.00  0.00     0.172 A 
ATOM     14  O33 ZIN A   1      13.141  -6.710   5.280  0.00  0.00    -0.289 OA
ATOM     15  C34 ZIN A   1      13.708  -6.435   7.535  0.00  0.00     0.052 A 
ATOM     16  C35 ZIN A   1      14.674  -6.193   8.407  0.00  0.00    -0.009 A 
ATOM     17  C36 ZIN A   1      16.091  -5.927   8.031  0.00  0.00     0.004 A 
ATOM     18  C37 ZIN A   1      16.948  -7.058   8.604  0.00  0.00     0.025 C 
ATOM     19  C38 ZIN A   1      16.594  -4.637   8.683  0.00  0.00     0.035 C 
ATOM     20  C40 ZIN A   1      16.452  -4.749  10.199  0.00  0.00     0.124 C 
ATOM     21  C43 ZIN A   1      17.056  -3.532  10.916  0.00  0.00     0.045 C 
ATOM     22  C44 ZIN A   1      18.510  -3.390  10.519  0.00  0.00     0.004 C 
ATOM     23  C45 ZIN A   1      19.253  -4.699  10.794  0.00  0.00     0.019 C 
ENDROOT
BRANCH   1  24
ATOM     24  C8  ZIN A   1      19.988  -2.534  12.359  0.00  0.00     0.188 C 
ATOM     25  O9  ZIN A   1      20.699  -3.508  12.431  0.00  0.00    -0.292 OA
BRANCH  24  26
ATOM     26  C7  ZIN A   1      19.792  -1.652  13.564  0.00  0.00     0.260 C 
BRANCH  26  27
ATOM     27  O6  ZIN A   1      18.484  -1.905  14.142  0.00  0.00    -0.314 OA
BRANCH  27  28
ATOM     28  C4  ZIN A   1      17.975  -0.953  14.940  0.00  0.00     0.262 C 
ATOM     29  O5  ZIN A   1      17.664   0.119  14.478  0.00  0.00    -0.265 OA
BRANCH  28  30
ATOM     30  C2  ZIN A   1      17.792  -1.222  16.411  0.00  0.00     0.077 C 
ATOM     31  C1  ZIN A   1      19.147  -1.144  17.116  0.00  0.00     0.020 C 
ATOM     32  C3  ZIN A   1      16.846  -0.177  17.006  0.00  0.00     0.020 C 
ENDBRANCH  28  30
ENDBRANCH  27  28
ENDBRANCH  26  27
ENDBRANCH  24  26
ENDBRANCH   1  24
BRANCH   3  33
ATOM     33  C14 ZIN A   1      18.388   1.233  10.294  0.00  0.00     0.041 C 
ATOM     34  C19 ZIN A   1      19.143   2.103   9.287  0.00  0.00     0.009 C 
ATOM     35  C18 ZIN A   1      18.262   3.283   8.872  0.00  0.00     0.001 C 
ATOM     36  C17 ZIN A   1      17.914   4.118  10.106  0.00  0.00     0.000 C 
ATOM     37  C16 ZIN A   1      17.160   3.248  11.114  0.00  0.00     0.001 C 
ATOM     38  C15 ZIN A   1      18.041   2.067  11.529  0.00  0.00     0.009 C 
ENDBRANCH   3  33
BRANCH  20  39
ATOM     39  O42 ZIN A   1      17.121  -5.931  10.643  0.00  0.00    -0.395 OA
ATOM     40  H78 ZIN A   1      17.003  -6.693  10.059  0.00  0.00     0.210 HD
ENDBRANCH  20  39
TORSDOF 7
ENDMDL
MODEL 6
REMARK VINA RESULT:      -7.0      2.642      8.324
REMARK  7 active torsions:
REMARK  status: ('A' for Active; 'I' for Inactive)
REMARK    1  A    between atoms: C2_2  and  C4_4 
REMARK    2  A    between atoms: C4_4  and  O6_6 
REMARK    3  A    between atoms: O6_6  and  C7_7 
REMARK    4  A    between atoms: C7_7  and  C8_8 
REMARK    5  A    between atoms: C8_8  and  C10_10 
REMARK    6  A    between atoms: C12_12  and  C14_13 
REMARK    7  A    between atoms: C40_35  and  O42_36 
ROOT
ATOM      1  C10 ZIN A   1      18.582  -1.103  11.315  0.00  0.00     0.160 C 
ATOM      2  O11 ZIN A   1      19.469  -0.910  10.195  0.00  0.00    -0.339 OA
ATOM      3  C12 ZIN A   1      18.662  -1.207   9.035  0.00  0.00     0.266 C 
ATOM      4  O20 ZIN A   1      17.376  -0.620   9.328  0.00  0.00    -0.352 OA
ATOM      5  C21 ZIN A   1      17.157  -0.879  10.729  0.00  0.00     0.168 C 
ATOM      6  C23 ZIN A   1      16.610   0.422  11.377  0.00  0.00     0.041 C 
ATOM      7  C24 ZIN A   1      17.884   1.176  11.772  0.00  0.00     0.004 C 
ATOM      8  C26 ZIN A   1      17.719   2.219  12.863  0.00  0.00    -0.001 C 
ATOM      9  C28 ZIN A   1      16.778   3.326  12.384  0.00  0.00     0.010 C 
ATOM     10  C29 ZIN A   1      16.584   4.358  13.500  0.00  0.00     0.036 C 
ATOM     11  C30 ZIN A   1      17.952   4.854  13.925  0.00  0.00    -0.064 A 
ATOM     12  C31 ZIN A   1      18.177   6.160  13.968  0.00  0.00     0.058 A 
ATOM     13  C32 ZIN A   1      19.497   6.679  14.356  0.00  0.00     0.172 A 
ATOM     14  O33 ZIN A   1      19.697   7.878  14.435  0.00  0.00    -0.289 OA
ATOM     15  C34 ZIN A   1      20.574   5.716  14.647  0.00  0.00     0.052 A 
ATOM     16  C35 ZIN A   1      20.324   4.417  14.605  0.00  0.00    -0.009 A 
ATOM     17  C36 ZIN A   1      18.992   3.833  14.281  0.00  0.00     0.004 A 
ATOM     18  C37 ZIN A   1      18.500   3.076  15.517  0.00  0.00     0.025 C 
ATOM     19  C38 ZIN A   1      19.112   2.794  13.164  0.00  0.00     0.035 C 
ATOM     20  C40 ZIN A   1      20.089   1.703  13.591  0.00  0.00     0.124 C 
ATOM     21  C43 ZIN A   1      20.156   0.566  12.559  0.00  0.00     0.045 C 
ATOM     22  C44 ZIN A   1      18.768  -0.002  12.352  0.00  0.00     0.004 C 
ATOM     23  C45 ZIN A   1      18.175  -0.425  13.698  0.00  0.00     0.019 C 
ENDROOT
BRANCH   1  24
ATOM     24  C8  ZIN A   1      18.735  -2.474  11.920  0.00  0.00     0.188 C 
ATOM     25  O9  ZIN A   1      19.779  -2.793  12.437  0.00  0.00    -0.292 OA
BRANCH  24  26
ATOM     26  C7  ZIN A   1      17.586  -3.448  11.881  0.00  0.00     0.260 C 
BRANCH  26  27
ATOM     27  O6  ZIN A   1      18.055  -4.731  11.390  0.00  0.00    -0.314 OA
BRANCH  27  28
ATOM     28  C4  ZIN A   1      18.321  -4.821  10.077  0.00  0.00     0.262 C 
ATOM     29  O5  ZIN A   1      19.432  -5.114   9.705  0.00  0.00    -0.265 OA
BRANCH  28  30
ATOM     30  C2  ZIN A   1      17.232  -4.559   9.069  0.00  0.00     0.077 C 
ATOM     31  C1  ZIN A   1      17.781  -4.779   7.658  0.00  0.00     0.020 C 
ATOM     32  C3  ZIN A   1      16.065  -5.515   9.317  0.00  0.00     0.020 C 
ENDBRANCH  28  30
ENDBRANCH  27  28
ENDBRANCH  26  27
ENDBRANCH  24  26
ENDBRANCH   1  24
BRANCH   3  33
ATOM     33  C14 ZIN A   1      19.270  -0.570   7.785  0.00  0.00     0.041 C 
ATOM     34  C19 ZIN A   1      18.668   0.821   7.576  0.00  0.00     0.009 C 
ATOM     35  C18 ZIN A   1      19.277   1.458   6.325  0.00  0.00     0.001 C 
ATOM     36  C17 ZIN A   1      18.972   0.583   5.108  0.00  0.00     0.000 C 
ATOM     37  C16 ZIN A   1      19.573  -0.809   5.316  0.00  0.00     0.001 C 
ATOM     38  C15 ZIN A   1      18.965  -1.445   6.568  0.00  0.00     0.009 C 
ENDBRANCH   3  33
BRANCH  20  39
ATOM     39  O42 ZIN A   1      19.669   1.166  14.847  0.00  0.00    -0.395 OA
ATOM     40  H78 ZIN A   1      19.721   0.202  14.900  0.00  0.00     0.210 HD
ENDBRANCH  20  39
TORSDOF 7
ENDMDL
MODEL 7
REMARK VINA RESULT:      -6.8      1.644      2.165
REMARK  7 active torsions:
REMARK  status: ('A' for Active; 'I' for Inactive)
REMARK    1  A    between atoms: C2_2  and  C4_4 
REMARK    2  A    between atoms: C4_4  and  O6_6 
REMARK    3  A    between atoms: O6_6  and  C7_7 
REMARK    4  A    between atoms: C7_7  and  C8_8 
REMARK    5  A    between atoms: C8_8  and  C10_10 
REMARK    6  A    between atoms: C12_12  and  C14_13 
REMARK    7  A    between atoms: C40_35  and  O42_36 
ROOT
ATOM      1  C10 ZIN A   1      19.170  -1.332  12.310  0.00  0.00     0.160 C 
ATOM      2  O11 ZIN A   1      18.765  -0.175  11.552  0.00  0.00    -0.339 OA
ATOM      3  C12 ZIN A   1      19.980   0.581  11.364  0.00  0.00     0.266 C 
ATOM      4  O20 ZIN A   1      20.989  -0.414  11.092  0.00  0.00    -0.352 OA
ATOM      5  C21 ZIN A   1      20.680  -1.511  11.976  0.00  0.00     0.168 C 
ATOM      6  C23 ZIN A   1      20.803  -2.829  11.164  0.00  0.00     0.041 C 
ATOM      7  C24 ZIN A   1      19.405  -2.995  10.559  0.00  0.00     0.004 C 
ATOM      8  C26 ZIN A   1      19.033  -4.407  10.141  0.00  0.00    -0.001 C 
ATOM      9  C28 ZIN A   1      19.968  -4.882   9.028  0.00  0.00     0.010 C 
ATOM     10  C29 ZIN A   1      19.614  -6.320   8.634  0.00  0.00     0.036 C 
ATOM     11  C30 ZIN A   1      18.144  -6.358   8.263  0.00  0.00    -0.064 A 
ATOM     12  C31 ZIN A   1      17.789  -6.894   7.103  0.00  0.00     0.058 A 
ATOM     13  C32 ZIN A   1      16.375  -6.930   6.699  0.00  0.00     0.172 A 
ATOM     14  O33 ZIN A   1      16.040  -7.456   5.653  0.00  0.00    -0.289 OA
ATOM     15  C34 ZIN A   1      15.373  -6.317   7.587  0.00  0.00     0.052 A 
ATOM     16  C35 ZIN A   1      15.750  -5.794   8.744  0.00  0.00    -0.009 A 
ATOM     17  C36 ZIN A   1      17.157  -5.784   9.236  0.00  0.00     0.004 A 
ATOM     18  C37 ZIN A   1      17.212  -6.629  10.511  0.00  0.00     0.025 C 
ATOM     19  C38 ZIN A   1      17.580  -4.371   9.641  0.00  0.00     0.035 C 
ATOM     20  C40 ZIN A   1      16.630  -3.847  10.714  0.00  0.00     0.124 C 
ATOM     21  C43 ZIN A   1      17.079  -2.478  11.250  0.00  0.00     0.045 C 
ATOM     22  C44 ZIN A   1      18.491  -2.591  11.786  0.00  0.00     0.004 C 
ATOM     23  C45 ZIN A   1      18.563  -3.714  12.824  0.00  0.00     0.019 C 
ENDROOT
BRANCH   1  24
ATOM     24  C8  ZIN A   1      18.937  -1.143  13.787  0.00  0.00     0.188 C 
ATOM     25  O9  ZIN A   1      19.722  -1.598  14.584  0.00  0.00    -0.292 OA
BRANCH  24  26
ATOM     26  C7  ZIN A   1      17.727  -0.387  14.269  0.00  0.00     0.260 C 
BRANCH  26  27
ATOM     27  O6  ZIN A   1      18.005   1.038  14.244  0.00  0.00    -0.314 OA
BRANCH  27  28
ATOM     28  C4  ZIN A   1      18.338   1.614  15.410  0.00  0.00     0.262 C 
ATOM     29  O5  ZIN A   1      18.499   0.934  16.395  0.00  0.00    -0.265 OA
BRANCH  28  30
ATOM     30  C2  ZIN A   1      18.511   3.109  15.490  0.00  0.00     0.077 C 
ATOM     31  C1  ZIN A   1      19.591   3.442  16.521  0.00  0.00     0.020 C 
ATOM     32  C3  ZIN A   1      18.929   3.647  14.121  0.00  0.00     0.020 C 
ENDBRANCH  28  30
ENDBRANCH  27  28
ENDBRANCH  26  27
ENDBRANCH  24  26
ENDBRANCH   1  24
BRANCH   3  33
ATOM     33  C14 ZIN A   1      19.836   1.537  10.178  0.00  0.00     0.041 C 
ATOM     34  C19 ZIN A   1      18.614   2.433  10.391  0.00  0.00     0.009 C 
ATOM     35  C18 ZIN A   1      18.471   3.389   9.205  0.00  0.00     0.001 C 
ATOM     36  C17 ZIN A   1      18.292   2.581   7.918  0.00  0.00     0.000 C 
ATOM     37  C16 ZIN A   1      19.513   1.684   7.705  0.00  0.00     0.001 C 
ATOM     38  C15 ZIN A   1      19.657   0.728   8.892  0.00  0.00     0.009 C 
ENDBRANCH   3  33
BRANCH  20  39
ATOM     39  O42 ZIN A   1      16.590  -4.780  11.796  0.00  0.00    -0.395 OA
ATOM     40  H78 ZIN A   1      17.438  -4.896  12.247  0.00  0.00     0.210 HD
ENDBRANCH  20  39
TORSDOF 7
ENDMDL
MODEL 8
REMARK VINA RESULT:      -6.4      3.341      9.829
REMARK  7 active torsions:
REMARK  status: ('A' for Active; 'I' for Inactive)
REMARK    1  A    between atoms: C2_2  and  C4_4 
REMARK    2  A    between atoms: C4_4  and  O6_6 
REMARK    3  A    between atoms: O6_6  and  C7_7 
REMARK    4  A    between atoms: C7_7  and  C8_8 
REMARK    5  A    between atoms: C8_8  and  C10_10 
REMARK    6  A    between atoms: C12_12  and  C14_13 
REMARK    7  A    between atoms: C40_35  and  O42_36 
ROOT
ATOM      1  C10 ZIN A   1      19.062   2.602  10.762  0.00  0.00     0.160 C 
ATOM      2  O11 ZIN A   1      18.628   1.312  11.235  0.00  0.00    -0.339 OA
ATOM      3  C12 ZIN A   1      19.828   0.509  11.257  0.00  0.00     0.266 C 
ATOM      4  O20 ZIN A   1      20.850   1.397  11.756  0.00  0.00    -0.352 OA
ATOM      5  C21 ZIN A   1      20.571   2.671  11.142  0.00  0.00     0.168 C 
ATOM      6  C23 ZIN A   1      20.705   3.768  12.233  0.00  0.00     0.041 C 
ATOM      7  C24 ZIN A   1      19.303   3.820  12.848  0.00  0.00     0.004 C 
ATOM      8  C26 ZIN A   1      18.949   5.108  13.572  0.00  0.00    -0.001 C 
ATOM      9  C28 ZIN A   1      19.878   5.299  14.772  0.00  0.00     0.010 C 
ATOM     10  C29 ZIN A   1      19.544   6.617  15.478  0.00  0.00     0.036 C 
ATOM     11  C30 ZIN A   1      18.070   6.598  15.836  0.00  0.00    -0.064 A 
ATOM     12  C31 ZIN A   1      17.709   6.864  17.084  0.00  0.00     0.058 A 
ATOM     13  C32 ZIN A   1      16.291   6.835  17.474  0.00  0.00     0.172 A 
ATOM     14  O33 ZIN A   1      15.951   7.117  18.609  0.00  0.00    -0.289 OA
ATOM     15  C34 ZIN A   1      15.290   6.459  16.461  0.00  0.00     0.052 A 
ATOM     16  C35 ZIN A   1      15.673   6.205  15.219  0.00  0.00    -0.009 A 
ATOM     17  C36 ZIN A   1      17.085   6.280  14.750  0.00  0.00     0.004 A 
ATOM     18  C37 ZIN A   1      17.171   7.390  13.700  0.00  0.00     0.025 C 
ATOM     19  C38 ZIN A   1      17.490   4.987  14.038  0.00  0.00     0.035 C 
ATOM     20  C40 ZIN A   1      16.545   4.739  12.866  0.00  0.00     0.124 C 
ATOM     21  C43 ZIN A   1      16.978   3.519  12.037  0.00  0.00     0.045 C 
ATOM     22  C44 ZIN A   1      18.398   3.723  11.553  0.00  0.00     0.004 C 
ATOM     23  C45 ZIN A   1      18.502   5.050  10.798  0.00  0.00     0.019 C 
ENDROOT
BRANCH   1  24
ATOM     24  C8  ZIN A   1      18.845   2.758   9.279  0.00  0.00     0.188 C 
ATOM     25  O9  ZIN A   1      18.144   3.649   8.863  0.00  0.00    -0.292 OA
BRANCH  24  26
ATOM     26  C7  ZIN A   1      19.503   1.804   8.317  0.00  0.00     0.260 C 
BRANCH  26  27
ATOM     27  O6  ZIN A   1      18.581   1.493   7.238  0.00  0.00    -0.314 OA
BRANCH  27  28
ATOM     28  C4  ZIN A   1      18.102   0.240   7.187  0.00  0.00     0.262 C 
ATOM     29  O5  ZIN A   1      17.407  -0.177   8.083  0.00  0.00    -0.265 OA
BRANCH  28  30
ATOM     30  C2  ZIN A   1      18.431  -0.645   6.013  0.00  0.00     0.077 C 
ATOM     31  C1  ZIN A   1      19.249   0.147   4.991  0.00  0.00     0.020 C 
ATOM     32  C3  ZIN A   1      19.242  -1.849   6.493  0.00  0.00     0.020 C 
ENDBRANCH  28  30
ENDBRANCH  27  28
ENDBRANCH  26  27
ENDBRANCH  24  26
ENDBRANCH   1  24
BRANCH   3  33
ATOM     33  C14 ZIN A   1      19.652  -0.687  12.193  0.00  0.00     0.041 C 
ATOM     34  C19 ZIN A   1      18.261  -1.291  11.995  0.00  0.00     0.009 C 
ATOM     35  C18 ZIN A   1      18.086  -2.488  12.931  0.00  0.00     0.001 C 
ATOM     36  C17 ZIN A   1      18.238  -2.026  14.382  0.00  0.00     0.000 C 
ATOM     37  C16 ZIN A   1      19.630  -1.422  14.582  0.00  0.00     0.001 C 
ATOM     38  C15 ZIN A   1      19.805  -0.225  13.644  0.00  0.00     0.009 C 
ENDBRANCH   3  33
BRANCH  20  39
ATOM     39  O42 ZIN A   1      16.534   5.893  12.023  0.00  0.00    -0.395 OA
ATOM     40  H78 ZIN A   1      15.907   6.576  12.299  0.00  0.00     0.210 HD
ENDBRANCH  20  39
TORSDOF 7
ENDMDL
