MODEL 1
REMARK VINA RESULT:      -8.0      0.000      0.000
REMARK  3 active torsions:
REMARK  status: ('A' for Active; 'I' for Inactive)
REMARK    1  A    between atoms: C2_2  and  N3_3 
REMARK       I    between atoms: N3_3  and  C4_4 
REMARK    2  A    between atoms: N3_3  and  C7_7 
REMARK    3  A    between atoms: C11_11  and  C12_12 
ROOT
ATOM      1  C12 ZIN A   1      19.109  -0.681   7.145  0.00  0.00     0.072 A 
ATOM      2  C13 ZIN A   1      19.256  -0.384   5.803  0.00  0.00     0.052 A 
ATOM      3  C14 ZIN A   1      19.307  -1.427   4.879  0.00  0.00     0.121 A 
ATOM      4  N15 ZIN A   1      19.217  -2.677   5.283  0.00  0.00    -0.240 NA
ATOM      5  C16 ZIN A   1      19.075  -2.979   6.573  0.00  0.00     0.173 A 
ATOM      6  C17 ZIN A   1      18.958  -4.206   7.254  0.00  0.00     0.111 A 
ATOM      7  C18 ZIN A   1      18.965  -5.511   6.666  0.00  0.00     0.105 C 
ATOM      8  N19 ZIN A   1      18.971  -6.547   6.198  0.00  0.00    -0.191 NA
ATOM      9  C20 ZIN A   1      18.832  -3.906   8.622  0.00  0.00     0.166 A 
ATOM     10  N21 ZIN A   1      18.869  -2.608   8.772  0.00  0.00    -0.176 NA
ATOM     11  N22 ZIN A   1      19.025  -1.997   7.524  0.00  0.00    -0.214 N 
ENDROOT
BRANCH   1  12
ATOM     12  C11 ZIN A   1      19.052   0.398   8.152  0.00  0.00    -0.005 A 
ATOM     13  C10 ZIN A   1      19.055   1.735   7.748  0.00  0.00     0.014 A 
ATOM     14  C9  ZIN A   1      19.002   2.741   8.691  0.00  0.00     0.003 A 
ATOM     15  C8  ZIN A   1      18.944   2.430  10.037  0.00  0.00     0.030 A 
ATOM     16  C7  ZIN A   1      18.939   1.104  10.449  0.00  0.00     0.038 A 
ATOM     17  C23 ZIN A   1      18.999   0.086   9.511  0.00  0.00     0.043 A 
BRANCH  16  18
ATOM     18  N3  ZIN A   1      18.880   0.796  11.813  0.00  0.00    -0.319 N 
ATOM     19  C4  ZIN A   1      19.999   0.432  12.471  0.00  0.00     0.220 C 
ATOM     20  C5  ZIN A   1      19.915  -0.031  13.902  0.00  0.00     0.117 C 
ATOM     21  O6  ZIN A   1      21.074   0.479  11.911  0.00  0.00    -0.273 OA
BRANCH  18  22
ATOM     22  C2  ZIN A   1      17.602   0.868  12.526  0.00  0.00     0.128 C 
ATOM     23  C1  ZIN A   1      16.619  -0.130  11.914  0.00  0.00     0.027 C 
ENDBRANCH  18  22
ENDBRANCH  16  18
ENDBRANCH   1  12
TORSDOF 3
ENDMDL
MODEL 2
REMARK VINA RESULT:      -7.9      2.471      6.957
REMARK  3 active torsions:
REMARK  status: ('A' for Active; 'I' for Inactive)
REMARK    1  A    between atoms: C2_2  and  N3_3 
REMARK       I    between atoms: N3_3  and  C4_4 
REMARK    2  A    between atoms: N3_3  and  C7_7 
REMARK    3  A    between atoms: C11_11  and  C12_12 
ROOT
ATOM      1  C12 ZIN A   1      18.262  -0.779  11.373  0.00  0.00     0.072 A 
ATOM      2  C13 ZIN A   1      17.588  -0.607  12.567  0.00  0.00     0.052 A 
ATOM      3  C14 ZIN A   1      17.118   0.662  12.905  0.00  0.00     0.121 A 
ATOM      4  N15 ZIN A   1      17.317   1.681  12.095  0.00  0.00    -0.240 NA
ATOM      5  C16 ZIN A   1      17.965   1.530  10.940  0.00  0.00     0.173 A 
ATOM      6  C17 ZIN A   1      18.303   2.436   9.916  0.00  0.00     0.111 A 
ATOM      7  C18 ZIN A   1      18.002   3.835   9.882  0.00  0.00     0.105 C 
ATOM      8  N19 ZIN A   1      17.763   4.945   9.855  0.00  0.00    -0.191 NA
ATOM      9  C20 ZIN A   1      18.993   1.705   8.932  0.00  0.00     0.166 A 
ATOM     10  N21 ZIN A   1      19.074   0.457   9.316  0.00  0.00    -0.176 NA
ATOM     11  N22 ZIN A   1      18.453   0.310  10.560  0.00  0.00    -0.214 N 
ENDROOT
BRANCH   1  12
ATOM     12  C11 ZIN A   1      18.774  -2.108  10.983  0.00  0.00    -0.005 A 
ATOM     13  C10 ZIN A   1      19.697  -2.771  11.796  0.00  0.00     0.014 A 
ATOM     14  C9  ZIN A   1      20.173  -4.012  11.429  0.00  0.00     0.003 A 
ATOM     15  C8  ZIN A   1      19.742  -4.605  10.257  0.00  0.00     0.030 A 
ATOM     16  C7  ZIN A   1      18.825  -3.954   9.441  0.00  0.00     0.038 A 
ATOM     17  C23 ZIN A   1      18.343  -2.705   9.797  0.00  0.00     0.043 A 
BRANCH  16  18
ATOM     18  N3  ZIN A   1      18.391  -4.559   8.256  0.00  0.00    -0.319 N 
ATOM     19  C4  ZIN A   1      18.810  -4.087   7.065  0.00  0.00     0.220 C 
ATOM     20  C5  ZIN A   1      18.239  -4.647   5.789  0.00  0.00     0.117 C 
ATOM     21  O6  ZIN A   1      19.648  -3.210   7.021  0.00  0.00    -0.273 OA
BRANCH  18  22
ATOM     22  C2  ZIN A   1      17.481  -5.707   8.309  0.00  0.00     0.128 C 
ATOM     23  C1  ZIN A   1      16.206  -5.313   9.056  0.00  0.00     0.027 C 
ENDBRANCH  18  22
ENDBRANCH  16  18
ENDBRANCH   1  12
TORSDOF 3
ENDMDL
MODEL 3
REMARK VINA RESULT:      -7.9      2.567      7.078
REMARK  3 active torsions:
REMARK  status: ('A' for Active; 'I' for Inactive)
REMARK    1  A    between atoms: C2_2  and  N3_3 
REMARK       I    between atoms: N3_3  and  C4_4 
REMARK    2  A    between atoms: N3_3  and  C7_7 
REMARK    3  A    between atoms: C11_11  and  C12_12 
ROOT
ATOM      1  C12 ZIN A   1      18.290  -0.772  11.329  0.00  0.00     0.072 A 
ATOM      2  C13 ZIN A   1      17.602  -0.610  12.517  0.00  0.00     0.052 A 
ATOM      3  C14 ZIN A   1      17.120   0.655  12.855  0.00  0.00     0.121 A 
ATOM      4  N15 ZIN A   1      17.321   1.678  12.052  0.00  0.00    -0.240 NA
ATOM      5  C16 ZIN A   1      17.982   1.537  10.903  0.00  0.00     0.173 A 
ATOM      6  C17 ZIN A   1      18.325   2.449   9.886  0.00  0.00     0.111 A 
ATOM      7  C18 ZIN A   1      18.015   3.847   9.856  0.00  0.00     0.105 C 
ATOM      8  N19 ZIN A   1      17.769   4.956   9.831  0.00  0.00    -0.191 NA
ATOM      9  C20 ZIN A   1      19.030   1.728   8.907  0.00  0.00     0.166 A 
ATOM     10  N21 ZIN A   1      19.115   0.479   9.286  0.00  0.00    -0.176 NA
ATOM     11  N22 ZIN A   1      18.482   0.322  10.523  0.00  0.00    -0.214 N 
ENDROOT
BRANCH   1  12
ATOM     12  C11 ZIN A   1      18.814  -2.096  10.938  0.00  0.00    -0.005 A 
ATOM     13  C10 ZIN A   1      19.665  -2.795  11.799  0.00  0.00     0.014 A 
ATOM     14  C9  ZIN A   1      20.154  -4.031  11.431  0.00  0.00     0.003 A 
ATOM     15  C8  ZIN A   1      19.806  -4.583  10.212  0.00  0.00     0.030 A 
ATOM     16  C7  ZIN A   1      18.960  -3.897   9.350  0.00  0.00     0.038 A 
ATOM     17  C23 ZIN A   1      18.467  -2.652   9.707  0.00  0.00     0.043 A 
BRANCH  16  18
ATOM     18  N3  ZIN A   1      18.610  -4.461   8.118  0.00  0.00    -0.319 N 
ATOM     19  C4  ZIN A   1      17.405  -5.045   7.962  0.00  0.00     0.220 C 
ATOM     20  C5  ZIN A   1      17.079  -5.772   6.683  0.00  0.00     0.117 C 
ATOM     21  O6  ZIN A   1      16.582  -4.985   8.852  0.00  0.00    -0.273 OA
BRANCH  18  22
ATOM     22  C2  ZIN A   1      19.552  -4.417   6.997  0.00  0.00     0.128 C 
ATOM     23  C1  ZIN A   1      19.478  -3.048   6.321  0.00  0.00     0.027 C 
ENDBRANCH  18  22
ENDBRANCH  16  18
ENDBRANCH   1  12
TORSDOF 3
ENDMDL
MODEL 4
REMARK VINA RESULT:      -7.8      3.478      5.094
REMARK  3 active torsions:
REMARK  status: ('A' for Active; 'I' for Inactive)
REMARK    1  A    between atoms: C2_2  and  N3_3 
REMARK       I    between atoms: N3_3  and  C4_4 
REMARK    2  A    between atoms: N3_3  and  C7_7 
REMARK    3  A    between atoms: C11_11  and  C12_12 
ROOT
ATOM      1  C12 ZIN A   1      18.124   2.653  10.550  0.00  0.00     0.072 A 
ATOM      2  C13 ZIN A   1      18.814   3.018   9.410  0.00  0.00     0.052 A 
ATOM      3  C14 ZIN A   1      19.142   2.038   8.473  0.00  0.00     0.121 A 
ATOM      4  N15 ZIN A   1      18.799   0.784   8.675  0.00  0.00    -0.240 NA
ATOM      5  C16 ZIN A   1      18.132   0.417   9.770  0.00  0.00     0.173 A 
ATOM      6  C17 ZIN A   1      17.655  -0.830  10.218  0.00  0.00     0.111 A 
ATOM      7  C18 ZIN A   1      17.789  -2.086   9.544  0.00  0.00     0.105 C 
ATOM      8  N19 ZIN A   1      17.896  -3.082   9.009  0.00  0.00    -0.191 NA
ATOM      9  C20 ZIN A   1      17.022  -0.608  11.454  0.00  0.00     0.166 A 
ATOM     10  N21 ZIN A   1      17.101   0.665  11.743  0.00  0.00    -0.176 NA
ATOM     11  N22 ZIN A   1      17.789   1.333  10.725  0.00  0.00    -0.214 N 
ENDROOT
BRANCH   1  12
ATOM     12  C11 ZIN A   1      17.759   3.663  11.564  0.00  0.00    -0.005 A 
ATOM     13  C10 ZIN A   1      16.754   4.595  11.295  0.00  0.00     0.014 A 
ATOM     14  C9  ZIN A   1      16.415   5.537  12.244  0.00  0.00     0.003 A 
ATOM     15  C8  ZIN A   1      17.068   5.564  13.462  0.00  0.00     0.030 A 
ATOM     16  C7  ZIN A   1      18.069   4.642  13.740  0.00  0.00     0.038 A 
ATOM     17  C23 ZIN A   1      18.421   3.694  12.792  0.00  0.00     0.043 A 
BRANCH  16  18
ATOM     18  N3  ZIN A   1      18.725   4.673  14.975  0.00  0.00    -0.319 N 
ATOM     19  C4  ZIN A   1      18.753   3.571  15.752  0.00  0.00     0.220 C 
ATOM     20  C5  ZIN A   1      19.339   3.641  17.138  0.00  0.00     0.117 C 
ATOM     21  O6  ZIN A   1      18.306   2.523  15.335  0.00  0.00    -0.273 OA
BRANCH  18  22
ATOM     22  C2  ZIN A   1      19.383   5.902  15.425  0.00  0.00     0.128 C 
ATOM     23  C1  ZIN A   1      20.611   6.171  14.555  0.00  0.00     0.027 C 
ENDBRANCH  18  22
ENDBRANCH  16  18
ENDBRANCH   1  12
TORSDOF 3
ENDMDL
MODEL 5
REMARK VINA RESULT:      -7.7      4.828      9.355
REMARK  3 active torsions:
REMARK  status: ('A' for Active; 'I' for Inactive)
REMARK    1  A    between atoms: C2_2  and  N3_3 
REMARK       I    between atoms: N3_3  and  C4_4 
REMARK    2  A    between atoms: N3_3  and  C7_7 
REMARK    3  A    between atoms: C11_11  and  C12_12 
ROOT
ATOM      1  C12 ZIN A   1      18.625   5.070  13.323  0.00  0.00     0.072 A 
ATOM      2  C13 ZIN A   1      19.897   5.399  13.752  0.00  0.00     0.052 A 
ATOM      3  C14 ZIN A   1      20.045   6.306  14.801  0.00  0.00     0.121 A 
ATOM      4  N15 ZIN A   1      18.986   6.841  15.371  0.00  0.00    -0.240 NA
ATOM      5  C16 ZIN A   1      17.754   6.532  14.969  0.00  0.00     0.173 A 
ATOM      6  C17 ZIN A   1      16.481   6.953  15.400  0.00  0.00     0.111 A 
ATOM      7  C18 ZIN A   1      16.202   7.881  16.454  0.00  0.00     0.105 C 
ATOM      8  N19 ZIN A   1      15.981   8.617  17.291  0.00  0.00    -0.191 NA
ATOM      9  C20 ZIN A   1      15.535   6.289  14.599  0.00  0.00     0.166 A 
ATOM     10  N21 ZIN A   1      16.169   5.525  13.747  0.00  0.00    -0.176 NA
ATOM     11  N22 ZIN A   1      17.548   5.654  13.941  0.00  0.00    -0.214 N 
ENDROOT
BRANCH   1  12
ATOM     12  C11 ZIN A   1      18.429   4.113  12.214  0.00  0.00    -0.005 A 
ATOM     13  C10 ZIN A   1      18.139   4.578  10.929  0.00  0.00     0.014 A 
ATOM     14  C9  ZIN A   1      17.956   3.683   9.896  0.00  0.00     0.003 A 
ATOM     15  C8  ZIN A   1      18.058   2.324  10.128  0.00  0.00     0.030 A 
ATOM     16  C7  ZIN A   1      18.346   1.850  11.401  0.00  0.00     0.038 A 
ATOM     17  C23 ZIN A   1      18.526   2.741  12.448  0.00  0.00     0.043 A 
BRANCH  16  18
ATOM     18  N3  ZIN A   1      18.448   0.474  11.629  0.00  0.00    -0.319 N 
ATOM     19  C4  ZIN A   1      17.334  -0.269  11.785  0.00  0.00     0.220 C 
ATOM     20  C5  ZIN A   1      17.444  -1.722  12.165  0.00  0.00     0.117 C 
ATOM     21  O6  ZIN A   1      16.242   0.233  11.618  0.00  0.00    -0.273 OA
BRANCH  18  22
ATOM     22  C2  ZIN A   1      19.767  -0.162  11.698  0.00  0.00     0.128 C 
ATOM     23  C1  ZIN A   1      20.303  -0.379  10.283  0.00  0.00     0.027 C 
ENDBRANCH  18  22
ENDBRANCH  16  18
ENDBRANCH   1  12
TORSDOF 3
ENDMDL
MODEL 6
REMARK VINA RESULT:      -7.4      4.229      9.596
REMARK  3 active torsions:
REMARK  status: ('A' for Active; 'I' for Inactive)
REMARK    1  A    between atoms: C2_2  and  N3_3 
REMARK       I    between atoms: N3_3  and  C4_4 
REMARK    2  A    between atoms: N3_3  and  C7_7 
REMARK    3  A    between atoms: C11_11  and  C12_12 
ROOT
ATOM      1  C12 ZIN A   1      18.621   2.183  16.062  0.00  0.00     0.072 A 
ATOM      2  C13 ZIN A   1      18.904   2.031  17.406  0.00  0.00     0.052 A 
ATOM      3  C14 ZIN A   1      18.949   3.162  18.222  0.00  0.00     0.121 A 
ATOM      4  N15 ZIN A   1      18.726   4.356  17.715  0.00  0.00    -0.240 NA
ATOM      5  C16 ZIN A   1      18.452   4.518  16.420  0.00  0.00     0.173 A 
ATOM      6  C17 ZIN A   1      18.180   5.660  15.643  0.00  0.00     0.111 A 
ATOM      7  C18 ZIN A   1      18.133   7.014  16.106  0.00  0.00     0.105 C 
ATOM      8  N19 ZIN A   1      18.095   8.089  16.473  0.00  0.00    -0.191 NA
ATOM      9  C20 ZIN A   1      17.963   5.219  14.326  0.00  0.00     0.166 A 
ATOM     10  N21 ZIN A   1      18.090   3.918  14.293  0.00  0.00    -0.176 NA
ATOM     11  N22 ZIN A   1      18.400   3.446  15.573  0.00  0.00    -0.214 N 
ENDROOT
BRANCH   1  12
ATOM     12  C11 ZIN A   1      18.565   1.009  15.167  0.00  0.00    -0.005 A 
ATOM     13  C10 ZIN A   1      18.553  -0.281  15.704  0.00  0.00     0.014 A 
ATOM     14  C9  ZIN A   1      18.501  -1.376  14.867  0.00  0.00     0.003 A 
ATOM     15  C8  ZIN A   1      18.460  -1.202  13.496  0.00  0.00     0.030 A 
ATOM     16  C7  ZIN A   1      18.470   0.076  12.952  0.00  0.00     0.038 A 
ATOM     17  C23 ZIN A   1      18.528   1.183  13.784  0.00  0.00     0.043 A 
BRANCH  16  18
ATOM     18  N3  ZIN A   1      18.427   0.245  11.564  0.00  0.00    -0.319 N 
ATOM     19  C4  ZIN A   1      17.259   0.112  10.904  0.00  0.00     0.220 C 
ATOM     20  C5  ZIN A   1      17.234   0.158   9.398  0.00  0.00     0.117 C 
ATOM     21  O6  ZIN A   1      16.227  -0.046  11.523  0.00  0.00    -0.273 OA
BRANCH  18  22
ATOM     22  C2  ZIN A   1      19.651   0.569  10.826  0.00  0.00     0.128 C 
ATOM     23  C1  ZIN A   1      20.580  -0.646  10.821  0.00  0.00     0.027 C 
ENDBRANCH  18  22
ENDBRANCH  16  18
ENDBRANCH   1  12
TORSDOF 3
ENDMDL
MODEL 7
REMARK VINA RESULT:      -7.3      2.023      3.137
REMARK  3 active torsions:
REMARK  status: ('A' for Active; 'I' for Inactive)
REMARK    1  A    between atoms: C2_2  and  N3_3 
REMARK       I    between atoms: N3_3  and  C4_4 
REMARK    2  A    between atoms: N3_3  and  C7_7 
REMARK    3  A    between atoms: C11_11  and  C12_12 
ROOT
ATOM      1  C12 ZIN A   1      18.271  -1.408   9.607  0.00  0.00     0.072 A 
ATOM      2  C13 ZIN A   1      17.666  -2.040  10.676  0.00  0.00     0.052 A 
ATOM      3  C14 ZIN A   1      17.480  -3.421  10.631  0.00  0.00     0.121 A 
ATOM      4  N15 ZIN A   1      17.875  -4.110   9.581  0.00  0.00    -0.240 NA
ATOM      5  C16 ZIN A   1      18.461  -3.514   8.543  0.00  0.00     0.173 A 
ATOM      6  C17 ZIN A   1      18.966  -4.009   7.325  0.00  0.00     0.111 A 
ATOM      7  C18 ZIN A   1      18.965  -5.375   6.894  0.00  0.00     0.105 C 
ATOM      8  N19 ZIN A   1      18.964  -6.458   6.552  0.00  0.00    -0.191 NA
ATOM      9  C20 ZIN A   1      19.472  -2.908   6.612  0.00  0.00     0.166 A 
ATOM     10  N21 ZIN A   1      19.294  -1.828   7.327  0.00  0.00    -0.176 NA
ATOM     11  N22 ZIN A   1      18.664  -2.162   8.530  0.00  0.00    -0.214 N 
ENDROOT
BRANCH   1  12
ATOM     12  C11 ZIN A   1      18.485   0.054   9.619  0.00  0.00    -0.005 A 
ATOM     13  C10 ZIN A   1      18.911   0.711   8.462  0.00  0.00     0.014 A 
ATOM     14  C9  ZIN A   1      19.110   2.075   8.476  0.00  0.00     0.003 A 
ATOM     15  C8  ZIN A   1      18.890   2.798   9.634  0.00  0.00     0.030 A 
ATOM     16  C7  ZIN A   1      18.466   2.156  10.790  0.00  0.00     0.038 A 
ATOM     17  C23 ZIN A   1      18.268   0.784  10.788  0.00  0.00     0.043 A 
BRANCH  16  18
ATOM     18  N3  ZIN A   1      18.243   2.893  11.958  0.00  0.00    -0.319 N 
ATOM     19  C4  ZIN A   1      17.326   3.881  11.968  0.00  0.00     0.220 C 
ATOM     20  C5  ZIN A   1      17.182   4.764  13.180  0.00  0.00     0.117 C 
ATOM     21  O6  ZIN A   1      16.616   4.059  11.000  0.00  0.00    -0.273 OA
BRANCH  18  22
ATOM     22  C2  ZIN A   1      19.007   2.592  13.172  0.00  0.00     0.128 C 
ATOM     23  C1  ZIN A   1      18.235   1.582  14.023  0.00  0.00     0.027 C 
ENDBRANCH  18  22
ENDBRANCH  16  18
ENDBRANCH   1  12
TORSDOF 3
ENDMDL
MODEL 8
REMARK VINA RESULT:      -7.3      1.599      2.366
REMARK  3 active torsions:
REMARK  status: ('A' for Active; 'I' for Inactive)
REMARK    1  A    between atoms: C2_2  and  N3_3 
REMARK       I    between atoms: N3_3  and  C4_4 
REMARK    2  A    between atoms: N3_3  and  C7_7 
REMARK    3  A    between atoms: C11_11  and  C12_12 
ROOT
ATOM      1  C12 ZIN A   1      18.940  -1.901   7.416  0.00  0.00     0.072 A 
ATOM      2  C13 ZIN A   1      19.483  -3.025   8.009  0.00  0.00     0.052 A 
ATOM      3  C14 ZIN A   1      19.411  -4.247   7.340  0.00  0.00     0.121 A 
ATOM      4  N15 ZIN A   1      18.833  -4.325   6.160  0.00  0.00    -0.240 NA
ATOM      5  C16 ZIN A   1      18.306  -3.249   5.575  0.00  0.00     0.173 A 
ATOM      6  C17 ZIN A   1      17.646  -3.064   4.345  0.00  0.00     0.111 A 
ATOM      7  C18 ZIN A   1      17.371  -4.072   3.366  0.00  0.00     0.105 C 
ATOM      8  N19 ZIN A   1      17.154  -4.872   2.589  0.00  0.00    -0.191 NA
ATOM      9  C20 ZIN A   1      17.308  -1.702   4.260  0.00  0.00     0.166 A 
ATOM     10  N21 ZIN A   1      17.723  -1.099   5.344  0.00  0.00    -0.176 NA
ATOM     11  N22 ZIN A   1      18.342  -2.027   6.188  0.00  0.00    -0.214 N 
ENDROOT
BRANCH   1  12
ATOM     12  C11 ZIN A   1      18.997  -0.590   8.095  0.00  0.00    -0.005 A 
ATOM     13  C10 ZIN A   1      19.125   0.582   7.346  0.00  0.00     0.014 A 
ATOM     14  C9  ZIN A   1      19.179   1.805   7.982  0.00  0.00     0.003 A 
ATOM     15  C8  ZIN A   1      19.106   1.876   9.361  0.00  0.00     0.030 A 
ATOM     16  C7  ZIN A   1      18.978   0.716  10.115  0.00  0.00     0.038 A 
ATOM     17  C23 ZIN A   1      18.929  -0.518   9.487  0.00  0.00     0.043 A 
BRANCH  16  18
ATOM     18  N3  ZIN A   1      18.904   0.794  11.510  0.00  0.00    -0.319 N 
ATOM     19  C4  ZIN A   1      19.989   0.514  12.260  0.00  0.00     0.220 C 
ATOM     20  C5  ZIN A   1      19.876   0.464  13.761  0.00  0.00     0.117 C 
ATOM     21  O6  ZIN A   1      21.058   0.303  11.725  0.00  0.00    -0.273 OA
BRANCH  18  22
ATOM     22  C2  ZIN A   1      17.648   1.180  12.158  0.00  0.00     0.128 C 
ATOM     23  C1  ZIN A   1      16.624   0.055  11.998  0.00  0.00     0.027 C 
ENDBRANCH  18  22
ENDBRANCH  16  18
ENDBRANCH   1  12
TORSDOF 3
ENDMDL
MODEL 9
REMARK VINA RESULT:      -7.2      2.905      4.591
REMARK  3 active torsions:
REMARK  status: ('A' for Active; 'I' for Inactive)
REMARK    1  A    between atoms: C2_2  and  N3_3 
REMARK       I    between atoms: N3_3  and  C4_4 
REMARK    2  A    between atoms: N3_3  and  C7_7 
REMARK    3  A    between atoms: C11_11  and  C12_12 
ROOT
ATOM      1  C12 ZIN A   1      18.221  -4.921   8.151  0.00  0.00     0.072 A 
ATOM      2  C13 ZIN A   1      19.037  -5.071   7.046  0.00  0.00     0.052 A 
ATOM      3  C14 ZIN A   1      18.525  -5.684   5.903  0.00  0.00     0.121 A 
ATOM      4  N15 ZIN A   1      17.281  -6.115   5.881  0.00  0.00    -0.240 NA
ATOM      5  C16 ZIN A   1      16.483  -5.978   6.940  0.00  0.00     0.173 A 
ATOM      6  C17 ZIN A   1      15.142  -6.343   7.172  0.00  0.00     0.111 A 
ATOM      7  C18 ZIN A   1      14.265  -6.997   6.248  0.00  0.00     0.105 C 
ATOM      8  N19 ZIN A   1      13.569  -7.516   5.515  0.00  0.00    -0.191 NA
ATOM      9  C20 ZIN A   1      14.829  -5.944   8.483  0.00  0.00     0.166 A 
ATOM     10  N21 ZIN A   1      15.884  -5.381   9.014  0.00  0.00    -0.176 NA
ATOM     11  N22 ZIN A   1      16.933  -5.389   8.089  0.00  0.00    -0.214 N 
ENDROOT
BRANCH   1  12
ATOM     12  C11 ZIN A   1      18.729  -4.276   9.380  0.00  0.00    -0.005 A 
ATOM     13  C10 ZIN A   1      19.412  -5.031  10.337  0.00  0.00     0.014 A 
ATOM     14  C9  ZIN A   1      19.885  -4.426  11.483  0.00  0.00     0.003 A 
ATOM     15  C8  ZIN A   1      19.685  -3.074  11.689  0.00  0.00     0.030 A 
ATOM     16  C7  ZIN A   1      19.007  -2.315  10.744  0.00  0.00     0.038 A 
ATOM     17  C23 ZIN A   1      18.523  -2.913   9.592  0.00  0.00     0.043 A 
BRANCH  16  18
ATOM     18  N3  ZIN A   1      18.809  -0.946  10.958  0.00  0.00    -0.319 N 
ATOM     19  C4  ZIN A   1      17.644  -0.507  11.476  0.00  0.00     0.220 C 
ATOM     20  C5  ZIN A   1      17.375   0.972  11.580  0.00  0.00     0.117 C 
ATOM     21  O6  ZIN A   1      16.811  -1.303  11.858  0.00  0.00    -0.273 OA
BRANCH  18  22
ATOM     22  C2  ZIN A   1      19.866   0.010  10.621  0.00  0.00     0.128 C 
ATOM     23  C1  ZIN A   1      20.752   0.243  11.845  0.00  0.00     0.027 C 
ENDBRANCH  18  22
ENDBRANCH  16  18
ENDBRANCH   1  12
TORSDOF 3
ENDMDL
