MODEL 1
REMARK VINA RESULT:      -5.4      0.000      0.000
REMARK  7 active torsions:
REMARK  status: ('A' for Active; 'I' for Inactive)
REMARK    1  A    between atoms: O2_2  and  C3_3 
REMARK    2  A    between atoms: C8_8  and  O9_9 
REMARK    3  A    between atoms: O9_9  and  C10_10 
REMARK    4  A    between atoms: C10_10  and  C11_11 
REMARK    5  A    between atoms: C11_11  and  O13_12 
REMARK    6  A    between atoms: C11_11  and  C14_13 
REMARK    7  A    between atoms: C14_13  and  O15_14 
ROOT
ATOM      1  C3  ZIN A   1      17.582   0.434   9.831  0.00  0.00     0.101 A 
ATOM      2  C4  ZIN A   1      17.450  -0.095   8.558  0.00  0.00     0.039 A 
ATOM      3  C5  ZIN A   1      18.171   0.441   7.508  0.00  0.00     0.003 A 
ATOM      4  C6  ZIN A   1      19.026   1.506   7.724  0.00  0.00     0.003 A 
ATOM      5  C7  ZIN A   1      19.163   2.039   8.993  0.00  0.00     0.039 A 
ATOM      6  C8  ZIN A   1      18.439   1.510  10.049  0.00  0.00     0.102 A 
ENDROOT
BRANCH   6   7
ATOM      7  O9  ZIN A   1      18.572   2.033  11.297  0.00  0.00    -0.346 OA
BRANCH   7   8
ATOM      8  C10 ZIN A   1      19.894   2.098  11.834  0.00  0.00     0.209 C 
BRANCH   8   9
ATOM      9  C11 ZIN A   1      20.351   0.693  12.234  0.00  0.00     0.166 C 
BRANCH   9  10
ATOM     10  O13 ZIN A   1      21.773   0.605  12.124  0.00  0.00    -0.391 OA
ATOM     11  H25 ZIN A   1      22.106   0.718  11.223  0.00  0.00     0.210 HD
ENDBRANCH   9  10
BRANCH   9  12
ATOM     12  C14 ZIN A   1      19.934   0.413  13.679  0.00  0.00     0.198 C 
BRANCH  12  13
ATOM     13  O15 ZIN A   1      19.583   1.641  14.321  0.00  0.00    -0.398 OA
ATOM     14  H28 ZIN A   1      20.340   2.137  14.660  0.00  0.00     0.209 HD
ENDBRANCH  12  13
ENDBRANCH   9  12
ENDBRANCH   8   9
ENDBRANCH   7   8
ENDBRANCH   6   7
BRANCH   1  15
ATOM     15  O2  ZIN A   1      16.873  -0.093  10.865  0.00  0.00    -0.353 OA
ATOM     16  C1  ZIN A   1      17.359  -1.312  11.432  0.00  0.00     0.210 C 
ENDBRANCH   1  15
TORSDOF 7
ENDMDL
MODEL 2
REMARK VINA RESULT:      -5.4      2.419      3.804
REMARK  7 active torsions:
REMARK  status: ('A' for Active; 'I' for Inactive)
REMARK    1  A    between atoms: O2_2  and  C3_3 
REMARK    2  A    between atoms: C8_8  and  O9_9 
REMARK    3  A    between atoms: O9_9  and  C10_10 
REMARK    4  A    between atoms: C10_10  and  C11_11 
REMARK    5  A    between atoms: C11_11  and  O13_12 
REMARK    6  A    between atoms: C11_11  and  C14_13 
REMARK    7  A    between atoms: C14_13  and  O15_14 
ROOT
ATOM      1  C3  ZIN A   1      18.308   3.544  12.555  0.00  0.00     0.101 A 
ATOM      2  C4  ZIN A   1      17.359   4.519  12.817  0.00  0.00     0.039 A 
ATOM      3  C5  ZIN A   1      16.756   5.195  11.773  0.00  0.00     0.003 A 
ATOM      4  C6  ZIN A   1      17.096   4.902  10.466  0.00  0.00     0.003 A 
ATOM      5  C7  ZIN A   1      18.043   3.930  10.197  0.00  0.00     0.039 A 
ATOM      6  C8  ZIN A   1      18.656   3.253  11.239  0.00  0.00     0.102 A 
ENDROOT
BRANCH   6   7
ATOM      7  O9  ZIN A   1      19.587   2.297  10.976  0.00  0.00    -0.346 OA
BRANCH   7   8
ATOM      8  C10 ZIN A   1      19.163   1.175  10.199  0.00  0.00     0.209 C 
BRANCH   8   9
ATOM      9  C11 ZIN A   1      19.886  -0.083  10.684  0.00  0.00     0.166 C 
BRANCH   9  10
ATOM     10  O13 ZIN A   1      21.012  -0.340   9.844  0.00  0.00    -0.391 OA
ATOM     11  H25 ZIN A   1      21.611   0.413   9.747  0.00  0.00     0.210 HD
ENDBRANCH   9  10
BRANCH   9  12
ATOM     12  C14 ZIN A   1      20.362   0.124  12.124  0.00  0.00     0.198 C 
BRANCH  12  13
ATOM     13  O15 ZIN A   1      21.698   0.630  12.116  0.00  0.00    -0.398 OA
ATOM     14  H28 ZIN A   1      21.754   1.590  12.021  0.00  0.00     0.209 HD
ENDBRANCH  12  13
ENDBRANCH   9  12
ENDBRANCH   8   9
ENDBRANCH   7   8
ENDBRANCH   6   7
BRANCH   1  15
ATOM     15  O2  ZIN A   1      18.902   2.878  13.580  0.00  0.00    -0.353 OA
ATOM     16  C1  ZIN A   1      18.061   2.064  14.400  0.00  0.00     0.210 C 
ENDBRANCH   1  15
TORSDOF 7
ENDMDL
MODEL 3
REMARK VINA RESULT:      -5.4      3.194      5.295
REMARK  7 active torsions:
REMARK  status: ('A' for Active; 'I' for Inactive)
REMARK    1  A    between atoms: O2_2  and  C3_3 
REMARK    2  A    between atoms: C8_8  and  O9_9 
REMARK    3  A    between atoms: O9_9  and  C10_10 
REMARK    4  A    between atoms: C10_10  and  C11_11 
REMARK    5  A    between atoms: C11_11  and  O13_12 
REMARK    6  A    between atoms: C11_11  and  C14_13 
REMARK    7  A    between atoms: C14_13  and  O15_14 
ROOT
ATOM      1  C3  ZIN A   1      17.924   0.061   9.011  0.00  0.00     0.101 A 
ATOM      2  C4  ZIN A   1      17.473   0.745  10.128  0.00  0.00     0.039 A 
ATOM      3  C5  ZIN A   1      17.873   2.050  10.348  0.00  0.00     0.003 A 
ATOM      4  C6  ZIN A   1      18.722   2.676   9.455  0.00  0.00     0.003 A 
ATOM      5  C7  ZIN A   1      19.176   1.999   8.337  0.00  0.00     0.039 A 
ATOM      6  C8  ZIN A   1      18.784   0.689   8.115  0.00  0.00     0.102 A 
ENDROOT
BRANCH   6   7
ATOM      7  O9  ZIN A   1      19.229   0.021   7.016  0.00  0.00    -0.346 OA
BRANCH   7   8
ATOM      8  C10 ZIN A   1      19.088   0.679   5.757  0.00  0.00     0.209 C 
BRANCH   8   9
ATOM      9  C11 ZIN A   1      18.840  -0.362   4.662  0.00  0.00     0.166 C 
BRANCH   9  10
ATOM     10  O13 ZIN A   1      19.930  -1.285   4.627  0.00  0.00    -0.391 OA
ATOM     11  H25 ZIN A   1      20.750  -0.941   5.008  0.00  0.00     0.210 HD
ENDBRANCH   9  10
BRANCH   9  12
ATOM     12  C14 ZIN A   1      17.543  -1.117   4.961  0.00  0.00     0.198 C 
BRANCH  12  13
ATOM     13  O15 ZIN A   1      17.793  -2.122   5.947  0.00  0.00    -0.398 OA
ATOM     14  H28 ZIN A   1      17.792  -3.023   5.597  0.00  0.00     0.209 HD
ENDBRANCH  12  13
ENDBRANCH   9  12
ENDBRANCH   8   9
ENDBRANCH   7   8
ENDBRANCH   6   7
BRANCH   1  15
ATOM     15  O2  ZIN A   1      17.532  -1.223   8.794  0.00  0.00    -0.353 OA
ATOM     16  C1  ZIN A   1      18.065  -2.222   9.666  0.00  0.00     0.210 C 
ENDBRANCH   1  15
TORSDOF 7
ENDMDL
MODEL 4
REMARK VINA RESULT:      -5.3      2.873      6.026
REMARK  7 active torsions:
REMARK  status: ('A' for Active; 'I' for Inactive)
REMARK    1  A    between atoms: O2_2  and  C3_3 
REMARK    2  A    between atoms: C8_8  and  O9_9 
REMARK    3  A    between atoms: O9_9  and  C10_10 
REMARK    4  A    between atoms: C10_10  and  C11_11 
REMARK    5  A    between atoms: C11_11  and  O13_12 
REMARK    6  A    between atoms: C11_11  and  C14_13 
REMARK    7  A    between atoms: C14_13  and  O15_14 
ROOT
ATOM      1  C3  ZIN A   1      18.872   1.034  15.877  0.00  0.00     0.101 A 
ATOM      2  C4  ZIN A   1      18.064   0.784  16.974  0.00  0.00     0.039 A 
ATOM      3  C5  ZIN A   1      17.610  -0.498  17.220  0.00  0.00     0.003 A 
ATOM      4  C6  ZIN A   1      17.959  -1.533  16.373  0.00  0.00     0.003 A 
ATOM      5  C7  ZIN A   1      18.766  -1.291  15.276  0.00  0.00     0.039 A 
ATOM      6  C8  ZIN A   1      19.219  -0.007  15.021  0.00  0.00     0.102 A 
ENDROOT
BRANCH   6   7
ATOM      7  O9  ZIN A   1      20.012   0.234  13.942  0.00  0.00    -0.346 OA
BRANCH   7   8
ATOM      8  C10 ZIN A   1      19.376   0.262  12.664  0.00  0.00     0.209 C 
BRANCH   8   9
ATOM      9  C11 ZIN A   1      20.420   0.547  11.581  0.00  0.00     0.166 C 
BRANCH   9  10
ATOM     10  O13 ZIN A   1      21.716   0.628  12.177  0.00  0.00    -0.391 OA
ATOM     11  H25 ZIN A   1      22.439   0.706  11.540  0.00  0.00     0.210 HD
ENDBRANCH   9  10
BRANCH   9  12
ATOM     12  C14 ZIN A   1      20.404  -0.581  10.548  0.00  0.00     0.198 C 
BRANCH  12  13
ATOM     13  O15 ZIN A   1      20.846  -1.795  11.161  0.00  0.00    -0.398 OA
ATOM     14  H28 ZIN A   1      20.270  -2.552  10.992  0.00  0.00     0.209 HD
ENDBRANCH  12  13
ENDBRANCH   9  12
ENDBRANCH   8   9
ENDBRANCH   7   8
ENDBRANCH   6   7
BRANCH   1  15
ATOM     15  O2  ZIN A   1      19.319   2.295  15.634  0.00  0.00    -0.353 OA
ATOM     16  C1  ZIN A   1      19.440   3.169  16.759  0.00  0.00     0.210 C 
ENDBRANCH   1  15
TORSDOF 7
ENDMDL
MODEL 5
REMARK VINA RESULT:      -5.3      1.448      2.678
REMARK  7 active torsions:
REMARK  status: ('A' for Active; 'I' for Inactive)
REMARK    1  A    between atoms: O2_2  and  C3_3 
REMARK    2  A    between atoms: C8_8  and  O9_9 
REMARK    3  A    between atoms: O9_9  and  C10_10 
REMARK    4  A    between atoms: C10_10  and  C11_11 
REMARK    5  A    between atoms: C11_11  and  O13_12 
REMARK    6  A    between atoms: C11_11  and  C14_13 
REMARK    7  A    between atoms: C14_13  and  O15_14 
ROOT
ATOM      1  C3  ZIN A   1      18.963   1.603   8.767  0.00  0.00     0.101 A 
ATOM      2  C4  ZIN A   1      19.022   1.911   7.417  0.00  0.00     0.039 A 
ATOM      3  C5  ZIN A   1      18.663   0.965   6.476  0.00  0.00     0.003 A 
ATOM      4  C6  ZIN A   1      18.244  -0.290   6.876  0.00  0.00     0.003 A 
ATOM      5  C7  ZIN A   1      18.183  -0.604   8.222  0.00  0.00     0.039 A 
ATOM      6  C8  ZIN A   1      18.547   0.337   9.170  0.00  0.00     0.102 A 
ENDROOT
BRANCH   6   7
ATOM      7  O9  ZIN A   1      18.488   0.030  10.494  0.00  0.00    -0.346 OA
BRANCH   7   8
ATOM      8  C10 ZIN A   1      19.159  -1.159  10.914  0.00  0.00     0.209 C 
BRANCH   8   9
ATOM      9  C11 ZIN A   1      20.414  -0.784  11.706  0.00  0.00     0.166 C 
BRANCH   9  10
ATOM     10  O13 ZIN A   1      21.502  -0.574  10.804  0.00  0.00    -0.391 OA
ATOM     11  H25 ZIN A   1      22.140  -1.301  10.781  0.00  0.00     0.210 HD
ENDBRANCH   9  10
BRANCH   9  12
ATOM     12  C14 ZIN A   1      20.153   0.501  12.496  0.00  0.00     0.198 C 
BRANCH  12  13
ATOM     13  O15 ZIN A   1      20.874   1.581  11.900  0.00  0.00    -0.398 OA
ATOM     14  H28 ZIN A   1      20.314   2.220  11.440  0.00  0.00     0.209 HD
ENDBRANCH  12  13
ENDBRANCH   9  12
ENDBRANCH   8   9
ENDBRANCH   7   8
ENDBRANCH   6   7
BRANCH   1  15
ATOM     15  O2  ZIN A   1      19.316   2.533   9.694  0.00  0.00    -0.353 OA
ATOM     16  C1  ZIN A   1      18.322   3.490  10.066  0.00  0.00     0.210 C 
ENDBRANCH   1  15
TORSDOF 7
ENDMDL
MODEL 6
REMARK VINA RESULT:      -5.3      2.619      3.457
REMARK  7 active torsions:
REMARK  status: ('A' for Active; 'I' for Inactive)
REMARK    1  A    between atoms: O2_2  and  C3_3 
REMARK    2  A    between atoms: C8_8  and  O9_9 
REMARK    3  A    between atoms: O9_9  and  C10_10 
REMARK    4  A    between atoms: C10_10  and  C11_11 
REMARK    5  A    between atoms: C11_11  and  O13_12 
REMARK    6  A    between atoms: C11_11  and  C14_13 
REMARK    7  A    between atoms: C14_13  and  O15_14 
ROOT
ATOM      1  C3  ZIN A   1      19.327  -1.565   6.794  0.00  0.00     0.101 A 
ATOM      2  C4  ZIN A   1      19.302  -1.067   5.502  0.00  0.00     0.039 A 
ATOM      3  C5  ZIN A   1      19.114   0.286   5.287  0.00  0.00     0.003 A 
ATOM      4  C6  ZIN A   1      18.950   1.144   6.358  0.00  0.00     0.003 A 
ATOM      5  C7  ZIN A   1      18.974   0.653   7.650  0.00  0.00     0.039 A 
ATOM      6  C8  ZIN A   1      19.156  -0.702   7.873  0.00  0.00     0.102 A 
ENDROOT
BRANCH   6   7
ATOM      7  O9  ZIN A   1      19.179  -1.187   9.144  0.00  0.00    -0.346 OA
BRANCH   7   8
ATOM      8  C10 ZIN A   1      19.029  -0.240  10.202  0.00  0.00     0.209 C 
BRANCH   8   9
ATOM      9  C11 ZIN A   1      19.977  -0.600  11.348  0.00  0.00     0.166 C 
BRANCH   9  10
ATOM     10  O13 ZIN A   1      21.145  -1.230  10.819  0.00  0.00    -0.391 OA
ATOM     11  H25 ZIN A   1      21.028  -1.597   9.932  0.00  0.00     0.210 HD
ENDBRANCH   9  10
BRANCH   9  12
ATOM     12  C14 ZIN A   1      20.379   0.672  12.096  0.00  0.00     0.198 C 
BRANCH  12  13
ATOM     13  O15 ZIN A   1      21.801   0.712  12.238  0.00  0.00    -0.398 OA
ATOM     14  H28 ZIN A   1      22.153   0.050  12.847  0.00  0.00     0.209 HD
ENDBRANCH  12  13
ENDBRANCH   9  12
ENDBRANCH   8   9
ENDBRANCH   7   8
ENDBRANCH   6   7
BRANCH   1  15
ATOM     15  O2  ZIN A   1      19.511  -2.896   7.008  0.00  0.00    -0.353 OA
ATOM     16  C1  ZIN A   1      19.330  -3.765   5.887  0.00  0.00     0.210 C 
ENDBRANCH   1  15
TORSDOF 7
ENDMDL
MODEL 7
REMARK VINA RESULT:      -5.2      1.746      2.227
REMARK  7 active torsions:
REMARK  status: ('A' for Active; 'I' for Inactive)
REMARK    1  A    between atoms: O2_2  and  C3_3 
REMARK    2  A    between atoms: C8_8  and  O9_9 
REMARK    3  A    between atoms: O9_9  and  C10_10 
REMARK    4  A    between atoms: C10_10  and  C11_11 
REMARK    5  A    between atoms: C11_11  and  O13_12 
REMARK    6  A    between atoms: C11_11  and  C14_13 
REMARK    7  A    between atoms: C14_13  and  O15_14 
ROOT
ATOM      1  C3  ZIN A   1      18.172  -0.823   8.045  0.00  0.00     0.101 A 
ATOM      2  C4  ZIN A   1      18.024  -0.781   6.668  0.00  0.00     0.039 A 
ATOM      3  C5  ZIN A   1      18.433   0.335   5.962  0.00  0.00     0.003 A 
ATOM      4  C6  ZIN A   1      18.990   1.411   6.626  0.00  0.00     0.003 A 
ATOM      5  C7  ZIN A   1      19.141   1.377   8.000  0.00  0.00     0.039 A 
ATOM      6  C8  ZIN A   1      18.728   0.264   8.714  0.00  0.00     0.102 A 
ENDROOT
BRANCH   6   7
ATOM      7  O9  ZIN A   1      18.875   0.228  10.066  0.00  0.00    -0.346 OA
BRANCH   7   8
ATOM      8  C10 ZIN A   1      20.145  -0.190  10.568  0.00  0.00     0.209 C 
BRANCH   8   9
ATOM      9  C11 ZIN A   1      20.379   0.433  11.947  0.00  0.00     0.166 C 
BRANCH   9  10
ATOM     10  O13 ZIN A   1      21.780   0.610  12.159  0.00  0.00    -0.391 OA
ATOM     11  H25 ZIN A   1      22.033   1.516  12.383  0.00  0.00     0.210 HD
ENDBRANCH   9  10
BRANCH   9  12
ATOM     12  C14 ZIN A   1      19.677   1.791  12.018  0.00  0.00     0.198 C 
BRANCH  12  13
ATOM     13  O15 ZIN A   1      20.296   2.695  11.101  0.00  0.00    -0.398 OA
ATOM     14  H28 ZIN A   1      19.914   2.677  10.214  0.00  0.00     0.209 HD
ENDBRANCH  12  13
ENDBRANCH   9  12
ENDBRANCH   8   9
ENDBRANCH   7   8
ENDBRANCH   6   7
BRANCH   1  15
ATOM     15  O2  ZIN A   1      17.770  -1.920   8.740  0.00  0.00    -0.353 OA
ATOM     16  C1  ZIN A   1      18.271  -3.185   8.304  0.00  0.00     0.210 C 
ENDBRANCH   1  15
TORSDOF 7
ENDMDL
MODEL 8
REMARK VINA RESULT:      -5.1      2.035      2.613
REMARK  7 active torsions:
REMARK  status: ('A' for Active; 'I' for Inactive)
REMARK    1  A    between atoms: O2_2  and  C3_3 
REMARK    2  A    between atoms: C8_8  and  O9_9 
REMARK    3  A    between atoms: O9_9  and  C10_10 
REMARK    4  A    between atoms: C10_10  and  C11_11 
REMARK    5  A    between atoms: C11_11  and  O13_12 
REMARK    6  A    between atoms: C11_11  and  C14_13 
REMARK    7  A    between atoms: C14_13  and  O15_14 
ROOT
ATOM      1  C3  ZIN A   1      19.602   0.010   9.014  0.00  0.00     0.101 A 
ATOM      2  C4  ZIN A   1      19.457  -1.114   8.218  0.00  0.00     0.039 A 
ATOM      3  C5  ZIN A   1      19.036  -0.984   6.907  0.00  0.00     0.003 A 
ATOM      4  C6  ZIN A   1      18.758   0.267   6.388  0.00  0.00     0.003 A 
ATOM      5  C7  ZIN A   1      18.901   1.394   7.178  0.00  0.00     0.039 A 
ATOM      6  C8  ZIN A   1      19.317   1.269   8.493  0.00  0.00     0.102 A 
ENDROOT
BRANCH   6   7
ATOM      7  O9  ZIN A   1      19.457   2.376   9.271  0.00  0.00    -0.346 OA
BRANCH   7   8
ATOM      8  C10 ZIN A   1      18.277   2.884   9.895  0.00  0.00     0.209 C 
BRANCH   8   9
ATOM      9  C11 ZIN A   1      18.477   2.920  11.412  0.00  0.00     0.166 C 
BRANCH   9  10
ATOM     10  O13 ZIN A   1      18.258   1.616  11.953  0.00  0.00    -0.391 OA
ATOM     11  H25 ZIN A   1      17.439   1.533  12.462  0.00  0.00     0.210 HD
ENDBRANCH   9  10
BRANCH   9  12
ATOM     12  C14 ZIN A   1      19.905   3.369  11.728  0.00  0.00     0.198 C 
BRANCH  12  13
ATOM     13  O15 ZIN A   1      20.756   2.223  11.817  0.00  0.00    -0.398 OA
ATOM     14  H28 ZIN A   1      20.284   1.395  11.977  0.00  0.00     0.209 HD
ENDBRANCH  12  13
ENDBRANCH   9  12
ENDBRANCH   8   9
ENDBRANCH   7   8
ENDBRANCH   6   7
BRANCH   1  15
ATOM     15  O2  ZIN A   1      20.016  -0.117  10.303  0.00  0.00    -0.353 OA
ATOM     16  C1  ZIN A   1      19.881  -1.407  10.904  0.00  0.00     0.210 C 
ENDBRANCH   1  15
TORSDOF 7
ENDMDL
MODEL 9
REMARK VINA RESULT:      -5.1      3.308      5.148
REMARK  7 active torsions:
REMARK  status: ('A' for Active; 'I' for Inactive)
REMARK    1  A    between atoms: O2_2  and  C3_3 
REMARK    2  A    between atoms: C8_8  and  O9_9 
REMARK    3  A    between atoms: O9_9  and  C10_10 
REMARK    4  A    between atoms: C10_10  and  C11_11 
REMARK    5  A    between atoms: C11_11  and  O13_12 
REMARK    6  A    between atoms: C11_11  and  C14_13 
REMARK    7  A    between atoms: C14_13  and  O15_14 
ROOT
ATOM      1  C3  ZIN A   1      17.902  -3.911   9.574  0.00  0.00     0.101 A 
ATOM      2  C4  ZIN A   1      17.495  -5.234   9.515  0.00  0.00     0.039 A 
ATOM      3  C5  ZIN A   1      17.262  -5.938  10.681  0.00  0.00     0.003 A 
ATOM      4  C6  ZIN A   1      17.434  -5.326  11.909  0.00  0.00     0.003 A 
ATOM      5  C7  ZIN A   1      17.839  -4.005  11.975  0.00  0.00     0.039 A 
ATOM      6  C8  ZIN A   1      18.080  -3.296  10.810  0.00  0.00     0.102 A 
ENDROOT
BRANCH   6   7
ATOM      7  O9  ZIN A   1      18.479  -1.997  10.873  0.00  0.00    -0.346 OA
BRANCH   7   8
ATOM      8  C10 ZIN A   1      19.690  -1.725  11.580  0.00  0.00     0.209 C 
BRANCH   8   9
ATOM      9  C11 ZIN A   1      20.317  -0.436  11.041  0.00  0.00     0.166 C 
BRANCH   9  10
ATOM     10  O13 ZIN A   1      21.730  -0.606  10.925  0.00  0.00    -0.391 OA
ATOM     11  H25 ZIN A   1      22.107  -1.222  11.568  0.00  0.00     0.210 HD
ENDBRANCH   9  10
BRANCH   9  12
ATOM     12  C14 ZIN A   1      19.727  -0.119   9.665  0.00  0.00     0.198 C 
BRANCH  12  13
ATOM     13  O15 ZIN A   1      20.080  -1.155   8.745  0.00  0.00    -0.398 OA
ATOM     14  H28 ZIN A   1      20.784  -1.737   9.061  0.00  0.00     0.209 HD
ENDBRANCH  12  13
ENDBRANCH   9  12
ENDBRANCH   8   9
ENDBRANCH   7   8
ENDBRANCH   6   7
BRANCH   1  15
ATOM     15  O2  ZIN A   1      18.131  -3.217   8.427  0.00  0.00    -0.353 OA
ATOM     16  C1  ZIN A   1      18.336  -3.980   7.236  0.00  0.00     0.210 C 
ENDBRANCH   1  15
TORSDOF 7
ENDMDL
