MODEL 1
REMARK VINA RESULT:      -8.1      0.000      0.000
REMARK  6 active torsions:
REMARK  status: ('A' for Active; 'I' for Inactive)
REMARK    1  A    between atoms: C5_5  and  C6_6 
REMARK    2  A    between atoms: C6_6  and  O7_7 
REMARK    3  A    between atoms: O7_7  and  N8_8 
REMARK    4  A    between atoms: C9_9  and  C10_10 
REMARK    5  A    between atoms: C9_9  and  C16_16 
REMARK    6  A    between atoms: C10_10  and  N11_11 
ROOT
ATOM      1  N8  ZIN A   1      20.582  -0.387  10.343  0.00  0.00    -0.136 NA
ATOM      2  C9  ZIN A   1      19.456  -0.737   9.811  0.00  0.00     0.091 C 
ENDROOT
BRANCH   2   3
ATOM      3  C10 ZIN A   1      18.367  -1.325  10.673  0.00  0.00     0.191 C 
BRANCH   3   4
ATOM      4  N11 ZIN A   1      18.480  -2.785  10.676  0.00  0.00    -0.344 N 
ATOM      5  C15 ZIN A   1      19.400  -3.515  11.342  0.00  0.00     0.209 A 
ATOM      6  N14 ZIN A   1      19.182  -4.780  11.105  0.00  0.00    -0.255 NA
ATOM      7  C13 ZIN A   1      18.131  -4.901  10.282  0.00  0.00     0.135 A 
ATOM      8  C12 ZIN A   1      17.676  -3.664  10.001  0.00  0.00     0.111 A 
ENDBRANCH   3   4
ENDBRANCH   2   3
BRANCH   2   9
ATOM      9  C16 ZIN A   1      19.235  -0.561   8.363  0.00  0.00     0.014 A 
ATOM     10  C22 ZIN A   1      18.914   0.699   7.851  0.00  0.00     0.048 A 
ATOM     11  C21 ZIN A   1      18.715   0.859   6.494  0.00  0.00     0.048 A 
ATOM     12 Cl23 ZIN A   1      18.777   2.062   8.916  0.00  0.00    -0.083 Cl
ATOM     13  C19 ZIN A   1      18.822  -0.229   5.644  0.00  0.00     0.035 A 
ATOM     14  C18 ZIN A   1      19.135  -1.481   6.147  0.00  0.00     0.025 A 
ATOM     15 Cl20 ZIN A   1      18.564  -0.022   3.939  0.00  0.00    -0.084 Cl
ATOM     16  C17 ZIN A   1      19.342  -1.653   7.500  0.00  0.00     0.017 A 
ENDBRANCH   2   9
BRANCH   1  17
ATOM     17  O7  ZIN A   1      20.793  -0.557  11.733  0.00  0.00    -0.252 OA
BRANCH  17  18
ATOM     18  C6  ZIN A   1      20.593   0.632  12.501  0.00  0.00     0.244 C 
BRANCH  18  19
ATOM     19  C5  ZIN A   1      19.633   0.346  13.627  0.00  0.00    -0.010 A 
ATOM     20  C4  ZIN A   1      19.566  -0.922  14.173  0.00  0.00     0.013 A 
ATOM     21  C3  ZIN A   1      18.686  -1.185  15.205  0.00  0.00     0.024 A 
ATOM     22  C2  ZIN A   1      17.871  -0.178  15.692  0.00  0.00     0.035 A 
ATOM     23 Cl1  ZIN A   1      16.765  -0.509  16.990  0.00  0.00    -0.084 Cl
ATOM     24  C26 ZIN A   1      17.933   1.089  15.142  0.00  0.00     0.048 A 
ATOM     25  C24 ZIN A   1      18.818   1.353  14.113  0.00  0.00     0.044 A 
ATOM     26 Cl25 ZIN A   1      18.902   2.945  13.426  0.00  0.00    -0.084 Cl
ENDBRANCH  18  19
ENDBRANCH  17  18
ENDBRANCH   1  17
TORSDOF 6
ENDMDL
MODEL 2
REMARK VINA RESULT:      -8.0      2.587      4.201
REMARK  6 active torsions:
REMARK  status: ('A' for Active; 'I' for Inactive)
REMARK    1  A    between atoms: C5_5  and  C6_6 
REMARK    2  A    between atoms: C6_6  and  O7_7 
REMARK    3  A    between atoms: O7_7  and  N8_8 
REMARK    4  A    between atoms: C9_9  and  C10_10 
REMARK    5  A    between atoms: C9_9  and  C16_16 
REMARK    6  A    between atoms: C10_10  and  N11_11 
ROOT
ATOM      1  N8  ZIN A   1      20.016   1.102  10.591  0.00  0.00    -0.136 NA
ATOM      2  C9  ZIN A   1      18.850   1.082  10.032  0.00  0.00     0.091 C 
ENDROOT
BRANCH   2   3
ATOM      3  C10 ZIN A   1      17.628   1.479  10.821  0.00  0.00     0.191 C 
BRANCH   3   4
ATOM      4  N11 ZIN A   1      17.642   2.926  11.048  0.00  0.00    -0.344 N 
ATOM      5  C15 ZIN A   1      17.815   3.882  10.111  0.00  0.00     0.209 A 
ATOM      6  N14 ZIN A   1      17.764   5.050  10.691  0.00  0.00    -0.255 NA
ATOM      7  C13 ZIN A   1      17.567   4.882  12.007  0.00  0.00     0.135 A 
ATOM      8  C12 ZIN A   1      17.487   3.560  12.252  0.00  0.00     0.111 A 
ENDBRANCH   3   4
ENDBRANCH   2   3
BRANCH   2   9
ATOM      9  C16 ZIN A   1      18.715   0.672   8.621  0.00  0.00     0.014 A 
ATOM     10  C22 ZIN A   1      18.268  -0.614   8.304  0.00  0.00     0.048 A 
ATOM     11  C21 ZIN A   1      18.137  -0.989   6.982  0.00  0.00     0.048 A 
ATOM     12 Cl23 ZIN A   1      17.864  -1.731   9.569  0.00  0.00    -0.083 Cl
ATOM     13  C19 ZIN A   1      18.460  -0.099   5.972  0.00  0.00     0.035 A 
ATOM     14  C18 ZIN A   1      18.910   1.174   6.280  0.00  0.00     0.025 A 
ATOM     15 Cl20 ZIN A   1      18.300  -0.580   4.311  0.00  0.00    -0.084 Cl
ATOM     16  C17 ZIN A   1      19.038   1.564   7.597  0.00  0.00     0.017 A 
ENDBRANCH   2   9
BRANCH   1  17
ATOM     17  O7  ZIN A   1      20.145   1.496  11.945  0.00  0.00    -0.252 OA
BRANCH  17  18
ATOM     18  C6  ZIN A   1      20.674   0.478  12.798  0.00  0.00     0.244 C 
BRANCH  18  19
ATOM     19  C5  ZIN A   1      19.675   0.162  13.882  0.00  0.00    -0.010 A 
ATOM     20  C4  ZIN A   1      19.357   1.117  14.829  0.00  0.00     0.013 A 
ATOM     21  C3  ZIN A   1      18.442   0.827  15.823  0.00  0.00     0.024 A 
ATOM     22  C2  ZIN A   1      17.844  -0.420  15.870  0.00  0.00     0.035 A 
ATOM     23 Cl1  ZIN A   1      16.694  -0.783  17.119  0.00  0.00    -0.084 Cl
ATOM     24  C26 ZIN A   1      18.166  -1.378  14.926  0.00  0.00     0.048 A 
ATOM     25  C24 ZIN A   1      19.078  -1.085  13.929  0.00  0.00     0.044 A 
ATOM     26 Cl25 ZIN A   1      19.478  -2.285  12.739  0.00  0.00    -0.084 Cl
ENDBRANCH  18  19
ENDBRANCH  17  18
ENDBRANCH   1  17
TORSDOF 6
ENDMDL
MODEL 3
REMARK VINA RESULT:      -7.9      1.731      7.044
REMARK  6 active torsions:
REMARK  status: ('A' for Active; 'I' for Inactive)
REMARK    1  A    between atoms: C5_5  and  C6_6 
REMARK    2  A    between atoms: C6_6  and  O7_7 
REMARK    3  A    between atoms: O7_7  and  N8_8 
REMARK    4  A    between atoms: C9_9  and  C10_10 
REMARK    5  A    between atoms: C9_9  and  C16_16 
REMARK    6  A    between atoms: C10_10  and  N11_11 
ROOT
ATOM      1  N8  ZIN A   1      17.178  -0.270  12.254  0.00  0.00    -0.136 NA
ATOM      2  C9  ZIN A   1      18.305  -0.611  12.789  0.00  0.00     0.091 C 
ENDROOT
BRANCH   2   3
ATOM      3  C10 ZIN A   1      19.420  -1.141  11.924  0.00  0.00     0.191 C 
BRANCH   3   4
ATOM      4  N11 ZIN A   1      19.273  -2.590  11.770  0.00  0.00    -0.344 N 
ATOM      5  C15 ZIN A   1      20.267  -3.477  11.551  0.00  0.00     0.209 A 
ATOM      6  N14 ZIN A   1      19.751  -4.673  11.472  0.00  0.00    -0.255 NA
ATOM      7  C13 ZIN A   1      18.421  -4.592  11.627  0.00  0.00     0.135 A 
ATOM      8  C12 ZIN A   1      18.101  -3.298  11.815  0.00  0.00     0.111 A 
ENDBRANCH   3   4
ENDBRANCH   2   3
BRANCH   2   9
ATOM      9  C16 ZIN A   1      18.501  -0.481  14.246  0.00  0.00     0.014 A 
ATOM     10  C22 ZIN A   1      18.817   0.761  14.802  0.00  0.00     0.048 A 
ATOM     11  C21 ZIN A   1      18.993   0.878  16.167  0.00  0.00     0.048 A 
ATOM     12 Cl23 ZIN A   1      18.976   2.157  13.783  0.00  0.00    -0.083 Cl
ATOM     13  C19 ZIN A   1      18.868  -0.235  16.980  0.00  0.00     0.035 A 
ATOM     14  C18 ZIN A   1      18.561  -1.470  16.434  0.00  0.00     0.025 A 
ATOM     15 Cl20 ZIN A   1      19.098  -0.082  18.695  0.00  0.00    -0.084 Cl
ATOM     16  C17 ZIN A   1      18.377  -1.599  15.073  0.00  0.00     0.017 A 
ENDBRANCH   2   9
BRANCH   1  17
ATOM     17  O7  ZIN A   1      16.990  -0.395  10.856  0.00  0.00    -0.252 OA
BRANCH  17  18
ATOM     18  C6  ZIN A   1      17.053   0.844  10.148  0.00  0.00     0.244 C 
BRANCH  18  19
ATOM     19  C5  ZIN A   1      17.663   0.615   8.788  0.00  0.00    -0.010 A 
ATOM     20  C4  ZIN A   1      17.164  -0.377   7.965  0.00  0.00     0.013 A 
ATOM     21  C3  ZIN A   1      17.723  -0.588   6.719  0.00  0.00     0.024 A 
ATOM     22  C2  ZIN A   1      18.784   0.194   6.296  0.00  0.00     0.035 A 
ATOM     23 Cl1  ZIN A   1      19.486  -0.071   4.730  0.00  0.00    -0.084 Cl
ATOM     24  C26 ZIN A   1      19.288   1.182   7.122  0.00  0.00     0.048 A 
ATOM     25  C24 ZIN A   1      18.724   1.396   8.367  0.00  0.00     0.044 A 
ATOM     26 Cl25 ZIN A   1      19.351   2.641   9.401  0.00  0.00    -0.084 Cl
ENDBRANCH  18  19
ENDBRANCH  17  18
ENDBRANCH   1  17
TORSDOF 6
ENDMDL
MODEL 4
REMARK VINA RESULT:      -7.9      3.621      5.353
REMARK  6 active torsions:
REMARK  status: ('A' for Active; 'I' for Inactive)
REMARK    1  A    between atoms: C5_5  and  C6_6 
REMARK    2  A    between atoms: C6_6  and  O7_7 
REMARK    3  A    between atoms: O7_7  and  N8_8 
REMARK    4  A    between atoms: C9_9  and  C10_10 
REMARK    5  A    between atoms: C9_9  and  C16_16 
REMARK    6  A    between atoms: C10_10  and  N11_11 
ROOT
ATOM      1  N8  ZIN A   1      19.669   0.726  11.579  0.00  0.00    -0.136 NA
ATOM      2  C9  ZIN A   1      19.648  -0.231  12.449  0.00  0.00     0.091 C 
ENDROOT
BRANCH   2   3
ATOM      3  C10 ZIN A   1      20.148   0.014  13.850  0.00  0.00     0.191 C 
BRANCH   3   4
ATOM      4  N11 ZIN A   1      19.071  -0.249  14.807  0.00  0.00    -0.344 N 
ATOM      5  C15 ZIN A   1      17.981   0.520  15.016  0.00  0.00     0.209 A 
ATOM      6  N14 ZIN A   1      17.248  -0.037  15.941  0.00  0.00    -0.255 NA
ATOM      7  C13 ZIN A   1      17.841  -1.165  16.357  0.00  0.00     0.135 A 
ATOM      8  C12 ZIN A   1      18.984  -1.317  15.659  0.00  0.00     0.111 A 
ENDBRANCH   3   4
ENDBRANCH   2   3
BRANCH   2   9
ATOM      9  C16 ZIN A   1      19.133  -1.561  12.072  0.00  0.00     0.014 A 
ATOM     10  C22 ZIN A   1      17.779  -1.728  11.769  0.00  0.00     0.048 A 
ATOM     11  C21 ZIN A   1      17.305  -2.975  11.411  0.00  0.00     0.048 A 
ATOM     12 Cl23 ZIN A   1      16.699  -0.371  11.829  0.00  0.00    -0.083 Cl
ATOM     13  C19 ZIN A   1      18.165  -4.058  11.364  0.00  0.00     0.035 A 
ATOM     14  C18 ZIN A   1      19.507  -3.899  11.669  0.00  0.00     0.025 A 
ATOM     15 Cl20 ZIN A   1      17.560  -5.624  10.920  0.00  0.00    -0.084 Cl
ATOM     16  C17 ZIN A   1      19.995  -2.658  12.023  0.00  0.00     0.017 A 
ENDBRANCH   2   9
BRANCH   1  17
ATOM     17  O7  ZIN A   1      20.164   2.003  11.941  0.00  0.00    -0.252 OA
BRANCH  17  18
ATOM     18  C6  ZIN A   1      19.619   3.077  11.171  0.00  0.00     0.244 C 
BRANCH  18  19
ATOM     19  C5  ZIN A   1      18.594   3.814  11.993  0.00  0.00    -0.010 A 
ATOM     20  C4  ZIN A   1      18.568   3.660  13.367  0.00  0.00     0.013 A 
ATOM     21  C3  ZIN A   1      17.627   4.335  14.121  0.00  0.00     0.024 A 
ATOM     22  C2  ZIN A   1      16.710   5.165  13.501  0.00  0.00     0.035 A 
ATOM     23 Cl1  ZIN A   1      15.528   6.014  14.449  0.00  0.00    -0.084 Cl
ATOM     24  C26 ZIN A   1      16.731   5.315  12.126  0.00  0.00     0.048 A 
ATOM     25  C24 ZIN A   1      17.676   4.643  11.372  0.00  0.00     0.044 A 
ATOM     26 Cl25 ZIN A   1      17.707   4.835   9.647  0.00  0.00    -0.084 Cl
ENDBRANCH  18  19
ENDBRANCH  17  18
ENDBRANCH   1  17
TORSDOF 6
ENDMDL
MODEL 5
REMARK VINA RESULT:      -7.9      2.914      4.698
REMARK  6 active torsions:
REMARK  status: ('A' for Active; 'I' for Inactive)
REMARK    1  A    between atoms: C5_5  and  C6_6 
REMARK    2  A    between atoms: C6_6  and  O7_7 
REMARK    3  A    between atoms: O7_7  and  N8_8 
REMARK    4  A    between atoms: C9_9  and  C10_10 
REMARK    5  A    between atoms: C9_9  and  C16_16 
REMARK    6  A    between atoms: C10_10  and  N11_11 
ROOT
ATOM      1  N8  ZIN A   1      19.414   0.736  11.893  0.00  0.00    -0.136 NA
ATOM      2  C9  ZIN A   1      19.278   1.582  10.924  0.00  0.00     0.091 C 
ENDROOT
BRANCH   2   3
ATOM      3  C10 ZIN A   1      19.595   3.039  11.145  0.00  0.00     0.191 C 
BRANCH   3   4
ATOM      4  N11 ZIN A   1      18.358   3.773  11.416  0.00  0.00    -0.344 N 
ATOM      5  C15 ZIN A   1      17.409   4.104  10.515  0.00  0.00     0.209 A 
ATOM      6  N14 ZIN A   1      16.456   4.751  11.128  0.00  0.00    -0.255 NA
ATOM      7  C13 ZIN A   1      16.763   4.863  12.429  0.00  0.00     0.135 A 
ATOM      8  C12 ZIN A   1      17.949   4.258  12.631  0.00  0.00     0.111 A 
ENDBRANCH   3   4
ENDBRANCH   2   3
BRANCH   2   9
ATOM      9  C16 ZIN A   1      18.814   1.121   9.601  0.00  0.00     0.014 A 
ATOM     10  C22 ZIN A   1      17.649   0.356   9.494  0.00  0.00     0.048 A 
ATOM     11  C21 ZIN A   1      17.217  -0.067   8.253  0.00  0.00     0.048 A 
ATOM     12 Cl23 ZIN A   1      16.742  -0.052  10.916  0.00  0.00    -0.083 Cl
ATOM     13  C19 ZIN A   1      17.941   0.257   7.118  0.00  0.00     0.035 A 
ATOM     14  C18 ZIN A   1      19.099   1.010   7.219  0.00  0.00     0.025 A 
ATOM     15 Cl20 ZIN A   1      17.395  -0.284   5.561  0.00  0.00    -0.084 Cl
ATOM     16  C17 ZIN A   1      19.538   1.443   8.453  0.00  0.00     0.017 A 
ENDBRANCH   2   9
BRANCH   1  17
ATOM     17  O7  ZIN A   1      19.859   1.178  13.162  0.00  0.00    -0.252 OA
BRANCH  17  18
ATOM     18  C6  ZIN A   1      19.704   0.211  14.203  0.00  0.00     0.244 C 
BRANCH  18  19
ATOM     19  C5  ZIN A   1      19.148   0.881  15.433  0.00  0.00    -0.010 A 
ATOM     20  C4  ZIN A   1      19.180   2.259  15.544  0.00  0.00     0.013 A 
ATOM     21  C3  ZIN A   1      18.671   2.873  16.672  0.00  0.00     0.024 A 
ATOM     22  C2  ZIN A   1      18.129   2.110  17.691  0.00  0.00     0.035 A 
ATOM     23 Cl1  ZIN A   1      17.488   2.883  19.107  0.00  0.00    -0.084 Cl
ATOM     24  C26 ZIN A   1      18.101   0.731  17.583  0.00  0.00     0.048 A 
ATOM     25  C24 ZIN A   1      18.607   0.117  16.451  0.00  0.00     0.044 A 
ATOM     26 Cl25 ZIN A   1      18.566  -1.613  16.312  0.00  0.00    -0.084 Cl
ENDBRANCH  18  19
ENDBRANCH  17  18
ENDBRANCH   1  17
TORSDOF 6
ENDMDL
MODEL 6
REMARK VINA RESULT:      -7.9      2.156      2.869
REMARK  6 active torsions:
REMARK  status: ('A' for Active; 'I' for Inactive)
REMARK    1  A    between atoms: C5_5  and  C6_6 
REMARK    2  A    between atoms: C6_6  and  O7_7 
REMARK    3  A    between atoms: O7_7  and  N8_8 
REMARK    4  A    between atoms: C9_9  and  C10_10 
REMARK    5  A    between atoms: C9_9  and  C16_16 
REMARK    6  A    between atoms: C10_10  and  N11_11 
ROOT
ATOM      1  N8  ZIN A   1      18.654   2.581  11.526  0.00  0.00    -0.136 NA
ATOM      2  C9  ZIN A   1      19.212   1.553  10.974  0.00  0.00     0.091 C 
ENDROOT
BRANCH   2   3
ATOM      3  C10 ZIN A   1      20.335   0.835  11.679  0.00  0.00     0.191 C 
BRANCH   3   4
ATOM      4  N11 ZIN A   1      19.977  -0.573  11.863  0.00  0.00    -0.344 N 
ATOM      5  C15 ZIN A   1      19.331  -1.102  12.924  0.00  0.00     0.209 A 
ATOM      6  N14 ZIN A   1      19.188  -2.385  12.730  0.00  0.00    -0.255 NA
ATOM      7  C13 ZIN A   1      19.739  -2.718  11.554  0.00  0.00     0.135 A 
ATOM      8  C12 ZIN A   1      20.238  -1.599  10.995  0.00  0.00     0.111 A 
ENDBRANCH   3   4
ENDBRANCH   2   3
BRANCH   2   9
ATOM      9  C16 ZIN A   1      18.748   1.080   9.655  0.00  0.00     0.014 A 
ATOM     10  C22 ZIN A   1      17.576   0.327   9.553  0.00  0.00     0.048 A 
ATOM     11  C21 ZIN A   1      17.144  -0.107   8.316  0.00  0.00     0.048 A 
ATOM     12 Cl23 ZIN A   1      16.658  -0.052  10.976  0.00  0.00    -0.083 Cl
ATOM     13  C19 ZIN A   1      17.877   0.193   7.180  0.00  0.00     0.035 A 
ATOM     14  C18 ZIN A   1      19.043   0.934   7.276  0.00  0.00     0.025 A 
ATOM     15 Cl20 ZIN A   1      17.331  -0.362   5.628  0.00  0.00    -0.084 Cl
ATOM     16  C17 ZIN A   1      19.482   1.379   8.506  0.00  0.00     0.017 A 
ENDBRANCH   2   9
BRANCH   1  17
ATOM     17  O7  ZIN A   1      19.100   3.034  12.792  0.00  0.00    -0.252 OA
BRANCH  17  18
ATOM     18  C6  ZIN A   1      18.049   3.245  13.737  0.00  0.00     0.244 C 
BRANCH  18  19
ATOM     19  C5  ZIN A   1      18.271   2.364  14.940  0.00  0.00    -0.010 A 
ATOM     20  C4  ZIN A   1      17.719   1.098  14.981  0.00  0.00     0.013 A 
ATOM     21  C3  ZIN A   1      17.921   0.290  16.084  0.00  0.00     0.024 A 
ATOM     22  C2  ZIN A   1      18.678   0.750  17.148  0.00  0.00     0.035 A 
ATOM     23 Cl1  ZIN A   1      18.933  -0.265  18.533  0.00  0.00    -0.084 Cl
ATOM     24  C26 ZIN A   1      19.226   2.019  17.110  0.00  0.00     0.048 A 
ATOM     25  C24 ZIN A   1      19.027   2.825  16.003  0.00  0.00     0.044 A 
ATOM     26 Cl25 ZIN A   1      19.720   4.415  15.952  0.00  0.00    -0.084 Cl
ENDBRANCH  18  19
ENDBRANCH  17  18
ENDBRANCH   1  17
TORSDOF 6
ENDMDL
MODEL 7
REMARK VINA RESULT:      -7.8      2.003      7.712
REMARK  6 active torsions:
REMARK  status: ('A' for Active; 'I' for Inactive)
REMARK    1  A    between atoms: C5_5  and  C6_6 
REMARK    2  A    between atoms: C6_6  and  O7_7 
REMARK    3  A    between atoms: O7_7  and  N8_8 
REMARK    4  A    between atoms: C9_9  and  C10_10 
REMARK    5  A    between atoms: C9_9  and  C16_16 
REMARK    6  A    between atoms: C10_10  and  N11_11 
ROOT
ATOM      1  N8  ZIN A   1      18.780  -2.217  11.352  0.00  0.00    -0.136 NA
ATOM      2  C9  ZIN A   1      19.322  -1.250  12.018  0.00  0.00     0.091 C 
ENDROOT
BRANCH   2   3
ATOM      3  C10 ZIN A   1      20.426  -0.433  11.396  0.00  0.00     0.191 C 
BRANCH   3   4
ATOM      4  N11 ZIN A   1      19.904   0.880  11.010  0.00  0.00    -0.344 N 
ATOM      5  C15 ZIN A   1      19.278   1.184   9.854  0.00  0.00     0.209 A 
ATOM      6  N14 ZIN A   1      18.957   2.449   9.872  0.00  0.00    -0.255 NA
ATOM      7  C13 ZIN A   1      19.370   2.994  11.026  0.00  0.00     0.135 A 
ATOM      8  C12 ZIN A   1      19.964   2.029  11.753  0.00  0.00     0.111 A 
ENDBRANCH   3   4
ENDBRANCH   2   3
BRANCH   2   9
ATOM      9  C16 ZIN A   1      18.860  -0.945  13.386  0.00  0.00     0.014 A 
ATOM     10  C22 ZIN A   1      17.689  -0.207  13.582  0.00  0.00     0.048 A 
ATOM     11  C21 ZIN A   1      17.259   0.070  14.864  0.00  0.00     0.048 A 
ATOM     12 Cl23 ZIN A   1      16.771   0.348  12.218  0.00  0.00    -0.083 Cl
ATOM     13  C19 ZIN A   1      17.991  -0.372  15.953  0.00  0.00     0.035 A 
ATOM     14  C18 ZIN A   1      19.155  -1.098  15.764  0.00  0.00     0.025 A 
ATOM     15 Cl20 ZIN A   1      17.447  -0.013  17.563  0.00  0.00    -0.084 Cl
ATOM     16  C17 ZIN A   1      19.593  -1.387  14.488  0.00  0.00     0.017 A 
ENDBRANCH   2   9
BRANCH   1  17
ATOM     17  O7  ZIN A   1      19.224  -2.511  10.040  0.00  0.00    -0.252 OA
BRANCH  17  18
ATOM     18  C6  ZIN A   1      18.180  -2.909   9.148  0.00  0.00     0.244 C 
BRANCH  18  19
ATOM     19  C5  ZIN A   1      18.302  -2.141   7.857  0.00  0.00    -0.010 A 
ATOM     20  C4  ZIN A   1      17.621  -0.950   7.695  0.00  0.00     0.013 A 
ATOM     21  C3  ZIN A   1      17.732  -0.246   6.511  0.00  0.00     0.024 A 
ATOM     22  C2  ZIN A   1      18.525  -0.734   5.487  0.00  0.00     0.035 A 
ATOM     23 Cl1  ZIN A   1      18.665   0.152   4.000  0.00  0.00    -0.084 Cl
ATOM     24  C26 ZIN A   1      19.202  -1.929   5.647  0.00  0.00     0.048 A 
ATOM     25  C24 ZIN A   1      19.095  -2.630   6.834  0.00  0.00     0.044 A 
ATOM     26 Cl25 ZIN A   1      19.950  -4.127   7.038  0.00  0.00    -0.084 Cl
ENDBRANCH  18  19
ENDBRANCH  17  18
ENDBRANCH   1  17
TORSDOF 6
ENDMDL
MODEL 8
REMARK VINA RESULT:      -7.7      2.478      3.984
REMARK  6 active torsions:
REMARK  status: ('A' for Active; 'I' for Inactive)
REMARK    1  A    between atoms: C5_5  and  C6_6 
REMARK    2  A    between atoms: C6_6  and  O7_7 
REMARK    3  A    between atoms: O7_7  and  N8_8 
REMARK    4  A    between atoms: C9_9  and  C10_10 
REMARK    5  A    between atoms: C9_9  and  C16_16 
REMARK    6  A    between atoms: C10_10  and  N11_11 
ROOT
ATOM      1  N8  ZIN A   1      19.675  -0.897  10.618  0.00  0.00    -0.136 NA
ATOM      2  C9  ZIN A   1      18.687  -1.234   9.854  0.00  0.00     0.091 C 
ENDROOT
BRANCH   2   3
ATOM      3  C10 ZIN A   1      17.690  -0.194   9.410  0.00  0.00     0.191 C 
BRANCH   3   4
ATOM      4  N11 ZIN A   1      17.991   0.217   8.037  0.00  0.00    -0.344 N 
ATOM      5  C15 ZIN A   1      19.011   1.008   7.643  0.00  0.00     0.209 A 
ATOM      6  N14 ZIN A   1      18.956   1.148   6.346  0.00  0.00    -0.255 NA
ATOM      7  C13 ZIN A   1      17.904   0.465   5.872  0.00  0.00     0.135 A 
ATOM      8  C12 ZIN A   1      17.287  -0.126   6.913  0.00  0.00     0.111 A 
ENDBRANCH   3   4
ENDBRANCH   2   3
BRANCH   2   9
ATOM      9  C16 ZIN A   1      18.537  -2.634   9.416  0.00  0.00     0.014 A 
ATOM     10  C22 ZIN A   1      17.953  -3.576  10.267  0.00  0.00     0.048 A 
ATOM     11  C21 ZIN A   1      17.809  -4.884   9.848  0.00  0.00     0.048 A 
ATOM     12 Cl23 ZIN A   1      17.398  -3.102  11.841  0.00  0.00    -0.083 Cl
ATOM     13  C19 ZIN A   1      18.253  -5.264   8.593  0.00  0.00     0.035 A 
ATOM     14  C18 ZIN A   1      18.837  -4.336   7.748  0.00  0.00     0.025 A 
ATOM     15 Cl20 ZIN A   1      18.075  -6.913   8.076  0.00  0.00    -0.084 Cl
ATOM     16  C17 ZIN A   1      18.981  -3.025   8.152  0.00  0.00     0.017 A 
ENDBRANCH   2   9
BRANCH   1  17
ATOM     17  O7  ZIN A   1      19.819   0.448  11.039  0.00  0.00    -0.252 OA
BRANCH  17  18
ATOM     18  C6  ZIN A   1      20.517   0.598  12.277  0.00  0.00     0.244 C 
BRANCH  18  19
ATOM     19  C5  ZIN A   1      19.586   0.280  13.419  0.00  0.00    -0.010 A 
ATOM     20  C4  ZIN A   1      19.622  -0.968  14.014  0.00  0.00     0.013 A 
ATOM     21  C3  ZIN A   1      18.768  -1.260  15.060  0.00  0.00     0.024 A 
ATOM     22  C2  ZIN A   1      17.876  -0.304  15.513  0.00  0.00     0.035 A 
ATOM     23 Cl1  ZIN A   1      16.804  -0.671  16.828  0.00  0.00    -0.084 Cl
ATOM     24  C26 ZIN A   1      17.835   0.942  14.914  0.00  0.00     0.048 A 
ATOM     25  C24 ZIN A   1      18.694   1.236  13.870  0.00  0.00     0.044 A 
ATOM     26 Cl25 ZIN A   1      18.647   2.802  13.123  0.00  0.00    -0.084 Cl
ENDBRANCH  18  19
ENDBRANCH  17  18
ENDBRANCH   1  17
TORSDOF 6
ENDMDL
MODEL 9
REMARK VINA RESULT:      -7.6      2.968      7.573
REMARK  6 active torsions:
REMARK  status: ('A' for Active; 'I' for Inactive)
REMARK    1  A    between atoms: C5_5  and  C6_6 
REMARK    2  A    between atoms: C6_6  and  O7_7 
REMARK    3  A    between atoms: O7_7  and  N8_8 
REMARK    4  A    between atoms: C9_9  and  C10_10 
REMARK    5  A    between atoms: C9_9  and  C16_16 
REMARK    6  A    between atoms: C10_10  and  N11_11 
ROOT
ATOM      1  N8  ZIN A   1      19.626  -2.310  12.634  0.00  0.00    -0.136 NA
ATOM      2  C9  ZIN A   1      18.601  -1.621  13.014  0.00  0.00     0.091 C 
ENDROOT
BRANCH   2   3
ATOM      3  C10 ZIN A   1      17.413  -1.468  12.097  0.00  0.00     0.191 C 
BRANCH   3   4
ATOM      4  N11 ZIN A   1      17.541  -0.223  11.337  0.00  0.00    -0.344 N 
ATOM      5  C15 ZIN A   1      16.990   0.968  11.653  0.00  0.00     0.209 A 
ATOM      6  N14 ZIN A   1      17.326   1.840  10.741  0.00  0.00    -0.255 NA
ATOM      7  C13 ZIN A   1      18.089   1.240   9.815  0.00  0.00     0.135 A 
ATOM      8  C12 ZIN A   1      18.235  -0.051  10.169  0.00  0.00     0.111 A 
ENDBRANCH   3   4
ENDBRANCH   2   3
BRANCH   2   9
ATOM      9  C16 ZIN A   1      18.590  -0.985  14.346  0.00  0.00     0.014 A 
ATOM     10  C22 ZIN A   1      19.241   0.236  14.545  0.00  0.00     0.048 A 
ATOM     11  C21 ZIN A   1      19.223   0.829  15.791  0.00  0.00     0.048 A 
ATOM     12 Cl23 ZIN A   1      20.060   1.011  13.226  0.00  0.00    -0.083 Cl
ATOM     13  C19 ZIN A   1      18.571   0.210  16.845  0.00  0.00     0.035 A 
ATOM     14  C18 ZIN A   1      17.929  -1.002  16.655  0.00  0.00     0.025 A 
ATOM     15 Cl20 ZIN A   1      18.558   0.959  18.412  0.00  0.00    -0.084 Cl
ATOM     16  C17 ZIN A   1      17.935  -1.602  15.412  0.00  0.00     0.017 A 
ENDBRANCH   2   9
BRANCH   1  17
ATOM     17  O7  ZIN A   1      19.636  -2.920  11.356  0.00  0.00    -0.252 OA
BRANCH  17  18
ATOM     18  C6  ZIN A   1      20.035  -4.293  11.370  0.00  0.00     0.244 C 
BRANCH  18  19
ATOM     19  C5  ZIN A   1      19.206  -5.066  10.377  0.00  0.00    -0.010 A 
ATOM     20  C4  ZIN A   1      19.708  -5.334   9.117  0.00  0.00     0.013 A 
ATOM     21  C3  ZIN A   1      18.947  -6.042   8.206  0.00  0.00     0.024 A 
ATOM     22  C2  ZIN A   1      17.683  -6.483   8.555  0.00  0.00     0.035 A 
ATOM     23 Cl1  ZIN A   1      16.728  -7.373   7.410  0.00  0.00    -0.084 Cl
ATOM     24  C26 ZIN A   1      17.178  -6.210   9.813  0.00  0.00     0.048 A 
ATOM     25  C24 ZIN A   1      17.941  -5.506  10.726  0.00  0.00     0.044 A 
ATOM     26 Cl25 ZIN A   1      17.310  -5.169  12.308  0.00  0.00    -0.084 Cl
ENDBRANCH  18  19
ENDBRANCH  17  18
ENDBRANCH   1  17
TORSDOF 6
ENDMDL
