MODEL 1
REMARK VINA RESULT:      -7.3      0.000      0.000
REMARK  15 active torsions:
REMARK  status: ('A' for Active; 'I' for Inactive)
REMARK       I    between atoms: N1_1  and  C2_2 
REMARK       I    between atoms: C2_2  and  N4_4 
REMARK    1  A    between atoms: N4_4  and  C5_5 
REMARK    2  A    between atoms: C10_10  and  C12_11 
REMARK    3  A    between atoms: C12_11  and  N13_12 
REMARK       I    between atoms: N13_12  and  C14_13 
REMARK    4  A    between atoms: C14_13  and  C16_15 
REMARK    5  A    between atoms: C16_15  and  C17_16 
REMARK    6  A    between atoms: C17_16  and  N19_17 
REMARK    7  A    between atoms: C17_16  and  C23_21 
REMARK    8  A    between atoms: C23_21  and  C24_22 
REMARK    9  A    between atoms: C24_22  and  C25_23 
REMARK   10  A    between atoms: C25_23  and  N26_24 
REMARK   11  A    between atoms: C33_31  and  C35_32 
REMARK   12  A    between atoms: C35_32  and  O36_33 
REMARK   13  A    between atoms: C40_37  and  N42_38 
REMARK   14  A    between atoms: C50_46  and  C52_47 
REMARK   15  A    between atoms: C58_52  and  N59_53 
ROOT
ATOM      1  C5  ZIN A   1      18.377  -4.866  10.759  0.00  0.00     0.128 C 
ATOM      2  C6  ZIN A   1      17.862  -3.951   9.922  0.00  0.00     0.118 C 
ATOM      3  N7  ZIN A   1      17.746  -2.573  10.243  0.00  0.00    -0.320 N 
ATOM      4  C8  ZIN A   1      18.111  -2.092  11.452  0.00  0.00     0.246 C 
ATOM      5  O9  ZIN A   1      18.249  -2.791  12.437  0.00  0.00    -0.271 OA
ATOM      6  C10 ZIN A   1      18.373  -0.604  11.586  0.00  0.00     0.194 C 
ATOM      7  N30 ZIN A   1      19.085  -0.120  10.391  0.00  0.00    -0.344 N 
ATOM      8  C31 ZIN A   1      18.408   0.109   9.231  0.00  0.00     0.243 C 
ATOM      9  O32 ZIN A   1      17.212  -0.030   9.098  0.00  0.00    -0.271 OA
ATOM     10  C33 ZIN A   1      19.213   0.564   8.032  0.00  0.00     0.200 C 
ATOM     11  N37 ZIN A   1      18.471   0.211   6.805  0.00  0.00    -0.344 N 
ATOM     12  C38 ZIN A   1      18.655  -1.054   6.325  0.00  0.00     0.250 C 
ATOM     13  O39 ZIN A   1      19.377  -1.833   6.910  0.00  0.00    -0.271 OA
ATOM     14  C40 ZIN A   1      17.949  -1.467   5.061  0.00  0.00     0.292 C 
ATOM     15  C46 ZIN A   1      18.278  -2.927   4.740  0.00  0.00     0.165 C 
ATOM     16  N47 ZIN A   1      17.360  -3.798   5.513  0.00  0.00    -0.357 N 
ATOM     17  C48 ZIN A   1      17.870  -5.001   5.890  0.00  0.00     0.242 C 
ATOM     18  O49 ZIN A   1      18.981  -5.329   5.505  0.00  0.00    -0.271 OA
ATOM     19  C50 ZIN A   1      17.091  -5.929   6.784  0.00  0.00     0.200 C 
ATOM     20  N61 ZIN A   1      17.449  -5.652   8.198  0.00  0.00    -0.340 N 
ATOM     21  C62 ZIN A   1      17.387  -4.350   8.588  0.00  0.00     0.270 C 
ATOM     22  O63 ZIN A   1      16.935  -3.482   7.861  0.00  0.00    -0.266 OA
ATOM     23  H68 ZIN A   1      17.379  -1.968   9.562  0.00  0.00     0.169 HD
ATOM     24  H80 ZIN A   1      20.060   0.040  10.424  0.00  0.00     0.163 HD
ATOM     25  H84 ZIN A   1      17.885   0.847   6.364  0.00  0.00     0.163 HD
ATOM     26  H87 ZIN A   1      16.461  -3.503   5.720  0.00  0.00     0.162 HD
ATOM     27  H95 ZIN A   1      17.709  -6.377   8.799  0.00  0.00     0.163 HD
ENDROOT
BRANCH   6  28
ATOM     28  C12 ZIN A   1      17.077   0.151  11.856  0.00  0.00     0.157 C 
BRANCH  28  29
ATOM     29  N13 ZIN A   1      17.353   1.301  12.721  0.00  0.00    -0.359 N 
ATOM     30  C14 ZIN A   1      17.474   2.532  12.187  0.00  0.00     0.219 C 
ATOM     31  O15 ZIN A   1      17.355   2.689  10.990  0.00  0.00    -0.274 OA
ATOM     32  H71 ZIN A   1      17.449   1.176  13.678  0.00  0.00     0.162 HD
BRANCH  30  33
ATOM     33  C16 ZIN A   1      17.758   3.715  13.077  0.00  0.00     0.135 C 
BRANCH  33  34
ATOM     34  C17 ZIN A   1      19.260   3.796  13.355  0.00  0.00     0.192 C 
BRANCH  34  35
ATOM     35  N19 ZIN A   1      20.001   3.261  12.205  0.00  0.00    -0.075 N 
ATOM     36  H20 ZIN A   1      19.414   2.614  11.699  0.00  0.00     0.274 HD
ATOM     37  H21 ZIN A   1      20.269   4.019  11.596  0.00  0.00     0.274 HD
ATOM     38  H22 ZIN A   1      20.827   2.783  12.530  0.00  0.00     0.274 HD
ENDBRANCH  34  35
BRANCH  34  39
ATOM     39  C23 ZIN A   1      19.658   5.256  13.584  0.00  0.00     0.034 C 
BRANCH  39  40
ATOM     40  C24 ZIN A   1      19.171   5.707  14.963  0.00  0.00     0.029 C 
BRANCH  40  41
ATOM     41  C25 ZIN A   1      20.147   5.215  16.034  0.00  0.00     0.229 C 
BRANCH  41  42
ATOM     42  N26 ZIN A   1      21.518   5.586  15.655  0.00  0.00    -0.079 N 
ATOM     43  H27 ZIN A   1      22.173   4.990  16.138  0.00  0.00     0.274 HD
ATOM     44  H28 ZIN A   1      21.633   5.475  14.659  0.00  0.00     0.274 HD
ATOM     45  H29 ZIN A   1      21.687   6.548  15.908  0.00  0.00     0.274 HD
ENDBRANCH  41  42
ENDBRANCH  40  41
ENDBRANCH  39  40
ENDBRANCH  34  39
ENDBRANCH  33  34
ENDBRANCH  30  33
ENDBRANCH  28  29
ENDBRANCH   6  28
BRANCH  10  46
ATOM     46  C35 ZIN A   1      19.405   2.080   8.099  0.00  0.00     0.199 C 
BRANCH  46  47
ATOM     47  O36 ZIN A   1      19.725   2.461   9.438  0.00  0.00    -0.398 OA
ATOM     48  H83 ZIN A   1      19.008   2.315  10.070  0.00  0.00     0.209 HD
ENDBRANCH  46  47
ENDBRANCH  10  46
BRANCH   1  49
ATOM     49  N4  ZIN A   1      18.959  -6.009  10.256  0.00  0.00    -0.317 N 
ATOM     50  C2  ZIN A   1      20.075  -5.922   9.505  0.00  0.00     0.317 C 
ATOM     51  N1  ZIN A   1      20.643  -7.040   9.011  0.00  0.00    -0.352 N 
ATOM     52  O3  ZIN A   1      20.567  -4.836   9.272  0.00  0.00    -0.247 OA
ATOM     53  H64 ZIN A   1      21.446  -6.978   8.471  0.00  0.00     0.160 HD
ATOM     54  H65 ZIN A   1      20.252  -7.907   9.201  0.00  0.00     0.160 HD
ATOM     55  H66 ZIN A   1      18.566  -6.876  10.442  0.00  0.00     0.170 HD
ENDBRANCH   1  49
BRANCH  19  56
ATOM     56  C52 ZIN A   1      15.587  -5.800   6.567  0.00  0.00     0.133 C 
ATOM     57  N60 ZIN A   1      14.886  -5.893   7.856  0.00  0.00    -0.220 N 
ATOM     58  C58 ZIN A   1      13.542  -6.182   7.857  0.00  0.00     0.667 C 
ATOM     59  H94 ZIN A   1      15.363  -5.755   8.690  0.00  0.00     0.178 HD
ATOM     60  N56 ZIN A   1      12.925  -6.609   6.804  0.00  0.00    -0.227 N 
ATOM     61  C55 ZIN A   1      13.573  -6.810   5.512  0.00  0.00     0.140 C 
ATOM     62  H57 ZIN A   1      11.978  -6.807   6.876  0.00  0.00     0.177 HD
ATOM     63  C54 ZIN A   1      15.086  -6.955   5.686  0.00  0.00     0.048 C 
BRANCH  58  64
ATOM     64  N59 ZIN A   1      12.827  -6.010   9.019  0.00  0.00    -0.235 N 
ATOM     65  H92 ZIN A   1      12.625  -5.117   9.337  0.00  0.00     0.174 HD
ATOM     66  H93 ZIN A   1      12.524  -6.783   9.520  0.00  0.00     0.174 HD
ENDBRANCH  58  64
ENDBRANCH  19  56
BRANCH  14  67
ATOM     67  N42 ZIN A   1      18.394  -0.613   3.950  0.00  0.00    -0.065 N 
ATOM     68  H43 ZIN A   1      17.711   0.111   3.788  0.00  0.00     0.275 HD
ATOM     69  H44 ZIN A   1      19.281  -0.194   4.183  0.00  0.00     0.275 HD
ATOM     70  H45 ZIN A   1      18.495  -1.173   3.115  0.00  0.00     0.275 HD
ENDBRANCH  14  67
TORSDOF 15
ENDMDL
MODEL 2
REMARK VINA RESULT:      -7.1      3.347     11.048
REMARK  15 active torsions:
REMARK  status: ('A' for Active; 'I' for Inactive)
REMARK       I    between atoms: N1_1  and  C2_2 
REMARK       I    between atoms: C2_2  and  N4_4 
REMARK    1  A    between atoms: N4_4  and  C5_5 
REMARK    2  A    between atoms: C10_10  and  C12_11 
REMARK    3  A    between atoms: C12_11  and  N13_12 
REMARK       I    between atoms: N13_12  and  C14_13 
REMARK    4  A    between atoms: C14_13  and  C16_15 
REMARK    5  A    between atoms: C16_15  and  C17_16 
REMARK    6  A    between atoms: C17_16  and  N19_17 
REMARK    7  A    between atoms: C17_16  and  C23_21 
REMARK    8  A    between atoms: C23_21  and  C24_22 
REMARK    9  A    between atoms: C24_22  and  C25_23 
REMARK   10  A    between atoms: C25_23  and  N26_24 
REMARK   11  A    between atoms: C33_31  and  C35_32 
REMARK   12  A    between atoms: C35_32  and  O36_33 
REMARK   13  A    between atoms: C40_37  and  N42_38 
REMARK   14  A    between atoms: C50_46  and  C52_47 
REMARK   15  A    between atoms: C58_52  and  N59_53 
ROOT
ATOM      1  C5  ZIN A   1      19.921   4.406  12.749  0.00  0.00     0.128 C 
ATOM      2  C6  ZIN A   1      19.037   3.472  13.138  0.00  0.00     0.118 C 
ATOM      3  N7  ZIN A   1      18.563   2.440  12.287  0.00  0.00    -0.320 N 
ATOM      4  C8  ZIN A   1      18.941   2.357  10.992  0.00  0.00     0.246 C 
ATOM      5  O9  ZIN A   1      19.426   3.286  10.376  0.00  0.00    -0.271 OA
ATOM      6  C10 ZIN A   1      18.761   1.034  10.273  0.00  0.00     0.194 C 
ATOM      7  N30 ZIN A   1      19.111  -0.071  11.181  0.00  0.00    -0.344 N 
ATOM      8  C31 ZIN A   1      18.233  -0.479  12.140  0.00  0.00     0.243 C 
ATOM      9  O32 ZIN A   1      17.128  -0.010  12.300  0.00  0.00    -0.271 OA
ATOM     10  C33 ZIN A   1      18.679  -1.592  13.066  0.00  0.00     0.200 C 
ATOM     11  N37 ZIN A   1      17.904  -1.500  14.320  0.00  0.00    -0.344 N 
ATOM     12  C38 ZIN A   1      18.385  -0.648  15.271  0.00  0.00     0.250 C 
ATOM     13  O39 ZIN A   1      19.386   0.004  15.062  0.00  0.00    -0.271 OA
ATOM     14  C40 ZIN A   1      17.657  -0.531  16.584  0.00  0.00     0.292 C 
ATOM     15  C46 ZIN A   1      18.358   0.501  17.472  0.00  0.00     0.165 C 
ATOM     16  N47 ZIN A   1      17.868   1.851  17.102  0.00  0.00    -0.357 N 
ATOM     17  C48 ZIN A   1      18.765   2.862  17.251  0.00  0.00     0.242 C 
ATOM     18  O49 ZIN A   1      19.853   2.630  17.751  0.00  0.00    -0.271 OA
ATOM     19  C50 ZIN A   1      18.441   4.260  16.796  0.00  0.00     0.200 C 
ATOM     20  N61 ZIN A   1      18.904   4.433  15.395  0.00  0.00    -0.340 N 
ATOM     21  C62 ZIN A   1      18.513   3.475  14.513  0.00  0.00     0.270 C 
ATOM     22  O63 ZIN A   1      17.720   2.602  14.821  0.00  0.00    -0.266 OA
ATOM     23  H68 ZIN A   1      17.934   1.784  12.660  0.00  0.00     0.169 HD
ATOM     24  H80 ZIN A   1      19.987  -0.523  11.101  0.00  0.00     0.163 HD
ATOM     25  H84 ZIN A   1      17.095  -2.020  14.458  0.00  0.00     0.163 HD
ATOM     26  H87 ZIN A   1      16.962   1.974  16.780  0.00  0.00     0.162 HD
ATOM     27  H95 ZIN A   1      19.455   5.199  15.142  0.00  0.00     0.163 HD
ENDROOT
BRANCH   6  28
ATOM     28  C12 ZIN A   1      17.354   0.915   9.702  0.00  0.00     0.157 C 
BRANCH  28  29
ATOM     29  N13 ZIN A   1      17.430   0.529   8.290  0.00  0.00    -0.359 N 
ATOM     30  C14 ZIN A   1      17.618  -0.762   7.955  0.00  0.00     0.219 C 
ATOM     31  O15 ZIN A   1      17.724  -1.605   8.820  0.00  0.00    -0.274 OA
ATOM     32  H71 ZIN A   1      17.346   1.203   7.598  0.00  0.00     0.162 HD
BRANCH  30  33
ATOM     33  C16 ZIN A   1      17.696  -1.159   6.503  0.00  0.00     0.135 C 
BRANCH  33  34
ATOM     34  C17 ZIN A   1      19.153  -1.440   6.128  0.00  0.00     0.192 C 
BRANCH  34  35
ATOM     35  N19 ZIN A   1      19.699  -2.469   7.023  0.00  0.00    -0.075 N 
ATOM     36  H20 ZIN A   1      19.046  -2.644   7.772  0.00  0.00     0.274 HD
ATOM     37  H21 ZIN A   1      19.851  -3.320   6.503  0.00  0.00     0.274 HD
ATOM     38  H22 ZIN A   1      20.575  -2.149   7.408  0.00  0.00     0.274 HD
ENDBRANCH  34  35
BRANCH  34  39
ATOM     39  C23 ZIN A   1      19.221  -1.933   4.682  0.00  0.00     0.034 C 
BRANCH  39  40
ATOM     40  C24 ZIN A   1      17.869  -2.528   4.282  0.00  0.00     0.029 C 
BRANCH  40  41
ATOM     41  C25 ZIN A   1      18.006  -4.043   4.121  0.00  0.00     0.229 C 
BRANCH  41  42
ATOM     42  N26 ZIN A   1      18.410  -4.355   2.742  0.00  0.00    -0.079 N 
ATOM     43  H27 ZIN A   1      17.871  -3.794   2.100  0.00  0.00     0.274 HD
ATOM     44  H28 ZIN A   1      19.391  -4.152   2.626  0.00  0.00     0.274 HD
ATOM     45  H29 ZIN A   1      18.245  -5.333   2.557  0.00  0.00     0.274 HD
ENDBRANCH  41  42
ENDBRANCH  40  41
ENDBRANCH  39  40
ENDBRANCH  34  39
ENDBRANCH  33  34
ENDBRANCH  30  33
ENDBRANCH  28  29
ENDBRANCH   6  28
BRANCH  10  46
ATOM     46  C35 ZIN A   1      18.414  -2.942  12.396  0.00  0.00     0.199 C 
BRANCH  46  47
ATOM     47  O36 ZIN A   1      17.424  -2.782  11.378  0.00  0.00    -0.398 OA
ATOM     48  H83 ZIN A   1      17.716  -3.061  10.499  0.00  0.00     0.209 HD
ENDBRANCH  46  47
ENDBRANCH  10  46
BRANCH   1  49
ATOM     49  N4  ZIN A   1      20.738   5.011  13.679  0.00  0.00    -0.317 N 
ATOM     50  C2  ZIN A   1      20.413   6.222  14.175  0.00  0.00     0.317 C 
ATOM     51  N1  ZIN A   1      21.212   6.814  15.084  0.00  0.00    -0.352 N 
ATOM     52  O3  ZIN A   1      19.400   6.779  13.800  0.00  0.00    -0.247 OA
ATOM     53  H64 ZIN A   1      20.978   7.685  15.441  0.00  0.00     0.160 HD
ATOM     54  H65 ZIN A   1      22.018   6.367  15.385  0.00  0.00     0.160 HD
ATOM     55  H66 ZIN A   1      21.546   4.566  13.978  0.00  0.00     0.170 HD
ENDBRANCH   1  49
BRANCH  19  56
ATOM     56  C52 ZIN A   1      16.953   4.570  16.920  0.00  0.00     0.133 C 
ATOM     57  N60 ZIN A   1      16.527   5.436  15.811  0.00  0.00    -0.220 N 
ATOM     58  C58 ZIN A   1      15.349   6.134  15.933  0.00  0.00     0.667 C 
ATOM     59  H94 ZIN A   1      17.069   5.515  15.009  0.00  0.00     0.178 HD
ATOM     60  N56 ZIN A   1      14.728   6.251  17.060  0.00  0.00    -0.227 N 
ATOM     61  C55 ZIN A   1      15.191   5.648  18.305  0.00  0.00     0.140 C 
ATOM     62  H57 ZIN A   1      13.908   6.769  17.080  0.00  0.00     0.177 HD
ATOM     63  C54 ZIN A   1      16.685   5.331  18.227  0.00  0.00     0.048 C 
BRANCH  58  64
ATOM     64  N59 ZIN A   1      14.812   6.730  14.816  0.00  0.00    -0.235 N 
ATOM     65  H92 ZIN A   1      14.149   6.260  14.287  0.00  0.00     0.174 HD
ATOM     66  H93 ZIN A   1      15.097   7.620  14.557  0.00  0.00     0.174 HD
ENDBRANCH  58  64
ENDBRANCH  19  56
BRANCH  14  67
ATOM     67  N42 ZIN A   1      17.657  -1.835  17.263  0.00  0.00    -0.065 N 
ATOM     68  H43 ZIN A   1      18.605  -2.098  17.487  0.00  0.00     0.275 HD
ATOM     69  H44 ZIN A   1      17.115  -1.772  18.111  0.00  0.00     0.275 HD
ATOM     70  H45 ZIN A   1      17.250  -2.531  16.654  0.00  0.00     0.275 HD
ENDBRANCH  14  67
TORSDOF 15
ENDMDL
MODEL 3
REMARK VINA RESULT:      -6.8      3.848      7.029
REMARK  15 active torsions:
REMARK  status: ('A' for Active; 'I' for Inactive)
REMARK       I    between atoms: N1_1  and  C2_2 
REMARK       I    between atoms: C2_2  and  N4_4 
REMARK    1  A    between atoms: N4_4  and  C5_5 
REMARK    2  A    between atoms: C10_10  and  C12_11 
REMARK    3  A    between atoms: C12_11  and  N13_12 
REMARK       I    between atoms: N13_12  and  C14_13 
REMARK    4  A    between atoms: C14_13  and  C16_15 
REMARK    5  A    between atoms: C16_15  and  C17_16 
REMARK    6  A    between atoms: C17_16  and  N19_17 
REMARK    7  A    between atoms: C17_16  and  C23_21 
REMARK    8  A    between atoms: C23_21  and  C24_22 
REMARK    9  A    between atoms: C24_22  and  C25_23 
REMARK   10  A    between atoms: C25_23  and  N26_24 
REMARK   11  A    between atoms: C33_31  and  C35_32 
REMARK   12  A    between atoms: C35_32  and  O36_33 
REMARK   13  A    between atoms: C40_37  and  N42_38 
REMARK   14  A    between atoms: C50_46  and  C52_47 
REMARK   15  A    between atoms: C58_52  and  N59_53 
ROOT
ATOM      1  C5  ZIN A   1      17.354  -4.021   2.863  0.00  0.00     0.128 C 
ATOM      2  C6  ZIN A   1      17.763  -4.878   3.813  0.00  0.00     0.118 C 
ATOM      3  N7  ZIN A   1      18.145  -4.476   5.120  0.00  0.00    -0.320 N 
ATOM      4  C8  ZIN A   1      18.167  -3.174   5.484  0.00  0.00     0.246 C 
ATOM      5  O9  ZIN A   1      18.186  -2.256   4.687  0.00  0.00    -0.271 OA
ATOM      6  C10 ZIN A   1      18.156  -2.841   6.964  0.00  0.00     0.194 C 
ATOM      7  N30 ZIN A   1      17.240  -3.754   7.667  0.00  0.00    -0.344 N 
ATOM      8  C31 ZIN A   1      17.628  -5.027   7.963  0.00  0.00     0.243 C 
ATOM      9  O32 ZIN A   1      18.720  -5.484   7.710  0.00  0.00    -0.271 OA
ATOM     10  C33 ZIN A   1      16.617  -5.922   8.649  0.00  0.00     0.200 C 
ATOM     11  N37 ZIN A   1      16.970  -7.329   8.371  0.00  0.00    -0.344 N 
ATOM     12  C38 ZIN A   1      16.498  -7.856   7.203  0.00  0.00     0.250 C 
ATOM     13  O39 ZIN A   1      15.846  -7.173   6.441  0.00  0.00    -0.271 OA
ATOM     14  C40 ZIN A   1      16.798  -9.295   6.875  0.00  0.00     0.292 C 
ATOM     15  C46 ZIN A   1      16.200  -9.648   5.511  0.00  0.00     0.165 C 
ATOM     16  N47 ZIN A   1      17.154  -9.229   4.455  0.00  0.00    -0.357 N 
ATOM     17  C48 ZIN A   1      16.594  -8.842   3.278  0.00  0.00     0.242 C 
ATOM     18  O49 ZIN A   1      15.388  -8.946   3.124  0.00  0.00    -0.271 OA
ATOM     19  C50 ZIN A   1      17.437  -8.275   2.167  0.00  0.00     0.200 C 
ATOM     20  N61 ZIN A   1      17.489  -6.798   2.304  0.00  0.00    -0.340 N 
ATOM     21  C62 ZIN A   1      17.827  -6.322   3.532  0.00  0.00     0.270 C 
ATOM     22  O63 ZIN A   1      18.196  -7.060   4.429  0.00  0.00    -0.266 OA
ATOM     23  H68 ZIN A   1      18.409  -5.172   5.761  0.00  0.00     0.169 HD
ATOM     24  H80 ZIN A   1      16.336  -3.449   7.928  0.00  0.00     0.163 HD
ATOM     25  H84 ZIN A   1      17.508  -7.851   8.988  0.00  0.00     0.163 HD
ATOM     26  H87 ZIN A   1      18.108  -9.243   4.622  0.00  0.00     0.162 HD
ATOM     27  H95 ZIN A   1      17.291  -6.218   1.543  0.00  0.00     0.163 HD
ENDROOT
BRANCH   6  28
ATOM     28  C12 ZIN A   1      19.569  -2.857   7.533  0.00  0.00     0.157 C 
BRANCH  28  29
ATOM     29  N13 ZIN A   1      19.845  -1.578   8.192  0.00  0.00    -0.359 N 
ATOM     30  C14 ZIN A   1      19.317  -1.317   9.403  0.00  0.00     0.219 C 
ATOM     31  O15 ZIN A   1      18.613  -2.140   9.949  0.00  0.00    -0.274 OA
ATOM     32  H71 ZIN A   1      20.408  -0.919   7.756  0.00  0.00     0.162 HD
BRANCH  30  33
ATOM     33  C16 ZIN A   1      19.601  -0.001  10.082  0.00  0.00     0.135 C 
BRANCH  33  34
ATOM     34  C17 ZIN A   1      20.062  -0.256  11.518  0.00  0.00     0.192 C 
BRANCH  34  35
ATOM     35  N19 ZIN A   1      21.508  -0.015  11.618  0.00  0.00    -0.075 N 
ATOM     36  H20 ZIN A   1      21.982  -0.886  11.799  0.00  0.00     0.274 HD
ATOM     37  H21 ZIN A   1      21.843   0.379  10.751  0.00  0.00     0.274 HD
ATOM     38  H22 ZIN A   1      21.689   0.630  12.372  0.00  0.00     0.274 HD
ENDBRANCH  34  35
BRANCH  34  39
ATOM     39  C23 ZIN A   1      19.320   0.687  12.466  0.00  0.00     0.034 C 
BRANCH  39  40
ATOM     40  C24 ZIN A   1      18.234   1.438  11.692  0.00  0.00     0.029 C 
BRANCH  40  41
ATOM     41  C25 ZIN A   1      18.410   2.944  11.898  0.00  0.00     0.229 C 
BRANCH  41  42
ATOM     42  N26 ZIN A   1      19.813   3.232  12.230  0.00  0.00    -0.079 N 
ATOM     43  H27 ZIN A   1      19.960   3.085  13.217  0.00  0.00     0.274 HD
ATOM     44  H28 ZIN A   1      20.415   2.617  11.704  0.00  0.00     0.274 HD
ATOM     45  H29 ZIN A   1      20.023   4.190  11.997  0.00  0.00     0.274 HD
ENDBRANCH  41  42
ENDBRANCH  40  41
ENDBRANCH  39  40
ENDBRANCH  34  39
ENDBRANCH  33  34
ENDBRANCH  30  33
ENDBRANCH  28  29
ENDBRANCH   6  28
BRANCH  10  46
ATOM     46  C35 ZIN A   1      16.660  -5.669  10.156  0.00  0.00     0.199 C 
BRANCH  46  47
ATOM     47  O36 ZIN A   1      17.864  -4.974  10.488  0.00  0.00    -0.398 OA
ATOM     48  H83 ZIN A   1      18.654  -5.531  10.481  0.00  0.00     0.209 HD
ENDBRANCH  46  47
ENDBRANCH  10  46
BRANCH   1  49
ATOM     49  N4  ZIN A   1      16.512  -4.454   1.863  0.00  0.00    -0.317 N 
ATOM     50  C2  ZIN A   1      15.187  -4.549   2.091  0.00  0.00     0.317 C 
ATOM     51  N1  ZIN A   1      14.363  -4.973   1.113  0.00  0.00    -0.352 N 
ATOM     52  O3  ZIN A   1      14.736  -4.253   3.180  0.00  0.00    -0.247 OA
ATOM     53  H64 ZIN A   1      13.410  -5.042   1.277  0.00  0.00     0.160 HD
ATOM     54  H65 ZIN A   1      14.724  -5.205   0.242  0.00  0.00     0.160 HD
ATOM     55  H66 ZIN A   1      16.872  -4.690   0.994  0.00  0.00     0.170 HD
ENDBRANCH   1  49
BRANCH  19  56
ATOM     56  C52 ZIN A   1      18.841  -8.871   2.155  0.00  0.00     0.133 C 
ATOM     57  N60 ZIN A   1      19.802  -7.880   1.651  0.00  0.00    -0.220 N 
ATOM     58  C58 ZIN A   1      21.027  -8.315   1.204  0.00  0.00     0.667 C 
ATOM     59  H94 ZIN A   1      19.575  -6.936   1.632  0.00  0.00     0.178 HD
ATOM     60  N56 ZIN A   1      21.278  -9.564   0.984  0.00  0.00    -0.227 N 
ATOM     61  C55 ZIN A   1      20.312 -10.635   1.201  0.00  0.00     0.140 C 
ATOM     62  H57 ZIN A   1      22.160  -9.802   0.656  0.00  0.00     0.177 HD
ATOM     63  C54 ZIN A   1      18.886 -10.080   1.208  0.00  0.00     0.048 C 
BRANCH  58  64
ATOM     64  N59 ZIN A   1      22.020  -7.390   0.983  0.00  0.00    -0.235 N 
ATOM     65  H92 ZIN A   1      22.708  -7.565   0.323  0.00  0.00     0.174 HD
ATOM     66  H93 ZIN A   1      22.032  -6.562   1.489  0.00  0.00     0.174 HD
ENDBRANCH  58  64
ENDBRANCH  19  56
BRANCH  14  67
ATOM     67  N42 ZIN A   1      16.210 -10.165   7.904  0.00  0.00    -0.065 N 
ATOM     68  H43 ZIN A   1      15.694 -10.909   7.459  0.00  0.00     0.275 HD
ATOM     69  H44 ZIN A   1      16.945 -10.557   8.472  0.00  0.00     0.275 HD
ATOM     70  H45 ZIN A   1      15.587  -9.623   8.485  0.00  0.00     0.275 HD
ENDBRANCH  14  67
TORSDOF 15
ENDMDL
MODEL 4
REMARK VINA RESULT:      -6.4      4.483     12.109
REMARK  15 active torsions:
REMARK  status: ('A' for Active; 'I' for Inactive)
REMARK       I    between atoms: N1_1  and  C2_2 
REMARK       I    between atoms: C2_2  and  N4_4 
REMARK    1  A    between atoms: N4_4  and  C5_5 
REMARK    2  A    between atoms: C10_10  and  C12_11 
REMARK    3  A    between atoms: C12_11  and  N13_12 
REMARK       I    between atoms: N13_12  and  C14_13 
REMARK    4  A    between atoms: C14_13  and  C16_15 
REMARK    5  A    between atoms: C16_15  and  C17_16 
REMARK    6  A    between atoms: C17_16  and  N19_17 
REMARK    7  A    between atoms: C17_16  and  C23_21 
REMARK    8  A    between atoms: C23_21  and  C24_22 
REMARK    9  A    between atoms: C24_22  and  C25_23 
REMARK   10  A    between atoms: C25_23  and  N26_24 
REMARK   11  A    between atoms: C33_31  and  C35_32 
REMARK   12  A    between atoms: C35_32  and  O36_33 
REMARK   13  A    between atoms: C40_37  and  N42_38 
REMARK   14  A    between atoms: C50_46  and  C52_47 
REMARK   15  A    between atoms: C58_52  and  N59_53 
ROOT
ATOM      1  C5  ZIN A   1      18.157   6.550  14.096  0.00  0.00     0.128 C 
ATOM      2  C6  ZIN A   1      17.666   5.381  14.542  0.00  0.00     0.118 C 
ATOM      3  N7  ZIN A   1      17.782   4.160  13.829  0.00  0.00    -0.320 N 
ATOM      4  C8  ZIN A   1      18.364   4.101  12.610  0.00  0.00     0.246 C 
ATOM      5  O9  ZIN A   1      18.534   5.074  11.902  0.00  0.00    -0.271 OA
ATOM      6  C10 ZIN A   1      18.841   2.752  12.105  0.00  0.00     0.194 C 
ATOM      7  N30 ZIN A   1      19.450   1.999  13.214  0.00  0.00    -0.344 N 
ATOM      8  C31 ZIN A   1      18.664   1.370  14.132  0.00  0.00     0.243 C 
ATOM      9  O32 ZIN A   1      17.454   1.353  14.100  0.00  0.00    -0.271 OA
ATOM     10  C33 ZIN A   1      19.360   0.650  15.269  0.00  0.00     0.200 C 
ATOM     11  N37 ZIN A   1      18.422   0.548  16.406  0.00  0.00    -0.344 N 
ATOM     12  C38 ZIN A   1      18.367   1.621  17.248  0.00  0.00     0.250 C 
ATOM     13  O39 ZIN A   1      19.048   2.603  17.036  0.00  0.00    -0.271 OA
ATOM     14  C40 ZIN A   1      17.452   1.568  18.443  0.00  0.00     0.292 C 
ATOM     15  C46 ZIN A   1      17.535   2.888  19.214  0.00  0.00     0.165 C 
ATOM     16  N47 ZIN A   1      16.616   3.863  18.580  0.00  0.00    -0.357 N 
ATOM     17  C48 ZIN A   1      17.002   5.165  18.649  0.00  0.00     0.242 C 
ATOM     18  O49 ZIN A   1      17.998   5.462  19.289  0.00  0.00    -0.271 OA
ATOM     19  C50 ZIN A   1      16.229   6.244  17.940  0.00  0.00     0.200 C 
ATOM     20  N61 ZIN A   1      16.803   6.439  16.584  0.00  0.00    -0.340 N 
ATOM     21  C62 ZIN A   1      16.970   5.316  15.837  0.00  0.00     0.270 C 
ATOM     22  O63 ZIN A   1      16.550   4.232  16.202  0.00  0.00    -0.266 OA
ATOM     23  H68 ZIN A   1      17.414   3.347  14.240  0.00  0.00     0.169 HD
ATOM     24  H80 ZIN A   1      20.433   1.945  13.298  0.00  0.00     0.163 HD
ATOM     25  H84 ZIN A   1      17.875  -0.241  16.545  0.00  0.00     0.163 HD
ATOM     26  H87 ZIN A   1      15.800   3.563  18.152  0.00  0.00     0.162 HD
ATOM     27  H95 ZIN A   1      17.039   7.332  16.265  0.00  0.00     0.163 HD
ENDROOT
BRANCH   6  28
ATOM     28  C12 ZIN A   1      17.707   1.999  11.422  0.00  0.00     0.157 C 
BRANCH  28  29
ATOM     29  N13 ZIN A   1      18.143   1.559  10.093  0.00  0.00    -0.359 N 
ATOM     30  C14 ZIN A   1      18.934   0.476   9.969  0.00  0.00     0.219 C 
ATOM     31  O15 ZIN A   1      19.285  -0.137  10.955  0.00  0.00    -0.274 OA
ATOM     32  H71 ZIN A   1      17.863   2.049   9.304  0.00  0.00     0.162 HD
BRANCH  30  33
ATOM     33  C16 ZIN A   1      19.383   0.023   8.603  0.00  0.00     0.135 C 
BRANCH  33  34
ATOM     34  C17 ZIN A   1      18.339   0.431   7.562  0.00  0.00     0.192 C 
BRANCH  34  35
ATOM     35  N19 ZIN A   1      18.930   1.401   6.630  0.00  0.00    -0.075 N 
ATOM     36  H20 ZIN A   1      18.855   1.050   5.687  0.00  0.00     0.274 HD
ATOM     37  H21 ZIN A   1      18.437   2.279   6.702  0.00  0.00     0.274 HD
ATOM     38  H22 ZIN A   1      19.901   1.541   6.861  0.00  0.00     0.274 HD
ENDBRANCH  34  35
BRANCH  34  39
ATOM     39  C23 ZIN A   1      17.881  -0.807   6.787  0.00  0.00     0.034 C 
BRANCH  39  40
ATOM     40  C24 ZIN A   1      17.269  -0.375   5.453  0.00  0.00     0.029 C 
BRANCH  40  41
ATOM     41  C25 ZIN A   1      17.692  -1.356   4.357  0.00  0.00     0.229 C 
BRANCH  41  42
ATOM     42  N26 ZIN A   1      19.155  -1.498   4.365  0.00  0.00    -0.079 N 
ATOM     43  H27 ZIN A   1      19.397  -2.476   4.329  0.00  0.00     0.274 HD
ATOM     44  H28 ZIN A   1      19.542  -1.024   3.563  0.00  0.00     0.274 HD
ATOM     45  H29 ZIN A   1      19.527  -1.090   5.209  0.00  0.00     0.274 HD
ENDBRANCH  41  42
ENDBRANCH  40  41
ENDBRANCH  39  40
ENDBRANCH  34  39
ENDBRANCH  33  34
ENDBRANCH  30  33
ENDBRANCH  28  29
ENDBRANCH   6  28
BRANCH  10  46
ATOM     46  C35 ZIN A   1      19.763  -0.751  14.808  0.00  0.00     0.199 C 
BRANCH  46  47
ATOM     47  O36 ZIN A   1      20.380  -0.669  13.522  0.00  0.00    -0.398 OA
ATOM     48  H83 ZIN A   1      20.279  -1.469  12.986  0.00  0.00     0.209 HD
ENDBRANCH  46  47
ENDBRANCH  10  46
BRANCH   1  49
ATOM     49  N4  ZIN A   1      18.507   7.536  14.991  0.00  0.00    -0.317 N 
ATOM     50  C2  ZIN A   1      17.753   8.649  15.096  0.00  0.00     0.317 C 
ATOM     51  N1  ZIN A   1      18.095   9.615  15.971  0.00  0.00    -0.352 N 
ATOM     52  O3  ZIN A   1      16.765   8.781  14.400  0.00  0.00    -0.247 OA
ATOM     53  H64 ZIN A   1      17.553  10.415  16.047  0.00  0.00     0.160 HD
ATOM     54  H65 ZIN A   1      18.881   9.507  16.530  0.00  0.00     0.160 HD
ATOM     55  H66 ZIN A   1      19.295   7.431  15.547  0.00  0.00     0.170 HD
ENDBRANCH   1  49
BRANCH  19  56
ATOM     56  C52 ZIN A   1      14.741   5.919  17.859  0.00  0.00     0.133 C 
ATOM     57  N60 ZIN A   1      14.183   6.433  16.600  0.00  0.00    -0.220 N 
ATOM     58  C58 ZIN A   1      12.821   6.589  16.495  0.00  0.00     0.667 C 
ATOM     59  H94 ZIN A   1      14.766   6.661  15.857  0.00  0.00     0.178 HD
ATOM     60  N56 ZIN A   1      12.038   6.535  17.522  0.00  0.00    -0.227 N 
ATOM     61  C55 ZIN A   1      12.503   6.286  18.882  0.00  0.00     0.140 C 
ATOM     62  H57 ZIN A   1      11.088   6.667  17.381  0.00  0.00     0.177 HD
ATOM     63  C54 ZIN A   1      13.993   6.610  19.010  0.00  0.00     0.048 C 
BRANCH  58  64
ATOM     64  N59 ZIN A   1      12.272   6.811  15.255  0.00  0.00    -0.235 N 
ATOM     65  H92 ZIN A   1      12.348   6.136  14.563  0.00  0.00     0.174 HD
ATOM     66  H93 ZIN A   1      11.809   7.643  15.071  0.00  0.00     0.174 HD
ENDBRANCH  58  64
ENDBRANCH  19  56
BRANCH  14  67
ATOM     67  N42 ZIN A   1      17.860   0.464  19.324  0.00  0.00    -0.065 N 
ATOM     68  H43 ZIN A   1      17.431  -0.393  19.010  0.00  0.00     0.275 HD
ATOM     69  H44 ZIN A   1      18.864   0.367  19.298  0.00  0.00     0.275 HD
ATOM     70  H45 ZIN A   1      17.565   0.662  20.269  0.00  0.00     0.275 HD
ENDBRANCH  14  67
TORSDOF 15
ENDMDL
MODEL 5
REMARK VINA RESULT:      -6.2      2.141      2.465
REMARK  15 active torsions:
REMARK  status: ('A' for Active; 'I' for Inactive)
REMARK       I    between atoms: N1_1  and  C2_2 
REMARK       I    between atoms: C2_2  and  N4_4 
REMARK    1  A    between atoms: N4_4  and  C5_5 
REMARK    2  A    between atoms: C10_10  and  C12_11 
REMARK    3  A    between atoms: C12_11  and  N13_12 
REMARK       I    between atoms: N13_12  and  C14_13 
REMARK    4  A    between atoms: C14_13  and  C16_15 
REMARK    5  A    between atoms: C16_15  and  C17_16 
REMARK    6  A    between atoms: C17_16  and  N19_17 
REMARK    7  A    between atoms: C17_16  and  C23_21 
REMARK    8  A    between atoms: C23_21  and  C24_22 
REMARK    9  A    between atoms: C24_22  and  C25_23 
REMARK   10  A    between atoms: C25_23  and  N26_24 
REMARK   11  A    between atoms: C33_31  and  C35_32 
REMARK   12  A    between atoms: C35_32  and  O36_33 
REMARK   13  A    between atoms: C40_37  and  N42_38 
REMARK   14  A    between atoms: C50_46  and  C52_47 
REMARK   15  A    between atoms: C58_52  and  N59_53 
ROOT
ATOM      1  C5  ZIN A   1      18.904  -4.806  10.664  0.00  0.00     0.128 C 
ATOM      2  C6  ZIN A   1      18.212  -4.017   9.826  0.00  0.00     0.118 C 
ATOM      3  N7  ZIN A   1      18.075  -2.615  10.004  0.00  0.00    -0.320 N 
ATOM      4  C8  ZIN A   1      18.604  -1.980  11.074  0.00  0.00     0.246 C 
ATOM      5  O9  ZIN A   1      18.937  -2.550  12.094  0.00  0.00    -0.271 OA
ATOM      6  C10 ZIN A   1      18.802  -0.478  10.993  0.00  0.00     0.194 C 
ATOM      7  N30 ZIN A   1      19.285  -0.118   9.650  0.00  0.00    -0.344 N 
ATOM      8  C31 ZIN A   1      18.419  -0.053   8.600  0.00  0.00     0.243 C 
ATOM      9  O32 ZIN A   1      17.227  -0.249   8.685  0.00  0.00    -0.271 OA
ATOM     10  C33 ZIN A   1      18.994   0.282   7.240  0.00  0.00     0.200 C 
ATOM     11  N37 ZIN A   1      18.084  -0.242   6.201  0.00  0.00    -0.344 N 
ATOM     12  C38 ZIN A   1      18.256  -1.548   5.844  0.00  0.00     0.250 C 
ATOM     13  O39 ZIN A   1      19.104  -2.226   6.385  0.00  0.00    -0.271 OA
ATOM     14  C40 ZIN A   1      17.379  -2.135   4.770  0.00  0.00     0.292 C 
ATOM     15  C46 ZIN A   1      17.731  -3.611   4.566  0.00  0.00     0.165 C 
ATOM     16  N47 ZIN A   1      16.998  -4.414   5.574  0.00  0.00    -0.357 N 
ATOM     17  C48 ZIN A   1      17.626  -5.544   5.995  0.00  0.00     0.242 C 
ATOM     18  O49 ZIN A   1      18.676  -5.877   5.470  0.00  0.00    -0.271 OA
ATOM     19  C50 ZIN A   1      17.053  -6.385   7.105  0.00  0.00     0.200 C 
ATOM     20  N61 ZIN A   1      17.619  -5.927   8.399  0.00  0.00    -0.340 N 
ATOM     21  C62 ZIN A   1      17.550  -4.591   8.644  0.00  0.00     0.270 C 
ATOM     22  O63 ZIN A   1      16.941  -3.832   7.909  0.00  0.00    -0.266 OA
ATOM     23  H68 ZIN A   1      17.570  -2.110   9.330  0.00  0.00     0.169 HD
ATOM     24  H80 ZIN A   1      20.243   0.080   9.501  0.00  0.00     0.163 HD
ATOM     25  H84 ZIN A   1      17.401   0.315   5.795  0.00  0.00     0.163 HD
ATOM     26  H87 ZIN A   1      16.129  -4.127   5.893  0.00  0.00     0.162 HD
ATOM     27  H95 ZIN A   1      18.011  -6.564   9.026  0.00  0.00     0.163 HD
ENDROOT
BRANCH   6  28
ATOM     28  C12 ZIN A   1      17.529   0.258  11.387  0.00  0.00     0.157 C 
BRANCH  28  29
ATOM     29  N13 ZIN A   1      17.164  -0.099  12.761  0.00  0.00    -0.359 N 
ATOM     30  C14 ZIN A   1      17.761   0.520  13.798  0.00  0.00     0.219 C 
ATOM     31  O15 ZIN A   1      18.599   1.372  13.596  0.00  0.00    -0.274 OA
ATOM     32  H71 ZIN A   1      16.493  -0.781  12.923  0.00  0.00     0.162 HD
BRANCH  30  33
ATOM     33  C16 ZIN A   1      17.385   0.153  15.211  0.00  0.00     0.135 C 
BRANCH  33  34
ATOM     34  C17 ZIN A   1      18.171  -1.086  15.644  0.00  0.00     0.192 C 
BRANCH  34  35
ATOM     35  N19 ZIN A   1      19.403  -1.186  14.848  0.00  0.00    -0.075 N 
ATOM     36  H20 ZIN A   1      19.540  -0.330  14.332  0.00  0.00     0.274 HD
ATOM     37  H21 ZIN A   1      20.188  -1.340  15.462  0.00  0.00     0.274 HD
ATOM     38  H22 ZIN A   1      19.324  -1.959  14.204  0.00  0.00     0.274 HD
ENDBRANCH  34  35
BRANCH  34  39
ATOM     39  C23 ZIN A   1      18.530  -0.970  17.126  0.00  0.00     0.034 C 
BRANCH  39  40
ATOM     40  C24 ZIN A   1      18.779   0.499  17.478  0.00  0.00     0.029 C 
BRANCH  40  41
ATOM     41  C25 ZIN A   1      18.109   0.823  18.814  0.00  0.00     0.229 C 
BRANCH  41  42
ATOM     42  N26 ZIN A   1      17.060   1.831  18.604  0.00  0.00    -0.079 N 
ATOM     43  H27 ZIN A   1      16.227   1.381  18.256  0.00  0.00     0.274 HD
ATOM     44  H28 ZIN A   1      16.855   2.290  19.479  0.00  0.00     0.274 HD
ATOM     45  H29 ZIN A   1      17.379   2.514  17.933  0.00  0.00     0.274 HD
ENDBRANCH  41  42
ENDBRANCH  40  41
ENDBRANCH  39  40
ENDBRANCH  34  39
ENDBRANCH  33  34
ENDBRANCH  30  33
ENDBRANCH  28  29
ENDBRANCH   6  28
BRANCH  10  46
ATOM     46  C35 ZIN A   1      19.112   1.800   7.102  0.00  0.00     0.199 C 
BRANCH  46  47
ATOM     47  O36 ZIN A   1      19.048   2.402   8.396  0.00  0.00    -0.398 OA
ATOM     48  H83 ZIN A   1      18.623   1.849   9.066  0.00  0.00     0.209 HD
ENDBRANCH  46  47
ENDBRANCH  10  46
BRANCH   1  49
ATOM     49  N4  ZIN A   1      19.458  -5.980  10.204  0.00  0.00    -0.317 N 
ATOM     50  C2  ZIN A   1      20.445  -5.946   9.286  0.00  0.00     0.317 C 
ATOM     51  N1  ZIN A   1      20.986  -7.094   8.834  0.00  0.00    -0.352 N 
ATOM     52  O3  ZIN A   1      20.846  -4.878   8.866  0.00  0.00    -0.247 OA
ATOM     53  H64 ZIN A   1      21.696  -7.069   8.174  0.00  0.00     0.160 HD
ATOM     54  H65 ZIN A   1      20.668  -7.946   9.173  0.00  0.00     0.160 HD
ATOM     55  H66 ZIN A   1      19.138  -6.833  10.539  0.00  0.00     0.170 HD
ENDBRANCH   1  49
BRANCH  19  56
ATOM     56  C52 ZIN A   1      15.529  -6.335   7.128  0.00  0.00     0.133 C 
ATOM     57  N60 ZIN A   1      14.997  -7.567   7.730  0.00  0.00    -0.220 N 
ATOM     58  C58 ZIN A   1      13.681  -7.896   7.507  0.00  0.00     0.667 C 
ATOM     59  H94 ZIN A   1      15.565  -8.138   8.272  0.00  0.00     0.178 HD
ATOM     60  N56 ZIN A   1      12.964  -7.307   6.606  0.00  0.00    -0.227 N 
ATOM     61  C55 ZIN A   1      13.459  -6.232   5.753  0.00  0.00     0.140 C 
ATOM     62  H57 ZIN A   1      12.046  -7.597   6.490  0.00  0.00     0.177 HD
ATOM     63  C54 ZIN A   1      14.987  -6.252   5.693  0.00  0.00     0.048 C 
BRANCH  58  64
ATOM     64  N59 ZIN A   1      13.106  -8.885   8.268  0.00  0.00    -0.235 N 
ATOM     65  H92 ZIN A   1      12.828  -9.717   7.854  0.00  0.00     0.174 HD
ATOM     66  H93 ZIN A   1      12.978  -8.751   9.220  0.00  0.00     0.174 HD
ENDBRANCH  58  64
ENDBRANCH  19  56
BRANCH  14  67
ATOM     67  N42 ZIN A   1      17.592  -1.406   3.510  0.00  0.00    -0.065 N 
ATOM     68  H43 ZIN A   1      16.800  -0.809   3.329  0.00  0.00     0.275 HD
ATOM     69  H44 ZIN A   1      18.427  -0.845   3.584  0.00  0.00     0.275 HD
ATOM     70  H45 ZIN A   1      17.696  -2.067   2.754  0.00  0.00     0.275 HD
ENDBRANCH  14  67
TORSDOF 15
ENDMDL
MODEL 6
REMARK VINA RESULT:      -5.5      4.723     11.986
REMARK  15 active torsions:
REMARK  status: ('A' for Active; 'I' for Inactive)
REMARK       I    between atoms: N1_1  and  C2_2 
REMARK       I    between atoms: C2_2  and  N4_4 
REMARK    1  A    between atoms: N4_4  and  C5_5 
REMARK    2  A    between atoms: C10_10  and  C12_11 
REMARK    3  A    between atoms: C12_11  and  N13_12 
REMARK       I    between atoms: N13_12  and  C14_13 
REMARK    4  A    between atoms: C14_13  and  C16_15 
REMARK    5  A    between atoms: C16_15  and  C17_16 
REMARK    6  A    between atoms: C17_16  and  N19_17 
REMARK    7  A    between atoms: C17_16  and  C23_21 
REMARK    8  A    between atoms: C23_21  and  C24_22 
REMARK    9  A    between atoms: C24_22  and  C25_23 
REMARK   10  A    between atoms: C25_23  and  N26_24 
REMARK   11  A    between atoms: C33_31  and  C35_32 
REMARK   12  A    between atoms: C35_32  and  O36_33 
REMARK   13  A    between atoms: C40_37  and  N42_38 
REMARK   14  A    between atoms: C50_46  and  C52_47 
REMARK   15  A    between atoms: C58_52  and  N59_53 
ROOT
ATOM      1  C5  ZIN A   1      18.882   4.640  13.295  0.00  0.00     0.128 C 
ATOM      2  C6  ZIN A   1      18.126   4.140  14.286  0.00  0.00     0.118 C 
ATOM      3  N7  ZIN A   1      18.045   2.755  14.587  0.00  0.00    -0.320 N 
ATOM      4  C8  ZIN A   1      18.699   1.829  13.852  0.00  0.00     0.246 C 
ATOM      5  O9  ZIN A   1      19.122   2.040  12.732  0.00  0.00    -0.271 OA
ATOM      6  C10 ZIN A   1      18.926   0.457  14.459  0.00  0.00     0.194 C 
ATOM      7  N30 ZIN A   1      19.274   0.602  15.882  0.00  0.00    -0.344 N 
ATOM      8  C31 ZIN A   1      18.304   0.843  16.808  0.00  0.00     0.243 C 
ATOM      9  O32 ZIN A   1      17.123   0.928  16.554  0.00  0.00    -0.271 OA
ATOM     10  C33 ZIN A   1      18.742   1.023  18.247  0.00  0.00     0.200 C 
ATOM     11  N37 ZIN A   1      17.715   1.811  18.957  0.00  0.00    -0.344 N 
ATOM     12  C38 ZIN A   1      17.815   3.169  18.860  0.00  0.00     0.250 C 
ATOM     13  O39 ZIN A   1      18.698   3.674  18.198  0.00  0.00    -0.271 OA
ATOM     14  C40 ZIN A   1      16.815   4.030  19.585  0.00  0.00     0.292 C 
ATOM     15  C46 ZIN A   1      17.106   5.506  19.302  0.00  0.00     0.165 C 
ATOM     16  N47 ZIN A   1      16.462   5.876  18.018  0.00  0.00    -0.357 N 
ATOM     17  C48 ZIN A   1      17.102   6.834  17.295  0.00  0.00     0.242 C 
ATOM     18  O49 ZIN A   1      18.082   7.387  17.767  0.00  0.00    -0.271 OA
ATOM     19  C50 ZIN A   1      16.628   7.214  15.918  0.00  0.00     0.200 C 
ATOM     20  N61 ZIN A   1      17.338   6.381  14.915  0.00  0.00    -0.340 N 
ATOM     21  C62 ZIN A   1      17.329   5.039  15.136  0.00  0.00     0.270 C 
ATOM     22  O63 ZIN A   1      16.666   4.538  16.028  0.00  0.00    -0.266 OA
ATOM     23  H68 ZIN A   1      17.485   2.478  15.345  0.00  0.00     0.169 HD
ATOM     24  H80 ZIN A   1      20.216   0.524  16.174  0.00  0.00     0.163 HD
ATOM     25  H84 ZIN A   1      17.007   1.384  19.466  0.00  0.00     0.163 HD
ATOM     26  H87 ZIN A   1      15.639   5.447  17.740  0.00  0.00     0.162 HD
ATOM     27  H95 ZIN A   1      17.777   6.791  14.145  0.00  0.00     0.163 HD
ENDROOT
BRANCH   6  28
ATOM     28  C12 ZIN A   1      17.720  -0.444  14.227  0.00  0.00     0.157 C 
BRANCH  28  29
ATOM     29  N13 ZIN A   1      18.081  -1.510  13.288  0.00  0.00    -0.359 N 
ATOM     30  C14 ZIN A   1      17.470  -1.586  12.089  0.00  0.00     0.219 C 
ATOM     31  O15 ZIN A   1      16.623  -0.773  11.787  0.00  0.00    -0.274 OA
ATOM     32  H71 ZIN A   1      18.758  -2.161  13.530  0.00  0.00     0.162 HD
BRANCH  30  33
ATOM     33  C16 ZIN A   1      17.841  -2.682  11.123  0.00  0.00     0.135 C 
BRANCH  33  34
ATOM     34  C17 ZIN A   1      19.328  -2.579  10.781  0.00  0.00     0.192 C 
BRANCH  34  35
ATOM     35  N19 ZIN A   1      19.946  -3.909  10.881  0.00  0.00    -0.075 N 
ATOM     36  H20 ZIN A   1      20.497  -4.086  10.055  0.00  0.00     0.274 HD
ATOM     37  H21 ZIN A   1      20.540  -3.942  11.696  0.00  0.00     0.274 HD
ATOM     38  H22 ZIN A   1      19.225  -4.609  10.962  0.00  0.00     0.274 HD
ENDBRANCH  34  35
BRANCH  34  39
ATOM     39  C23 ZIN A   1      19.487  -2.049   9.354  0.00  0.00     0.034 C 
BRANCH  39  40
ATOM     40  C24 ZIN A   1      19.428  -0.520   9.369  0.00  0.00     0.029 C 
BRANCH  40  41
ATOM     41  C25 ZIN A   1      20.258   0.010  10.540  0.00  0.00     0.229 C 
BRANCH  41  42
ATOM     42  N26 ZIN A   1      21.558  -0.675  10.569  0.00  0.00    -0.079 N 
ATOM     43  H27 ZIN A   1      22.283  -0.031  10.290  0.00  0.00     0.274 HD
ATOM     44  H28 ZIN A   1      21.743  -1.007  11.503  0.00  0.00     0.274 HD
ATOM     45  H29 ZIN A   1      21.540  -1.458   9.932  0.00  0.00     0.274 HD
ENDBRANCH  41  42
ENDBRANCH  40  41
ENDBRANCH  39  40
ENDBRANCH  34  39
ENDBRANCH  33  34
ENDBRANCH  30  33
ENDBRANCH  28  29
ENDBRANCH   6  28
BRANCH  10  46
ATOM     46  C35 ZIN A   1      18.883  -0.350  18.906  0.00  0.00     0.199 C 
BRANCH  46  47
ATOM     47  O36 ZIN A   1      19.754  -1.167  18.121  0.00  0.00    -0.398 OA
ATOM     48  H83 ZIN A   1      20.409  -1.655  18.641  0.00  0.00     0.209 HD
ENDBRANCH  46  47
ENDBRANCH  10  46
BRANCH   1  49
ATOM     49  N4  ZIN A   1      19.354   5.931  13.374  0.00  0.00    -0.317 N 
ATOM     50  C2  ZIN A   1      20.388   6.223  14.189  0.00  0.00     0.317 C 
ATOM     51  N1  ZIN A   1      20.850   7.487  14.267  0.00  0.00    -0.352 N 
ATOM     52  O3  ZIN A   1      20.903   5.345  14.853  0.00  0.00    -0.247 OA
ATOM     53  H64 ZIN A   1      21.594   7.696  14.853  0.00  0.00     0.160 HD
ATOM     54  H65 ZIN A   1      20.440   8.186  13.734  0.00  0.00     0.160 HD
ATOM     55  H66 ZIN A   1      18.943   6.632  12.844  0.00  0.00     0.170 HD
ENDBRANCH   1  49
BRANCH  19  56
ATOM     56  C52 ZIN A   1      15.116   7.068  15.776  0.00  0.00     0.133 C 
ATOM     57  N60 ZIN A   1      14.535   8.329  15.291  0.00  0.00    -0.220 N 
ATOM     58  C58 ZIN A   1      13.186   8.540  15.455  0.00  0.00     0.667 C 
ATOM     59  H94 ZIN A   1      15.093   9.000  14.866  0.00  0.00     0.178 HD
ATOM     60  N56 ZIN A   1      12.458   7.796  16.221  0.00  0.00    -0.227 N 
ATOM     61  C55 ZIN A   1      12.974   6.656  16.970  0.00  0.00     0.140 C 
ATOM     62  H57 ZIN A   1      11.515   8.008  16.303  0.00  0.00     0.177 HD
ATOM     63  C54 ZIN A   1      14.490   6.769  17.146  0.00  0.00     0.048 C 
BRANCH  58  64
ATOM     64  N59 ZIN A   1      12.591   9.579  14.779  0.00  0.00    -0.235 N 
ATOM     65  H92 ZIN A   1      12.755   9.699  13.831  0.00  0.00     0.174 HD
ATOM     66  H93 ZIN A   1      12.006  10.192  15.252  0.00  0.00     0.174 HD
ENDBRANCH  58  64
ENDBRANCH  19  56
BRANCH  14  67
ATOM     67  N42 ZIN A   1      16.913   3.784  21.031  0.00  0.00    -0.065 N 
ATOM     68  H43 ZIN A   1      17.244   2.844  21.190  0.00  0.00     0.275 HD
ATOM     69  H44 ZIN A   1      17.558   4.442  21.441  0.00  0.00     0.275 HD
ATOM     70  H45 ZIN A   1      16.003   3.897  21.454  0.00  0.00     0.275 HD
ENDBRANCH  14  67
TORSDOF 15
ENDMDL
MODEL 7
REMARK VINA RESULT:      -4.9      4.409     12.196
REMARK  15 active torsions:
REMARK  status: ('A' for Active; 'I' for Inactive)
REMARK       I    between atoms: N1_1  and  C2_2 
REMARK       I    between atoms: C2_2  and  N4_4 
REMARK    1  A    between atoms: N4_4  and  C5_5 
REMARK    2  A    between atoms: C10_10  and  C12_11 
REMARK    3  A    between atoms: C12_11  and  N13_12 
REMARK       I    between atoms: N13_12  and  C14_13 
REMARK    4  A    between atoms: C14_13  and  C16_15 
REMARK    5  A    between atoms: C16_15  and  C17_16 
REMARK    6  A    between atoms: C17_16  and  N19_17 
REMARK    7  A    between atoms: C17_16  and  C23_21 
REMARK    8  A    between atoms: C23_21  and  C24_22 
REMARK    9  A    between atoms: C24_22  and  C25_23 
REMARK   10  A    between atoms: C25_23  and  N26_24 
REMARK   11  A    between atoms: C33_31  and  C35_32 
REMARK   12  A    between atoms: C35_32  and  O36_33 
REMARK   13  A    between atoms: C40_37  and  N42_38 
REMARK   14  A    between atoms: C50_46  and  C52_47 
REMARK   15  A    between atoms: C58_52  and  N59_53 
ROOT
ATOM      1  C5  ZIN A   1      19.170   4.789  12.894  0.00  0.00     0.128 C 
ATOM      2  C6  ZIN A   1      18.384   4.186  13.801  0.00  0.00     0.118 C 
ATOM      3  N7  ZIN A   1      18.279   2.777  13.932  0.00  0.00    -0.320 N 
ATOM      4  C8  ZIN A   1      18.939   1.935  13.106  0.00  0.00     0.246 C 
ATOM      5  O9  ZIN A   1      19.392   2.272  12.030  0.00  0.00    -0.271 OA
ATOM      6  C10 ZIN A   1      19.135   0.498  13.550  0.00  0.00     0.194 C 
ATOM      7  N30 ZIN A   1      19.450   0.466  14.988  0.00  0.00    -0.344 N 
ATOM      8  C31 ZIN A   1      18.461   0.610  15.914  0.00  0.00     0.243 C 
ATOM      9  O32 ZIN A   1      17.287   0.742  15.645  0.00  0.00    -0.271 OA
ATOM     10  C33 ZIN A   1      18.866   0.610  17.373  0.00  0.00     0.200 C 
ATOM     11  N37 ZIN A   1      17.831   1.324  18.149  0.00  0.00    -0.344 N 
ATOM     12  C38 ZIN A   1      17.950   2.682  18.217  0.00  0.00     0.250 C 
ATOM     13  O39 ZIN A   1      18.855   3.248  17.641  0.00  0.00    -0.271 OA
ATOM     14  C40 ZIN A   1      16.943   3.465  19.017  0.00  0.00     0.292 C 
ATOM     15  C46 ZIN A   1      17.259   4.960  18.920  0.00  0.00     0.165 C 
ATOM     16  N47 ZIN A   1      16.651   5.490  17.675  0.00  0.00    -0.357 N 
ATOM     17  C48 ZIN A   1      17.320   6.517  17.086  0.00  0.00     0.242 C 
ATOM     18  O49 ZIN A   1      18.295   6.995  17.642  0.00  0.00    -0.271 OA
ATOM     19  C50 ZIN A   1      16.884   7.066  15.754  0.00  0.00     0.200 C 
ATOM     20  N61 ZIN A   1      17.608   6.347  14.675  0.00  0.00    -0.340 N 
ATOM     21  C62 ZIN A   1      17.578   4.989  14.734  0.00  0.00     0.270 C 
ATOM     22  O63 ZIN A   1      16.887   4.396  15.544  0.00  0.00    -0.266 OA
ATOM     23  H68 ZIN A   1      17.697   2.419  14.639  0.00  0.00     0.169 HD
ATOM     24  H80 ZIN A   1      20.383   0.340  15.290  0.00  0.00     0.163 HD
ATOM     25  H84 ZIN A   1      17.106   0.850  18.587  0.00  0.00     0.163 HD
ATOM     26  H87 ZIN A   1      15.830   5.109  17.328  0.00  0.00     0.162 HD
ATOM     27  H95 ZIN A   1      18.071   6.840  13.970  0.00  0.00     0.163 HD
ENDROOT
BRANCH   6  28
ATOM     28  C12 ZIN A   1      17.924  -0.351  13.185  0.00  0.00     0.157 C 
BRANCH  28  29
ATOM     29  N13 ZIN A   1      18.349  -1.736  12.960  0.00  0.00    -0.359 N 
ATOM     30  C14 ZIN A   1      18.455  -2.212  11.704  0.00  0.00     0.219 C 
ATOM     31  O15 ZIN A   1      18.200  -1.495  10.759  0.00  0.00    -0.274 OA
ATOM     32  H71 ZIN A   1      18.552  -2.310  13.715  0.00  0.00     0.162 HD
BRANCH  30  33
ATOM     33  C16 ZIN A   1      18.892  -3.635  11.472  0.00  0.00     0.135 C 
BRANCH  33  34
ATOM     34  C17 ZIN A   1      18.854  -3.944   9.974  0.00  0.00     0.192 C 
BRANCH  34  35
ATOM     35  N19 ZIN A   1      20.087  -4.644   9.587  0.00  0.00    -0.075 N 
ATOM     36  H20 ZIN A   1      20.105  -4.763   8.586  0.00  0.00     0.274 HD
ATOM     37  H21 ZIN A   1      20.887  -4.101   9.877  0.00  0.00     0.274 HD
ATOM     38  H22 ZIN A   1      20.114  -5.548  10.034  0.00  0.00     0.274 HD
ENDBRANCH  34  35
BRANCH  34  39
ATOM     39  C23 ZIN A   1      17.646  -4.830   9.666  0.00  0.00     0.034 C 
BRANCH  39  40
ATOM     40  C24 ZIN A   1      18.086  -6.005   8.790  0.00  0.00     0.029 C 
BRANCH  40  41
ATOM     41  C25 ZIN A   1      16.923  -6.986   8.632  0.00  0.00     0.229 C 
BRANCH  41  42
ATOM     42  N26 ZIN A   1      17.281  -8.015   7.645  0.00  0.00    -0.079 N 
ATOM     43  H27 ZIN A   1      18.060  -8.555   7.991  0.00  0.00     0.274 HD
ATOM     44  H28 ZIN A   1      16.491  -8.623   7.491  0.00  0.00     0.274 HD
ATOM     45  H29 ZIN A   1      17.538  -7.572   6.776  0.00  0.00     0.274 HD
ENDBRANCH  41  42
ENDBRANCH  40  41
ENDBRANCH  39  40
ENDBRANCH  34  39
ENDBRANCH  33  34
ENDBRANCH  30  33
ENDBRANCH  28  29
ENDBRANCH   6  28
BRANCH  10  46
ATOM     46  C35 ZIN A   1      18.974  -0.833  17.866  0.00  0.00     0.199 C 
BRANCH  46  47
ATOM     47  O36 ZIN A   1      18.817  -1.727  16.762  0.00  0.00    -0.398 OA
ATOM     48  H83 ZIN A   1      18.892  -2.661  16.999  0.00  0.00     0.209 HD
ENDBRANCH  46  47
ENDBRANCH  10  46
BRANCH   1  49
ATOM     49  N4  ZIN A   1      19.656   6.055  13.137  0.00  0.00    -0.317 N 
ATOM     50  C2  ZIN A   1      20.617   6.241  14.064  0.00  0.00     0.317 C 
ATOM     51  N1  ZIN A   1      21.092   7.480  14.303  0.00  0.00    -0.352 N 
ATOM     52  O3  ZIN A   1      21.055   5.292  14.684  0.00  0.00    -0.247 OA
ATOM     53  H64 ZIN A   1      21.784   7.614  14.970  0.00  0.00     0.160 HD
ATOM     54  H65 ZIN A   1      20.745   8.236  13.805  0.00  0.00     0.160 HD
ATOM     55  H66 ZIN A   1      19.306   6.813  12.643  0.00  0.00     0.170 HD
ENDBRANCH   1  49
BRANCH  19  56
ATOM     56  C52 ZIN A   1      15.375   6.961  15.561  0.00  0.00     0.133 C 
ATOM     57  N60 ZIN A   1      14.819   8.281  15.231  0.00  0.00    -0.220 N 
ATOM     58  C58 ZIN A   1      13.469   8.488  15.391  0.00  0.00     0.667 C 
ATOM     59  H94 ZIN A   1      15.394   8.994  14.909  0.00  0.00     0.178 HD
ATOM     60  N56 ZIN A   1      12.715   7.662  16.038  0.00  0.00    -0.227 N 
ATOM     61  C55 ZIN A   1      13.200   6.428  16.645  0.00  0.00     0.140 C 
ATOM     62  H57 ZIN A   1      11.772   7.875  16.126  0.00  0.00     0.177 HD
ATOM     63  C54 ZIN A   1      14.713   6.496  16.867  0.00  0.00     0.048 C 
BRANCH  58  64
ATOM     64  N59 ZIN A   1      12.901   9.614  14.842  0.00  0.00    -0.235 N 
ATOM     65  H92 ZIN A   1      13.358  10.467  14.901  0.00  0.00     0.174 HD
ATOM     66  H93 ZIN A   1      12.042   9.554  14.396  0.00  0.00     0.174 HD
ENDBRANCH  58  64
ENDBRANCH  19  56
BRANCH  14  67
ATOM     67  N42 ZIN A   1      17.003   3.047  20.426  0.00  0.00    -0.065 N 
ATOM     68  H43 ZIN A   1      17.412   3.785  20.978  0.00  0.00     0.275 HD
ATOM     69  H44 ZIN A   1      16.071   2.853  20.758  0.00  0.00     0.275 HD
ATOM     70  H45 ZIN A   1      17.569   2.214  20.504  0.00  0.00     0.275 HD
ENDBRANCH  14  67
TORSDOF 15
ENDMDL
MODEL 8
REMARK VINA RESULT:      -4.7      3.985     11.614
REMARK  15 active torsions:
REMARK  status: ('A' for Active; 'I' for Inactive)
REMARK       I    between atoms: N1_1  and  C2_2 
REMARK       I    between atoms: C2_2  and  N4_4 
REMARK    1  A    between atoms: N4_4  and  C5_5 
REMARK    2  A    between atoms: C10_10  and  C12_11 
REMARK    3  A    between atoms: C12_11  and  N13_12 
REMARK       I    between atoms: N13_12  and  C14_13 
REMARK    4  A    between atoms: C14_13  and  C16_15 
REMARK    5  A    between atoms: C16_15  and  C17_16 
REMARK    6  A    between atoms: C17_16  and  N19_17 
REMARK    7  A    between atoms: C17_16  and  C23_21 
REMARK    8  A    between atoms: C23_21  and  C24_22 
REMARK    9  A    between atoms: C24_22  and  C25_23 
REMARK   10  A    between atoms: C25_23  and  N26_24 
REMARK   11  A    between atoms: C33_31  and  C35_32 
REMARK   12  A    between atoms: C35_32  and  O36_33 
REMARK   13  A    between atoms: C40_37  and  N42_38 
REMARK   14  A    between atoms: C50_46  and  C52_47 
REMARK   15  A    between atoms: C58_52  and  N59_53 
ROOT
ATOM      1  C5  ZIN A   1      18.490   5.135  12.429  0.00  0.00     0.128 C 
ATOM      2  C6  ZIN A   1      17.915   4.262  13.274  0.00  0.00     0.118 C 
ATOM      3  N7  ZIN A   1      17.766   2.880  12.989  0.00  0.00    -0.320 N 
ATOM      4  C8  ZIN A   1      18.158   2.351  11.808  0.00  0.00     0.246 C 
ATOM      5  O9  ZIN A   1      18.353   3.016  10.809  0.00  0.00    -0.271 OA
ATOM      6  C10 ZIN A   1      18.375   0.852  11.727  0.00  0.00     0.194 C 
ATOM      7  N30 ZIN A   1      19.028   0.383  12.960  0.00  0.00    -0.344 N 
ATOM      8  C31 ZIN A   1      18.303   0.209  14.101  0.00  0.00     0.243 C 
ATOM      9  O32 ZIN A   1      17.109   0.391  14.186  0.00  0.00    -0.271 OA
ATOM     10  C33 ZIN A   1      19.051  -0.234  15.341  0.00  0.00     0.200 C 
ATOM     11  N37 ZIN A   1      18.278   0.179  16.530  0.00  0.00    -0.344 N 
ATOM     12  C38 ZIN A   1      18.486   1.451  16.979  0.00  0.00     0.250 C 
ATOM     13  O39 ZIN A   1      19.253   2.189  16.398  0.00  0.00    -0.271 OA
ATOM     14  C40 ZIN A   1      17.750   1.924  18.205  0.00  0.00     0.292 C 
ATOM     15  C46 ZIN A   1      18.115   3.382  18.495  0.00  0.00     0.165 C 
ATOM     16  N47 ZIN A   1      17.254   4.258  17.664  0.00  0.00    -0.357 N 
ATOM     17  C48 ZIN A   1      17.815   5.432  17.271  0.00  0.00     0.242 C 
ATOM     18  O49 ZIN A   1      18.922   5.736  17.686  0.00  0.00    -0.271 OA
ATOM     19  C50 ZIN A   1      17.100   6.357  16.324  0.00  0.00     0.200 C 
ATOM     20  N61 ZIN A   1      17.498   6.026  14.932  0.00  0.00    -0.340 N 
ATOM     21  C62 ZIN A   1      17.407   4.717  14.578  0.00  0.00     0.270 C 
ATOM     22  O63 ZIN A   1      16.902   3.885  15.313  0.00  0.00    -0.266 OA
ATOM     23  H68 ZIN A   1      17.355   2.307  13.674  0.00  0.00     0.169 HD
ATOM     24  H80 ZIN A   1      19.998   0.190  12.967  0.00  0.00     0.163 HD
ATOM     25  H84 ZIN A   1      17.656  -0.424  16.968  0.00  0.00     0.163 HD
ATOM     26  H87 ZIN A   1      16.353   3.985  17.433  0.00  0.00     0.162 HD
ATOM     27  H95 ZIN A   1      17.802   6.724  14.320  0.00  0.00     0.163 HD
ENDROOT
BRANCH   6  28
ATOM     28  C12 ZIN A   1      17.066   0.131  11.432  0.00  0.00     0.157 C 
BRANCH  28  29
ATOM     29  N13 ZIN A   1      17.049  -0.297  10.031  0.00  0.00    -0.359 N 
ATOM     30  C14 ZIN A   1      17.872  -1.280   9.617  0.00  0.00     0.219 C 
ATOM     31  O15 ZIN A   1      18.627  -1.811  10.404  0.00  0.00    -0.274 OA
ATOM     32  H71 ZIN A   1      16.445   0.127   9.401  0.00  0.00     0.162 HD
BRANCH  30  33
ATOM     33  C16 ZIN A   1      17.855  -1.721   8.176  0.00  0.00     0.135 C 
BRANCH  33  34
ATOM     34  C17 ZIN A   1      19.247  -2.213   7.776  0.00  0.00     0.192 C 
BRANCH  34  35
ATOM     35  N19 ZIN A   1      19.438  -3.588   8.258  0.00  0.00    -0.075 N 
ATOM     36  H20 ZIN A   1      18.768  -3.785   8.986  0.00  0.00     0.274 HD
ATOM     37  H21 ZIN A   1      19.304  -4.233   7.494  0.00  0.00     0.274 HD
ATOM     38  H22 ZIN A   1      20.372  -3.689   8.623  0.00  0.00     0.274 HD
ENDBRANCH  34  35
BRANCH  34  39
ATOM     39  C23 ZIN A   1      19.379  -2.184   6.252  0.00  0.00     0.034 C 
BRANCH  39  40
ATOM     40  C24 ZIN A   1      19.071  -0.775   5.740  0.00  0.00     0.029 C 
BRANCH  40  41
ATOM     41  C25 ZIN A   1      17.930  -0.840   4.724  0.00  0.00     0.229 C 
BRANCH  41  42
ATOM     42  N26 ZIN A   1      17.969  -2.133   4.026  0.00  0.00    -0.079 N 
ATOM     43  H27 ZIN A   1      17.684  -2.865   4.659  0.00  0.00     0.274 HD
ATOM     44  H28 ZIN A   1      17.341  -2.108   3.237  0.00  0.00     0.274 HD
ATOM     45  H29 ZIN A   1      18.908  -2.313   3.703  0.00  0.00     0.274 HD
ENDBRANCH  41  42
ENDBRANCH  40  41
ENDBRANCH  39  40
ENDBRANCH  34  39
ENDBRANCH  33  34
ENDBRANCH  30  33
ENDBRANCH  28  29
ENDBRANCH   6  28
BRANCH  10  46
ATOM     46  C35 ZIN A   1      19.195  -1.757  15.325  0.00  0.00     0.199 C 
BRANCH  46  47
ATOM     47  O36 ZIN A   1      18.286  -2.331  16.267  0.00  0.00    -0.398 OA
ATOM     48  H83 ZIN A   1      18.218  -1.838  17.097  0.00  0.00     0.209 HD
ENDBRANCH  46  47
ENDBRANCH  10  46
BRANCH   1  49
ATOM     49  N4  ZIN A   1      19.090   6.273  12.920  0.00  0.00    -0.317 N 
ATOM     50  C2  ZIN A   1      20.154   6.173  13.742  0.00  0.00     0.317 C 
ATOM     51  N1  ZIN A   1      20.741   7.287  14.223  0.00  0.00    -0.352 N 
ATOM     52  O3  ZIN A   1      20.584   5.078  14.049  0.00  0.00    -0.247 OA
ATOM     53  H64 ZIN A   1      21.507   7.215  14.814  0.00  0.00     0.160 HD
ATOM     54  H65 ZIN A   1      20.401   8.160  13.974  0.00  0.00     0.160 HD
ATOM     55  H66 ZIN A   1      18.747   7.147  12.676  0.00  0.00     0.170 HD
ENDBRANCH   1  49
BRANCH  19  56
ATOM     56  C52 ZIN A   1      15.585   6.283  16.489  0.00  0.00     0.133 C 
ATOM     57  N60 ZIN A   1      14.934   7.240  15.583  0.00  0.00    -0.220 N 
ATOM     58  C58 ZIN A   1      13.633   7.607  15.833  0.00  0.00     0.667 C 
ATOM     59  H94 ZIN A   1      15.415   7.607  14.824  0.00  0.00     0.178 HD
ATOM     60  N56 ZIN A   1      13.043   7.339  16.951  0.00  0.00    -0.227 N 
ATOM     61  C55 ZIN A   1      13.674   6.612  18.047  0.00  0.00     0.140 C 
ATOM     62  H57 ZIN A   1      12.127   7.638  17.069  0.00  0.00     0.177 HD
ATOM     63  C54 ZIN A   1      15.198   6.671  17.924  0.00  0.00     0.048 C 
BRANCH  58  64
ATOM     64  N59 ZIN A   1      12.935   8.282  14.860  0.00  0.00    -0.235 N 
ATOM     65  H92 ZIN A   1      12.638   9.191  15.019  0.00  0.00     0.174 HD
ATOM     66  H93 ZIN A   1      12.740   7.849  14.015  0.00  0.00     0.174 HD
ENDBRANCH  58  64
ENDBRANCH  19  56
BRANCH  14  67
ATOM     67  N42 ZIN A   1      18.127   1.090  19.355  0.00  0.00    -0.065 N 
ATOM     68  H43 ZIN A   1      18.185   0.125  19.067  0.00  0.00     0.275 HD
ATOM     69  H44 ZIN A   1      19.023   1.390  19.708  0.00  0.00     0.275 HD
ATOM     70  H45 ZIN A   1      17.431   1.184  20.081  0.00  0.00     0.275 HD
ENDBRANCH  14  67
TORSDOF 15
ENDMDL
MODEL 9
REMARK VINA RESULT:      -4.5      2.364      5.269
REMARK  15 active torsions:
REMARK  status: ('A' for Active; 'I' for Inactive)
REMARK       I    between atoms: N1_1  and  C2_2 
REMARK       I    between atoms: C2_2  and  N4_4 
REMARK    1  A    between atoms: N4_4  and  C5_5 
REMARK    2  A    between atoms: C10_10  and  C12_11 
REMARK    3  A    between atoms: C12_11  and  N13_12 
REMARK       I    between atoms: N13_12  and  C14_13 
REMARK    4  A    between atoms: C14_13  and  C16_15 
REMARK    5  A    between atoms: C16_15  and  C17_16 
REMARK    6  A    between atoms: C17_16  and  N19_17 
REMARK    7  A    between atoms: C17_16  and  C23_21 
REMARK    8  A    between atoms: C23_21  and  C24_22 
REMARK    9  A    between atoms: C24_22  and  C25_23 
REMARK   10  A    between atoms: C25_23  and  N26_24 
REMARK   11  A    between atoms: C33_31  and  C35_32 
REMARK   12  A    between atoms: C35_32  and  O36_33 
REMARK   13  A    between atoms: C40_37  and  N42_38 
REMARK   14  A    between atoms: C50_46  and  C52_47 
REMARK   15  A    between atoms: C58_52  and  N59_53 
ROOT
ATOM      1  C5  ZIN A   1      17.967  -0.469   6.819  0.00  0.00     0.128 C 
ATOM      2  C6  ZIN A   1      18.466  -1.111   7.888  0.00  0.00     0.118 C 
ATOM      3  N7  ZIN A   1      18.902  -0.449   9.066  0.00  0.00    -0.320 N 
ATOM      4  C8  ZIN A   1      18.886   0.898   9.171  0.00  0.00     0.246 C 
ATOM      5  O9  ZIN A   1      18.821   1.644   8.213  0.00  0.00    -0.271 OA
ATOM      6  C10 ZIN A   1      18.943   1.513  10.557  0.00  0.00     0.194 C 
ATOM      7  N30 ZIN A   1      18.109   0.725  11.479  0.00  0.00    -0.344 N 
ATOM      8  C31 ZIN A   1      18.568  -0.452  11.989  0.00  0.00     0.243 C 
ATOM      9  O32 ZIN A   1      19.664  -0.915  11.761  0.00  0.00    -0.271 OA
ATOM     10  C33 ZIN A   1      17.637  -1.229  12.897  0.00  0.00     0.200 C 
ATOM     11  N37 ZIN A   1      18.036  -2.651  12.873  0.00  0.00    -0.344 N 
ATOM     12  C38 ZIN A   1      17.524  -3.410  11.861  0.00  0.00     0.250 C 
ATOM     13  O39 ZIN A   1      16.800  -2.911  11.025  0.00  0.00    -0.271 OA
ATOM     14  C40 ZIN A   1      17.868  -4.875  11.798  0.00  0.00     0.292 C 
ATOM     15  C46 ZIN A   1      17.211  -5.506  10.568  0.00  0.00     0.165 C 
ATOM     16  N47 ZIN A   1      18.085  -5.271   9.393  0.00  0.00    -0.357 N 
ATOM     17  C48 ZIN A   1      17.445  -5.138   8.201  0.00  0.00     0.242 C 
ATOM     18  O49 ZIN A   1      16.238  -5.309   8.146  0.00  0.00    -0.271 OA
ATOM     19  C50 ZIN A   1      18.198  -4.772   6.950  0.00  0.00     0.200 C 
ATOM     20  N61 ZIN A   1      18.193  -3.295   6.797  0.00  0.00    -0.340 N 
ATOM     21  C62 ZIN A   1      18.577  -2.578   7.887  0.00  0.00     0.270 C 
ATOM     22  O63 ZIN A   1      19.028  -3.115   8.884  0.00  0.00    -0.266 OA
ATOM     23  H68 ZIN A   1      19.232  -0.998   9.811  0.00  0.00     0.169 HD
ATOM     24  H80 ZIN A   1      17.208   1.046  11.733  0.00  0.00     0.163 HD
ATOM     25  H84 ZIN A   1      18.630  -3.025  13.544  0.00  0.00     0.163 HD
ATOM     26  H87 ZIN A   1      19.048  -5.220   9.499  0.00  0.00     0.162 HD
ATOM     27  H95 ZIN A   1      17.928  -2.881   5.953  0.00  0.00     0.163 HD
ENDROOT
BRANCH   6  28
ATOM     28  C12 ZIN A   1      20.385   1.654  11.028  0.00  0.00     0.157 C 
BRANCH  28  29
ATOM     29  N13 ZIN A   1      20.643   3.047  11.403  0.00  0.00    -0.359 N 
ATOM     30  C14 ZIN A   1      19.937   3.617  12.399  0.00  0.00     0.219 C 
ATOM     31  O15 ZIN A   1      19.088   2.978  12.985  0.00  0.00    -0.274 OA
ATOM     32  H71 ZIN A   1      21.321   3.558  10.935  0.00  0.00     0.162 HD
BRANCH  30  33
ATOM     33  C16 ZIN A   1      20.201   5.049  12.785  0.00  0.00     0.135 C 
BRANCH  33  34
ATOM     34  C17 ZIN A   1      19.943   5.230  14.282  0.00  0.00     0.192 C 
BRANCH  34  35
ATOM     35  N19 ZIN A   1      21.127   5.828  14.915  0.00  0.00    -0.075 N 
ATOM     36  H20 ZIN A   1      21.744   5.096  15.233  0.00  0.00     0.274 HD
ATOM     37  H21 ZIN A   1      21.610   6.407  14.244  0.00  0.00     0.274 HD
ATOM     38  H22 ZIN A   1      20.840   6.392  15.700  0.00  0.00     0.274 HD
ENDBRANCH  34  35
BRANCH  34  39
ATOM     39  C23 ZIN A   1      18.738   6.151  14.484  0.00  0.00     0.034 C 
BRANCH  39  40
ATOM     40  C24 ZIN A   1      17.578   5.349  15.077  0.00  0.00     0.029 C 
BRANCH  40  41
ATOM     41  C25 ZIN A   1      18.126   4.304  16.051  0.00  0.00     0.229 C 
BRANCH  41  42
ATOM     42  N26 ZIN A   1      17.753   2.959  15.588  0.00  0.00    -0.079 N 
ATOM     43  H27 ZIN A   1      17.198   3.036  14.749  0.00  0.00     0.274 HD
ATOM     44  H28 ZIN A   1      18.588   2.428  15.394  0.00  0.00     0.274 HD
ATOM     45  H29 ZIN A   1      17.217   2.494  16.305  0.00  0.00     0.274 HD
ENDBRANCH  41  42
ENDBRANCH  40  41
ENDBRANCH  39  40
ENDBRANCH  34  39
ENDBRANCH  33  34
ENDBRANCH  30  33
ENDBRANCH  28  29
ENDBRANCH   6  28
BRANCH  10  46
ATOM     46  C35 ZIN A   1      17.753  -0.686  14.322  0.00  0.00     0.199 C 
BRANCH  46  47
ATOM     47  O36 ZIN A   1      18.768   0.318  14.367  0.00  0.00    -0.398 OA
ATOM     48  H83 ZIN A   1      18.827   0.854  13.564  0.00  0.00     0.209 HD
ENDBRANCH  46  47
ENDBRANCH  10  46
BRANCH   1  49
ATOM     49  N4  ZIN A   1      17.091  -1.115   5.975  0.00  0.00    -0.317 N 
ATOM     50  C2  ZIN A   1      17.484  -1.462   4.733  0.00  0.00     0.317 C 
ATOM     51  N1  ZIN A   1      16.626  -2.093   3.907  0.00  0.00    -0.352 N 
ATOM     52  O3  ZIN A   1      18.611  -1.204   4.358  0.00  0.00    -0.247 OA
ATOM     53  H64 ZIN A   1      16.909  -2.343   3.013  0.00  0.00     0.160 HD
ATOM     54  H65 ZIN A   1      15.728  -2.302   4.208  0.00  0.00     0.160 HD
ATOM     55  H66 ZIN A   1      16.191  -1.321   6.274  0.00  0.00     0.170 HD
ENDBRANCH   1  49
BRANCH  19  56
ATOM     56  C52 ZIN A   1      19.624  -5.313   6.965  0.00  0.00     0.133 C 
ATOM     57  N60 ZIN A   1      19.867  -6.050   8.214  0.00  0.00    -0.220 N 
ATOM     58  C58 ZIN A   1      21.166  -6.285   8.600  0.00  0.00     0.667 C 
ATOM     59  H94 ZIN A   1      19.125  -6.363   8.756  0.00  0.00     0.178 HD
ATOM     60  N56 ZIN A   1      22.170  -5.686   8.049  0.00  0.00    -0.227 N 
ATOM     61  C55 ZIN A   1      22.041  -4.724   6.960  0.00  0.00     0.140 C 
ATOM     62  H57 ZIN A   1      23.060  -5.888   8.378  0.00  0.00     0.177 HD
ATOM     63  C54 ZIN A   1      20.624  -4.148   6.917  0.00  0.00     0.048 C 
BRANCH  58  64
ATOM     64  N59 ZIN A   1      21.405  -7.190   9.607  0.00  0.00    -0.235 N 
ATOM     65  H92 ZIN A   1      21.379  -6.903  10.533  0.00  0.00     0.174 HD
ATOM     66  H93 ZIN A   1      21.600  -8.115   9.392  0.00  0.00     0.174 HD
ENDBRANCH  58  64
ENDBRANCH  19  56
BRANCH  14  67
ATOM     67  N42 ZIN A   1      17.377  -5.547  13.010  0.00  0.00    -0.065 N 
ATOM     68  H43 ZIN A   1      16.477  -5.961  12.822  0.00  0.00     0.275 HD
ATOM     69  H44 ZIN A   1      18.029  -6.266  13.283  0.00  0.00     0.275 HD
ATOM     70  H45 ZIN A   1      17.289  -4.872  13.755  0.00  0.00     0.275 HD
ENDBRANCH  14  67
TORSDOF 15
ENDMDL
