MODEL 1
REMARK VINA RESULT:      -5.7      0.000      0.000
REMARK  3 active torsions:
REMARK  status: ('A' for Active; 'I' for Inactive)
REMARK    1  A    between atoms: C2_2  and  O4_4 
REMARK    2  A    between atoms: O4_4  and  C5_5 
REMARK    3  A    between atoms: C10_10  and  C11_11 
ROOT
ATOM      1  C5  <0> d   1      17.447   0.992  10.249  0.00  0.00     0.096 A 
ATOM      2  C6  <0> d   1      17.762   0.093   9.241  0.00  0.00     0.038 A 
ATOM      3  C7  <0> d   1      18.619   0.466   8.223  0.00  0.00     0.003 A 
ATOM      4  C8  <0> d   1      19.171   1.736   8.201  0.00  0.00     0.001 A 
ATOM      5  C9  <0> d   1      18.871   2.642   9.194  0.00  0.00     0.021 A 
ATOM      6  C10 <0> d   1      18.000   2.282  10.227  0.00  0.00     0.074 A 
ENDROOT
BRANCH   1   7
ATOM      7  O4  <0> d   1      16.606   0.628  11.249  0.00  0.00    -0.278 OA
BRANCH   7   8
ATOM      8  C2  <0> d   1      17.044  -0.313  12.101  0.00  0.00     0.260 C 
ATOM      9  C1  <0> d   1      17.806   0.086  13.338  0.00  0.00     0.126 C 
ATOM     10  O3  <0> d   1      16.828  -1.481  11.875  0.00  0.00    -0.265 OA
ENDBRANCH   7   8
ENDBRANCH   1   7
BRANCH   6  11
ATOM     11  C11 <0> d   1      17.673   3.245  11.290  0.00  0.00     0.212 C 
ATOM     12  O12 <0> d   1      16.698   3.974  11.176  0.00  0.00    -0.644 OA
ATOM     13  O13 <0> d   1      18.378   3.318  12.287  0.00  0.00    -0.644 OA
ENDBRANCH   6  11
TORSDOF 3
ENDMDL
MODEL 2
REMARK VINA RESULT:      -5.7      1.044      3.301
REMARK  3 active torsions:
REMARK  status: ('A' for Active; 'I' for Inactive)
REMARK    1  A    between atoms: C2_2  and  O4_4 
REMARK    2  A    between atoms: O4_4  and  C5_5 
REMARK    3  A    between atoms: C10_10  and  C11_11 
ROOT
ATOM      1  C5  <0> d   1      18.464   1.485  10.188  0.00  0.00     0.096 A 
ATOM      2  C6  <0> d   1      19.123   2.062   9.113  0.00  0.00     0.038 A 
ATOM      3  C7  <0> d   1      18.980   1.529   7.846  0.00  0.00     0.003 A 
ATOM      4  C8  <0> d   1      18.179   0.418   7.640  0.00  0.00     0.001 A 
ATOM      5  C9  <0> d   1      17.516  -0.168   8.695  0.00  0.00     0.021 A 
ATOM      6  C10 <0> d   1      17.657   0.356   9.984  0.00  0.00     0.074 A 
ENDROOT
BRANCH   1   7
ATOM      7  O4  <0> d   1      18.604   2.008  11.433  0.00  0.00    -0.278 OA
BRANCH   7   8
ATOM      8  C2  <0> d   1      18.141   3.254  11.625  0.00  0.00     0.260 C 
ATOM      9  C1  <0> d   1      19.078   4.343  12.080  0.00  0.00     0.126 C 
ATOM     10  O3  <0> d   1      16.974   3.502  11.435  0.00  0.00    -0.265 OA
ENDBRANCH   7   8
ENDBRANCH   1   7
BRANCH   6  11
ATOM     11  C11 <0> d   1      16.953  -0.265  11.118  0.00  0.00     0.212 C 
ATOM     12  O12 <0> d   1      15.872   0.176  11.482  0.00  0.00    -0.644 OA
ATOM     13  O13 <0> d   1      17.449  -1.222  11.696  0.00  0.00    -0.644 OA
ENDBRANCH   6  11
TORSDOF 3
ENDMDL
MODEL 3
REMARK VINA RESULT:      -5.5      1.012      1.363
REMARK  3 active torsions:
REMARK  status: ('A' for Active; 'I' for Inactive)
REMARK    1  A    between atoms: C2_2  and  O4_4 
REMARK    2  A    between atoms: O4_4  and  C5_5 
REMARK    3  A    between atoms: C10_10  and  C11_11 
ROOT
ATOM      1  C5  <0> d   1      17.652   1.001   9.808  0.00  0.00     0.096 A 
ATOM      2  C6  <0> d   1      17.379  -0.005   8.894  0.00  0.00     0.038 A 
ATOM      3  C7  <0> d   1      18.004  -0.010   7.662  0.00  0.00     0.003 A 
ATOM      4  C8  <0> d   1      18.906   0.987   7.330  0.00  0.00     0.001 A 
ATOM      5  C9  <0> d   1      19.190   1.995   8.225  0.00  0.00     0.021 A 
ATOM      6  C10 <0> d   1      18.561   2.016   9.473  0.00  0.00     0.074 A 
ENDROOT
BRANCH   1   7
ATOM      7  O4  <0> d   1      17.039   1.007  11.019  0.00  0.00    -0.278 OA
BRANCH   7   8
ATOM      8  C2  <0> d   1      17.326  -0.008  11.851  0.00  0.00     0.260 C 
ATOM      9  C1  <0> d   1      18.612   0.003  12.636  0.00  0.00     0.126 C 
ATOM     10  O3  <0> d   1      16.553  -0.929  11.970  0.00  0.00    -0.265 OA
ENDBRANCH   7   8
ENDBRANCH   1   7
BRANCH   6  11
ATOM     11  C11 <0> d   1      18.858   3.090  10.435  0.00  0.00     0.212 C 
ATOM     12  O12 <0> d   1      19.813   2.986  11.192  0.00  0.00    -0.644 OA
ATOM     13  O13 <0> d   1      18.150   4.087  10.477  0.00  0.00    -0.644 OA
ENDBRANCH   6  11
TORSDOF 3
ENDMDL
MODEL 4
REMARK VINA RESULT:      -5.4      2.814      4.769
REMARK  3 active torsions:
REMARK  status: ('A' for Active; 'I' for Inactive)
REMARK    1  A    between atoms: C2_2  and  O4_4 
REMARK    2  A    between atoms: O4_4  and  C5_5 
REMARK    3  A    between atoms: C10_10  and  C11_11 
ROOT
ATOM      1  C5  <0> d   1      18.674  -0.974  13.281  0.00  0.00     0.096 A 
ATOM      2  C6  <0> d   1      19.302  -1.470  14.413  0.00  0.00     0.038 A 
ATOM      3  C7  <0> d   1      18.946  -1.002  15.664  0.00  0.00     0.003 A 
ATOM      4  C8  <0> d   1      17.961  -0.037  15.797  0.00  0.00     0.001 A 
ATOM      5  C9  <0> d   1      17.325   0.467  14.683  0.00  0.00     0.021 A 
ATOM      6  C10 <0> d   1      17.680   0.008  13.411  0.00  0.00     0.074 A 
ENDROOT
BRANCH   1   7
ATOM      7  O4  <0> d   1      19.023  -1.432  12.052  0.00  0.00    -0.278 OA
BRANCH   7   8
ATOM      8  C2  <0> d   1      18.782  -2.728  11.795  0.00  0.00     0.260 C 
ATOM      9  C1  <0> d   1      19.929  -3.675  11.556  0.00  0.00     0.126 C 
ATOM     10  O3  <0> d   1      17.645  -3.135  11.753  0.00  0.00    -0.265 OA
ENDBRANCH   7   8
ENDBRANCH   1   7
BRANCH   6  11
ATOM     11  C11 <0> d   1      17.006   0.542  12.216  0.00  0.00     0.212 C 
ATOM     12  O12 <0> d   1      17.342   1.626  11.759  0.00  0.00    -0.644 OA
ATOM     13  O13 <0> d   1      16.111  -0.097  11.681  0.00  0.00    -0.644 OA
ENDBRANCH   6  11
TORSDOF 3
ENDMDL
MODEL 5
REMARK VINA RESULT:      -5.4      4.259      5.530
REMARK  3 active torsions:
REMARK  status: ('A' for Active; 'I' for Inactive)
REMARK    1  A    between atoms: C2_2  and  O4_4 
REMARK    2  A    between atoms: O4_4  and  C5_5 
REMARK    3  A    between atoms: C10_10  and  C11_11 
ROOT
ATOM      1  C5  <0> d   1      18.495  -0.966   7.333  0.00  0.00     0.096 A 
ATOM      2  C6  <0> d   1      18.409  -0.544   8.651  0.00  0.00     0.038 A 
ATOM      3  C7  <0> d   1      18.655   0.777   8.973  0.00  0.00     0.003 A 
ATOM      4  C8  <0> d   1      18.988   1.689   7.985  0.00  0.00     0.001 A 
ATOM      5  C9  <0> d   1      19.076   1.289   6.670  0.00  0.00     0.021 A 
ATOM      6  C10 <0> d   1      18.837  -0.046   6.330  0.00  0.00     0.074 A 
ENDROOT
BRANCH   1   7
ATOM      7  O4  <0> d   1      18.253  -2.263   7.015  0.00  0.00    -0.278 OA
BRANCH   7   8
ATOM      8  C2  <0> d   1      19.193  -3.159   7.359  0.00  0.00     0.260 C 
ATOM      9  C1  <0> d   1      19.057  -3.938   8.642  0.00  0.00     0.126 C 
ATOM     10  O3  <0> d   1      20.147  -3.340   6.641  0.00  0.00    -0.265 OA
ENDBRANCH   7   8
ENDBRANCH   1   7
BRANCH   6  11
ATOM     11  C11 <0> d   1      18.931  -0.482   4.927  0.00  0.00     0.212 C 
ATOM     12  O12 <0> d   1      17.956  -0.396   4.194  0.00  0.00    -0.644 OA
ATOM     13  O13 <0> d   1      19.983  -0.931   4.495  0.00  0.00    -0.644 OA
ENDBRANCH   6  11
TORSDOF 3
ENDMDL
MODEL 6
REMARK VINA RESULT:      -5.3      2.019      3.767
REMARK  3 active torsions:
REMARK  status: ('A' for Active; 'I' for Inactive)
REMARK    1  A    between atoms: C2_2  and  O4_4 
REMARK    2  A    between atoms: O4_4  and  C5_5 
REMARK    3  A    between atoms: C10_10  and  C11_11 
ROOT
ATOM      1  C5  <0> d   1      19.189   1.398   8.964  0.00  0.00     0.096 A 
ATOM      2  C6  <0> d   1      18.876   1.853   7.692  0.00  0.00     0.038 A 
ATOM      3  C7  <0> d   1      18.807   0.964   6.637  0.00  0.00     0.003 A 
ATOM      4  C8  <0> d   1      19.047  -0.385   6.839  0.00  0.00     0.001 A 
ATOM      5  C9  <0> d   1      19.358  -0.855   8.096  0.00  0.00     0.021 A 
ATOM      6  C10 <0> d   1      19.438   0.033   9.173  0.00  0.00     0.074 A 
ENDROOT
BRANCH   1   7
ATOM      7  O4  <0> d   1      19.257   2.270  10.002  0.00  0.00    -0.278 OA
BRANCH   7   8
ATOM      8  C2  <0> d   1      18.102   2.817  10.415  0.00  0.00     0.260 C 
ATOM      9  C1  <0> d   1      17.860   4.293  10.233  0.00  0.00     0.126 C 
ATOM     10  O3  <0> d   1      17.257   2.126  10.933  0.00  0.00    -0.265 OA
ENDBRANCH   7   8
ENDBRANCH   1   7
BRANCH   6  11
ATOM     11  C11 <0> d   1      19.771  -0.462  10.518  0.00  0.00     0.212 C 
ATOM     12  O12 <0> d   1      20.939  -0.512  10.879  0.00  0.00    -0.644 OA
ATOM     13  O13 <0> d   1      18.881  -0.823  11.275  0.00  0.00    -0.644 OA
ENDBRANCH   6  11
TORSDOF 3
ENDMDL
MODEL 7
REMARK VINA RESULT:      -5.1      1.704      5.046
REMARK  3 active torsions:
REMARK  status: ('A' for Active; 'I' for Inactive)
REMARK    1  A    between atoms: C2_2  and  O4_4 
REMARK    2  A    between atoms: O4_4  and  C5_5 
REMARK    3  A    between atoms: C10_10  and  C11_11 
ROOT
ATOM      1  C5  <0> d   1      17.540   0.350  12.955  0.00  0.00     0.096 A 
ATOM      2  C6  <0> d   1      17.591   1.099  14.120  0.00  0.00     0.038 A 
ATOM      3  C7  <0> d   1      18.147   0.561  15.265  0.00  0.00     0.003 A 
ATOM      4  C8  <0> d   1      18.658  -0.727  15.258  0.00  0.00     0.001 A 
ATOM      5  C9  <0> d   1      18.617  -1.485  14.109  0.00  0.00     0.021 A 
ATOM      6  C10 <0> d   1      18.051  -0.957  12.945  0.00  0.00     0.074 A 
ENDROOT
BRANCH   1   7
ATOM      7  O4  <0> d   1      16.994   0.877  11.830  0.00  0.00    -0.278 OA
BRANCH   7   8
ATOM      8  C2  <0> d   1      17.603   1.952  11.303  0.00  0.00     0.260 C 
ATOM      9  C1  <0> d   1      19.004   1.834  10.761  0.00  0.00     0.126 C 
ATOM     10  O3  <0> d   1      17.028   3.014  11.265  0.00  0.00    -0.265 OA
ENDBRANCH   7   8
ENDBRANCH   1   7
BRANCH   6  11
ATOM     11  C11 <0> d   1      18.003  -1.761  11.713  0.00  0.00     0.212 C 
ATOM     12  O12 <0> d   1      17.059  -2.514  11.512  0.00  0.00    -0.644 OA
ATOM     13  O13 <0> d   1      18.905  -1.679  10.892  0.00  0.00    -0.644 OA
ENDBRANCH   6  11
TORSDOF 3
ENDMDL
MODEL 8
REMARK VINA RESULT:      -5.0      1.844      3.174
REMARK  3 active torsions:
REMARK  status: ('A' for Active; 'I' for Inactive)
REMARK    1  A    between atoms: C2_2  and  O4_4 
REMARK    2  A    between atoms: O4_4  and  C5_5 
REMARK    3  A    between atoms: C10_10  and  C11_11 
ROOT
ATOM      1  C5  <0> d   1      18.704   0.999   9.965  0.00  0.00     0.096 A 
ATOM      2  C6  <0> d   1      19.370   1.523   8.868  0.00  0.00     0.038 A 
ATOM      3  C7  <0> d   1      18.967   1.188   7.589  0.00  0.00     0.003 A 
ATOM      4  C8  <0> d   1      17.897   0.330   7.393  0.00  0.00     0.001 A 
ATOM      5  C9  <0> d   1      17.223  -0.199   8.471  0.00  0.00     0.021 A 
ATOM      6  C10 <0> d   1      17.624   0.125   9.771  0.00  0.00     0.074 A 
ENDROOT
BRANCH   1   7
ATOM      7  O4  <0> d   1      19.099   1.326  11.222  0.00  0.00    -0.278 OA
BRANCH   7   8
ATOM      8  C2  <0> d   1      20.004   0.524  11.804  0.00  0.00     0.260 C 
ATOM      9  C1  <0> d   1      20.733  -0.510  10.984  0.00  0.00     0.126 C 
ATOM     10  O3  <0> d   1      20.234   0.629  12.986  0.00  0.00    -0.265 OA
ENDBRANCH   7   8
ENDBRANCH   1   7
BRANCH   6  11
ATOM     11  C11 <0> d   1      16.910  -0.438  10.928  0.00  0.00     0.212 C 
ATOM     12  O12 <0> d   1      16.025   0.208  11.474  0.00  0.00    -0.644 OA
ATOM     13  O13 <0> d   1      17.201  -1.550  11.346  0.00  0.00    -0.644 OA
ENDBRANCH   6  11
TORSDOF 3
ENDMDL
MODEL 9
REMARK VINA RESULT:      -4.9      1.491      1.723
REMARK  3 active torsions:
REMARK  status: ('A' for Active; 'I' for Inactive)
REMARK    1  A    between atoms: C2_2  and  O4_4 
REMARK    2  A    between atoms: O4_4  and  C5_5 
REMARK    3  A    between atoms: C10_10  and  C11_11 
ROOT
ATOM      1  C5  <0> d   1      19.303   1.009  10.860  0.00  0.00     0.096 A 
ATOM      2  C6  <0> d   1      19.734   0.083   9.923  0.00  0.00     0.038 A 
ATOM      3  C7  <0> d   1      19.690   0.388   8.576  0.00  0.00     0.003 A 
ATOM      4  C8  <0> d   1      19.217   1.619   8.151  0.00  0.00     0.001 A 
ATOM      5  C9  <0> d   1      18.785   2.552   9.068  0.00  0.00     0.021 A 
ATOM      6  C10 <0> d   1      18.818   2.255  10.434  0.00  0.00     0.074 A 
ENDROOT
BRANCH   1   7
ATOM      7  O4  <0> d   1      19.346   0.710  12.183  0.00  0.00    -0.278 OA
BRANCH   7   8
ATOM      8  C2  <0> d   1      18.600  -0.327  12.597  0.00  0.00     0.260 C 
ATOM      9  C1  <0> d   1      17.109  -0.319  12.376  0.00  0.00     0.126 C 
ATOM     10  O3  <0> d   1      19.123  -1.266  13.149  0.00  0.00    -0.265 OA
ENDBRANCH   7   8
ENDBRANCH   1   7
BRANCH   6  11
ATOM     11  C11 <0> d   1      18.358   3.246  11.420  0.00  0.00     0.212 C 
ATOM     12  O12 <0> d   1      19.156   4.026  11.920  0.00  0.00    -0.644 OA
ATOM     13  O13 <0> d   1      17.178   3.289  11.739  0.00  0.00    -0.644 OA
ENDBRANCH   6  11
TORSDOF 3
ENDMDL
