MODEL 1
REMARK VINA RESULT:      -7.8      0.000      0.000
REMARK  2 active torsions:
REMARK  status: ('A' for Active; 'I' for Inactive)
REMARK    1  A    between atoms: O2_2  and  C3_3 
REMARK    2  A    between atoms: C16_16  and  O18_17 
ROOT
ATOM      1  C3  ZIN A   1      18.542  -0.584   6.822  0.00  0.00     0.102 A 
ATOM      2  C4  ZIN A   1      18.931   0.708   6.490  0.00  0.00     0.040 A 
ATOM      3  C5  ZIN A   1      19.024   1.700   7.438  0.00  0.00     0.012 A 
ATOM      4  C6  ZIN A   1      18.709   1.468   8.785  0.00  0.00    -0.022 A 
ATOM      5  C7  ZIN A   1      18.690   2.680   9.669  0.00  0.00     0.273 C 
ATOM      6  N8  ZIN A   1      17.580   2.679  10.599  0.00  0.00    -0.071 N 
ATOM      7  H9  ZIN A   1      16.731   2.505  10.083  0.00  0.00     0.279 HD
ATOM      8  C10 ZIN A   1      17.485   4.011  11.212  0.00  0.00     0.270 C 
ATOM      9  C11 ZIN A   1      17.681   1.706  11.649  0.00  0.00     0.236 C 
ATOM     10  C12 ZIN A   1      17.154   0.345  11.299  0.00  0.00     0.049 C 
ATOM     11  C13 ZIN A   1      18.135  -0.461  10.469  0.00  0.00     0.036 C 
ATOM     12  C14 ZIN A   1      19.441  -0.623  11.171  0.00  0.00    -0.011 C 
ATOM     13  C15 ZIN A   1      19.962  -1.750  11.528  0.00  0.00     0.002 C 
ATOM     14  C16 ZIN A   1      19.321  -3.077  11.275  0.00  0.00     0.143 C 
ATOM     15  C19 ZIN A   1      17.840  -2.942  10.990  0.00  0.00     0.069 C 
ATOM     16  C20 ZIN A   1      17.498  -1.797  10.076  0.00  0.00     0.148 C 
ATOM     17  O22 ZIN A   1      17.943  -2.020   8.733  0.00  0.00    -0.341 OA
ATOM     18  C23 ZIN A   1      18.267  -0.834   8.172  0.00  0.00     0.110 A 
ATOM     19  C24 ZIN A   1      18.370   0.192   9.120  0.00  0.00     0.001 A 
ENDROOT
BRANCH   1  20
ATOM     20  O2  ZIN A   1      18.428  -1.557   5.879  0.00  0.00    -0.353 OA
ATOM     21  C1  ZIN A   1      19.176  -1.384   4.673  0.00  0.00     0.210 C 
ENDBRANCH   1  20
BRANCH  14  22
ATOM     22  O18 ZIN A   1      19.955  -3.695  10.154  0.00  0.00    -0.392 OA
ATOM     23  H41 ZIN A   1      19.511  -3.528   9.311  0.00  0.00     0.210 HD
ENDBRANCH  14  22
TORSDOF 2
ENDMDL
MODEL 2
REMARK VINA RESULT:      -7.6      1.382      4.292
REMARK  2 active torsions:
REMARK  status: ('A' for Active; 'I' for Inactive)
REMARK    1  A    between atoms: O2_2  and  C3_3 
REMARK    2  A    between atoms: C16_16  and  O18_17 
ROOT
ATOM      1  C3  ZIN A   1      18.157  -3.149   9.785  0.00  0.00     0.102 A 
ATOM      2  C4  ZIN A   1      17.608  -2.664  10.966  0.00  0.00     0.040 A 
ATOM      3  C5  ZIN A   1      17.425  -1.318  11.178  0.00  0.00     0.012 A 
ATOM      4  C6  ZIN A   1      17.803  -0.361  10.225  0.00  0.00    -0.022 A 
ATOM      5  C7  ZIN A   1      17.704   1.071  10.663  0.00  0.00     0.273 C 
ATOM      6  N8  ZIN A   1      18.832   1.870  10.232  0.00  0.00    -0.071 N 
ATOM      7  H9  ZIN A   1      19.681   1.393  10.496  0.00  0.00     0.279 HD
ATOM      8  C10 ZIN A   1      18.786   3.159  10.935  0.00  0.00     0.270 C 
ATOM      9  C11 ZIN A   1      18.877   2.127   8.820  0.00  0.00     0.236 C 
ATOM     10  C12 ZIN A   1      19.552   1.062   8.007  0.00  0.00     0.049 C 
ATOM     11  C13 ZIN A   1      18.650  -0.131   7.752  0.00  0.00     0.036 C 
ATOM     12  C14 ZIN A   1      17.393   0.272   7.058  0.00  0.00    -0.011 C 
ATOM     13  C15 ZIN A   1      17.019  -0.137   5.891  0.00  0.00     0.002 C 
ATOM     14  C16 ZIN A   1      17.806  -1.099   5.059  0.00  0.00     0.143 C 
ATOM     15  C19 ZIN A   1      19.252  -1.176   5.503  0.00  0.00     0.069 C 
ATOM     16  C20 ZIN A   1      19.430  -1.211   6.995  0.00  0.00     0.148 C 
ATOM     17  O22 ZIN A   1      18.976  -2.442   7.570  0.00  0.00    -0.341 OA
ATOM     18  C23 ZIN A   1      18.498  -2.202   8.810  0.00  0.00     0.110 A 
ATOM     19  C24 ZIN A   1      18.301  -0.835   9.049  0.00  0.00     0.001 A 
ENDROOT
BRANCH   1  20
ATOM     20  O2  ZIN A   1      18.358  -4.479   9.587  0.00  0.00    -0.353 OA
ATOM     21  C1  ZIN A   1      19.625  -5.010   9.982  0.00  0.00     0.210 C 
ENDBRANCH   1  20
BRANCH  14  22
ATOM     22  O18 ZIN A   1      17.218  -2.396   5.166  0.00  0.00    -0.392 OA
ATOM     23  H41 ZIN A   1      17.821  -3.074   5.500  0.00  0.00     0.210 HD
ENDBRANCH  14  22
TORSDOF 2
ENDMDL
MODEL 3
REMARK VINA RESULT:      -7.6      4.130      7.055
REMARK  2 active torsions:
REMARK  status: ('A' for Active; 'I' for Inactive)
REMARK    1  A    between atoms: O2_2  and  C3_3 
REMARK    2  A    between atoms: C16_16  and  O18_17 
ROOT
ATOM      1  C3  ZIN A   1      18.518   0.586  15.973  0.00  0.00     0.102 A 
ATOM      2  C4  ZIN A   1      18.880  -0.744  16.145  0.00  0.00     0.040 A 
ATOM      3  C5  ZIN A   1      18.956  -1.615  15.083  0.00  0.00     0.012 A 
ATOM      4  C6  ZIN A   1      18.648  -1.214  13.774  0.00  0.00    -0.022 A 
ATOM      5  C7  ZIN A   1      18.607  -2.308  12.749  0.00  0.00     0.273 C 
ATOM      6  N8  ZIN A   1      17.499  -2.172  11.826  0.00  0.00    -0.071 N 
ATOM      7  H9  ZIN A   1      16.652  -2.044  12.360  0.00  0.00     0.279 HD
ATOM      8  C10 ZIN A   1      17.378  -3.416  11.055  0.00  0.00     0.270 C 
ATOM      9  C11 ZIN A   1      17.622  -1.079  10.903  0.00  0.00     0.236 C 
ATOM     10  C12 ZIN A   1      17.121   0.239  11.417  0.00  0.00     0.049 C 
ATOM     11  C13 ZIN A   1      18.116   0.918  12.338  0.00  0.00     0.036 C 
ATOM     12  C14 ZIN A   1      19.427   1.138  11.661  0.00  0.00    -0.011 C 
ATOM     13  C15 ZIN A   1      19.972   2.288  11.444  0.00  0.00     0.002 C 
ATOM     14  C16 ZIN A   1      19.357   3.587  11.856  0.00  0.00     0.143 C 
ATOM     15  C19 ZIN A   1      17.873   3.449  12.124  0.00  0.00     0.069 C 
ATOM     16  C20 ZIN A   1      17.506   2.209  12.891  0.00  0.00     0.148 C 
ATOM     17  O22 ZIN A   1      17.952   2.257  14.252  0.00  0.00    -0.341 OA
ATOM     18  C23 ZIN A   1      18.251   1.006  14.663  0.00  0.00     0.110 A 
ATOM     19  C24 ZIN A   1      18.335   0.101  13.597  0.00  0.00     0.001 A 
ENDROOT
BRANCH   1  20
ATOM     20  O2  ZIN A   1      18.422   1.440  17.028  0.00  0.00    -0.353 OA
ATOM     21  C1  ZIN A   1      19.251   1.169  18.160  0.00  0.00     0.210 C 
ENDBRANCH   1  20
BRANCH  14  22
ATOM     22  O18 ZIN A   1      20.001   4.051  13.044  0.00  0.00    -0.392 OA
ATOM     23  H41 ZIN A   1      20.957   4.166  12.954  0.00  0.00     0.210 HD
ENDBRANCH  14  22
TORSDOF 2
ENDMDL
MODEL 4
REMARK VINA RESULT:      -7.4      2.408      5.165
REMARK  2 active torsions:
REMARK  status: ('A' for Active; 'I' for Inactive)
REMARK    1  A    between atoms: O2_2  and  C3_3 
REMARK    2  A    between atoms: C16_16  and  O18_17 
ROOT
ATOM      1  C3  ZIN A   1      18.874  -3.263  10.072  0.00  0.00     0.102 A 
ATOM      2  C4  ZIN A   1      19.277  -4.182   9.112  0.00  0.00     0.040 A 
ATOM      3  C5  ZIN A   1      19.237  -3.889   7.769  0.00  0.00     0.012 A 
ATOM      4  C6  ZIN A   1      18.764  -2.656   7.295  0.00  0.00    -0.022 A 
ATOM      5  C7  ZIN A   1      18.615  -2.542   5.807  0.00  0.00     0.273 C 
ATOM      6  N8  ZIN A   1      17.400  -1.859   5.414  0.00  0.00    -0.071 N 
ATOM      7  H9  ZIN A   1      16.623  -2.285   5.896  0.00  0.00     0.279 HD
ATOM      8  C10 ZIN A   1      17.207  -2.045   3.969  0.00  0.00     0.270 C 
ATOM      9  C11 ZIN A   1      17.389  -0.451   5.693  0.00  0.00     0.236 C 
ATOM     10  C12 ZIN A   1      16.933  -0.087   7.075  0.00  0.00     0.049 C 
ATOM     11  C13 ZIN A   1      18.022  -0.275   8.114  0.00  0.00     0.036 C 
ATOM     12  C14 ZIN A   1      19.236   0.528   7.786  0.00  0.00    -0.011 C 
ATOM     13  C15 ZIN A   1      19.730   1.468   8.521  0.00  0.00     0.002 C 
ATOM     14  C16 ZIN A   1      19.148   1.887   9.833  0.00  0.00     0.143 C 
ATOM     15  C19 ZIN A   1      17.710   1.434   9.982  0.00  0.00     0.069 C 
ATOM     16  C20 ZIN A   1      17.462   0.030   9.507  0.00  0.00     0.148 C 
ATOM     17  O22 ZIN A   1      18.072  -0.950  10.356  0.00  0.00    -0.341 OA
ATOM     18  C23 ZIN A   1      18.441  -2.014   9.609  0.00  0.00     0.110 A 
ATOM     19  C24 ZIN A   1      18.408  -1.737   8.236  0.00  0.00     0.001 A 
ENDROOT
BRANCH   1  20
ATOM     20  O2  ZIN A   1      18.894  -3.564  11.398  0.00  0.00    -0.353 OA
ATOM     21  C1  ZIN A   1      17.890  -4.462  11.875  0.00  0.00     0.210 C 
ENDBRANCH   1  20
BRANCH  14  22
ATOM     22  O18 ZIN A   1      19.925   1.321  10.889  0.00  0.00    -0.392 OA
ATOM     23  H41 ZIN A   1      20.368   0.495  10.651  0.00  0.00     0.210 HD
ENDBRANCH  14  22
TORSDOF 2
ENDMDL
MODEL 5
REMARK VINA RESULT:      -7.4      1.569      2.050
REMARK  2 active torsions:
REMARK  status: ('A' for Active; 'I' for Inactive)
REMARK    1  A    between atoms: O2_2  and  C3_3 
REMARK    2  A    between atoms: C16_16  and  O18_17 
ROOT
ATOM      1  C3  ZIN A   1      18.927  -0.232   7.971  0.00  0.00     0.102 A 
ATOM      2  C4  ZIN A   1      19.352   1.042   8.327  0.00  0.00     0.040 A 
ATOM      3  C5  ZIN A   1      19.449   1.430   9.643  0.00  0.00     0.012 A 
ATOM      4  C6  ZIN A   1      19.102   0.570  10.695  0.00  0.00    -0.022 A 
ATOM      5  C7  ZIN A   1      19.093   1.183  12.064  0.00  0.00     0.273 C 
ATOM      6  N8  ZIN A   1      17.966   0.754  12.865  0.00  0.00    -0.071 N 
ATOM      7  H9  ZIN A   1      17.122   0.884  12.326  0.00  0.00     0.279 HD
ATOM      8  C10 ZIN A   1      17.889   1.609  14.058  0.00  0.00     0.270 C 
ATOM      9  C11 ZIN A   1      18.023  -0.614  13.293  0.00  0.00     0.236 C 
ATOM     10  C12 ZIN A   1      17.472  -1.606  12.311  0.00  0.00     0.049 C 
ATOM     11  C13 ZIN A   1      18.450  -1.923  11.196  0.00  0.00     0.036 C 
ATOM     12  C14 ZIN A   1      19.739  -2.450  11.732  0.00  0.00    -0.011 C 
ATOM     13  C15 ZIN A   1      20.227  -3.620  11.486  0.00  0.00     0.002 C 
ATOM     14  C16 ZIN A   1      19.561  -4.628  10.605  0.00  0.00     0.143 C 
ATOM     15  C19 ZIN A   1      18.088  -4.325  10.415  0.00  0.00     0.069 C 
ATOM     16  C20 ZIN A   1      17.791  -2.869  10.188  0.00  0.00     0.148 C 
ATOM     17  O22 ZIN A   1      18.257  -2.409   8.914  0.00  0.00    -0.341 OA
ATOM     18  C23 ZIN A   1      18.620  -1.111   9.018  0.00  0.00     0.110 A 
ATOM     19  C24 ZIN A   1      18.727  -0.694  10.351  0.00  0.00     0.001 A 
ENDROOT
BRANCH   1  20
ATOM     20  O2  ZIN A   1      18.809  -0.605   6.669  0.00  0.00    -0.353 OA
ATOM     21  C1  ZIN A   1      17.724  -0.045   5.928  0.00  0.00     0.210 C 
ENDBRANCH   1  20
BRANCH  14  22
ATOM     22  O18 ZIN A   1      20.202  -4.627   9.328  0.00  0.00    -0.392 OA
ATOM     23  H41 ZIN A   1      19.857  -5.289   8.714  0.00  0.00     0.210 HD
ENDBRANCH  14  22
TORSDOF 2
ENDMDL
MODEL 6
REMARK VINA RESULT:      -7.3      3.995      6.225
REMARK  2 active torsions:
REMARK  status: ('A' for Active; 'I' for Inactive)
REMARK    1  A    between atoms: O2_2  and  C3_3 
REMARK    2  A    between atoms: C16_16  and  O18_17 
ROOT
ATOM      1  C3  ZIN A   1      17.291   4.713  13.533  0.00  0.00     0.102 A 
ATOM      2  C4  ZIN A   1      16.824   5.116  12.289  0.00  0.00     0.040 A 
ATOM      3  C5  ZIN A   1      17.026   4.356  11.160  0.00  0.00     0.012 A 
ATOM      4  C6  ZIN A   1      17.736   3.147  11.200  0.00  0.00    -0.022 A 
ATOM      5  C7  ZIN A   1      18.027   2.516   9.871  0.00  0.00     0.273 C 
ATOM      6  N8  ZIN A   1      19.368   1.974   9.787  0.00  0.00    -0.071 N 
ATOM      7  H9  ZIN A   1      20.020   2.686  10.083  0.00  0.00     0.279 HD
ATOM      8  C10 ZIN A   1      19.650   1.641   8.385  0.00  0.00     0.270 C 
ATOM      9  C11 ZIN A   1      19.588   0.800  10.583  0.00  0.00     0.236 C 
ATOM     10  C12 ZIN A   1      19.979   1.069  12.007  0.00  0.00     0.049 C 
ATOM     11  C13 ZIN A   1      18.790   1.425  12.878  0.00  0.00     0.036 C 
ATOM     12  C14 ZIN A   1      17.759   0.347  12.863  0.00  0.00    -0.011 C 
ATOM     13  C15 ZIN A   1      17.367  -0.326  13.893  0.00  0.00     0.002 C 
ATOM     14  C16 ZIN A   1      17.896  -0.110  15.274  0.00  0.00     0.143 C 
ATOM     15  C19 ZIN A   1      19.221   0.624  15.262  0.00  0.00     0.069 C 
ATOM     16  C20 ZIN A   1      19.272   1.770  14.290  0.00  0.00     0.148 C 
ATOM     17  O22 ZIN A   1      18.439   2.864  14.691  0.00  0.00    -0.341 OA
ATOM     18  C23 ZIN A   1      17.963   3.484  13.589  0.00  0.00     0.110 A 
ATOM     19  C24 ZIN A   1      18.157   2.728  12.427  0.00  0.00     0.001 A 
ENDROOT
BRANCH   1  20
ATOM     20  O2  ZIN A   1      17.109   5.476  14.643  0.00  0.00    -0.353 OA
ATOM     21  C1  ZIN A   1      15.787   5.961  14.889  0.00  0.00     0.210 C 
ENDBRANCH   1  20
BRANCH  14  22
ATOM     22  O18 ZIN A   1      16.949   0.654  16.022  0.00  0.00    -0.392 OA
ATOM     23  H41 ZIN A   1      17.276   1.521  16.300  0.00  0.00     0.210 HD
ENDBRANCH  14  22
TORSDOF 2
ENDMDL
MODEL 7
REMARK VINA RESULT:      -7.3      3.110      5.196
REMARK  2 active torsions:
REMARK  status: ('A' for Active; 'I' for Inactive)
REMARK    1  A    between atoms: O2_2  and  C3_3 
REMARK    2  A    between atoms: C16_16  and  O18_17 
ROOT
ATOM      1  C3  ZIN A   1      17.464   3.347  12.079  0.00  0.00     0.102 A 
ATOM      2  C4  ZIN A   1      17.749   3.879  13.330  0.00  0.00     0.040 A 
ATOM      3  C5  ZIN A   1      18.319   3.120  14.325  0.00  0.00     0.012 A 
ATOM      4  C6  ZIN A   1      18.621   1.762  14.139  0.00  0.00    -0.022 A 
ATOM      5  C7  ZIN A   1      19.077   1.021  15.361  0.00  0.00     0.273 C 
ATOM      6  N8  ZIN A   1      18.498  -0.303  15.463  0.00  0.00    -0.071 N 
ATOM      7  H9  ZIN A   1      17.498  -0.225  15.350  0.00  0.00     0.279 HD
ATOM      8  C10 ZIN A   1      18.773  -0.829  16.807  0.00  0.00     0.270 C 
ATOM      9  C11 ZIN A   1      18.990  -1.246  14.500  0.00  0.00     0.236 C 
ATOM     10  C12 ZIN A   1      18.274  -1.232  13.181  0.00  0.00     0.049 C 
ATOM     11  C13 ZIN A   1      18.729  -0.095  12.287  0.00  0.00     0.036 C 
ATOM     12  C14 ZIN A   1      20.197  -0.154  12.030  0.00  0.00    -0.011 C 
ATOM     13  C15 ZIN A   1      20.747  -0.298  10.870  0.00  0.00     0.002 C 
ATOM     14  C16 ZIN A   1      19.975  -0.420   9.596  0.00  0.00     0.143 C 
ATOM     15  C19 ZIN A   1      18.533  -0.812   9.846  0.00  0.00     0.069 C 
ATOM     16  C20 ZIN A   1      17.897  -0.089  11.001  0.00  0.00     0.148 C 
ATOM     17  O22 ZIN A   1      17.683   1.300  10.723  0.00  0.00    -0.341 OA
ATOM     18  C23 ZIN A   1      17.802   2.003  11.871  0.00  0.00     0.110 A 
ATOM     19  C24 ZIN A   1      18.382   1.250  12.899  0.00  0.00     0.001 A 
ENDROOT
BRANCH   1  20
ATOM     20  O2  ZIN A   1      16.879   4.094  11.105  0.00  0.00    -0.353 OA
ATOM     21  C1  ZIN A   1      17.749   4.737  10.170  0.00  0.00     0.210 C 
ENDBRANCH   1  20
BRANCH  14  22
ATOM     22  O18 ZIN A   1      20.002   0.834   8.913  0.00  0.00    -0.392 OA
ATOM     23  H41 ZIN A   1      20.330   1.568   9.451  0.00  0.00     0.210 HD
ENDBRANCH  14  22
TORSDOF 2
ENDMDL
MODEL 8
REMARK VINA RESULT:      -7.3      1.480      4.236
REMARK  2 active torsions:
REMARK  status: ('A' for Active; 'I' for Inactive)
REMARK    1  A    between atoms: O2_2  and  C3_3 
REMARK    2  A    between atoms: C16_16  and  O18_17 
ROOT
ATOM      1  C3  ZIN A   1      19.300  -2.230  11.951  0.00  0.00     0.102 A 
ATOM      2  C4  ZIN A   1      18.747  -1.773  13.140  0.00  0.00     0.040 A 
ATOM      3  C5  ZIN A   1      18.208  -0.513  13.250  0.00  0.00     0.012 A 
ATOM      4  C6  ZIN A   1      18.211   0.389  12.175  0.00  0.00    -0.022 A 
ATOM      5  C7  ZIN A   1      17.749   1.781  12.489  0.00  0.00     0.273 C 
ATOM      6  N8  ZIN A   1      18.559   2.799  11.853  0.00  0.00    -0.071 N 
ATOM      7  H9  ZIN A   1      19.530   2.607  12.054  0.00  0.00     0.279 HD
ATOM      8  C10 ZIN A   1      18.214   4.102  12.436  0.00  0.00     0.270 C 
ATOM      9  C11 ZIN A   1      18.401   2.885  10.429  0.00  0.00     0.236 C 
ATOM     10  C12 ZIN A   1      19.273   1.953   9.640  0.00  0.00     0.049 C 
ATOM     11  C13 ZIN A   1      18.728   0.538   9.606  0.00  0.00     0.036 C 
ATOM     12  C14 ZIN A   1      17.350   0.496   9.037  0.00  0.00    -0.011 C 
ATOM     13  C15 ZIN A   1      17.003  -0.138   7.966  0.00  0.00     0.002 C 
ATOM     14  C16 ZIN A   1      17.951  -0.943   7.136  0.00  0.00     0.143 C 
ATOM     15  C19 ZIN A   1      19.394  -0.569   7.406  0.00  0.00     0.069 C 
ATOM     16  C20 ZIN A   1      19.710  -0.372   8.862  0.00  0.00     0.148 C 
ATOM     17  O22 ZIN A   1      19.679  -1.601   9.598  0.00  0.00    -0.341 OA
ATOM     18  C23 ZIN A   1      19.267  -1.351  10.860  0.00  0.00     0.110 A 
ATOM     19  C24 ZIN A   1      18.713  -0.072  10.995  0.00  0.00     0.001 A 
ENDROOT
BRANCH   1  20
ATOM     20  O2  ZIN A   1      19.852  -3.468  11.852  0.00  0.00    -0.353 OA
ATOM     21  C1  ZIN A   1      18.982  -4.539  11.478  0.00  0.00     0.210 C 
ENDBRANCH   1  20
BRANCH  14  22
ATOM     22  O18 ZIN A   1      17.768  -2.328   7.431  0.00  0.00    -0.392 OA
ATOM     23  H41 ZIN A   1      16.997  -2.514   7.984  0.00  0.00     0.210 HD
ENDBRANCH  14  22
TORSDOF 2
ENDMDL
MODEL 9
REMARK VINA RESULT:      -7.2      5.112      7.212
REMARK  2 active torsions:
REMARK  status: ('A' for Active; 'I' for Inactive)
REMARK    1  A    between atoms: O2_2  and  C3_3 
REMARK    2  A    between atoms: C16_16  and  O18_17 
ROOT
ATOM      1  C3  ZIN A   1      18.279   3.718  14.166  0.00  0.00     0.102 A 
ATOM      2  C4  ZIN A   1      17.831   3.538  12.863  0.00  0.00     0.040 A 
ATOM      3  C5  ZIN A   1      17.688   2.286  12.315  0.00  0.00     0.012 A 
ATOM      4  C6  ZIN A   1      18.011   1.124  13.031  0.00  0.00    -0.022 A 
ATOM      5  C7  ZIN A   1      17.972  -0.157  12.250  0.00  0.00     0.273 C 
ATOM      6  N8  ZIN A   1      19.078  -1.038  12.559  0.00  0.00    -0.071 N 
ATOM      7  H9  ZIN A   1      19.937  -0.512  12.487  0.00  0.00     0.279 HD
ATOM      8  C10 ZIN A   1      19.110  -2.116  11.561  0.00  0.00     0.270 C 
ATOM      9  C11 ZIN A   1      19.021  -1.634  13.864  0.00  0.00     0.236 C 
ATOM     10  C12 ZIN A   1      19.613  -0.801  14.963  0.00  0.00     0.049 C 
ATOM     11  C13 ZIN A   1      18.673   0.293  15.431  0.00  0.00     0.036 C 
ATOM     12  C14 ZIN A   1      17.374  -0.267  15.905  0.00  0.00    -0.011 C 
ATOM     13  C15 ZIN A   1      16.906  -0.156  17.104  0.00  0.00     0.002 C 
ATOM     14  C16 ZIN A   1      17.609   0.572  18.205  0.00  0.00     0.143 C 
ATOM     15  C19 ZIN A   1      19.083   0.755  17.907  0.00  0.00     0.069 C 
ATOM     16  C20 ZIN A   1      19.373   1.155  16.487  0.00  0.00     0.148 C 
ATOM     17  O22 ZIN A   1      18.942   2.490  16.197  0.00  0.00    -0.341 OA
ATOM     18  C23 ZIN A   1      18.563   2.561  14.902  0.00  0.00     0.110 A 
ATOM     19  C24 ZIN A   1      18.410   1.295  14.322  0.00  0.00     0.001 A 
ENDROOT
BRANCH   1  20
ATOM     20  O2  ZIN A   1      18.441   4.959  14.698  0.00  0.00    -0.353 OA
ATOM     21  C1  ZIN A   1      19.715   5.581  14.520  0.00  0.00     0.210 C 
ENDBRANCH   1  20
BRANCH  14  22
ATOM     22  O18 ZIN A   1      17.007   1.857  18.373  0.00  0.00    -0.392 OA
ATOM     23  H41 ZIN A   1      16.685   2.250  17.550  0.00  0.00     0.210 HD
ENDBRANCH  14  22
TORSDOF 2
ENDMDL
