MODEL 1
REMARK VINA RESULT:      -6.8      0.000      0.000
REMARK  8 active torsions:
REMARK  status: ('A' for Active; 'I' for Inactive)
REMARK    1  A    between atoms: C2_2  and  N3_3 
REMARK    2  A    between atoms: N3_3  and  C4_4 
REMARK    3  A    between atoms: N3_3  and  C6_6 
REMARK    4  A    between atoms: C6_6  and  C7_7 
REMARK    5  A    between atoms: C7_7  and  O8_8 
REMARK    6  A    between atoms: O8_8  and  C9_9 
REMARK    7  A    between atoms: C9_9  and  C11_11 
REMARK    8  A    between atoms: C11_11  and  C12_12 
ROOT
ATOM      1  C11 ZIN A   1      18.942   0.198   8.505  0.00  0.00     0.051 C 
ATOM      2  C18 ZIN A   1      17.467   0.108   8.903  0.00  0.00     0.020 C 
ATOM      3  C19 ZIN A   1      17.281   0.698  10.303  0.00  0.00     0.001 C 
ATOM      4  C20 ZIN A   1      17.722   2.163  10.303  0.00  0.00     0.000 C 
ATOM      5  C21 ZIN A   1      19.196   2.251   9.905  0.00  0.00     0.001 C 
ATOM      6  C22 ZIN A   1      19.382   1.662   8.505  0.00  0.00     0.020 C 
ENDROOT
BRANCH   1   7
ATOM      7  C9  ZIN A   1      19.776  -0.578   9.491  0.00  0.00     0.268 C 
ATOM      8  O10 ZIN A   1      20.902  -0.221   9.743  0.00  0.00    -0.264 OA
BRANCH   7   9
ATOM      9  O8  ZIN A   1      19.266  -1.666  10.090  0.00  0.00    -0.319 OA
BRANCH   9  10
ATOM     10  C7  ZIN A   1      19.777  -1.991  11.411  0.00  0.00     0.209 C 
BRANCH  10  11
ATOM     11  C6  ZIN A   1      20.031  -3.497  11.502  0.00  0.00     0.299 C 
BRANCH  11  12
ATOM     12  N3  ZIN A   1      18.996  -4.215  10.746  0.00  0.00     0.089 N 
BRANCH  12  13
ATOM     13  C2  ZIN A   1      19.598  -5.155   9.791  0.00  0.00     0.268 C 
ATOM     14  C1  ZIN A   1      19.387  -4.640   8.365  0.00  0.00     0.037 C 
ENDBRANCH  12  13
BRANCH  12  15
ATOM     15  C4  ZIN A   1      18.067  -4.906  11.649  0.00  0.00     0.268 C 
ATOM     16  C5  ZIN A   1      16.665  -4.908  11.036  0.00  0.00     0.037 C 
ENDBRANCH  12  15
ENDBRANCH  11  12
ENDBRANCH  10  11
ENDBRANCH   9  10
ENDBRANCH   7   9
ENDBRANCH   1   7
BRANCH   1  17
ATOM     17  C12 ZIN A   1      19.128  -0.392   7.105  0.00  0.00     0.004 C 
ATOM     18  C17 ZIN A   1      18.988   0.717   6.061  0.00  0.00     0.006 C 
ATOM     19  C16 ZIN A   1      19.174   0.128   4.661  0.00  0.00     0.000 C 
ATOM     20  C15 ZIN A   1      18.111  -0.945   4.413  0.00  0.00     0.000 C 
ATOM     21  C14 ZIN A   1      18.253  -2.053   5.458  0.00  0.00     0.000 C 
ATOM     22  C13 ZIN A   1      18.065  -1.463   6.857  0.00  0.00     0.006 C 
ENDBRANCH   1  17
TORSDOF 8
ENDMDL
MODEL 2
REMARK VINA RESULT:      -6.8      1.979      3.230
REMARK  8 active torsions:
REMARK  status: ('A' for Active; 'I' for Inactive)
REMARK    1  A    between atoms: C2_2  and  N3_3 
REMARK    2  A    between atoms: N3_3  and  C4_4 
REMARK    3  A    between atoms: N3_3  and  C6_6 
REMARK    4  A    between atoms: C6_6  and  C7_7 
REMARK    5  A    between atoms: C7_7  and  O8_8 
REMARK    6  A    between atoms: O8_8  and  C9_9 
REMARK    7  A    between atoms: C9_9  and  C11_11 
REMARK    8  A    between atoms: C11_11  and  C12_12 
ROOT
ATOM      1  C11 ZIN A   1      18.942   0.241   8.603  0.00  0.00     0.051 C 
ATOM      2  C18 ZIN A   1      17.458   0.163   8.969  0.00  0.00     0.020 C 
ATOM      3  C19 ZIN A   1      17.243   0.777  10.354  0.00  0.00     0.001 C 
ATOM      4  C20 ZIN A   1      17.689   2.241  10.339  0.00  0.00     0.000 C 
ATOM      5  C21 ZIN A   1      19.173   2.316   9.973  0.00  0.00     0.001 C 
ATOM      6  C22 ZIN A   1      19.389   1.703   8.588  0.00  0.00     0.020 C 
ENDROOT
BRANCH   1   7
ATOM      7  C9  ZIN A   1      19.751  -0.522   9.621  0.00  0.00     0.268 C 
ATOM      8  O10 ZIN A   1      20.930  -0.292   9.752  0.00  0.00    -0.264 OA
BRANCH   7   9
ATOM      9  O8  ZIN A   1      19.160  -1.455  10.384  0.00  0.00    -0.319 OA
BRANCH   9  10
ATOM     10  C7  ZIN A   1      19.727  -1.684  11.701  0.00  0.00     0.209 C 
BRANCH  10  11
ATOM     11  C6  ZIN A   1      18.597  -1.818  12.725  0.00  0.00     0.299 C 
BRANCH  11  12
ATOM     12  N3  ZIN A   1      18.772  -0.814  13.782  0.00  0.00     0.089 N 
BRANCH  12  13
ATOM     13  C2  ZIN A   1      19.228  -1.438  15.031  0.00  0.00     0.268 C 
ATOM     14  C1  ZIN A   1      18.138  -1.302  16.097  0.00  0.00     0.037 C 
ENDBRANCH  12  13
BRANCH  12  15
ATOM     15  C4  ZIN A   1      19.697   0.246  13.356  0.00  0.00     0.268 C 
ATOM     16  C5  ZIN A   1      19.114   1.611  13.727  0.00  0.00     0.037 C 
ENDBRANCH  12  15
ENDBRANCH  11  12
ENDBRANCH  10  11
ENDBRANCH   9  10
ENDBRANCH   7   9
ENDBRANCH   1   7
BRANCH   1  17
ATOM     17  C12 ZIN A   1      19.158  -0.374   7.218  0.00  0.00     0.004 C 
ATOM     18  C17 ZIN A   1      18.953   0.698   6.146  0.00  0.00     0.006 C 
ATOM     19  C16 ZIN A   1      19.169   0.084   4.762  0.00  0.00     0.000 C 
ATOM     20  C15 ZIN A   1      18.167  -1.053   4.546  0.00  0.00     0.000 C 
ATOM     21  C14 ZIN A   1      18.374  -2.124   5.617  0.00  0.00     0.000 C 
ATOM     22  C13 ZIN A   1      18.157  -1.509   7.002  0.00  0.00     0.006 C 
ENDBRANCH   1  17
TORSDOF 8
ENDMDL
MODEL 3
REMARK VINA RESULT:      -6.7      3.608      5.359
REMARK  8 active torsions:
REMARK  status: ('A' for Active; 'I' for Inactive)
REMARK    1  A    between atoms: C2_2  and  N3_3 
REMARK    2  A    between atoms: N3_3  and  C4_4 
REMARK    3  A    between atoms: N3_3  and  C6_6 
REMARK    4  A    between atoms: C6_6  and  C7_7 
REMARK    5  A    between atoms: C7_7  and  O8_8 
REMARK    6  A    between atoms: O8_8  and  C9_9 
REMARK    7  A    between atoms: C9_9  and  C11_11 
REMARK    8  A    between atoms: C11_11  and  C12_12 
ROOT
ATOM      1  C11 ZIN A   1      18.123  -0.310  10.578  0.00  0.00     0.051 C 
ATOM      2  C18 ZIN A   1      19.610  -0.336  10.938  0.00  0.00     0.020 C 
ATOM      3  C19 ZIN A   1      19.793  -1.008  12.301  0.00  0.00     0.001 C 
ATOM      4  C20 ZIN A   1      19.258  -2.441  12.238  0.00  0.00     0.000 C 
ATOM      5  C21 ZIN A   1      17.771  -2.414  11.878  0.00  0.00     0.001 C 
ATOM      6  C22 ZIN A   1      17.588  -1.741  10.516  0.00  0.00     0.020 C 
ENDROOT
BRANCH   1   7
ATOM      7  C9  ZIN A   1      17.366   0.464  11.627  0.00  0.00     0.268 C 
ATOM      8  O10 ZIN A   1      16.217   0.183  11.875  0.00  0.00    -0.264 OA
BRANCH   7   9
ATOM      9  O8  ZIN A   1      17.969   1.467  12.285  0.00  0.00    -0.319 OA
BRANCH   9  10
ATOM     10  C7  ZIN A   1      17.656   1.610  13.696  0.00  0.00     0.209 C 
BRANCH  10  11
ATOM     11  C6  ZIN A   1      18.955   1.713  14.498  0.00  0.00     0.299 C 
BRANCH  11  12
ATOM     12  N3  ZIN A   1      18.832   0.927  15.733  0.00  0.00     0.089 N 
BRANCH  12  13
ATOM     13  C2  ZIN A   1      18.631   1.801  16.896  0.00  0.00     0.268 C 
ATOM     14  C1  ZIN A   1      19.281   1.169  18.129  0.00  0.00     0.037 C 
ENDBRANCH  12  13
BRANCH  12  15
ATOM     15  C4  ZIN A   1      17.751  -0.061  15.624  0.00  0.00     0.268 C 
ATOM     16  C5  ZIN A   1      18.331  -1.469  15.770  0.00  0.00     0.037 C 
ENDBRANCH  12  15
ENDBRANCH  11  12
ENDBRANCH  10  11
ENDBRANCH   9  10
ENDBRANCH   7   9
ENDBRANCH   1   7
BRANCH   1  17
ATOM     17  C12 ZIN A   1      17.939   0.364   9.216  0.00  0.00     0.004 C 
ATOM     18  C17 ZIN A   1      17.532  -0.685   8.179  0.00  0.00     0.006 C 
ATOM     19  C16 ZIN A   1      17.349  -0.011   6.818  0.00  0.00     0.000 C 
ATOM     20  C15 ZIN A   1      18.664   0.645   6.391  0.00  0.00     0.000 C 
ATOM     21  C14 ZIN A   1      19.070   1.693   7.429  0.00  0.00     0.000 C 
ATOM     22  C13 ZIN A   1      19.254   1.018   8.791  0.00  0.00     0.006 C 
ENDBRANCH   1  17
TORSDOF 8
ENDMDL
MODEL 4
REMARK VINA RESULT:      -6.7      2.861      5.848
REMARK  8 active torsions:
REMARK  status: ('A' for Active; 'I' for Inactive)
REMARK    1  A    between atoms: C2_2  and  N3_3 
REMARK    2  A    between atoms: N3_3  and  C4_4 
REMARK    3  A    between atoms: N3_3  and  C6_6 
REMARK    4  A    between atoms: C6_6  and  C7_7 
REMARK    5  A    between atoms: C7_7  and  O8_8 
REMARK    6  A    between atoms: O8_8  and  C9_9 
REMARK    7  A    between atoms: C9_9  and  C11_11 
REMARK    8  A    between atoms: C11_11  and  C12_12 
ROOT
ATOM      1  C11 ZIN A   1      18.000  -0.698  10.461  0.00  0.00     0.051 C 
ATOM      2  C18 ZIN A   1      19.471  -0.827  10.861  0.00  0.00     0.020 C 
ATOM      3  C19 ZIN A   1      19.582  -1.681  12.126  0.00  0.00     0.001 C 
ATOM      4  C20 ZIN A   1      19.003  -3.072  11.856  0.00  0.00     0.000 C 
ATOM      5  C21 ZIN A   1      17.532  -2.941  11.456  0.00  0.00     0.001 C 
ATOM      6  C22 ZIN A   1      17.420  -2.087  10.192  0.00  0.00     0.020 C 
ENDROOT
BRANCH   1   7
ATOM      7  C9  ZIN A   1      17.231  -0.042  11.579  0.00  0.00     0.268 C 
ATOM      8  O10 ZIN A   1      16.023  -0.020  11.552  0.00  0.00    -0.264 OA
BRANCH   7   9
ATOM      9  O8  ZIN A   1      17.889   0.518  12.607  0.00  0.00    -0.319 OA
BRANCH   9  10
ATOM     10  C7  ZIN A   1      17.854   1.967  12.700  0.00  0.00     0.209 C 
BRANCH  10  11
ATOM     11  C6  ZIN A   1      19.185   2.541  12.211  0.00  0.00     0.299 C 
BRANCH  11  12
ATOM     12  N3  ZIN A   1      18.972   3.896  11.686  0.00  0.00     0.089 N 
BRANCH  12  13
ATOM     13  C2  ZIN A   1      18.048   3.878  10.543  0.00  0.00     0.268 C 
ATOM     14  C1  ZIN A   1      17.069   5.048  10.660  0.00  0.00     0.037 C 
ENDBRANCH  12  13
BRANCH  12  15
ATOM     15  C4  ZIN A   1      18.489   4.800  12.738  0.00  0.00     0.268 C 
ATOM     16  C5  ZIN A   1      19.663   5.225  13.623  0.00  0.00     0.037 C 
ENDBRANCH  12  15
ENDBRANCH  11  12
ENDBRANCH  10  11
ENDBRANCH   9  10
ENDBRANCH   7   9
ENDBRANCH   1   7
BRANCH   1  17
ATOM     17  C12 ZIN A   1      17.888   0.157   9.196  0.00  0.00     0.004 C 
ATOM     18  C17 ZIN A   1      17.514  -0.734   8.010  0.00  0.00     0.006 C 
ATOM     19  C16 ZIN A   1      17.403   0.120   6.746  0.00  0.00     0.000 C 
ATOM     20  C15 ZIN A   1      18.745   0.801   6.470  0.00  0.00     0.000 C 
ATOM     21  C14 ZIN A   1      19.118   1.691   7.657  0.00  0.00     0.000 C 
ATOM     22  C13 ZIN A   1      19.230   0.836   8.921  0.00  0.00     0.006 C 
ENDBRANCH   1  17
TORSDOF 8
ENDMDL
MODEL 5
REMARK VINA RESULT:      -6.6      3.306      6.537
REMARK  8 active torsions:
REMARK  status: ('A' for Active; 'I' for Inactive)
REMARK    1  A    between atoms: C2_2  and  N3_3 
REMARK    2  A    between atoms: N3_3  and  C4_4 
REMARK    3  A    between atoms: N3_3  and  C6_6 
REMARK    4  A    between atoms: C6_6  and  C7_7 
REMARK    5  A    between atoms: C7_7  and  O8_8 
REMARK    6  A    between atoms: O8_8  and  C9_9 
REMARK    7  A    between atoms: C9_9  and  C11_11 
REMARK    8  A    between atoms: C11_11  and  C12_12 
ROOT
ATOM      1  C11 ZIN A   1      18.286  -0.033  13.087  0.00  0.00     0.051 C 
ATOM      2  C18 ZIN A   1      19.796   0.073  12.864  0.00  0.00     0.020 C 
ATOM      3  C19 ZIN A   1      20.066   0.653  11.473  0.00  0.00     0.001 C 
ATOM      4  C20 ZIN A   1      19.435   2.044  11.370  0.00  0.00     0.000 C 
ATOM      5  C21 ZIN A   1      17.926   1.936  11.593  0.00  0.00     0.001 C 
ATOM      6  C22 ZIN A   1      17.656   1.356  12.983  0.00  0.00     0.020 C 
ENDROOT
BRANCH   1   7
ATOM      7  C9  ZIN A   1      17.686  -0.937  12.041  0.00  0.00     0.268 C 
ATOM      8  O10 ZIN A   1      16.535  -0.791  11.703  0.00  0.00    -0.264 OA
BRANCH   7   9
ATOM      9  O8  ZIN A   1      18.432  -1.904  11.482  0.00  0.00    -0.319 OA
BRANCH   9  10
ATOM     10  C7  ZIN A   1      17.944  -2.476  10.240  0.00  0.00     0.209 C 
BRANCH  10  11
ATOM     11  C6  ZIN A   1      18.764  -1.928   9.070  0.00  0.00     0.299 C 
BRANCH  11  12
ATOM     12  N3  ZIN A   1      17.862  -1.341   8.071  0.00  0.00     0.089 N 
BRANCH  12  13
ATOM     13  C2  ZIN A   1      17.596   0.073   8.367  0.00  0.00     0.268 C 
ATOM     14  C1  ZIN A   1      18.768   0.926   7.877  0.00  0.00     0.037 C 
ENDBRANCH  12  13
BRANCH  12  15
ATOM     15  C4  ZIN A   1      18.401  -1.502   6.714  0.00  0.00     0.268 C 
ATOM     16  C5  ZIN A   1      19.453  -2.613   6.713  0.00  0.00     0.037 C 
ENDBRANCH  12  15
ENDBRANCH  11  12
ENDBRANCH  10  11
ENDBRANCH   9  10
ENDBRANCH   7   9
ENDBRANCH   1   7
BRANCH   1  17
ATOM     17  C12 ZIN A   1      18.016  -0.614  14.477  0.00  0.00     0.004 C 
ATOM     18  C17 ZIN A   1      17.423   0.471  15.378  0.00  0.00     0.006 C 
ATOM     19  C16 ZIN A   1      17.153  -0.110  16.767  0.00  0.00     0.000 C 
ATOM     20  C15 ZIN A   1      18.465  -0.616  17.372  0.00  0.00     0.000 C 
ATOM     21  C14 ZIN A   1      19.056  -1.701  16.471  0.00  0.00     0.000 C 
ATOM     22  C13 ZIN A   1      19.327  -1.119  15.081  0.00  0.00     0.006 C 
ENDBRANCH   1  17
TORSDOF 8
ENDMDL
MODEL 6
REMARK VINA RESULT:      -6.6      1.350      4.237
REMARK  8 active torsions:
REMARK  status: ('A' for Active; 'I' for Inactive)
REMARK    1  A    between atoms: C2_2  and  N3_3 
REMARK    2  A    between atoms: N3_3  and  C4_4 
REMARK    3  A    between atoms: N3_3  and  C6_6 
REMARK    4  A    between atoms: C6_6  and  C7_7 
REMARK    5  A    between atoms: C7_7  and  O8_8 
REMARK    6  A    between atoms: O8_8  and  C9_9 
REMARK    7  A    between atoms: C9_9  and  C11_11 
REMARK    8  A    between atoms: C11_11  and  C12_12 
ROOT
ATOM      1  C11 ZIN A   1      18.582  -0.424   7.003  0.00  0.00     0.051 C 
ATOM      2  C18 ZIN A   1      19.545   0.273   6.039  0.00  0.00     0.020 C 
ATOM      3  C19 ZIN A   1      19.455  -0.389   4.662  0.00  0.00     0.001 C 
ATOM      4  C20 ZIN A   1      18.025  -0.269   4.130  0.00  0.00     0.000 C 
ATOM      5  C21 ZIN A   1      17.064  -0.966   5.095  0.00  0.00     0.001 C 
ATOM      6  C22 ZIN A   1      17.153  -0.305   6.471  0.00  0.00     0.020 C 
ENDROOT
BRANCH   1   7
ATOM      7  C9  ZIN A   1      18.955  -1.879   7.120  0.00  0.00     0.268 C 
ATOM      8  O10 ZIN A   1      20.012  -2.270   6.683  0.00  0.00    -0.264 OA
BRANCH   7   9
ATOM      9  O8  ZIN A   1      18.113  -2.742   7.710  0.00  0.00    -0.319 OA
BRANCH   9  10
ATOM     10  C7  ZIN A   1      18.658  -4.029   8.106  0.00  0.00     0.209 C 
BRANCH  10  11
ATOM     11  C6  ZIN A   1      18.863  -4.051   9.622  0.00  0.00     0.299 C 
BRANCH  11  12
ATOM     12  N3  ZIN A   1      17.625  -3.628  10.290  0.00  0.00     0.089 N 
BRANCH  12  13
ATOM     13  C2  ZIN A   1      16.831  -4.790  10.712  0.00  0.00     0.268 C 
ATOM     14  C1  ZIN A   1      17.407  -5.358  12.011  0.00  0.00     0.037 C 
ENDBRANCH  12  13
BRANCH  12  15
ATOM     15  C4  ZIN A   1      17.915  -2.747  11.429  0.00  0.00     0.268 C 
ATOM     16  C5  ZIN A   1      19.346  -2.218  11.313  0.00  0.00     0.037 C 
ENDBRANCH  12  15
ENDBRANCH  11  12
ENDBRANCH  10  11
ENDBRANCH   9  10
ENDBRANCH   7   9
ENDBRANCH   1   7
BRANCH   1  17
ATOM     17  C12 ZIN A   1      18.672   0.238   8.380  0.00  0.00     0.004 C 
ATOM     18  C17 ZIN A   1      17.304   0.182   9.063  0.00  0.00     0.006 C 
ATOM     19  C16 ZIN A   1      17.394   0.844  10.440  0.00  0.00     0.000 C 
ATOM     20  C15 ZIN A   1      17.826   2.303  10.278  0.00  0.00     0.000 C 
ATOM     21  C14 ZIN A   1      19.194   2.357   9.595  0.00  0.00     0.000 C 
ATOM     22  C13 ZIN A   1      19.103   1.696   8.217  0.00  0.00     0.006 C 
ENDBRANCH   1  17
TORSDOF 8
ENDMDL
MODEL 7
REMARK VINA RESULT:      -6.6      3.251      4.491
REMARK  8 active torsions:
REMARK  status: ('A' for Active; 'I' for Inactive)
REMARK    1  A    between atoms: C2_2  and  N3_3 
REMARK    2  A    between atoms: N3_3  and  C4_4 
REMARK    3  A    between atoms: N3_3  and  C6_6 
REMARK    4  A    between atoms: C6_6  and  C7_7 
REMARK    5  A    between atoms: C7_7  and  O8_8 
REMARK    6  A    between atoms: O8_8  and  C9_9 
REMARK    7  A    between atoms: C9_9  and  C11_11 
REMARK    8  A    between atoms: C11_11  and  C12_12 
ROOT
ATOM      1  C11 ZIN A   1      18.581   1.860  10.494  0.00  0.00     0.051 C 
ATOM      2  C18 ZIN A   1      17.598   3.010  10.262  0.00  0.00     0.020 C 
ATOM      3  C19 ZIN A   1      17.470   3.836  11.544  0.00  0.00     0.001 C 
ATOM      4  C20 ZIN A   1      18.840   4.403  11.925  0.00  0.00     0.000 C 
ATOM      5  C21 ZIN A   1      19.820   3.252  12.156  0.00  0.00     0.001 C 
ATOM      6  C22 ZIN A   1      19.949   2.426  10.875  0.00  0.00     0.020 C 
ENDROOT
BRANCH   1   7
ATOM      7  C9  ZIN A   1      18.072   0.982  11.609  0.00  0.00     0.268 C 
ATOM      8  O10 ZIN A   1      16.954   1.140  12.040  0.00  0.00    -0.264 OA
BRANCH   7   9
ATOM      9  O8  ZIN A   1      18.860   0.024  12.122  0.00  0.00    -0.319 OA
BRANCH   9  10
ATOM     10  C7  ZIN A   1      18.355  -0.695  13.278  0.00  0.00     0.209 C 
BRANCH  10  11
ATOM     11  C6  ZIN A   1      19.488  -0.901  14.285  0.00  0.00     0.299 C 
BRANCH  11  12
ATOM     12  N3  ZIN A   1      19.099  -0.336  15.584  0.00  0.00     0.089 N 
BRANCH  12  13
ATOM     13  C2  ZIN A   1      18.237   0.841  15.409  0.00  0.00     0.268 C 
ATOM     14  C1  ZIN A   1      19.061   2.113  15.621  0.00  0.00     0.037 C 
ENDBRANCH  12  13
BRANCH  12  15
ATOM     15  C4  ZIN A   1      18.444  -1.348  16.423  0.00  0.00     0.268 C 
ATOM     16  C5  ZIN A   1      17.065  -0.842  16.850  0.00  0.00     0.037 C 
ENDBRANCH  12  15
ENDBRANCH  11  12
ENDBRANCH  10  11
ENDBRANCH   9  10
ENDBRANCH   7   9
ENDBRANCH   1   7
BRANCH   1  17
ATOM     17  C12 ZIN A   1      18.709   1.032   9.213  0.00  0.00     0.004 C 
ATOM     18  C17 ZIN A   1      19.007   1.960   8.034  0.00  0.00     0.006 C 
ATOM     19  C16 ZIN A   1      19.134   1.133   6.753  0.00  0.00     0.000 C 
ATOM     20  C15 ZIN A   1      17.825   0.385   6.496  0.00  0.00     0.000 C 
ATOM     21  C14 ZIN A   1      17.528  -0.542   7.675  0.00  0.00     0.000 C 
ATOM     22  C13 ZIN A   1      17.399   0.285   8.956  0.00  0.00     0.006 C 
ENDBRANCH   1  17
TORSDOF 8
ENDMDL
MODEL 8
REMARK VINA RESULT:      -6.5      3.118      6.184
REMARK  8 active torsions:
REMARK  status: ('A' for Active; 'I' for Inactive)
REMARK    1  A    between atoms: C2_2  and  N3_3 
REMARK    2  A    between atoms: N3_3  and  C4_4 
REMARK    3  A    between atoms: N3_3  and  C6_6 
REMARK    4  A    between atoms: C6_6  and  C7_7 
REMARK    5  A    between atoms: C7_7  and  O8_8 
REMARK    6  A    between atoms: O8_8  and  C9_9 
REMARK    7  A    between atoms: C9_9  and  C11_11 
REMARK    8  A    between atoms: C11_11  and  C12_12 
ROOT
ATOM      1  C11 ZIN A   1      18.286  -0.588  13.054  0.00  0.00     0.051 C 
ATOM      2  C18 ZIN A   1      19.572   0.231  12.927  0.00  0.00     0.020 C 
ATOM      3  C19 ZIN A   1      19.811   0.580  11.456  0.00  0.00     0.001 C 
ATOM      4  C20 ZIN A   1      18.631   1.398  10.928  0.00  0.00     0.000 C 
ATOM      5  C21 ZIN A   1      17.345   0.579  11.055  0.00  0.00     0.001 C 
ATOM      6  C22 ZIN A   1      17.107   0.230  12.526  0.00  0.00     0.020 C 
ENDROOT
BRANCH   1   7
ATOM      7  C9  ZIN A   1      18.417  -1.857  12.251  0.00  0.00     0.268 C 
ATOM      8  O10 ZIN A   1      19.508  -2.340  12.058  0.00  0.00    -0.264 OA
BRANCH   7   9
ATOM      9  O8  ZIN A   1      17.322  -2.451  11.752  0.00  0.00    -0.319 OA
BRANCH   9  10
ATOM     10  C7  ZIN A   1      17.427  -3.864  11.432  0.00  0.00     0.209 C 
BRANCH  10  11
ATOM     11  C6  ZIN A   1      17.184  -4.067   9.936  0.00  0.00     0.299 C 
BRANCH  11  12
ATOM     12  N3  ZIN A   1      18.369  -3.635   9.183  0.00  0.00     0.089 N 
BRANCH  12  13
ATOM     13  C2  ZIN A   1      18.869  -4.714   8.323  0.00  0.00     0.268 C 
ATOM     14  C1  ZIN A   1      19.767  -5.645   9.141  0.00  0.00     0.037 C 
ENDBRANCH  12  13
BRANCH  12  15
ATOM     15  C4  ZIN A   1      18.083  -2.426   8.399  0.00  0.00     0.268 C 
ATOM     16  C5  ZIN A   1      19.289  -1.486   8.452  0.00  0.00     0.037 C 
ENDBRANCH  12  15
ENDBRANCH  11  12
ENDBRANCH  10  11
ENDBRANCH   9  10
ENDBRANCH   7   9
ENDBRANCH   1   7
BRANCH   1  17
ATOM     17  C12 ZIN A   1      18.047  -0.938  14.525  0.00  0.00     0.004 C 
ATOM     18  C17 ZIN A   1      17.407   0.255  15.236  0.00  0.00     0.006 C 
ATOM     19  C16 ZIN A   1      17.169  -0.094  16.706  0.00  0.00     0.000 C 
ATOM     20  C15 ZIN A   1      18.504  -0.431  17.374  0.00  0.00     0.000 C 
ATOM     21  C14 ZIN A   1      19.143  -1.624  16.662  0.00  0.00     0.000 C 
ATOM     22  C13 ZIN A   1      19.382  -1.273  15.191  0.00  0.00     0.006 C 
ENDBRANCH   1  17
TORSDOF 8
ENDMDL
MODEL 9
REMARK VINA RESULT:      -6.5      2.058      5.107
REMARK  8 active torsions:
REMARK  status: ('A' for Active; 'I' for Inactive)
REMARK    1  A    between atoms: C2_2  and  N3_3 
REMARK    2  A    between atoms: N3_3  and  C4_4 
REMARK    3  A    between atoms: N3_3  and  C6_6 
REMARK    4  A    between atoms: C6_6  and  C7_7 
REMARK    5  A    between atoms: C7_7  and  O8_8 
REMARK    6  A    between atoms: O8_8  and  C9_9 
REMARK    7  A    between atoms: C9_9  and  C11_11 
REMARK    8  A    between atoms: C11_11  and  C12_12 
ROOT
ATOM      1  C11 ZIN A   1      18.756  -1.552  11.783  0.00  0.00     0.051 C 
ATOM      2  C18 ZIN A   1      19.467  -1.987  13.067  0.00  0.00     0.020 C 
ATOM      3  C19 ZIN A   1      19.538  -0.804  14.035  0.00  0.00     0.001 C 
ATOM      4  C20 ZIN A   1      18.121  -0.334  14.371  0.00  0.00     0.000 C 
ATOM      5  C21 ZIN A   1      17.412   0.101  13.087  0.00  0.00     0.001 C 
ATOM      6  C22 ZIN A   1      17.341  -1.082  12.119  0.00  0.00     0.020 C 
ENDROOT
BRANCH   1   7
ATOM      7  C9  ZIN A   1      19.523  -0.424  11.143  0.00  0.00     0.268 C 
ATOM      8  O10 ZIN A   1      20.731  -0.430  11.156  0.00  0.00    -0.264 OA
BRANCH   7   9
ATOM      9  O8  ZIN A   1      18.863   0.587  10.556  0.00  0.00    -0.319 OA
BRANCH   9  10
ATOM     10  C7  ZIN A   1      18.906   0.648   9.106  0.00  0.00     0.209 C 
BRANCH  10  11
ATOM     11  C6  ZIN A   1      17.613   0.063   8.533  0.00  0.00     0.299 C 
BRANCH  11  12
ATOM     12  N3  ZIN A   1      17.911  -0.659   7.289  0.00  0.00     0.089 N 
BRANCH  12  13
ATOM     13  C2  ZIN A   1      17.746   0.214   6.120  0.00  0.00     0.268 C 
ATOM     14  C1  ZIN A   1      19.070   0.299   5.356  0.00  0.00     0.037 C 
ENDBRANCH  12  13
BRANCH  12  15
ATOM     15  C4  ZIN A   1      19.260  -1.240   7.327  0.00  0.00     0.268 C 
ATOM     16  C5  ZIN A   1      19.163  -2.763   7.221  0.00  0.00     0.037 C 
ENDBRANCH  12  15
ENDBRANCH  11  12
ENDBRANCH  10  11
ENDBRANCH   9  10
ENDBRANCH   7   9
ENDBRANCH   1   7
BRANCH   1  17
ATOM     17  C12 ZIN A   1      18.686  -2.735  10.814  0.00  0.00     0.004 C 
ATOM     18  C17 ZIN A   1      17.309  -3.395  10.914  0.00  0.00     0.006 C 
ATOM     19  C16 ZIN A   1      17.239  -4.578   9.946  0.00  0.00     0.000 C 
ATOM     20  C15 ZIN A   1      18.322  -5.597  10.305  0.00  0.00     0.000 C 
ATOM     21  C14 ZIN A   1      19.698  -4.936  10.204  0.00  0.00     0.000 C 
ATOM     22  C13 ZIN A   1      19.768  -3.754  11.174  0.00  0.00     0.006 C 
ENDBRANCH   1  17
TORSDOF 8
ENDMDL
