MODEL 1
REMARK VINA RESULT:      -5.6      0.000      0.000
REMARK  3 active torsions:
REMARK  status: ('A' for Active; 'I' for Inactive)
REMARK    1  A    between atoms: N2_2  and  C4_4 
REMARK    2  A    between atoms: C6_6  and  N7_7 
REMARK    3  A    between atoms: C12_12  and  N13_13 
ROOT
ATOM      1  C4  ZIN A   1      19.252   2.357  16.338  0.00  0.00     0.107 A 
ATOM      2  C5  ZIN A   1      19.639   3.656  16.613  0.00  0.00     0.075 A 
ATOM      3  C6  ZIN A   1      19.624   4.609  15.613  0.00  0.00     0.144 A 
ATOM      4  C10 ZIN A   1      19.217   4.263  14.332  0.00  0.00     0.173 A 
ATOM      5  O11 ZIN A   1      19.201   5.198  13.347  0.00  0.00    -0.187 OA
ATOM      6  C12 ZIN A   1      18.829   2.959  14.060  0.00  0.00     0.144 A 
ATOM      7  C16 ZIN A   1      18.852   2.009  15.061  0.00  0.00     0.075 A 
ENDROOT
BRANCH   1   8
ATOM      8  N2  ZIN A   1      19.271   1.338  17.412  0.00  0.00    -0.116 N 
ATOM      9  O1  ZIN A   1      18.802   0.232  17.209  0.00  0.00    -0.532 OA
ATOM     10  O3  ZIN A   1      19.761   1.602  18.494  0.00  0.00    -0.532 OA
ENDBRANCH   1   8
BRANCH   6  11
ATOM     11  N13 ZIN A   1      18.396   2.585  12.694  0.00  0.00    -0.113 N 
ATOM     12  O14 ZIN A   1      19.199   2.121  11.906  0.00  0.00    -0.532 OA
ATOM     13  O15 ZIN A   1      17.234   2.742  12.360  0.00  0.00    -0.532 OA
ENDBRANCH   6  11
BRANCH   3  14
ATOM     14  N7  ZIN A   1      20.039   5.999  15.908  0.00  0.00    -0.113 N 
ATOM     15  O8  ZIN A   1      21.195   6.339  15.735  0.00  0.00    -0.532 OA
ATOM     16  O9  ZIN A   1      19.223   6.803  16.323  0.00  0.00    -0.532 OA
ENDBRANCH   3  14
TORSDOF 3
ENDMDL
MODEL 2
REMARK VINA RESULT:      -5.5      7.970     10.591
REMARK  3 active torsions:
REMARK  status: ('A' for Active; 'I' for Inactive)
REMARK    1  A    between atoms: N2_2  and  C4_4 
REMARK    2  A    between atoms: C6_6  and  N7_7 
REMARK    3  A    between atoms: C12_12  and  N13_13 
ROOT
ATOM      1  C4  ZIN A   1      19.241  -1.826   6.653  0.00  0.00     0.107 A 
ATOM      2  C5  ZIN A   1      18.909  -1.428   7.935  0.00  0.00     0.075 A 
ATOM      3  C6  ZIN A   1      18.919  -2.345   8.969  0.00  0.00     0.144 A 
ATOM      4  C10 ZIN A   1      19.263  -3.666   8.720  0.00  0.00     0.173 A 
ATOM      5  O11 ZIN A   1      19.274  -4.569   9.735  0.00  0.00    -0.187 OA
ATOM      6  C12 ZIN A   1      19.596  -4.062   7.433  0.00  0.00     0.144 A 
ATOM      7  C16 ZIN A   1      19.579  -3.144   6.402  0.00  0.00     0.075 A 
ENDROOT
BRANCH   1   8
ATOM      8  N2  ZIN A   1      19.228  -0.842   5.547  0.00  0.00    -0.116 N 
ATOM      9  O1  ZIN A   1      18.534   0.155   5.629  0.00  0.00    -0.532 OA
ATOM     10  O3  ZIN A   1      19.916  -1.027   4.560  0.00  0.00    -0.532 OA
ENDBRANCH   1   8
BRANCH   6  11
ATOM     11  N13 ZIN A   1      19.962  -5.471   7.163  0.00  0.00    -0.113 N 
ATOM     12  O14 ZIN A   1      19.122  -6.253   6.758  0.00  0.00    -0.532 OA
ATOM     13  O15 ZIN A   1      21.107  -5.848   7.346  0.00  0.00    -0.532 OA
ENDBRANCH   6  11
BRANCH   3  14
ATOM     14  N7  ZIN A   1      18.564  -1.918  10.341  0.00  0.00    -0.113 N 
ATOM     15  O8  ZIN A   1      17.416  -2.023  10.734  0.00  0.00    -0.532 OA
ATOM     16  O9  ZIN A   1      19.419  -1.461  11.077  0.00  0.00    -0.532 OA
ENDBRANCH   3  14
TORSDOF 3
ENDMDL
MODEL 3
REMARK VINA RESULT:      -5.5      7.939     11.041
REMARK  3 active torsions:
REMARK  status: ('A' for Active; 'I' for Inactive)
REMARK    1  A    between atoms: N2_2  and  C4_4 
REMARK    2  A    between atoms: C6_6  and  N7_7 
REMARK    3  A    between atoms: C12_12  and  N13_13 
ROOT
ATOM      1  C4  ZIN A   1      19.232  -1.806   6.710  0.00  0.00     0.107 A 
ATOM      2  C5  ZIN A   1      19.580  -3.118   6.443  0.00  0.00     0.075 A 
ATOM      3  C6  ZIN A   1      19.591  -4.052   7.461  0.00  0.00     0.144 A 
ATOM      4  C10 ZIN A   1      19.249  -3.674   8.752  0.00  0.00     0.173 A 
ATOM      5  O11 ZIN A   1      19.258  -4.590   9.755  0.00  0.00    -0.187 OA
ATOM      6  C12 ZIN A   1      18.900  -2.357   9.016  0.00  0.00     0.144 A 
ATOM      7  C16 ZIN A   1      18.897  -1.426   7.997  0.00  0.00     0.075 A 
ENDROOT
BRANCH   1   8
ATOM      8  N2  ZIN A   1      19.223  -0.808   5.617  0.00  0.00    -0.116 N 
ATOM      9  O1  ZIN A   1      19.926  -0.973   4.636  0.00  0.00    -0.532 OA
ATOM     10  O3  ZIN A   1      18.510   0.176   5.696  0.00  0.00    -0.532 OA
ENDBRANCH   1   8
BRANCH   6  11
ATOM     11  N13 ZIN A   1      18.537  -1.950  10.392  0.00  0.00    -0.113 N 
ATOM     12  O14 ZIN A   1      19.380  -1.471  11.128  0.00  0.00    -0.532 OA
ATOM     13  O15 ZIN A   1      17.393  -2.093  10.787  0.00  0.00    -0.532 OA
ENDBRANCH   6  11
BRANCH   3  14
ATOM     14  N7  ZIN A   1      19.963  -5.456   7.175  0.00  0.00    -0.113 N 
ATOM     15  O8  ZIN A   1      19.124  -6.237   6.765  0.00  0.00    -0.532 OA
ATOM     16  O9  ZIN A   1      21.110  -5.829   7.348  0.00  0.00    -0.532 OA
ENDBRANCH   3  14
TORSDOF 3
ENDMDL
MODEL 4
REMARK VINA RESULT:      -5.4      6.838      9.407
REMARK  3 active torsions:
REMARK  status: ('A' for Active; 'I' for Inactive)
REMARK    1  A    between atoms: N2_2  and  C4_4 
REMARK    2  A    between atoms: C6_6  and  N7_7 
REMARK    3  A    between atoms: C12_12  and  N13_13 
ROOT
ATOM      1  C4  ZIN A   1      18.312   0.422   8.709  0.00  0.00     0.107 A 
ATOM      2  C5  ZIN A   1      18.251  -0.787   9.377  0.00  0.00     0.075 A 
ATOM      3  C6  ZIN A   1      18.395  -1.972   8.681  0.00  0.00     0.144 A 
ATOM      4  C10 ZIN A   1      18.603  -1.948   7.309  0.00  0.00     0.173 A 
ATOM      5  O11 ZIN A   1      18.745  -3.111   6.621  0.00  0.00    -0.187 OA
ATOM      6  C12 ZIN A   1      18.664  -0.733   6.641  0.00  0.00     0.144 A 
ATOM      7  C16 ZIN A   1      18.513   0.447   7.341  0.00  0.00     0.075 A 
ENDROOT
BRANCH   1   8
ATOM      8  N2  ZIN A   1      18.157   1.689   9.458  0.00  0.00    -0.116 N 
ATOM      9  O1  ZIN A   1      18.838   2.656   9.166  0.00  0.00    -0.532 OA
ATOM     10  O3  ZIN A   1      17.344   1.766  10.361  0.00  0.00    -0.532 OA
ENDBRANCH   1   8
BRANCH   6  11
ATOM     11  N13 ZIN A   1      18.884  -0.704   5.177  0.00  0.00    -0.113 N 
ATOM     12  O14 ZIN A   1      17.932  -0.703   4.418  0.00  0.00    -0.532 OA
ATOM     13  O15 ZIN A   1      20.018  -0.679   4.732  0.00  0.00    -0.532 OA
ENDBRANCH   6  11
BRANCH   3  14
ATOM     14  N7  ZIN A   1      18.330  -3.265   9.397  0.00  0.00    -0.113 N 
ATOM     15  O8  ZIN A   1      19.326  -3.716   9.933  0.00  0.00    -0.532 OA
ATOM     16  O9  ZIN A   1      17.279  -3.879   9.452  0.00  0.00    -0.532 OA
ENDBRANCH   3  14
TORSDOF 3
ENDMDL
MODEL 5
REMARK VINA RESULT:      -5.4      6.962      9.655
REMARK  3 active torsions:
REMARK  status: ('A' for Active; 'I' for Inactive)
REMARK    1  A    between atoms: N2_2  and  C4_4 
REMARK    2  A    between atoms: C6_6  and  N7_7 
REMARK    3  A    between atoms: C12_12  and  N13_13 
ROOT
ATOM      1  C4  ZIN A   1      18.237   0.242   8.638  0.00  0.00     0.107 A 
ATOM      2  C5  ZIN A   1      18.471   0.316   7.277  0.00  0.00     0.075 A 
ATOM      3  C6  ZIN A   1      18.629  -0.839   6.537  0.00  0.00     0.144 A 
ATOM      4  C10 ZIN A   1      18.551  -2.077   7.160  0.00  0.00     0.173 A 
ATOM      5  O11 ZIN A   1      18.706  -3.215   6.435  0.00  0.00    -0.187 OA
ATOM      6  C12 ZIN A   1      18.316  -2.149   8.525  0.00  0.00     0.144 A 
ATOM      7  C16 ZIN A   1      18.164  -0.991   9.261  0.00  0.00     0.075 A 
ENDROOT
BRANCH   1   8
ATOM      8  N2  ZIN A   1      18.069   1.482   9.428  0.00  0.00    -0.116 N 
ATOM      9  O1  ZIN A   1      18.727   2.470   9.155  0.00  0.00    -0.532 OA
ATOM     10  O3  ZIN A   1      17.270   1.516  10.346  0.00  0.00    -0.532 OA
ENDBRANCH   1   8
BRANCH   6  11
ATOM     11  N13 ZIN A   1      18.233  -3.467   9.194  0.00  0.00    -0.113 N 
ATOM     12  O14 ZIN A   1      17.168  -4.053   9.256  0.00  0.00    -0.532 OA
ATOM     13  O15 ZIN A   1      19.233  -3.966   9.681  0.00  0.00    -0.532 OA
ENDBRANCH   6  11
BRANCH   3  14
ATOM     14  N7  ZIN A   1      18.880  -0.758   5.080  0.00  0.00    -0.113 N 
ATOM     15  O8  ZIN A   1      20.023  -0.720   4.660  0.00  0.00    -0.532 OA
ATOM     16  O9  ZIN A   1      17.944  -0.730   4.302  0.00  0.00    -0.532 OA
ENDBRANCH   3  14
TORSDOF 3
ENDMDL
MODEL 6
REMARK VINA RESULT:      -5.4     10.795     12.822
REMARK  3 active torsions:
REMARK  status: ('A' for Active; 'I' for Inactive)
REMARK    1  A    between atoms: N2_2  and  C4_4 
REMARK    2  A    between atoms: C6_6  and  N7_7 
REMARK    3  A    between atoms: C12_12  and  N13_13 
ROOT
ATOM      1  C4  ZIN A   1      19.053  -2.943   5.663  0.00  0.00     0.107 A 
ATOM      2  C5  ZIN A   1      19.823  -3.525   6.653  0.00  0.00     0.075 A 
ATOM      3  C6  ZIN A   1      19.687  -4.870   6.936  0.00  0.00     0.144 A 
ATOM      4  C10 ZIN A   1      18.776  -5.638   6.224  0.00  0.00     0.173 A 
ATOM      5  O11 ZIN A   1      18.640  -6.962   6.500  0.00  0.00    -0.187 OA
ATOM      6  C12 ZIN A   1      18.005  -5.052   5.232  0.00  0.00     0.144 A 
ATOM      7  C16 ZIN A   1      18.141  -3.706   4.956  0.00  0.00     0.075 A 
ENDROOT
BRANCH   1   8
ATOM      8  N2  ZIN A   1      19.201  -1.501   5.363  0.00  0.00    -0.116 N 
ATOM      9  O1  ZIN A   1      19.975  -1.137   4.496  0.00  0.00    -0.532 OA
ATOM     10  O3  ZIN A   1      18.547  -0.680   5.980  0.00  0.00    -0.532 OA
ENDBRANCH   1   8
BRANCH   6  11
ATOM     11  N13 ZIN A   1      17.032  -5.868   4.471  0.00  0.00    -0.113 N 
ATOM     12  O14 ZIN A   1      15.878  -5.951   4.850  0.00  0.00    -0.532 OA
ATOM     13  O15 ZIN A   1      17.386  -6.457   3.464  0.00  0.00    -0.532 OA
ENDBRANCH   6  11
BRANCH   3  14
ATOM     14  N7  ZIN A   1      20.512  -5.492   7.996  0.00  0.00    -0.113 N 
ATOM     15  O8  ZIN A   1      20.072  -5.596   9.127  0.00  0.00    -0.532 OA
ATOM     16  O9  ZIN A   1      21.629  -5.900   7.738  0.00  0.00    -0.532 OA
ENDBRANCH   3  14
TORSDOF 3
ENDMDL
MODEL 7
REMARK VINA RESULT:      -5.4      6.893      9.335
REMARK  3 active torsions:
REMARK  status: ('A' for Active; 'I' for Inactive)
REMARK    1  A    between atoms: N2_2  and  C4_4 
REMARK    2  A    between atoms: C6_6  and  N7_7 
REMARK    3  A    between atoms: C12_12  and  N13_13 
ROOT
ATOM      1  C4  ZIN A   1      19.060  -0.856   6.518  0.00  0.00     0.107 A 
ATOM      2  C5  ZIN A   1      18.942   0.280   7.297  0.00  0.00     0.075 A 
ATOM      3  C6  ZIN A   1      18.648   0.170   8.642  0.00  0.00     0.144 A 
ATOM      4  C10 ZIN A   1      18.473  -1.083   9.213  0.00  0.00     0.173 A 
ATOM      5  O11 ZIN A   1      18.184  -1.194  10.536  0.00  0.00    -0.187 OA
ATOM      6  C12 ZIN A   1      18.592  -2.221   8.429  0.00  0.00     0.144 A 
ATOM      7  C16 ZIN A   1      18.880  -2.105   7.083  0.00  0.00     0.075 A 
ENDROOT
BRANCH   1   8
ATOM      8  N2  ZIN A   1      19.373  -0.734   5.076  0.00  0.00    -0.116 N 
ATOM      9  O1  ZIN A   1      19.763  -1.706   4.455  0.00  0.00    -0.532 OA
ATOM     10  O3  ZIN A   1      19.236   0.335   4.511  0.00  0.00    -0.532 OA
ENDBRANCH   1   8
BRANCH   6  11
ATOM     11  N13 ZIN A   1      18.404  -3.560   9.033  0.00  0.00    -0.113 N 
ATOM     12  O14 ZIN A   1      19.355  -4.152   9.509  0.00  0.00    -0.532 OA
ATOM     13  O15 ZIN A   1      17.296  -4.067   9.055  0.00  0.00    -0.532 OA
ENDBRANCH   6  11
BRANCH   3  14
ATOM     14  N7  ZIN A   1      18.522   1.387   9.475  0.00  0.00    -0.113 N 
ATOM     15  O8  ZIN A   1      17.453   1.669   9.985  0.00  0.00    -0.532 OA
ATOM     16  O9  ZIN A   1      19.489   2.107   9.652  0.00  0.00    -0.532 OA
ENDBRANCH   3  14
TORSDOF 3
ENDMDL
MODEL 8
REMARK VINA RESULT:      -5.3      4.868      7.663
REMARK  3 active torsions:
REMARK  status: ('A' for Active; 'I' for Inactive)
REMARK    1  A    between atoms: N2_2  and  C4_4 
REMARK    2  A    between atoms: C6_6  and  N7_7 
REMARK    3  A    between atoms: C12_12  and  N13_13 
ROOT
ATOM      1  C4  ZIN A   1      18.681   0.506   8.568  0.00  0.00     0.107 A 
ATOM      2  C5  ZIN A   1      18.552  -0.589   9.403  0.00  0.00     0.075 A 
ATOM      3  C6  ZIN A   1      18.228  -0.411  10.734  0.00  0.00     0.144 A 
ATOM      4  C10 ZIN A   1      18.029   0.868  11.233  0.00  0.00     0.173 A 
ATOM      5  O11 ZIN A   1      17.710   1.047  12.542  0.00  0.00    -0.187 OA
ATOM      6  C12 ZIN A   1      18.159   1.965  10.393  0.00  0.00     0.144 A 
ATOM      7  C16 ZIN A   1      18.489   1.782   9.065  0.00  0.00     0.075 A 
ENDROOT
BRANCH   1   8
ATOM      8  N2  ZIN A   1      19.030   0.312   7.143  0.00  0.00    -0.116 N 
ATOM      9  O1  ZIN A   1      19.113   1.274   6.400  0.00  0.00    -0.532 OA
ATOM     10  O3  ZIN A   1      19.239  -0.808   6.714  0.00  0.00    -0.532 OA
ENDBRANCH   1   8
BRANCH   6  11
ATOM     11  N13 ZIN A   1      17.949   3.332  10.923  0.00  0.00    -0.113 N 
ATOM     12  O14 ZIN A   1      16.831   3.814  10.938  0.00  0.00    -0.532 OA
ATOM     13  O15 ZIN A   1      18.895   3.973  11.344  0.00  0.00    -0.532 OA
ENDBRANCH   6  11
BRANCH   3  14
ATOM     14  N7  ZIN A   1      18.090  -1.584  11.626  0.00  0.00    -0.113 N 
ATOM     15  O8  ZIN A   1      19.051  -1.984  12.259  0.00  0.00    -0.532 OA
ATOM     16  O9  ZIN A   1      17.016  -2.149  11.728  0.00  0.00    -0.532 OA
ENDBRANCH   3  14
TORSDOF 3
ENDMDL
MODEL 9
REMARK VINA RESULT:      -5.3     10.792     12.319
REMARK  3 active torsions:
REMARK  status: ('A' for Active; 'I' for Inactive)
REMARK    1  A    between atoms: N2_2  and  C4_4 
REMARK    2  A    between atoms: C6_6  and  N7_7 
REMARK    3  A    between atoms: C12_12  and  N13_13 
ROOT
ATOM      1  C4  ZIN A   1      19.019  -4.720   6.161  0.00  0.00     0.107 A 
ATOM      2  C5  ZIN A   1      19.451  -3.408   6.228  0.00  0.00     0.075 A 
ATOM      3  C6  ZIN A   1      18.860  -2.442   5.437  0.00  0.00     0.144 A 
ATOM      4  C10 ZIN A   1      17.829  -2.789   4.575  0.00  0.00     0.173 A 
ATOM      5  O11 ZIN A   1      17.245  -1.842   3.795  0.00  0.00    -0.187 OA
ATOM      6  C12 ZIN A   1      17.398  -4.106   4.509  0.00  0.00     0.144 A 
ATOM      7  C16 ZIN A   1      17.996  -5.068   5.298  0.00  0.00     0.075 A 
ENDROOT
BRANCH   1   8
ATOM      8  N2  ZIN A   1      19.656  -5.752   7.009  0.00  0.00    -0.116 N 
ATOM      9  O1  ZIN A   1      20.846  -5.684   7.259  0.00  0.00    -0.532 OA
ATOM     10  O3  ZIN A   1      18.989  -6.665   7.462  0.00  0.00    -0.532 OA
ENDBRANCH   1   8
BRANCH   6  11
ATOM     11  N13 ZIN A   1      16.299  -4.480   3.589  0.00  0.00    -0.113 N 
ATOM     12  O14 ZIN A   1      15.155  -4.538   3.999  0.00  0.00    -0.532 OA
ATOM     13  O15 ZIN A   1      16.542  -4.729   2.421  0.00  0.00    -0.532 OA
ENDBRANCH   6  11
BRANCH   3  14
ATOM     14  N7  ZIN A   1      19.323  -1.038   5.510  0.00  0.00    -0.113 N 
ATOM     15  O8  ZIN A   1      20.053  -0.592   4.644  0.00  0.00    -0.532 OA
ATOM     16  O9  ZIN A   1      18.973  -0.329   6.437  0.00  0.00    -0.532 OA
ENDBRANCH   3  14
TORSDOF 3
ENDMDL
