MODEL 1
REMARK VINA RESULT:      -5.4      0.000      0.000
REMARK  1 active torsions:
REMARK  status: ('A' for Active; 'I' for Inactive)
REMARK    1  A    between atoms: C7_7  and  C9_8 
ROOT
ATOM      1  C1  ZIN A   1      19.410  -2.507   7.130  0.00  0.00     0.270 C 
ATOM      2  N2  ZIN A   1      19.223  -1.066   6.915  0.00  0.00    -0.067 N 
ATOM      3  H3  ZIN A   1      19.918  -0.552   7.435  0.00  0.00     0.280 HD
ATOM      4  C4  ZIN A   1      19.349  -0.758   5.474  0.00  0.00     0.235 C 
ATOM      5  C5  ZIN A   1      17.894  -0.746   4.944  0.00  0.00     0.030 C 
ATOM      6  C6  ZIN A   1      17.131  -0.109   6.135  0.00  0.00     0.040 C 
ATOM      7  C7  ZIN A   1      17.875  -0.669   7.362  0.00  0.00     0.222 C 
ENDROOT
BRANCH   7   8
ATOM      8  C9  ZIN A   1      17.980   0.393   8.425  0.00  0.00    -0.010 A 
ATOM      9  C14 ZIN A   1      17.240   0.295   9.588  0.00  0.00     0.125 A 
ATOM     10  N13 ZIN A   1      17.330   1.218  10.525  0.00  0.00    -0.273 NA
ATOM     11  C12 ZIN A   1      18.114   2.270  10.390  0.00  0.00     0.116 A 
ATOM     12  C11 ZIN A   1      18.880   2.438   9.251  0.00  0.00     0.020 A 
ATOM     13  C10 ZIN A   1      18.815   1.485   8.247  0.00  0.00     0.012 A 
ENDBRANCH   7   8
TORSDOF 1
ENDMDL
MODEL 2
REMARK VINA RESULT:      -5.4      1.549      4.719
REMARK  1 active torsions:
REMARK  status: ('A' for Active; 'I' for Inactive)
REMARK    1  A    between atoms: C7_7  and  C9_8 
ROOT
ATOM      1  C1  ZIN A   1      19.988   1.203  11.940  0.00  0.00     0.270 C 
ATOM      2  N2  ZIN A   1      18.746   1.441  11.192  0.00  0.00    -0.067 N 
ATOM      3  H3  ZIN A   1      18.307   0.560  10.973  0.00  0.00     0.280 HD
ATOM      4  C4  ZIN A   1      17.828   2.268  12.003  0.00  0.00     0.235 C 
ATOM      5  C5  ZIN A   1      18.072   3.720  11.521  0.00  0.00     0.030 C 
ATOM      6  C6  ZIN A   1      18.300   3.511  10.000  0.00  0.00     0.040 C 
ATOM      7  C7  ZIN A   1      19.050   2.167   9.944  0.00  0.00     0.222 C 
ENDROOT
BRANCH   7   8
ATOM      8  C9  ZIN A   1      18.579   1.367   8.758  0.00  0.00    -0.010 A 
ATOM      9  C14 ZIN A   1      17.612   0.391   8.912  0.00  0.00     0.125 A 
ATOM     10  N13 ZIN A   1      17.191  -0.310   7.878  0.00  0.00    -0.273 NA
ATOM     11  C12 ZIN A   1      17.677  -0.120   6.666  0.00  0.00     0.116 A 
ATOM     12  C11 ZIN A   1      18.650   0.835   6.437  0.00  0.00     0.020 A 
ATOM     13  C10 ZIN A   1      19.114   1.595   7.500  0.00  0.00     0.012 A 
ENDBRANCH   7   8
TORSDOF 1
ENDMDL
MODEL 3
REMARK VINA RESULT:      -5.3      2.499      5.925
REMARK  1 active torsions:
REMARK  status: ('A' for Active; 'I' for Inactive)
REMARK    1  A    between atoms: C7_7  and  C9_8 
ROOT
ATOM      1  C1  ZIN A   1      19.763   4.713  12.652  0.00  0.00     0.270 C 
ATOM      2  N2  ZIN A   1      18.560   3.948  12.297  0.00  0.00    -0.067 N 
ATOM      3  H3  ZIN A   1      18.711   2.969  12.488  0.00  0.00     0.280 HD
ATOM      4  C4  ZIN A   1      17.409   4.438  13.085  0.00  0.00     0.235 C 
ATOM      5  C5  ZIN A   1      16.700   5.457  12.158  0.00  0.00     0.030 C 
ATOM      6  C6  ZIN A   1      16.867   4.786  10.769  0.00  0.00     0.040 C 
ATOM      7  C7  ZIN A   1      18.259   4.134  10.865  0.00  0.00     0.222 C 
ENDROOT
BRANCH   7   8
ATOM      8  C9  ZIN A   1      18.248   2.798  10.167  0.00  0.00    -0.010 A 
ATOM      9  C14 ZIN A   1      17.558   1.731  10.709  0.00  0.00     0.125 A 
ATOM     10  N13 ZIN A   1      17.540   0.561  10.101  0.00  0.00    -0.273 NA
ATOM     11  C12 ZIN A   1      18.182   0.358   8.968  0.00  0.00     0.116 A 
ATOM     12  C11 ZIN A   1      18.899   1.378   8.369  0.00  0.00     0.020 A 
ATOM     13  C10 ZIN A   1      18.936   2.623   8.976  0.00  0.00     0.012 A 
ENDBRANCH   7   8
TORSDOF 1
ENDMDL
MODEL 4
REMARK VINA RESULT:      -5.2      1.436      4.419
REMARK  1 active torsions:
REMARK  status: ('A' for Active; 'I' for Inactive)
REMARK    1  A    between atoms: C7_7  and  C9_8 
ROOT
ATOM      1  C1  ZIN A   1      18.939  -1.133  10.377  0.00  0.00     0.270 C 
ATOM      2  N2  ZIN A   1      18.310  -0.435   9.249  0.00  0.00    -0.067 N 
ATOM      3  H3  ZIN A   1      17.760  -1.086   8.710  0.00  0.00     0.280 HD
ATOM      4  C4  ZIN A   1      17.443   0.650   9.756  0.00  0.00     0.235 C 
ATOM      5  C5  ZIN A   1      18.325   1.923   9.696  0.00  0.00     0.030 C 
ATOM      6  C6  ZIN A   1      19.127   1.686   8.390  0.00  0.00     0.040 C 
ATOM      7  C7  ZIN A   1      19.352   0.162   8.392  0.00  0.00     0.222 C 
ENDROOT
BRANCH   7   8
ATOM      8  C9  ZIN A   1      19.232  -0.375   6.990  0.00  0.00    -0.010 A 
ATOM      9  C14 ZIN A   1      19.427  -1.720   6.737  0.00  0.00     0.125 A 
ATOM     10  N13 ZIN A   1      19.319  -2.198   5.513  0.00  0.00    -0.273 NA
ATOM     11  C12 ZIN A   1      19.033  -1.421   4.486  0.00  0.00     0.116 A 
ATOM     12  C11 ZIN A   1      18.831  -0.065   4.662  0.00  0.00     0.020 A 
ATOM     13  C10 ZIN A   1      18.931   0.474   5.936  0.00  0.00     0.012 A 
ENDBRANCH   7   8
TORSDOF 1
ENDMDL
MODEL 5
REMARK VINA RESULT:      -5.1      1.902      4.364
REMARK  1 active torsions:
REMARK  status: ('A' for Active; 'I' for Inactive)
REMARK    1  A    between atoms: C7_7  and  C9_8 
ROOT
ATOM      1  C1  ZIN A   1      20.057   0.995  11.859  0.00  0.00     0.270 C 
ATOM      2  N2  ZIN A   1      19.264   0.074  11.034  0.00  0.00    -0.067 N 
ATOM      3  H3  ZIN A   1      19.834  -0.289  10.285  0.00  0.00     0.280 HD
ATOM      4  C4  ZIN A   1      18.770  -1.042  11.869  0.00  0.00     0.235 C 
ATOM      5  C5  ZIN A   1      17.339  -0.621  12.287  0.00  0.00     0.030 C 
ATOM      6  C6  ZIN A   1      16.834   0.089  11.003  0.00  0.00     0.040 C 
ATOM      7  C7  ZIN A   1      18.101   0.786  10.473  0.00  0.00     0.222 C 
ENDROOT
BRANCH   7   8
ATOM      8  C9  ZIN A   1      18.134   0.713   8.968  0.00  0.00    -0.010 A 
ATOM      9  C14 ZIN A   1      17.276  -0.132   8.289  0.00  0.00     0.125 A 
ATOM     10  N13 ZIN A   1      17.296  -0.197   6.973  0.00  0.00    -0.273 NA
ATOM     11  C12 ZIN A   1      18.133   0.525   6.254  0.00  0.00     0.116 A 
ATOM     12  C11 ZIN A   1      19.025   1.388   6.864  0.00  0.00     0.020 A 
ATOM     13  C10 ZIN A   1      19.030   1.488   8.247  0.00  0.00     0.012 A 
ENDBRANCH   7   8
TORSDOF 1
ENDMDL
MODEL 6
REMARK VINA RESULT:      -5.0      5.723      8.632
REMARK  1 active torsions:
REMARK  status: ('A' for Active; 'I' for Inactive)
REMARK    1  A    between atoms: C7_7  and  C9_8 
ROOT
ATOM      1  C1  ZIN A   1      19.223   2.641  16.494  0.00  0.00     0.270 C 
ATOM      2  N2  ZIN A   1      19.190   1.174  16.421  0.00  0.00    -0.067 N 
ATOM      3  H3  ZIN A   1      19.944   0.845  15.838  0.00  0.00     0.280 HD
ATOM      4  C4  ZIN A   1      19.326   0.605  17.779  0.00  0.00     0.235 C 
ATOM      5  C5  ZIN A   1      17.873   0.341  18.245  0.00  0.00     0.030 C 
ATOM      6  C6  ZIN A   1      17.202  -0.128  16.927  0.00  0.00     0.040 C 
ATOM      7  C7  ZIN A   1      17.900   0.734  15.858  0.00  0.00     0.222 C 
ENDROOT
BRANCH   7   8
ATOM      8  C9  ZIN A   1      18.136  -0.084  14.615  0.00  0.00    -0.010 A 
ATOM      9  C14 ZIN A   1      17.475   0.222  13.440  0.00  0.00     0.125 A 
ATOM     10  N13 ZIN A   1      17.680  -0.486  12.347  0.00  0.00    -0.273 NA
ATOM     11  C12 ZIN A   1      18.507  -1.513  12.330  0.00  0.00     0.116 A 
ATOM     12  C11 ZIN A   1      19.199  -1.882  13.469  0.00  0.00     0.020 A 
ATOM     13  C10 ZIN A   1      19.013  -1.157  14.637  0.00  0.00     0.012 A 
ENDBRANCH   7   8
TORSDOF 1
ENDMDL
MODEL 7
REMARK VINA RESULT:      -4.9      2.063      5.184
REMARK  1 active torsions:
REMARK  status: ('A' for Active; 'I' for Inactive)
REMARK    1  A    between atoms: C7_7  and  C9_8 
ROOT
ATOM      1  C1  ZIN A   1      18.242   3.160  12.514  0.00  0.00     0.270 C 
ATOM      2  N2  ZIN A   1      18.590   1.855  11.936  0.00  0.00    -0.067 N 
ATOM      3  H3  ZIN A   1      19.409   1.948  11.355  0.00  0.00     0.280 HD
ATOM      4  C4  ZIN A   1      18.856   0.887  13.021  0.00  0.00     0.235 C 
ATOM      5  C5  ZIN A   1      17.517   0.134  13.218  0.00  0.00     0.030 C 
ATOM      6  C6  ZIN A   1      17.002   0.025  11.758  0.00  0.00     0.040 C 
ATOM      7  C7  ZIN A   1      17.463   1.353  11.129  0.00  0.00     0.222 C 
ENDROOT
BRANCH   7   8
ATOM      8  C9  ZIN A   1      17.914   1.118   9.710  0.00  0.00    -0.010 A 
ATOM      9  C14 ZIN A   1      18.863   1.941   9.132  0.00  0.00     0.125 A 
ATOM     10  N13 ZIN A   1      19.265   1.738   7.893  0.00  0.00    -0.273 NA
ATOM     11  C12 ZIN A   1      18.778   0.759   7.156  0.00  0.00     0.116 A 
ATOM     12  C11 ZIN A   1      17.822  -0.100   7.665  0.00  0.00     0.020 A 
ATOM     13  C10 ZIN A   1      17.378   0.079   8.966  0.00  0.00     0.012 A 
ENDBRANCH   7   8
TORSDOF 1
ENDMDL
MODEL 8
REMARK VINA RESULT:      -4.8      5.198      6.855
REMARK  1 active torsions:
REMARK  status: ('A' for Active; 'I' for Inactive)
REMARK    1  A    between atoms: C7_7  and  C9_8 
ROOT
ATOM      1  C1  ZIN A   1      20.744   0.585  12.232  0.00  0.00     0.270 C 
ATOM      2  N2  ZIN A   1      19.392   0.280  12.718  0.00  0.00    -0.067 N 
ATOM      3  H3  ZIN A   1      19.003   1.091  13.173  0.00  0.00     0.280 HD
ATOM      4  C4  ZIN A   1      18.532  -0.114  11.581  0.00  0.00     0.235 C 
ATOM      5  C5  ZIN A   1      18.578  -1.662  11.567  0.00  0.00     0.030 C 
ATOM      6  C6  ZIN A   1      18.602  -1.989  13.084  0.00  0.00     0.040 C 
ATOM      7  C7  ZIN A   1      19.449  -0.844  13.671  0.00  0.00     0.222 C 
ENDROOT
BRANCH   7   8
ATOM      8  C9  ZIN A   1      18.882  -0.418  15.000  0.00  0.00    -0.010 A 
ATOM      9  C14 ZIN A   1      18.957   0.903  15.402  0.00  0.00     0.125 A 
ATOM     10  N13 ZIN A   1      18.460   1.284  16.562  0.00  0.00    -0.273 NA
ATOM     11  C12 ZIN A   1      17.884   0.430  17.385  0.00  0.00     0.116 A 
ATOM     12  C11 ZIN A   1      17.778  -0.909  17.053  0.00  0.00     0.020 A 
ATOM     13  C10 ZIN A   1      18.285  -1.346  15.839  0.00  0.00     0.012 A 
ENDBRANCH   7   8
TORSDOF 1
ENDMDL
MODEL 9
REMARK VINA RESULT:      -4.8      3.009      4.369
REMARK  1 active torsions:
REMARK  status: ('A' for Active; 'I' for Inactive)
REMARK    1  A    between atoms: C7_7  and  C9_8 
ROOT
ATOM      1  C1  ZIN A   1      20.063  -5.038   7.368  0.00  0.00     0.270 C 
ATOM      2  N2  ZIN A   1      18.953  -4.110   7.112  0.00  0.00    -0.067 N 
ATOM      3  H3  ZIN A   1      18.831  -3.993   6.118  0.00  0.00     0.280 HD
ATOM      4  C4  ZIN A   1      17.710  -4.645   7.707  0.00  0.00     0.235 C 
ATOM      5  C5  ZIN A   1      17.605  -3.956   9.090  0.00  0.00     0.030 C 
ATOM      6  C6  ZIN A   1      18.140  -2.535   8.773  0.00  0.00     0.040 C 
ATOM      7  C7  ZIN A   1      19.244  -2.805   7.734  0.00  0.00     0.222 C 
ENDROOT
BRANCH   7   8
ATOM      8  C9  ZIN A   1      19.234  -1.724   6.684  0.00  0.00    -0.010 A 
ATOM      9  C14 ZIN A   1      19.626  -2.003   5.388  0.00  0.00     0.125 A 
ATOM     10  N13 ZIN A   1      19.615  -1.064   4.463  0.00  0.00    -0.273 NA
ATOM     11  C12 ZIN A   1      19.245   0.172   4.733  0.00  0.00     0.116 A 
ATOM     12  C11 ZIN A   1      18.845   0.527   6.009  0.00  0.00     0.020 A 
ATOM     13  C10 ZIN A   1      18.838  -0.435   7.007  0.00  0.00     0.012 A 
ENDBRANCH   7   8
TORSDOF 1
ENDMDL
