MODEL 1
REMARK VINA RESULT:      -8.0      0.000      0.000
REMARK  10 active torsions:
REMARK  status: ('A' for Active; 'I' for Inactive)
REMARK    1  A    between atoms: C2_2  and  O4_4 
REMARK    2  A    between atoms: C2_2  and  C37_35 
REMARK    3  A    between atoms: O4_4  and  N5_5 
REMARK    4  A    between atoms: C6_6  and  C7_7 
REMARK    5  A    between atoms: C6_6  and  C31_29 
REMARK       I    between atoms: C7_7  and  N9_9 
REMARK    6  A    between atoms: N9_9  and  C10_10 
REMARK    7  A    between atoms: C15_14  and  C16_15 
REMARK    8  A    between atoms: C19_18  and  C20_19 
REMARK    9  A    between atoms: C20_19  and  N21_20 
REMARK   10  A    between atoms: C34_32  and  N35_33 
ROOT
ATOM      1  C7  ZIN A   1      19.061   4.088  14.052  0.00  0.00     0.275 C 
ATOM      2  O8  ZIN A   1      19.794   5.048  13.921  0.00  0.00    -0.266 OA
ATOM      3  N9  ZIN A   1      18.831   3.267  13.009  0.00  0.00    -0.339 N 
ATOM      4  H46 ZIN A   1      18.214   2.525  13.102  0.00  0.00     0.163 HD
ENDROOT
BRANCH   3   5
ATOM      5  C10 ZIN A   1      19.514   3.496  11.733  0.00  0.00     0.211 C 
ATOM      6  C29 ZIN A   1      20.407   2.337  11.301  0.00  0.00     0.187 C 
ATOM      7  N14 ZIN A   1      19.331   2.038  10.301  0.00  0.00    -0.293 N 
ATOM      8  S28 ZIN A   1      20.431   0.906  12.431  0.00  0.00    -0.136 SA
ATOM      9  C12 ZIN A   1      18.658   3.181  10.518  0.00  0.00     0.251 C 
ATOM     10  C15 ZIN A   1      19.155   0.832   9.600  0.00  0.00     0.120 C 
ATOM     11  O13 ZIN A   1      17.736   3.740   9.964  0.00  0.00    -0.271 OA
ATOM     12  C19 ZIN A   1      19.711  -0.284  10.053  0.00  0.00    -0.019 C 
ATOM     13  C27 ZIN A   1      20.593  -0.462  11.243  0.00  0.00     0.114 C 
BRANCH  10  14
ATOM     14  C16 ZIN A   1      18.353   0.808   8.366  0.00  0.00     0.227 C 
ATOM     15  O17 ZIN A   1      18.813   1.264   7.328  0.00  0.00    -0.643 OA
ATOM     16  O18 ZIN A   1      17.226   0.331   8.377  0.00  0.00    -0.643 OA
ENDBRANCH  10  14
BRANCH  12  17
ATOM     17  C20 ZIN A   1      19.415  -1.532   9.262  0.00  0.00     0.165 C 
BRANCH  17  18
ATOM     18  N21 ZIN A   1      18.896  -2.568  10.159  0.00  0.00    -0.362 N 
ATOM     19  C26 ZIN A   1      17.769  -2.350  10.806  0.00  0.00     0.090 A 
ATOM     20  C25 ZIN A   1      17.246  -3.306  11.657  0.00  0.00     0.017 A 
ATOM     21  C24 ZIN A   1      17.929  -4.500  11.832  0.00  0.00     0.003 A 
ATOM     22  C23 ZIN A   1      19.115  -4.690  11.139  0.00  0.00     0.017 A 
ATOM     23  C22 ZIN A   1      19.572  -3.691  10.301  0.00  0.00     0.090 A 
ENDBRANCH  17  18
ENDBRANCH  12  17
ENDBRANCH   3   5
BRANCH   1  24
ATOM     24  C6  ZIN A   1      18.419   3.819  15.361  0.00  0.00     0.180 C 
ATOM     25  N5  ZIN A   1      17.648   4.718  15.905  0.00  0.00    -0.125 NA
BRANCH  25  26
ATOM     26  O4  ZIN A   1      17.493   5.984  15.290  0.00  0.00    -0.234 OA
BRANCH  26  27
ATOM     27  C2  ZIN A   1      16.176   6.526  15.401  0.00  0.00     0.171 C 
ATOM     28  C1  ZIN A   1      15.592   6.173  16.770  0.00  0.00     0.060 C 
ATOM     29  C3  ZIN A   1      16.236   8.047  15.250  0.00  0.00     0.060 C 
BRANCH  27  30
ATOM     30  C37 ZIN A   1      15.302   5.948  14.318  0.00  0.00     0.211 C 
ATOM     31  O38 ZIN A   1      15.786   5.640  13.243  0.00  0.00    -0.646 OA
ATOM     32  O39 ZIN A   1      14.110   5.789  14.518  0.00  0.00    -0.646 OA
ENDBRANCH  27  30
ENDBRANCH  26  27
ENDBRANCH  25  26
BRANCH  24  33
ATOM     33  C31 ZIN A   1      18.655   2.532  16.050  0.00  0.00     0.102 A 
ATOM     34  N36 ZIN A   1      18.476   1.356  15.447  0.00  0.00    -0.222 NA
ATOM     35  C34 ZIN A   1      18.719   0.295  16.151  0.00  0.00     0.164 A 
ATOM     36  S33 ZIN A   1      19.223   0.764  17.771  0.00  0.00    -0.062 SA
ATOM     37  C32 ZIN A   1      19.060   2.464  17.333  0.00  0.00     0.087 A 
BRANCH  35  38
ATOM     38  N35 ZIN A   1      18.594  -1.009  15.700  0.00  0.00    -0.378 N 
ATOM     39  H57 ZIN A   1      17.724  -1.353  15.443  0.00  0.00     0.158 HD
ATOM     40  H58 ZIN A   1      19.378  -1.578  15.639  0.00  0.00     0.158 HD
ENDBRANCH  35  38
ENDBRANCH  24  33
ENDBRANCH   1  24
TORSDOF 10
ENDMDL
MODEL 2
REMARK VINA RESULT:      -8.0      4.810      8.211
REMARK  10 active torsions:
REMARK  status: ('A' for Active; 'I' for Inactive)
REMARK    1  A    between atoms: C2_2  and  O4_4 
REMARK    2  A    between atoms: C2_2  and  C37_35 
REMARK    3  A    between atoms: O4_4  and  N5_5 
REMARK    4  A    between atoms: C6_6  and  C7_7 
REMARK    5  A    between atoms: C6_6  and  C31_29 
REMARK       I    between atoms: C7_7  and  N9_9 
REMARK    6  A    between atoms: N9_9  and  C10_10 
REMARK    7  A    between atoms: C15_14  and  C16_15 
REMARK    8  A    between atoms: C19_18  and  C20_19 
REMARK    9  A    between atoms: C20_19  and  N21_20 
REMARK   10  A    between atoms: C34_32  and  N35_33 
ROOT
ATOM      1  C7  ZIN A   1      19.872  -2.760  10.856  0.00  0.00     0.275 C 
ATOM      2  O8  ZIN A   1      20.676  -3.334  11.563  0.00  0.00    -0.266 OA
ATOM      3  N9  ZIN A   1      19.271  -3.419   9.845  0.00  0.00    -0.339 N 
ATOM      4  H46 ZIN A   1      18.661  -2.950   9.255  0.00  0.00     0.163 HD
ENDROOT
BRANCH   3   5
ATOM      5  C10 ZIN A   1      19.541  -4.844   9.638  0.00  0.00     0.211 C 
ATOM      6  C29 ZIN A   1      18.289  -5.715   9.676  0.00  0.00     0.187 C 
ATOM      7  N14 ZIN A   1      18.449  -5.800   8.187  0.00  0.00    -0.293 N 
ATOM      8  S28 ZIN A   1      16.723  -4.821   9.946  0.00  0.00    -0.136 SA
ATOM      9  C12 ZIN A   1      19.669  -5.234   8.175  0.00  0.00     0.251 C 
ATOM     10  C15 ZIN A   1      17.468  -6.200   7.264  0.00  0.00     0.120 C 
ATOM     11  O13 ZIN A   1      20.529  -5.092   7.332  0.00  0.00    -0.271 OA
ATOM     12  C19 ZIN A   1      16.186  -6.176   7.608  0.00  0.00    -0.019 C 
ATOM     13  C27 ZIN A   1      15.588  -5.809   8.925  0.00  0.00     0.114 C 
BRANCH  10  14
ATOM     14  C16 ZIN A   1      17.861  -6.647   5.917  0.00  0.00     0.227 C 
ATOM     15  O17 ZIN A   1      18.105  -7.827   5.712  0.00  0.00    -0.643 OA
ATOM     16  O18 ZIN A   1      17.943  -5.837   5.004  0.00  0.00    -0.643 OA
ENDBRANCH  10  14
BRANCH  12  17
ATOM     17  C20 ZIN A   1      15.210  -6.569   6.529  0.00  0.00     0.165 C 
BRANCH  17  18
ATOM     18  N21 ZIN A   1      14.362  -7.662   7.012  0.00  0.00    -0.362 N 
ATOM     19  C26 ZIN A   1      14.888  -8.859   7.175  0.00  0.00     0.090 A 
ATOM     20  C25 ZIN A   1      14.119  -9.913   7.633  0.00  0.00     0.017 A 
ATOM     21  C24 ZIN A   1      12.778  -9.699   7.911  0.00  0.00     0.003 A 
ATOM     22  C23 ZIN A   1      12.259  -8.427   7.722  0.00  0.00     0.017 A 
ATOM     23  C22 ZIN A   1      13.090  -7.422   7.266  0.00  0.00     0.090 A 
ENDBRANCH  17  18
ENDBRANCH  12  17
ENDBRANCH   3   5
BRANCH   1  24
ATOM     24  C6  ZIN A   1      19.550  -1.335  11.105  0.00  0.00     0.180 C 
ATOM     25  N5  ZIN A   1      19.519  -0.491  10.112  0.00  0.00    -0.125 NA
BRANCH  25  26
ATOM     26  O4  ZIN A   1      19.880  -0.916   8.811  0.00  0.00    -0.234 OA
BRANCH  26  27
ATOM     27  C2  ZIN A   1      18.926  -0.573   7.803  0.00  0.00     0.171 C 
ATOM     28  C1  ZIN A   1      17.525  -0.538   8.417  0.00  0.00     0.060 C 
ATOM     29  C3  ZIN A   1      19.265   0.803   7.228  0.00  0.00     0.060 C 
BRANCH  27  30
ATOM     30  C37 ZIN A   1      18.966  -1.601   6.702  0.00  0.00     0.211 C 
ATOM     31  O38 ZIN A   1      19.648  -1.407   5.711  0.00  0.00    -0.646 OA
ATOM     32  O39 ZIN A   1      18.316  -2.627   6.803  0.00  0.00    -0.646 OA
ENDBRANCH  27  30
ENDBRANCH  26  27
ENDBRANCH  25  26
BRANCH  24  33
ATOM     33  C31 ZIN A   1      19.265  -0.870  12.480  0.00  0.00     0.102 A 
ATOM     34  N36 ZIN A   1      19.653   0.325  12.925  0.00  0.00    -0.222 NA
ATOM     35  C34 ZIN A   1      19.342   0.624  14.148  0.00  0.00     0.164 A 
ATOM     36  S33 ZIN A   1      18.469  -0.719  14.879  0.00  0.00    -0.062 SA
ATOM     37  C32 ZIN A   1      18.599  -1.628  13.374  0.00  0.00     0.087 A 
BRANCH  35  38
ATOM     38  N35 ZIN A   1      19.653   1.814  14.783  0.00  0.00    -0.378 N 
ATOM     39  H57 ZIN A   1      20.439   1.871  15.349  0.00  0.00     0.158 HD
ATOM     40  H58 ZIN A   1      19.085   2.592  14.662  0.00  0.00     0.158 HD
ENDBRANCH  35  38
ENDBRANCH  24  33
ENDBRANCH   1  24
TORSDOF 10
ENDMDL
MODEL 3
REMARK VINA RESULT:      -7.9      2.353      4.005
REMARK  10 active torsions:
REMARK  status: ('A' for Active; 'I' for Inactive)
REMARK    1  A    between atoms: C2_2  and  O4_4 
REMARK    2  A    between atoms: C2_2  and  C37_35 
REMARK    3  A    between atoms: O4_4  and  N5_5 
REMARK    4  A    between atoms: C6_6  and  C7_7 
REMARK    5  A    between atoms: C6_6  and  C31_29 
REMARK       I    between atoms: C7_7  and  N9_9 
REMARK    6  A    between atoms: N9_9  and  C10_10 
REMARK    7  A    between atoms: C15_14  and  C16_15 
REMARK    8  A    between atoms: C19_18  and  C20_19 
REMARK    9  A    between atoms: C20_19  and  N21_20 
REMARK   10  A    between atoms: C34_32  and  N35_33 
ROOT
ATOM      1  C7  ZIN A   1      18.983   3.818  14.322  0.00  0.00     0.275 C 
ATOM      2  O8  ZIN A   1      19.688   4.798  14.185  0.00  0.00    -0.266 OA
ATOM      3  N9  ZIN A   1      18.646   3.074  13.250  0.00  0.00    -0.339 N 
ATOM      4  H46 ZIN A   1      18.050   2.316  13.354  0.00  0.00     0.163 HD
ENDROOT
BRANCH   3   5
ATOM      5  C10 ZIN A   1      19.181   3.411  11.928  0.00  0.00     0.211 C 
ATOM      6  C29 ZIN A   1      20.176   2.386  11.392  0.00  0.00     0.187 C 
ATOM      7  N14 ZIN A   1      19.065   1.963  10.478  0.00  0.00    -0.293 N 
ATOM      8  S28 ZIN A   1      20.483   0.953  12.478  0.00  0.00    -0.136 SA
ATOM      9  C12 ZIN A   1      18.271   3.005  10.781  0.00  0.00     0.251 C 
ATOM     10  C15 ZIN A   1      18.986   0.756   9.762  0.00  0.00     0.120 C 
ATOM     11  O13 ZIN A   1      17.239   3.446  10.322  0.00  0.00    -0.271 OA
ATOM     12  C19 ZIN A   1      19.720  -0.284  10.137  0.00  0.00    -0.019 C 
ATOM     13  C27 ZIN A   1      20.717  -0.363  11.244  0.00  0.00     0.114 C 
BRANCH  10  14
ATOM     14  C16 ZIN A   1      18.090   0.646   8.599  0.00  0.00     0.227 C 
ATOM     15  O17 ZIN A   1      18.469   1.020   7.498  0.00  0.00    -0.643 OA
ATOM     16  O18 ZIN A   1      16.967   0.179   8.734  0.00  0.00    -0.643 OA
ENDBRANCH  10  14
BRANCH  12  17
ATOM     17  C20 ZIN A   1      19.521  -1.548   9.340  0.00  0.00     0.165 C 
BRANCH  17  18
ATOM     18  N21 ZIN A   1      19.005  -2.602  10.218  0.00  0.00    -0.362 N 
ATOM     19  C26 ZIN A   1      17.775  -2.509  10.680  0.00  0.00     0.090 A 
ATOM     20  C25 ZIN A   1      17.254  -3.487  11.506  0.00  0.00     0.017 A 
ATOM     21  C24 ZIN A   1      18.047  -4.569  11.855  0.00  0.00     0.003 A 
ATOM     22  C23 ZIN A   1      19.338  -4.630  11.353  0.00  0.00     0.017 A 
ATOM     23  C22 ZIN A   1      19.788  -3.617  10.528  0.00  0.00     0.090 A 
ENDBRANCH  17  18
ENDBRANCH  12  17
ENDBRANCH   3   5
BRANCH   1  24
ATOM     24  C6  ZIN A   1      18.494   3.440  15.669  0.00  0.00     0.180 C 
ATOM     25  N5  ZIN A   1      18.544   2.196  16.054  0.00  0.00    -0.125 NA
BRANCH  25  26
ATOM     26  O4  ZIN A   1      18.981   1.193  15.155  0.00  0.00    -0.234 OA
BRANCH  26  27
ATOM     27  C2  ZIN A   1      18.222  -0.016  15.219  0.00  0.00     0.171 C 
ATOM     28  C1  ZIN A   1      17.217   0.074  16.369  0.00  0.00     0.060 C 
ATOM     29  C3  ZIN A   1      17.472  -0.218  13.901  0.00  0.00     0.060 C 
BRANCH  27  30
ATOM     30  C37 ZIN A   1      19.150  -1.180  15.453  0.00  0.00     0.211 C 
ATOM     31  O38 ZIN A   1      19.288  -1.634  16.576  0.00  0.00    -0.646 OA
ATOM     32  O39 ZIN A   1      19.763  -1.667  14.519  0.00  0.00    -0.646 OA
ENDBRANCH  27  30
ENDBRANCH  26  27
ENDBRANCH  25  26
BRANCH  24  33
ATOM     33  C31 ZIN A   1      17.950   4.474  16.575  0.00  0.00     0.102 A 
ATOM     34  N36 ZIN A   1      18.187   4.470  17.888  0.00  0.00    -0.222 NA
ATOM     35  C34 ZIN A   1      17.660   5.431  18.581  0.00  0.00     0.164 A 
ATOM     36  S33 ZIN A   1      16.737   6.487  17.516  0.00  0.00    -0.062 SA
ATOM     37  C32 ZIN A   1      17.173   5.483  16.135  0.00  0.00     0.087 A 
BRANCH  35  38
ATOM     38  N35 ZIN A   1      17.796   5.597  19.948  0.00  0.00    -0.378 N 
ATOM     39  H57 ZIN A   1      17.089   6.021  20.459  0.00  0.00     0.158 HD
ATOM     40  H58 ZIN A   1      18.600   5.289  20.397  0.00  0.00     0.158 HD
ENDBRANCH  35  38
ENDBRANCH  24  33
ENDBRANCH   1  24
TORSDOF 10
ENDMDL
MODEL 4
REMARK VINA RESULT:      -7.9      2.565      4.449
REMARK  10 active torsions:
REMARK  status: ('A' for Active; 'I' for Inactive)
REMARK    1  A    between atoms: C2_2  and  O4_4 
REMARK    2  A    between atoms: C2_2  and  C37_35 
REMARK    3  A    between atoms: O4_4  and  N5_5 
REMARK    4  A    between atoms: C6_6  and  C7_7 
REMARK    5  A    between atoms: C6_6  and  C31_29 
REMARK       I    between atoms: C7_7  and  N9_9 
REMARK    6  A    between atoms: N9_9  and  C10_10 
REMARK    7  A    between atoms: C15_14  and  C16_15 
REMARK    8  A    between atoms: C19_18  and  C20_19 
REMARK    9  A    between atoms: C20_19  and  N21_20 
REMARK   10  A    between atoms: C34_32  and  N35_33 
ROOT
ATOM      1  C7  ZIN A   1      19.108   3.139  13.688  0.00  0.00     0.275 C 
ATOM      2  O8  ZIN A   1      19.864   4.025  13.343  0.00  0.00    -0.266 OA
ATOM      3  N9  ZIN A   1      19.064   1.982  12.998  0.00  0.00    -0.339 N 
ATOM      4  H46 ZIN A   1      18.432   1.291  13.248  0.00  0.00     0.163 HD
ENDROOT
BRANCH   3   5
ATOM      5  C10 ZIN A   1      19.973   1.769  11.868  0.00  0.00     0.211 C 
ATOM      6  C29 ZIN A   1      20.239   0.297  11.567  0.00  0.00     0.187 C 
ATOM      7  N14 ZIN A   1      19.338   0.501  10.386  0.00  0.00    -0.293 N 
ATOM      8  S28 ZIN A   1      19.368  -0.890  12.643  0.00  0.00    -0.136 SA
ATOM      9  C12 ZIN A   1      19.288   1.838  10.514  0.00  0.00     0.251 C 
ATOM     10  C15 ZIN A   1      18.711  -0.506   9.631  0.00  0.00     0.120 C 
ATOM     11  O13 ZIN A   1      18.866   2.741   9.823  0.00  0.00    -0.271 OA
ATOM     12  C19 ZIN A   1      18.564  -1.722  10.142  0.00  0.00    -0.019 C 
ATOM     13  C27 ZIN A   1      19.032  -2.233  11.464  0.00  0.00     0.114 C 
BRANCH  10  14
ATOM     14  C16 ZIN A   1      18.218  -0.212   8.275  0.00  0.00     0.227 C 
ATOM     15  O17 ZIN A   1      19.010  -0.077   7.353  0.00  0.00    -0.643 OA
ATOM     16  O18 ZIN A   1      17.017  -0.104   8.070  0.00  0.00    -0.643 OA
ENDBRANCH  10  14
BRANCH  12  17
ATOM     17  C20 ZIN A   1      17.829  -2.712   9.277  0.00  0.00     0.165 C 
BRANCH  17  18
ATOM     18  N21 ZIN A   1      18.785  -3.659   8.697  0.00  0.00    -0.362 N 
ATOM     19  C26 ZIN A   1      19.194  -3.481   7.457  0.00  0.00     0.090 A 
ATOM     20  C25 ZIN A   1      20.099  -4.351   6.879  0.00  0.00     0.017 A 
ATOM     21  C24 ZIN A   1      20.566  -5.427   7.617  0.00  0.00     0.003 A 
ATOM     22  C23 ZIN A   1      20.109  -5.586   8.916  0.00  0.00     0.017 A 
ATOM     23  C22 ZIN A   1      19.208  -4.672   9.428  0.00  0.00     0.090 A 
ENDBRANCH  17  18
ENDBRANCH  12  17
ENDBRANCH   3   5
BRANCH   1  24
ATOM     24  C6  ZIN A   1      18.234   3.329  14.870  0.00  0.00     0.180 C 
ATOM     25  N5  ZIN A   1      18.199   2.424  15.807  0.00  0.00    -0.125 NA
BRANCH  25  26
ATOM     26  O4  ZIN A   1      18.927   1.219  15.654  0.00  0.00    -0.234 OA
BRANCH  26  27
ATOM     27  C2  ZIN A   1      18.558   0.197  16.582  0.00  0.00     0.171 C 
ATOM     28  C1  ZIN A   1      17.072  -0.127  16.420  0.00  0.00     0.060 C 
ATOM     29  C3  ZIN A   1      19.387  -1.061  16.311  0.00  0.00     0.060 C 
BRANCH  27  30
ATOM     30  C37 ZIN A   1      18.818   0.675  17.987  0.00  0.00     0.211 C 
ATOM     31  O38 ZIN A   1      19.957   0.916  18.349  0.00  0.00    -0.646 OA
ATOM     32  O39 ZIN A   1      17.888   0.821  18.762  0.00  0.00    -0.646 OA
ENDBRANCH  27  30
ENDBRANCH  26  27
ENDBRANCH  25  26
BRANCH  24  33
ATOM     33  C31 ZIN A   1      17.401   4.546  14.985  0.00  0.00     0.102 A 
ATOM     34  N36 ZIN A   1      17.322   5.253  16.113  0.00  0.00    -0.222 NA
ATOM     35  C34 ZIN A   1      16.563   6.304  16.093  0.00  0.00     0.164 A 
ATOM     36  S33 ZIN A   1      15.825   6.467  14.503  0.00  0.00    -0.062 SA
ATOM     37  C32 ZIN A   1      16.662   5.014  13.961  0.00  0.00     0.087 A 
BRANCH  35  38
ATOM     38  N35 ZIN A   1      16.359   7.162  17.160  0.00  0.00    -0.378 N 
ATOM     39  H57 ZIN A   1      16.579   8.103  17.076  0.00  0.00     0.158 HD
ATOM     40  H58 ZIN A   1      15.995   6.822  17.993  0.00  0.00     0.158 HD
ENDBRANCH  35  38
ENDBRANCH  24  33
ENDBRANCH   1  24
TORSDOF 10
ENDMDL
MODEL 5
REMARK VINA RESULT:      -7.8      3.425      9.040
REMARK  10 active torsions:
REMARK  status: ('A' for Active; 'I' for Inactive)
REMARK    1  A    between atoms: C2_2  and  O4_4 
REMARK    2  A    between atoms: C2_2  and  C37_35 
REMARK    3  A    between atoms: O4_4  and  N5_5 
REMARK    4  A    between atoms: C6_6  and  C7_7 
REMARK    5  A    between atoms: C6_6  and  C31_29 
REMARK       I    between atoms: C7_7  and  N9_9 
REMARK    6  A    between atoms: N9_9  and  C10_10 
REMARK    7  A    between atoms: C15_14  and  C16_15 
REMARK    8  A    between atoms: C19_18  and  C20_19 
REMARK    9  A    between atoms: C20_19  and  N21_20 
REMARK   10  A    between atoms: C34_32  and  N35_33 
ROOT
ATOM      1  C7  ZIN A   1      19.200  -2.848   9.344  0.00  0.00     0.275 C 
ATOM      2  O8  ZIN A   1      19.975  -3.713   9.705  0.00  0.00    -0.266 OA
ATOM      3  N9  ZIN A   1      19.175  -1.659   9.977  0.00  0.00    -0.339 N 
ATOM      4  H46 ZIN A   1      18.529  -0.985   9.716  0.00  0.00     0.163 HD
ENDROOT
BRANCH   3   5
ATOM      5  C10 ZIN A   1      20.124  -1.385  11.060  0.00  0.00     0.211 C 
ATOM      6  C29 ZIN A   1      20.314   0.101  11.344  0.00  0.00     0.187 C 
ATOM      7  N14 ZIN A   1      19.487  -0.150  12.569  0.00  0.00    -0.293 N 
ATOM      8  S28 ZIN A   1      19.321   1.228  10.311  0.00  0.00    -0.136 SA
ATOM      9  C12 ZIN A   1      19.512  -1.489  12.447  0.00  0.00     0.251 C 
ATOM     10  C15 ZIN A   1      18.838   0.821  13.352  0.00  0.00     0.120 C 
ATOM     11  O13 ZIN A   1      19.180  -2.412  13.159  0.00  0.00    -0.271 OA
ATOM     12  C19 ZIN A   1      18.592   2.022  12.846  0.00  0.00    -0.019 C 
ATOM     13  C27 ZIN A   1      18.963   2.554  11.502  0.00  0.00     0.114 C 
BRANCH  10  14
ATOM     14  C16 ZIN A   1      18.432   0.504  14.732  0.00  0.00     0.227 C 
ATOM     15  O17 ZIN A   1      19.240   0.600  15.644  0.00  0.00    -0.643 OA
ATOM     16  O18 ZIN A   1      17.285   0.146  14.965  0.00  0.00    -0.643 OA
ENDBRANCH  10  14
BRANCH  12  17
ATOM     17  C20 ZIN A   1      17.842   2.971  13.745  0.00  0.00     0.165 C 
BRANCH  17  18
ATOM     18  N21 ZIN A   1      18.776   3.945  14.317  0.00  0.00    -0.362 N 
ATOM     19  C26 ZIN A   1      19.091   3.859  15.594  0.00  0.00     0.090 A 
ATOM     20  C25 ZIN A   1      19.972   4.757  16.166  0.00  0.00     0.017 A 
ATOM     21  C24 ZIN A   1      20.516   5.762  15.382  0.00  0.00     0.003 A 
ATOM     22  C23 ZIN A   1      20.157   5.824  14.044  0.00  0.00     0.017 A 
ATOM     23  C22 ZIN A   1      19.274   4.888  13.541  0.00  0.00     0.090 A 
ENDBRANCH  17  18
ENDBRANCH  12  17
ENDBRANCH   3   5
BRANCH   1  24
ATOM     24  C6  ZIN A   1      18.284  -3.102   8.207  0.00  0.00     0.180 C 
ATOM     25  N5  ZIN A   1      18.229  -2.258   7.215  0.00  0.00    -0.125 NA
BRANCH  25  26
ATOM     26  O4  ZIN A   1      18.978  -1.058   7.264  0.00  0.00    -0.234 OA
BRANCH  26  27
ATOM     27  C2  ZIN A   1      18.530  -0.056   6.349  0.00  0.00     0.171 C 
ATOM     28  C1  ZIN A   1      17.001   0.014   6.377  0.00  0.00     0.060 C 
ATOM     29  C3  ZIN A   1      19.110   1.301   6.753  0.00  0.00     0.060 C 
BRANCH  27  30
ATOM     30  C37 ZIN A   1      18.990  -0.405   4.957  0.00  0.00     0.211 C 
ATOM     31  O38 ZIN A   1      20.058  -0.970   4.791  0.00  0.00    -0.646 OA
ATOM     32  O39 ZIN A   1      18.295  -0.121   3.996  0.00  0.00    -0.646 OA
ENDBRANCH  27  30
ENDBRANCH  26  27
ENDBRANCH  25  26
BRANCH  24  33
ATOM     33  C31 ZIN A   1      17.432  -4.310   8.199  0.00  0.00     0.102 A 
ATOM     34  N36 ZIN A   1      17.365  -5.130   7.149  0.00  0.00    -0.222 NA
ATOM     35  C34 ZIN A   1      16.586  -6.161   7.260  0.00  0.00     0.164 A 
ATOM     36  S33 ZIN A   1      15.811  -6.146   8.841  0.00  0.00    -0.062 SA
ATOM     37  C32 ZIN A   1      16.663  -4.658   9.249  0.00  0.00     0.087 A 
BRANCH  35  38
ATOM     38  N35 ZIN A   1      16.390  -7.122   6.283  0.00  0.00    -0.378 N 
ATOM     39  H57 ZIN A   1      15.939  -6.889   5.457  0.00  0.00     0.158 HD
ATOM     40  H58 ZIN A   1      16.703  -8.029   6.425  0.00  0.00     0.158 HD
ENDBRANCH  35  38
ENDBRANCH  24  33
ENDBRANCH   1  24
TORSDOF 10
ENDMDL
MODEL 6
REMARK VINA RESULT:      -7.6      3.995      7.058
REMARK  10 active torsions:
REMARK  status: ('A' for Active; 'I' for Inactive)
REMARK    1  A    between atoms: C2_2  and  O4_4 
REMARK    2  A    between atoms: C2_2  and  C37_35 
REMARK    3  A    between atoms: O4_4  and  N5_5 
REMARK    4  A    between atoms: C6_6  and  C7_7 
REMARK    5  A    between atoms: C6_6  and  C31_29 
REMARK       I    between atoms: C7_7  and  N9_9 
REMARK    6  A    between atoms: N9_9  and  C10_10 
REMARK    7  A    between atoms: C15_14  and  C16_15 
REMARK    8  A    between atoms: C19_18  and  C20_19 
REMARK    9  A    between atoms: C20_19  and  N21_20 
REMARK   10  A    between atoms: C34_32  and  N35_33 
ROOT
ATOM      1  C7  ZIN A   1      18.508  -1.919  12.413  0.00  0.00     0.275 C 
ATOM      2  O8  ZIN A   1      19.509  -2.127  13.070  0.00  0.00    -0.266 OA
ATOM      3  N9  ZIN A   1      17.972  -2.906  11.668  0.00  0.00    -0.339 N 
ATOM      4  H46 ZIN A   1      17.198  -2.728  11.112  0.00  0.00     0.163 HD
ENDROOT
BRANCH   3   5
ATOM      5  C10 ZIN A   1      18.561  -4.247  11.697  0.00  0.00     0.211 C 
ATOM      6  C29 ZIN A   1      17.935  -5.211  10.695  0.00  0.00     0.187 C 
ATOM      7  N14 ZIN A   1      19.199  -5.026   9.909  0.00  0.00    -0.293 N 
ATOM      8  S28 ZIN A   1      16.610  -4.509   9.657  0.00  0.00    -0.136 SA
ATOM      9  C12 ZIN A   1      19.842  -4.367  10.889  0.00  0.00     0.251 C 
ATOM     10  C15 ZIN A   1      19.392  -5.341   8.552  0.00  0.00     0.120 C 
ATOM     11  O13 ZIN A   1      20.989  -4.012  11.060  0.00  0.00    -0.271 OA
ATOM     12  C19 ZIN A   1      18.345  -5.481   7.750  0.00  0.00    -0.019 C 
ATOM     13  C27 ZIN A   1      16.895  -5.397   8.096  0.00  0.00     0.114 C 
BRANCH  10  14
ATOM     14  C16 ZIN A   1      20.755  -5.515   8.023  0.00  0.00     0.227 C 
ATOM     15  O17 ZIN A   1      21.176  -4.760   7.158  0.00  0.00    -0.643 OA
ATOM     16  O18 ZIN A   1      21.467  -6.414   8.450  0.00  0.00    -0.643 OA
ENDBRANCH  10  14
BRANCH  12  17
ATOM     17  C20 ZIN A   1      18.660  -5.762   6.304  0.00  0.00     0.165 C 
BRANCH  17  18
ATOM     18  N21 ZIN A   1      18.041  -4.737   5.460  0.00  0.00    -0.362 N 
ATOM     19  C26 ZIN A   1      18.526  -3.512   5.478  0.00  0.00     0.090 A 
ATOM     20  C25 ZIN A   1      17.970  -2.519   4.692  0.00  0.00     0.017 A 
ATOM     21  C24 ZIN A   1      16.884  -2.825   3.887  0.00  0.00     0.003 A 
ATOM     22  C23 ZIN A   1      16.398  -4.124   3.898  0.00  0.00     0.017 A 
ATOM     23  C22 ZIN A   1      17.009  -5.063   4.707  0.00  0.00     0.090 A 
ENDBRANCH  17  18
ENDBRANCH  12  17
ENDBRANCH   3   5
BRANCH   1  24
ATOM     24  C6  ZIN A   1      17.874  -0.579  12.434  0.00  0.00     0.180 C 
ATOM     25  N5  ZIN A   1      17.273  -0.127  11.369  0.00  0.00    -0.125 NA
BRANCH  25  26
ATOM     26  O4  ZIN A   1      17.301  -0.876  10.168  0.00  0.00    -0.234 OA
BRANCH  26  27
ATOM     27  C2  ZIN A   1      18.011  -0.239   9.104  0.00  0.00     0.171 C 
ATOM     28  C1  ZIN A   1      17.238  -0.421   7.795  0.00  0.00     0.060 C 
ATOM     29  C3  ZIN A   1      18.155   1.253   9.408  0.00  0.00     0.060 C 
BRANCH  27  30
ATOM     30  C37 ZIN A   1      19.378  -0.859   8.969  0.00  0.00     0.211 C 
ATOM     31  O38 ZIN A   1      20.317  -0.407   9.602  0.00  0.00    -0.646 OA
ATOM     32  O39 ZIN A   1      19.545  -1.811   8.227  0.00  0.00    -0.646 OA
ENDBRANCH  27  30
ENDBRANCH  26  27
ENDBRANCH  25  26
BRANCH  24  33
ATOM     33  C31 ZIN A   1      17.924   0.245  13.661  0.00  0.00     0.102 A 
ATOM     34  N36 ZIN A   1      17.407  -0.166  14.819  0.00  0.00    -0.222 NA
ATOM     35  C34 ZIN A   1      17.516   0.641  15.828  0.00  0.00     0.164 A 
ATOM     36  S33 ZIN A   1      18.344   2.109  15.321  0.00  0.00    -0.062 SA
ATOM     37  C32 ZIN A   1      18.490   1.467  13.686  0.00  0.00     0.087 A 
BRANCH  35  38
ATOM     38  N35 ZIN A   1      17.046   0.389  17.106  0.00  0.00    -0.378 N 
ATOM     39  H57 ZIN A   1      16.917   1.121  17.729  0.00  0.00     0.158 HD
ATOM     40  H58 ZIN A   1      16.846  -0.521  17.379  0.00  0.00     0.158 HD
ENDBRANCH  35  38
ENDBRANCH  24  33
ENDBRANCH   1  24
TORSDOF 10
ENDMDL
MODEL 7
REMARK VINA RESULT:      -7.6      4.121      6.533
REMARK  10 active torsions:
REMARK  status: ('A' for Active; 'I' for Inactive)
REMARK    1  A    between atoms: C2_2  and  O4_4 
REMARK    2  A    between atoms: C2_2  and  C37_35 
REMARK    3  A    between atoms: O4_4  and  N5_5 
REMARK    4  A    between atoms: C6_6  and  C7_7 
REMARK    5  A    between atoms: C6_6  and  C31_29 
REMARK       I    between atoms: C7_7  and  N9_9 
REMARK    6  A    between atoms: N9_9  and  C10_10 
REMARK    7  A    between atoms: C15_14  and  C16_15 
REMARK    8  A    between atoms: C19_18  and  C20_19 
REMARK    9  A    between atoms: C20_19  and  N21_20 
REMARK   10  A    between atoms: C34_32  and  N35_33 
ROOT
ATOM      1  C7  ZIN A   1      18.229  -0.886  12.716  0.00  0.00     0.275 C 
ATOM      2  O8  ZIN A   1      17.085  -1.096  13.069  0.00  0.00    -0.266 OA
ATOM      3  N9  ZIN A   1      18.929  -1.850  12.086  0.00  0.00    -0.339 N 
ATOM      4  H46 ZIN A   1      19.854  -1.697  11.842  0.00  0.00     0.163 HD
ENDROOT
BRANCH   3   5
ATOM      5  C10 ZIN A   1      18.290  -3.130  11.770  0.00  0.00     0.211 C 
ATOM      6  C29 ZIN A   1      17.620  -3.158  10.400  0.00  0.00     0.187 C 
ATOM      7  N14 ZIN A   1      18.785  -4.005   9.981  0.00  0.00    -0.293 N 
ATOM      8  S28 ZIN A   1      17.764  -1.621   9.429  0.00  0.00    -0.136 SA
ATOM      9  C12 ZIN A   1      19.252  -4.175  11.231  0.00  0.00     0.251 C 
ATOM     10  C15 ZIN A   1      19.192  -4.272   8.662  0.00  0.00     0.120 C 
ATOM     11  O13 ZIN A   1      20.102  -4.882  11.729  0.00  0.00    -0.271 OA
ATOM     12  C19 ZIN A   1      18.797  -3.478   7.675  0.00  0.00    -0.019 C 
ATOM     13  C27 ZIN A   1      17.890  -2.295   7.745  0.00  0.00     0.114 C 
BRANCH  10  14
ATOM     14  C16 ZIN A   1      20.055  -5.430   8.377  0.00  0.00     0.227 C 
ATOM     15  O17 ZIN A   1      21.258  -5.273   8.228  0.00  0.00    -0.643 OA
ATOM     16  O18 ZIN A   1      19.568  -6.549   8.291  0.00  0.00    -0.643 OA
ENDBRANCH  10  14
BRANCH  12  17
ATOM     17  C20 ZIN A   1      19.334  -3.816   6.308  0.00  0.00     0.165 C 
BRANCH  17  18
ATOM     18  N21 ZIN A   1      18.218  -4.083   5.397  0.00  0.00    -0.362 N 
ATOM     19  C26 ZIN A   1      17.523  -5.194   5.541  0.00  0.00     0.090 A 
ATOM     20  C25 ZIN A   1      16.461  -5.477   4.703  0.00  0.00     0.017 A 
ATOM     21  C24 ZIN A   1      16.138  -4.581   3.696  0.00  0.00     0.003 A 
ATOM     22  C23 ZIN A   1      16.896  -3.427   3.571  0.00  0.00     0.017 A 
ATOM     23  C22 ZIN A   1      17.940  -3.209   4.450  0.00  0.00     0.090 A 
ENDBRANCH  17  18
ENDBRANCH  12  17
ENDBRANCH   3   5
BRANCH   1  24
ATOM     24  C6  ZIN A   1      18.855   0.432  12.978  0.00  0.00     0.180 C 
ATOM     25  N5  ZIN A   1      19.373   0.686  14.146  0.00  0.00    -0.125 NA
BRANCH  25  26
ATOM     26  O4  ZIN A   1      19.259  -0.262  15.192  0.00  0.00    -0.234 OA
BRANCH  26  27
ATOM     27  C2  ZIN A   1      18.620   0.243  16.366  0.00  0.00     0.171 C 
ATOM     28  C1  ZIN A   1      18.489   1.764  16.262  0.00  0.00     0.060 C 
ATOM     29  C3  ZIN A   1      17.229  -0.380  16.498  0.00  0.00     0.060 C 
BRANCH  27  30
ATOM     30  C37 ZIN A   1      19.445  -0.108  17.578  0.00  0.00     0.211 C 
ATOM     31  O38 ZIN A   1      19.860   0.774  18.310  0.00  0.00    -0.646 OA
ATOM     32  O39 ZIN A   1      19.696  -1.274  17.826  0.00  0.00    -0.646 OA
ENDBRANCH  27  30
ENDBRANCH  26  27
ENDBRANCH  25  26
BRANCH  24  33
ATOM     33  C31 ZIN A   1      18.891   1.458  11.913  0.00  0.00     0.102 A 
ATOM     34  N36 ZIN A   1      19.298   1.187  10.673  0.00  0.00    -0.222 NA
ATOM     35  C34 ZIN A   1      19.281   2.167   9.824  0.00  0.00     0.164 A 
ATOM     36  S33 ZIN A   1      18.710   3.628  10.622  0.00  0.00    -0.062 SA
ATOM     37  C32 ZIN A   1      18.521   2.735  12.130  0.00  0.00     0.087 A 
BRANCH  35  38
ATOM     38  N35 ZIN A   1      19.662   2.079   8.495  0.00  0.00    -0.378 N 
ATOM     39  H57 ZIN A   1      19.612   1.228   8.031  0.00  0.00     0.158 HD
ATOM     40  H58 ZIN A   1      19.978   2.868   8.028  0.00  0.00     0.158 HD
ENDBRANCH  35  38
ENDBRANCH  24  33
ENDBRANCH   1  24
TORSDOF 10
ENDMDL
MODEL 8
REMARK VINA RESULT:      -7.5      3.003      7.793
REMARK  10 active torsions:
REMARK  status: ('A' for Active; 'I' for Inactive)
REMARK    1  A    between atoms: C2_2  and  O4_4 
REMARK    2  A    between atoms: C2_2  and  C37_35 
REMARK    3  A    between atoms: O4_4  and  N5_5 
REMARK    4  A    between atoms: C6_6  and  C7_7 
REMARK    5  A    between atoms: C6_6  and  C31_29 
REMARK       I    between atoms: C7_7  and  N9_9 
REMARK    6  A    between atoms: N9_9  and  C10_10 
REMARK    7  A    between atoms: C15_14  and  C16_15 
REMARK    8  A    between atoms: C19_18  and  C20_19 
REMARK    9  A    between atoms: C20_19  and  N21_20 
REMARK   10  A    between atoms: C34_32  and  N35_33 
ROOT
ATOM      1  C7  ZIN A   1      18.410   1.973  10.997  0.00  0.00     0.275 C 
ATOM      2  O8  ZIN A   1      19.430   2.153  10.362  0.00  0.00    -0.266 OA
ATOM      3  N9  ZIN A   1      17.852   2.991  11.681  0.00  0.00    -0.339 N 
ATOM      4  H46 ZIN A   1      17.061   2.838  12.220  0.00  0.00     0.163 HD
ENDROOT
BRANCH   3   5
ATOM      5  C10 ZIN A   1      18.441   4.331  11.609  0.00  0.00     0.211 C 
ATOM      6  C29 ZIN A   1      17.790   5.337  12.554  0.00  0.00     0.187 C 
ATOM      7  N14 ZIN A   1      19.033   5.186  13.378  0.00  0.00    -0.293 N 
ATOM      8  S28 ZIN A   1      16.440   4.677  13.587  0.00  0.00    -0.136 SA
ATOM      9  C12 ZIN A   1      19.701   4.488  12.443  0.00  0.00     0.251 C 
ATOM     10  C15 ZIN A   1      19.193   5.559  14.724  0.00  0.00     0.120 C 
ATOM     11  O13 ZIN A   1      20.852   4.127  12.315  0.00  0.00    -0.271 OA
ATOM     12  C19 ZIN A   1      18.126   5.732  15.494  0.00  0.00    -0.019 C 
ATOM     13  C27 ZIN A   1      16.686   5.630  15.116  0.00  0.00     0.114 C 
BRANCH  10  14
ATOM     14  C16 ZIN A   1      20.542   5.757  15.279  0.00  0.00     0.227 C 
ATOM     15  O17 ZIN A   1      21.034   4.907  16.008  0.00  0.00    -0.643 OA
ATOM     16  O18 ZIN A   1      21.172   6.771  15.010  0.00  0.00    -0.643 OA
ENDBRANCH  10  14
BRANCH  12  17
ATOM     17  C20 ZIN A   1      18.406   6.074  16.934  0.00  0.00     0.165 C 
BRANCH  17  18
ATOM     18  N21 ZIN A   1      17.825   5.047  17.803  0.00  0.00    -0.362 N 
ATOM     19  C26 ZIN A   1      16.786   5.354  18.554  0.00  0.00     0.090 A 
ATOM     20  C25 ZIN A   1      16.209   4.409  19.382  0.00  0.00     0.017 A 
ATOM     21  C24 ZIN A   1      16.744   3.131  19.424  0.00  0.00     0.003 A 
ATOM     22  C23 ZIN A   1      17.840   2.847  18.624  0.00  0.00     0.017 A 
ATOM     23  C22 ZIN A   1      18.360   3.842  17.817  0.00  0.00     0.090 A 
ENDBRANCH  17  18
ENDBRANCH  12  17
ENDBRANCH   3   5
BRANCH   1  24
ATOM     24  C6  ZIN A   1      17.777   0.633  11.018  0.00  0.00     0.180 C 
ATOM     25  N5  ZIN A   1      17.219   0.193  12.110  0.00  0.00    -0.125 NA
BRANCH  25  26
ATOM     26  O4  ZIN A   1      17.294   0.957  13.300  0.00  0.00    -0.234 OA
BRANCH  26  27
ATOM     27  C2  ZIN A   1      18.077   0.350  14.331  0.00  0.00     0.171 C 
ATOM     28  C1  ZIN A   1      17.350   0.485  15.670  0.00  0.00     0.060 C 
ATOM     29  C3  ZIN A   1      18.283  -1.131  14.009  0.00  0.00     0.060 C 
BRANCH  27  30
ATOM     30  C37 ZIN A   1      19.416   1.037  14.415  0.00  0.00     0.211 C 
ATOM     31  O38 ZIN A   1      19.561   2.002  15.145  0.00  0.00    -0.646 OA
ATOM     32  O39 ZIN A   1      20.353   0.627  13.753  0.00  0.00    -0.646 OA
ENDBRANCH  27  30
ENDBRANCH  26  27
ENDBRANCH  25  26
BRANCH  24  33
ATOM     33  C31 ZIN A   1      17.780  -0.206   9.799  0.00  0.00     0.102 A 
ATOM     34  N36 ZIN A   1      17.267   0.214   8.642  0.00  0.00    -0.222 NA
ATOM     35  C34 ZIN A   1      17.331  -0.608   7.641  0.00  0.00     0.164 A 
ATOM     36  S33 ZIN A   1      18.105  -2.104   8.156  0.00  0.00    -0.062 SA
ATOM     37  C32 ZIN A   1      18.296  -1.450   9.781  0.00  0.00     0.087 A 
BRANCH  35  38
ATOM     38  N35 ZIN A   1      16.858  -0.351   6.366  0.00  0.00    -0.378 N 
ATOM     39  H57 ZIN A   1      16.721  -1.081   5.742  0.00  0.00     0.158 HD
ATOM     40  H58 ZIN A   1      16.662   0.560   6.095  0.00  0.00     0.158 HD
ENDBRANCH  35  38
ENDBRANCH  24  33
ENDBRANCH   1  24
TORSDOF 10
ENDMDL
MODEL 9
REMARK VINA RESULT:      -7.4      6.123      9.866
REMARK  10 active torsions:
REMARK  status: ('A' for Active; 'I' for Inactive)
REMARK    1  A    between atoms: C2_2  and  O4_4 
REMARK    2  A    between atoms: C2_2  and  C37_35 
REMARK    3  A    between atoms: O4_4  and  N5_5 
REMARK    4  A    between atoms: C6_6  and  C7_7 
REMARK    5  A    between atoms: C6_6  and  C31_29 
REMARK       I    between atoms: C7_7  and  N9_9 
REMARK    6  A    between atoms: N9_9  and  C10_10 
REMARK    7  A    between atoms: C15_14  and  C16_15 
REMARK    8  A    between atoms: C19_18  and  C20_19 
REMARK    9  A    between atoms: C20_19  and  N21_20 
REMARK   10  A    between atoms: C34_32  and  N35_33 
ROOT
ATOM      1  C7  ZIN A   1      18.844  -2.565   6.928  0.00  0.00     0.275 C 
ATOM      2  O8  ZIN A   1      19.937  -2.492   6.403  0.00  0.00    -0.266 OA
ATOM      3  N9  ZIN A   1      17.869  -3.300   6.357  0.00  0.00    -0.339 N 
ATOM      4  H46 ZIN A   1      16.984  -3.325   6.754  0.00  0.00     0.163 HD
ENDROOT
BRANCH   3   5
ATOM      5  C10 ZIN A   1      18.146  -4.061   5.136  0.00  0.00     0.211 C 
ATOM      6  C29 ZIN A   1      17.912  -5.561   5.284  0.00  0.00     0.187 C 
ATOM      7  N14 ZIN A   1      16.675  -5.327   4.471  0.00  0.00    -0.293 N 
ATOM      8  S28 ZIN A   1      17.322  -6.101   6.923  0.00  0.00    -0.136 SA
ATOM      9  C12 ZIN A   1      16.994  -4.063   4.144  0.00  0.00     0.251 C 
ATOM     10  C15 ZIN A   1      15.575  -6.196   4.355  0.00  0.00     0.120 C 
ATOM     11  O13 ZIN A   1      16.544  -3.248   3.367  0.00  0.00    -0.271 OA
ATOM     12  C19 ZIN A   1      15.378  -7.138   5.268  0.00  0.00    -0.019 C 
ATOM     13  C27 ZIN A   1      16.224  -7.472   6.452  0.00  0.00     0.114 C 
BRANCH  10  14
ATOM     14  C16 ZIN A   1      14.644  -6.060   3.223  0.00  0.00     0.227 C 
ATOM     15  O17 ZIN A   1      13.688  -5.302   3.306  0.00  0.00    -0.643 OA
ATOM     16  O18 ZIN A   1      14.828  -6.704   2.199  0.00  0.00    -0.643 OA
ENDBRANCH  10  14
BRANCH  12  17
ATOM     17  C20 ZIN A   1      14.141  -7.980   5.086  0.00  0.00     0.165 C 
BRANCH  17  18
ATOM     18  N21 ZIN A   1      13.308  -7.892   6.288  0.00  0.00    -0.362 N 
ATOM     19  C26 ZIN A   1      12.806  -8.996   6.803  0.00  0.00     0.090 A 
ATOM     20  C25 ZIN A   1      12.019  -8.952   7.939  0.00  0.00     0.017 A 
ATOM     21  C24 ZIN A   1      11.753  -7.726   8.529  0.00  0.00     0.003 A 
ATOM     22  C23 ZIN A   1      12.294  -6.586   7.955  0.00  0.00     0.017 A 
ATOM     23  C22 ZIN A   1      13.075  -6.709   6.822  0.00  0.00     0.090 A 
ENDBRANCH  17  18
ENDBRANCH  12  17
ENDBRANCH   3   5
BRANCH   1  24
ATOM     24  C6  ZIN A   1      18.582  -1.847   8.198  0.00  0.00     0.180 C 
ATOM     25  N5  ZIN A   1      18.151  -2.502   9.239  0.00  0.00    -0.125 NA
BRANCH  25  26
ATOM     26  O4  ZIN A   1      17.848  -3.881   9.133  0.00  0.00    -0.234 OA
BRANCH  26  27
ATOM     27  C2  ZIN A   1      18.083  -4.621  10.332  0.00  0.00     0.171 C 
ATOM     28  C1  ZIN A   1      17.608  -3.805  11.537  0.00  0.00     0.060 C 
ATOM     29  C3  ZIN A   1      17.312  -5.941  10.276  0.00  0.00     0.060 C 
BRANCH  27  30
ATOM     30  C37 ZIN A   1      19.556  -4.905  10.468  0.00  0.00     0.211 C 
ATOM     31  O38 ZIN A   1      20.144  -5.513   9.590  0.00  0.00    -0.646 OA
ATOM     32  O39 ZIN A   1      20.161  -4.527  11.457  0.00  0.00    -0.646 OA
ENDBRANCH  27  30
ENDBRANCH  26  27
ENDBRANCH  25  26
BRANCH  24  33
ATOM     33  C31 ZIN A   1      18.809  -0.388   8.283  0.00  0.00     0.102 A 
ATOM     34  N36 ZIN A   1      19.152   0.216   9.421  0.00  0.00    -0.222 NA
ATOM     35  C34 ZIN A   1      19.329   1.499   9.372  0.00  0.00     0.164 A 
ATOM     36  S33 ZIN A   1      19.031   2.073   7.734  0.00  0.00    -0.062 SA
ATOM     37  C32 ZIN A   1      18.677   0.426   7.218  0.00  0.00     0.087 A 
BRANCH  35  38
ATOM     38  N35 ZIN A   1      19.690   2.297  10.445  0.00  0.00    -0.378 N 
ATOM     39  H57 ZIN A   1      20.047   3.186  10.290  0.00  0.00     0.158 HD
ATOM     40  H58 ZIN A   1      19.585   1.968  11.351  0.00  0.00     0.158 HD
ENDBRANCH  35  38
ENDBRANCH  24  33
ENDBRANCH   1  24
TORSDOF 10
ENDMDL
