MODEL 1
REMARK VINA RESULT:     -10.1      0.000      0.000
REMARK  7 active torsions:
REMARK  status: ('A' for Active; 'I' for Inactive)
REMARK    1  A    between atoms: C2_2  and  C5_5 
REMARK    2  A    between atoms: C7_7  and  C8_8 
REMARK    3  A    between atoms: C12_12  and  N13_13 
REMARK    4  A    between atoms: N13_13  and  S14_14 
REMARK    5  A    between atoms: S14_14  and  C17_17 
REMARK    6  A    between atoms: C27_27  and  C28_28 
REMARK    7  A    between atoms: C32_32  and  N33_33 
ROOT
ATOM      1  C8  ZIN A   1      18.262   2.726  12.977  0.00  0.00     0.035 A 
ATOM      2  C9  ZIN A   1      17.443   3.798  12.619  0.00  0.00     0.017 A 
ATOM      3  C10 ZIN A   1      17.273   4.123  11.289  0.00  0.00     0.003 A 
ATOM      4  C11 ZIN A   1      17.911   3.390  10.306  0.00  0.00     0.036 A 
ATOM      5  C12 ZIN A   1      18.730   2.322  10.650  0.00  0.00     0.109 A 
ATOM      6  C25 ZIN A   1      18.912   1.990  11.986  0.00  0.00     0.158 A 
ATOM      7  F26 ZIN A   1      19.706   0.951  12.325  0.00  0.00    -0.203 F 
ENDROOT
BRANCH   1   8
ATOM      8  C7  ZIN A   1      18.445   2.376  14.405  0.00  0.00     0.090 A 
ATOM      9  N6  ZIN A   1      18.325   1.145  14.870  0.00  0.00    -0.243 NA
ATOM     10  C5  ZIN A   1      18.508   0.969  16.133  0.00  0.00     0.084 A 
ATOM     11  S35 ZIN A   1      18.868   2.447  16.910  0.00  0.00    -0.069 SA
ATOM     12  C27 ZIN A   1      18.755   3.301  15.372  0.00  0.00     0.066 A 
BRANCH  10  13
ATOM     13  C2  ZIN A   1      18.412  -0.363  16.832  0.00  0.00     0.000 C 
ATOM     14  C1  ZIN A   1      19.092  -0.272  18.199  0.00  0.00     0.021 C 
ATOM     15  C3  ZIN A   1      19.104  -1.434  15.987  0.00  0.00     0.021 C 
ATOM     16  C4  ZIN A   1      16.939  -0.735  17.019  0.00  0.00     0.021 C 
ENDBRANCH  10  13
BRANCH  12  17
ATOM     17  C28 ZIN A   1      18.952   4.747  15.164  0.00  0.00     0.097 A 
ATOM     18  N34 ZIN A   1      17.998   5.616  15.501  0.00  0.00    -0.062 NA
ATOM     19  C32 ZIN A   1      18.176   6.915  15.319  0.00  0.00     0.720 A 
ATOM     20  N31 ZIN A   1      19.292   7.398  14.790  0.00  0.00    -0.075 NA
ATOM     21  C30 ZIN A   1      20.280   6.593  14.427  0.00  0.00     0.139 A 
ATOM     22  C29 ZIN A   1      20.142   5.229  14.603  0.00  0.00     0.053 A 
BRANCH  19  23
ATOM     23  N33 ZIN A   1      17.169   7.791  15.683  0.00  0.00    -0.231 N 
ATOM     24  H53 ZIN A   1      17.392   8.672  16.022  0.00  0.00     0.174 HD
ATOM     25  H54 ZIN A   1      16.240   7.524  15.600  0.00  0.00     0.174 HD
ENDBRANCH  19  23
ENDBRANCH  12  17
ENDBRANCH   1   8
BRANCH   5  26
ATOM     26  N13 ZIN A   1      19.374   1.583   9.652  0.00  0.00    -0.157 NA
BRANCH  26  27
ATOM     27  S14 ZIN A   1      18.849   0.055   9.285  0.00  0.00     0.290 S 
ATOM     28  O15 ZIN A   1      19.772  -0.843   9.885  0.00  0.00    -0.198 OA
ATOM     29  O16 ZIN A   1      17.454   0.034   9.558  0.00  0.00    -0.198 OA
BRANCH  27  30
ATOM     30  C17 ZIN A   1      19.017  -0.148   7.543  0.00  0.00     0.158 A 
ATOM     31  C23 ZIN A   1      19.015   0.960   6.713  0.00  0.00     0.142 A 
ATOM     32  C22 ZIN A   1      19.154   0.800   5.345  0.00  0.00     0.044 A 
ATOM     33  F24 ZIN A   1      18.889   2.198   7.240  0.00  0.00    -0.204 F 
ATOM     34  C21 ZIN A   1      19.282  -0.466   4.805  0.00  0.00     0.006 A 
ATOM     35  C20 ZIN A   1      19.279  -1.574   5.633  0.00  0.00     0.044 A 
ATOM     36  C18 ZIN A   1      19.146  -1.416   7.002  0.00  0.00     0.142 A 
ATOM     37  F19 ZIN A   1      19.143  -2.498   7.809  0.00  0.00    -0.204 F 
ENDBRANCH  27  30
ENDBRANCH  26  27
ENDBRANCH   5  26
TORSDOF 7
ENDMDL
MODEL 2
REMARK VINA RESULT:      -9.4      2.122      2.776
REMARK  7 active torsions:
REMARK  status: ('A' for Active; 'I' for Inactive)
REMARK    1  A    between atoms: C2_2  and  C5_5 
REMARK    2  A    between atoms: C7_7  and  C8_8 
REMARK    3  A    between atoms: C12_12  and  N13_13 
REMARK    4  A    between atoms: N13_13  and  S14_14 
REMARK    5  A    between atoms: S14_14  and  C17_17 
REMARK    6  A    between atoms: C27_27  and  C28_28 
REMARK    7  A    between atoms: C32_32  and  N33_33 
ROOT
ATOM      1  C8  ZIN A   1      18.169   2.939  13.052  0.00  0.00     0.035 A 
ATOM      2  C9  ZIN A   1      17.228   3.916  12.724  0.00  0.00     0.017 A 
ATOM      3  C10 ZIN A   1      17.039   4.279  11.406  0.00  0.00     0.003 A 
ATOM      4  C11 ZIN A   1      17.780   3.678  10.406  0.00  0.00     0.036 A 
ATOM      5  C12 ZIN A   1      18.720   2.705  10.720  0.00  0.00     0.109 A 
ATOM      6  C25 ZIN A   1      18.921   2.337  12.044  0.00  0.00     0.158 A 
ATOM      7  F26 ZIN A   1      19.834   1.390  12.353  0.00  0.00    -0.203 F 
ENDROOT
BRANCH   1   8
ATOM      8  C7  ZIN A   1      18.372   2.548  14.466  0.00  0.00     0.090 A 
ATOM      9  N6  ZIN A   1      18.287   1.300  14.893  0.00  0.00    -0.243 NA
ATOM     10  C5  ZIN A   1      18.484   1.089  16.148  0.00  0.00     0.084 A 
ATOM     11  S35 ZIN A   1      18.813   2.550  16.969  0.00  0.00    -0.069 SA
ATOM     12  C27 ZIN A   1      18.666   3.449  15.461  0.00  0.00     0.066 A 
BRANCH  10  13
ATOM     13  C2  ZIN A   1      18.427  -0.266  16.805  0.00  0.00     0.000 C 
ATOM     14  C1  ZIN A   1      16.967  -0.667  17.021  0.00  0.00     0.021 C 
ATOM     15  C3  ZIN A   1      19.146  -0.210  18.154  0.00  0.00     0.021 C 
ATOM     16  C4  ZIN A   1      19.111  -1.298  15.906  0.00  0.00     0.021 C 
ENDBRANCH  10  13
BRANCH  12  17
ATOM     17  C28 ZIN A   1      18.824   4.906  15.297  0.00  0.00     0.097 A 
ATOM     18  N34 ZIN A   1      17.871   5.742  15.712  0.00  0.00    -0.062 NA
ATOM     19  C32 ZIN A   1      18.015   7.050  15.570  0.00  0.00     0.720 A 
ATOM     20  N31 ZIN A   1      19.095   7.575  15.007  0.00  0.00    -0.075 NA
ATOM     21  C30 ZIN A   1      20.079   6.805  14.567  0.00  0.00     0.139 A 
ATOM     22  C29 ZIN A   1      19.976   5.434  14.699  0.00  0.00     0.053 A 
BRANCH  19  23
ATOM     23  N33 ZIN A   1      17.011   7.891  16.015  0.00  0.00    -0.231 N 
ATOM     24  H53 ZIN A   1      16.476   8.389  15.377  0.00  0.00     0.174 HD
ATOM     25  H54 ZIN A   1      16.842   7.983  16.966  0.00  0.00     0.174 HD
ENDBRANCH  19  23
ENDBRANCH  12  17
ENDBRANCH   1   8
BRANCH   5  26
ATOM     26  N13 ZIN A   1      19.468   2.099   9.705  0.00  0.00    -0.157 NA
BRANCH  26  27
ATOM     27  S14 ZIN A   1      18.938   0.688   9.016  0.00  0.00     0.290 S 
ATOM     28  O15 ZIN A   1      17.628   0.945   8.529  0.00  0.00    -0.198 OA
ATOM     29  O16 ZIN A   1      19.997   0.222   8.190  0.00  0.00    -0.198 OA
BRANCH  27  30
ATOM     30  C17 ZIN A   1      18.764  -0.491  10.313  0.00  0.00     0.158 A 
ATOM     31  C23 ZIN A   1      17.513  -0.760  10.842  0.00  0.00     0.142 A 
ATOM     32  C22 ZIN A   1      17.377  -1.692  11.857  0.00  0.00     0.044 A 
ATOM     33  F24 ZIN A   1      16.425  -0.122  10.359  0.00  0.00    -0.204 F 
ATOM     34  C21 ZIN A   1      18.490  -2.345  12.352  0.00  0.00     0.006 A 
ATOM     35  C20 ZIN A   1      19.740  -2.073  11.829  0.00  0.00     0.044 A 
ATOM     36  C18 ZIN A   1      19.879  -1.146  10.809  0.00  0.00     0.142 A 
ATOM     37  F19 ZIN A   1      21.100  -0.881  10.299  0.00  0.00    -0.204 F 
ENDBRANCH  27  30
ENDBRANCH  26  27
ENDBRANCH   5  26
TORSDOF 7
ENDMDL
MODEL 3
REMARK VINA RESULT:      -9.0      4.425      6.590
REMARK  7 active torsions:
REMARK  status: ('A' for Active; 'I' for Inactive)
REMARK    1  A    between atoms: C2_2  and  C5_5 
REMARK    2  A    between atoms: C7_7  and  C8_8 
REMARK    3  A    between atoms: C12_12  and  N13_13 
REMARK    4  A    between atoms: N13_13  and  S14_14 
REMARK    5  A    between atoms: S14_14  and  C17_17 
REMARK    6  A    between atoms: C27_27  and  C28_28 
REMARK    7  A    between atoms: C32_32  and  N33_33 
ROOT
ATOM      1  C8  ZIN A   1      19.082  -2.701  12.073  0.00  0.00     0.035 A 
ATOM      2  C9  ZIN A   1      20.433  -3.035  11.967  0.00  0.00     0.017 A 
ATOM      3  C10 ZIN A   1      20.820  -4.111  11.195  0.00  0.00     0.003 A 
ATOM      4  C11 ZIN A   1      19.874  -4.863  10.523  0.00  0.00     0.036 A 
ATOM      5  C12 ZIN A   1      18.526  -4.540  10.622  0.00  0.00     0.109 A 
ATOM      6  C25 ZIN A   1      18.126  -3.462  11.401  0.00  0.00     0.158 A 
ATOM      7  F26 ZIN A   1      16.816  -3.146  11.499  0.00  0.00    -0.203 F 
ENDROOT
BRANCH   1   8
ATOM      8  C7  ZIN A   1      18.665  -1.546  12.901  0.00  0.00     0.090 A 
ATOM      9  N6  ZIN A   1      18.632  -1.575  14.221  0.00  0.00    -0.243 NA
ATOM     10  C5  ZIN A   1      18.249  -0.505  14.828  0.00  0.00     0.084 A 
ATOM     11  S35 ZIN A   1      17.862   0.726  13.709  0.00  0.00    -0.069 SA
ATOM     12  C27 ZIN A   1      18.274  -0.341  12.369  0.00  0.00     0.066 A 
BRANCH  10  13
ATOM     13  C2  ZIN A   1      18.152  -0.361  16.325  0.00  0.00     0.000 C 
ATOM     14  C1  ZIN A   1      18.530   1.065  16.727  0.00  0.00     0.021 C 
ATOM     15  C3  ZIN A   1      19.108  -1.350  16.996  0.00  0.00     0.021 C 
ATOM     16  C4  ZIN A   1      16.719  -0.654  16.774  0.00  0.00     0.021 C 
ENDBRANCH  10  13
BRANCH  12  17
ATOM     17  C28 ZIN A   1      18.206  -0.003  10.936  0.00  0.00     0.097 A 
ATOM     18  N34 ZIN A   1      19.215   0.637  10.341  0.00  0.00    -0.062 NA
ATOM     19  C32 ZIN A   1      19.156   0.935   9.053  0.00  0.00     0.720 A 
ATOM     20  N31 ZIN A   1      18.101   0.625   8.313  0.00  0.00    -0.075 NA
ATOM     21  C30 ZIN A   1      17.060  -0.005   8.838  0.00  0.00     0.139 A 
ATOM     22  C29 ZIN A   1      17.078  -0.343  10.177  0.00  0.00     0.053 A 
BRANCH  19  23
ATOM     23  N33 ZIN A   1      20.221   1.594   8.465  0.00  0.00    -0.231 N 
ATOM     24  H53 ZIN A   1      20.178   1.850   7.531  0.00  0.00     0.174 HD
ATOM     25  H54 ZIN A   1      21.013   1.800   8.988  0.00  0.00     0.174 HD
ENDBRANCH  19  23
ENDBRANCH  12  17
ENDBRANCH   1   8
BRANCH   5  26
ATOM     26  N13 ZIN A   1      17.571  -5.304   9.942  0.00  0.00    -0.157 NA
BRANCH  26  27
ATOM     27  S14 ZIN A   1      17.720  -5.552   8.310  0.00  0.00     0.290 S 
ATOM     28  O15 ZIN A   1      18.104  -4.305   7.748  0.00  0.00    -0.198 OA
ATOM     29  O16 ZIN A   1      18.481  -6.743   8.154  0.00  0.00    -0.198 OA
BRANCH  27  30
ATOM     30  C17 ZIN A   1      16.110  -5.904   7.688  0.00  0.00     0.158 A 
ATOM     31  C23 ZIN A   1      15.017  -5.870   8.538  0.00  0.00     0.142 A 
ATOM     32  C22 ZIN A   1      13.752  -6.141   8.046  0.00  0.00     0.044 A 
ATOM     33  F24 ZIN A   1      15.185  -5.562   9.842  0.00  0.00    -0.204 F 
ATOM     34  C21 ZIN A   1      13.579  -6.457   6.712  0.00  0.00     0.006 A 
ATOM     35  C20 ZIN A   1      14.671  -6.497   5.864  0.00  0.00     0.044 A 
ATOM     36  C18 ZIN A   1      15.938  -6.220   6.352  0.00  0.00     0.142 A 
ATOM     37  F19 ZIN A   1      17.003  -6.259   5.523  0.00  0.00    -0.204 F 
ENDBRANCH  27  30
ENDBRANCH  26  27
ENDBRANCH   5  26
TORSDOF 7
ENDMDL
MODEL 4
REMARK VINA RESULT:      -9.0      5.325     10.004
REMARK  7 active torsions:
REMARK  status: ('A' for Active; 'I' for Inactive)
REMARK    1  A    between atoms: C2_2  and  C5_5 
REMARK    2  A    between atoms: C7_7  and  C8_8 
REMARK    3  A    between atoms: C12_12  and  N13_13 
REMARK    4  A    between atoms: N13_13  and  S14_14 
REMARK    5  A    between atoms: S14_14  and  C17_17 
REMARK    6  A    between atoms: C27_27  and  C28_28 
REMARK    7  A    between atoms: C32_32  and  N33_33 
ROOT
ATOM      1  C8  ZIN A   1      16.917  -5.300   9.719  0.00  0.00     0.035 A 
ATOM      2  C9  ZIN A   1      17.301  -6.125  10.776  0.00  0.00     0.017 A 
ATOM      3  C10 ZIN A   1      17.805  -5.572  11.936  0.00  0.00     0.003 A 
ATOM      4  C11 ZIN A   1      17.932  -4.200  12.055  0.00  0.00     0.036 A 
ATOM      5  C12 ZIN A   1      17.554  -3.369  11.008  0.00  0.00     0.109 A 
ATOM      6  C25 ZIN A   1      17.051  -3.916   9.835  0.00  0.00     0.158 A 
ATOM      7  F26 ZIN A   1      16.681  -3.111   8.816  0.00  0.00    -0.203 F 
ENDROOT
BRANCH   1   8
ATOM      8  C7  ZIN A   1      16.376  -5.892   8.473  0.00  0.00     0.090 A 
ATOM      9  N6  ZIN A   1      15.237  -6.560   8.424  0.00  0.00    -0.243 NA
ATOM     10  C5  ZIN A   1      14.873  -7.027   7.280  0.00  0.00     0.084 A 
ATOM     11  S35 ZIN A   1      16.021  -6.647   6.073  0.00  0.00    -0.069 SA
ATOM     12  C27 ZIN A   1      17.011  -5.800   7.259  0.00  0.00     0.066 A 
BRANCH  10  13
ATOM     13  C2  ZIN A   1      13.608  -7.810   7.040  0.00  0.00     0.000 C 
ATOM     14  C1  ZIN A   1      13.823  -9.266   7.456  0.00  0.00     0.021 C 
ATOM     15  C3  ZIN A   1      13.246  -7.752   5.555  0.00  0.00     0.021 C 
ATOM     16  C4  ZIN A   1      12.471  -7.207   7.867  0.00  0.00     0.021 C 
ENDBRANCH  10  13
BRANCH  12  17
ATOM     17  C28 ZIN A   1      18.293  -5.121   6.996  0.00  0.00     0.097 A 
ATOM     18  N34 ZIN A   1      19.441  -5.655   7.415  0.00  0.00    -0.062 NA
ATOM     19  C32 ZIN A   1      20.593  -5.049   7.174  0.00  0.00     0.720 A 
ATOM     20  N31 ZIN A   1      20.650  -3.894   6.525  0.00  0.00    -0.075 NA
ATOM     21  C30 ZIN A   1      19.549  -3.303   6.084  0.00  0.00     0.139 A 
ATOM     22  C29 ZIN A   1      18.324  -3.901   6.306  0.00  0.00     0.053 A 
BRANCH  19  23
ATOM     23  N33 ZIN A   1      21.767  -5.631   7.618  0.00  0.00    -0.231 N 
ATOM     24  H53 ZIN A   1      21.992  -6.535   7.350  0.00  0.00     0.174 HD
ATOM     25  H54 ZIN A   1      22.366  -5.134   8.197  0.00  0.00     0.174 HD
ENDBRANCH  19  23
ENDBRANCH  12  17
ENDBRANCH   1   8
BRANCH   5  26
ATOM     26  N13 ZIN A   1      17.684  -1.982  11.133  0.00  0.00    -0.157 NA
BRANCH  26  27
ATOM     27  S14 ZIN A   1      19.088  -1.237  10.665  0.00  0.00     0.290 S 
ATOM     28  O15 ZIN A   1      19.979  -1.328  11.769  0.00  0.00    -0.198 OA
ATOM     29  O16 ZIN A   1      19.398  -1.741   9.372  0.00  0.00    -0.198 OA
BRANCH  27  30
ATOM     30  C17 ZIN A   1      18.726   0.474  10.458  0.00  0.00     0.158 A 
ATOM     31  C23 ZIN A   1      17.961   1.140  11.402  0.00  0.00     0.142 A 
ATOM     32  C22 ZIN A   1      17.683   2.486  11.241  0.00  0.00     0.044 A 
ATOM     33  F24 ZIN A   1      17.498   0.477  12.484  0.00  0.00    -0.204 F 
ATOM     34  C21 ZIN A   1      18.156   3.164  10.134  0.00  0.00     0.006 A 
ATOM     35  C20 ZIN A   1      18.915   2.500   9.189  0.00  0.00     0.044 A 
ATOM     36  C18 ZIN A   1      19.201   1.154   9.350  0.00  0.00     0.142 A 
ATOM     37  F19 ZIN A   1      19.942   0.506   8.426  0.00  0.00    -0.204 F 
ENDBRANCH  27  30
ENDBRANCH  26  27
ENDBRANCH   5  26
TORSDOF 7
ENDMDL
MODEL 5
REMARK VINA RESULT:      -8.8      3.518      8.130
REMARK  7 active torsions:
REMARK  status: ('A' for Active; 'I' for Inactive)
REMARK    1  A    between atoms: C2_2  and  C5_5 
REMARK    2  A    between atoms: C7_7  and  C8_8 
REMARK    3  A    between atoms: C12_12  and  N13_13 
REMARK    4  A    between atoms: N13_13  and  S14_14 
REMARK    5  A    between atoms: S14_14  and  C17_17 
REMARK    6  A    between atoms: C27_27  and  C28_28 
REMARK    7  A    between atoms: C32_32  and  N33_33 
ROOT
ATOM      1  C8  ZIN A   1      18.785  -0.760  10.848  0.00  0.00     0.035 A 
ATOM      2  C9  ZIN A   1      20.065  -0.712  11.402  0.00  0.00     0.017 A 
ATOM      3  C10 ZIN A   1      20.431   0.347  12.207  0.00  0.00     0.003 A 
ATOM      4  C11 ZIN A   1      19.532   1.365  12.469  0.00  0.00     0.036 A 
ATOM      5  C12 ZIN A   1      18.256   1.329  11.923  0.00  0.00     0.109 A 
ATOM      6  C25 ZIN A   1      17.880   0.270  11.107  0.00  0.00     0.158 A 
ATOM      7  F26 ZIN A   1      16.639   0.231  10.574  0.00  0.00    -0.203 F 
ENDROOT
BRANCH   1   8
ATOM      8  C7  ZIN A   1      18.391  -1.896   9.984  0.00  0.00     0.090 A 
ATOM      9  N6  ZIN A   1      18.036  -3.077  10.457  0.00  0.00    -0.243 NA
ATOM     10  C5  ZIN A   1      17.716  -3.986   9.601  0.00  0.00     0.084 A 
ATOM     11  S35 ZIN A   1      17.849  -3.395   8.004  0.00  0.00    -0.069 SA
ATOM     12  C27 ZIN A   1      18.363  -1.823   8.612  0.00  0.00     0.066 A 
BRANCH  10  13
ATOM     13  C2  ZIN A   1      17.287  -5.385   9.962  0.00  0.00     0.000 C 
ATOM     14  C1  ZIN A   1      17.367  -5.568  11.478  0.00  0.00     0.021 C 
ATOM     15  C3  ZIN A   1      18.209  -6.394   9.276  0.00  0.00     0.021 C 
ATOM     16  C4  ZIN A   1      15.847  -5.613   9.497  0.00  0.00     0.021 C 
ENDBRANCH  10  13
BRANCH  12  17
ATOM     17  C28 ZIN A   1      18.705  -0.644   7.795  0.00  0.00     0.097 A 
ATOM     18  N34 ZIN A   1      18.850  -0.754   6.474  0.00  0.00    -0.062 NA
ATOM     19  C32 ZIN A   1      19.152   0.305   5.739  0.00  0.00     0.720 A 
ATOM     20  N31 ZIN A   1      19.331   1.501   6.283  0.00  0.00    -0.075 NA
ATOM     21  C30 ZIN A   1      19.209   1.684   7.590  0.00  0.00     0.139 A 
ATOM     22  C29 ZIN A   1      18.889   0.608   8.396  0.00  0.00     0.053 A 
BRANCH  19  23
ATOM     23  N33 ZIN A   1      19.290   0.159   4.371  0.00  0.00    -0.231 N 
ATOM     24  H53 ZIN A   1      19.506  -0.708   3.994  0.00  0.00     0.174 HD
ATOM     25  H54 ZIN A   1      19.171   0.926   3.787  0.00  0.00     0.174 HD
ENDBRANCH  19  23
ENDBRANCH  12  17
ENDBRANCH   1   8
BRANCH   5  26
ATOM     26  N13 ZIN A   1      17.350   2.361  12.190  0.00  0.00    -0.157 NA
BRANCH  26  27
ATOM     27  S14 ZIN A   1      17.604   3.870  11.557  0.00  0.00     0.290 S 
ATOM     28  O15 ZIN A   1      18.649   3.736  10.604  0.00  0.00    -0.198 OA
ATOM     29  O16 ZIN A   1      16.321   4.392  11.236  0.00  0.00    -0.198 OA
BRANCH  27  30
ATOM     30  C17 ZIN A   1      18.240   4.878  12.854  0.00  0.00     0.158 A 
ATOM     31  C23 ZIN A   1      17.372   5.530  13.715  0.00  0.00     0.142 A 
ATOM     32  C22 ZIN A   1      17.873   6.316  14.738  0.00  0.00     0.044 A 
ATOM     33  F24 ZIN A   1      16.037   5.387  13.562  0.00  0.00    -0.204 F 
ATOM     34  C21 ZIN A   1      19.238   6.462  14.894  0.00  0.00     0.006 A 
ATOM     35  C20 ZIN A   1      20.106   5.817  14.033  0.00  0.00     0.044 A 
ATOM     36  C18 ZIN A   1      19.608   5.024  13.012  0.00  0.00     0.142 A 
ATOM     37  F19 ZIN A   1      20.456   4.395  12.171  0.00  0.00    -0.204 F 
ENDBRANCH  27  30
ENDBRANCH  26  27
ENDBRANCH   5  26
TORSDOF 7
ENDMDL
MODEL 6
REMARK VINA RESULT:      -8.6      3.574      4.559
REMARK  7 active torsions:
REMARK  status: ('A' for Active; 'I' for Inactive)
REMARK    1  A    between atoms: C2_2  and  C5_5 
REMARK    2  A    between atoms: C7_7  and  C8_8 
REMARK    3  A    between atoms: C12_12  and  N13_13 
REMARK    4  A    between atoms: N13_13  and  S14_14 
REMARK    5  A    between atoms: S14_14  and  C17_17 
REMARK    6  A    between atoms: C27_27  and  C28_28 
REMARK    7  A    between atoms: C32_32  and  N33_33 
ROOT
ATOM      1  C8  ZIN A   1      19.098   0.300  12.887  0.00  0.00     0.035 A 
ATOM      2  C9  ZIN A   1      20.355   0.347  12.283  0.00  0.00     0.017 A 
ATOM      3  C10 ZIN A   1      20.642  -0.484  11.219  0.00  0.00     0.003 A 
ATOM      4  C11 ZIN A   1      19.688  -1.366  10.747  0.00  0.00     0.036 A 
ATOM      5  C12 ZIN A   1      18.433  -1.422  11.342  0.00  0.00     0.109 A 
ATOM      6  C25 ZIN A   1      18.137  -0.594  12.416  0.00  0.00     0.158 A 
ATOM      7  F26 ZIN A   1      16.918  -0.646  12.996  0.00  0.00    -0.203 F 
ENDROOT
BRANCH   1   8
ATOM      8  C7  ZIN A   1      18.789   1.191  14.029  0.00  0.00     0.090 A 
ATOM      9  N6  ZIN A   1      18.929   0.827  15.291  0.00  0.00    -0.243 NA
ATOM     10  C5  ZIN A   1      18.626   1.694  16.195  0.00  0.00     0.084 A 
ATOM     11  S35 ZIN A   1      18.090   3.153  15.486  0.00  0.00    -0.069 SA
ATOM     12  C27 ZIN A   1      18.327   2.476  13.876  0.00  0.00     0.066 A 
BRANCH  10  13
ATOM     13  C2  ZIN A   1      18.725   1.451  17.678  0.00  0.00     0.000 C 
ATOM     14  C1  ZIN A   1      19.344   2.674  18.356  0.00  0.00     0.021 C 
ATOM     15  C3  ZIN A   1      19.603   0.225  17.937  0.00  0.00     0.021 C 
ATOM     16  C4  ZIN A   1      17.327   1.205  18.250  0.00  0.00     0.021 C 
ENDBRANCH  10  13
BRANCH  12  17
ATOM     17  C28 ZIN A   1      18.070   3.163  12.597  0.00  0.00     0.097 A 
ATOM     18  N34 ZIN A   1      18.571   2.683  11.458  0.00  0.00    -0.062 NA
ATOM     19  C32 ZIN A   1      18.336   3.297  10.308  0.00  0.00     0.720 A 
ATOM     20  N31 ZIN A   1      17.612   4.405  10.246  0.00  0.00    -0.075 NA
ATOM     21  C30 ZIN A   1      17.088   4.942  11.338  0.00  0.00     0.139 A 
ATOM     22  C29 ZIN A   1      17.301   4.334  12.560  0.00  0.00     0.053 A 
BRANCH  19  23
ATOM     23  N33 ZIN A   1      18.866   2.771   9.144  0.00  0.00    -0.231 N 
ATOM     24  H53 ZIN A   1      18.923   1.810   9.027  0.00  0.00     0.174 HD
ATOM     25  H54 ZIN A   1      19.180   3.364   8.443  0.00  0.00     0.174 HD
ENDBRANCH  19  23
ENDBRANCH  12  17
ENDBRANCH   1   8
BRANCH   5  26
ATOM     26  N13 ZIN A   1      17.470  -2.316  10.861  0.00  0.00    -0.157 NA
BRANCH  26  27
ATOM     27  S14 ZIN A   1      17.595  -3.932  11.207  0.00  0.00     0.290 S 
ATOM     28  O15 ZIN A   1      18.642  -4.059  12.159  0.00  0.00    -0.198 OA
ATOM     29  O16 ZIN A   1      16.271  -4.396  11.439  0.00  0.00    -0.198 OA
BRANCH  27  30
ATOM     30  C17 ZIN A   1      18.154  -4.736   9.742  0.00  0.00     0.158 A 
ATOM     31  C23 ZIN A   1      19.505  -4.975   9.555  0.00  0.00     0.142 A 
ATOM     32  C22 ZIN A   1      19.942  -5.612   8.407  0.00  0.00     0.044 A 
ATOM     33  F24 ZIN A   1      20.394  -4.596  10.499  0.00  0.00    -0.204 F 
ATOM     34  C21 ZIN A   1      19.032  -6.000   7.441  0.00  0.00     0.006 A 
ATOM     35  C20 ZIN A   1      17.684  -5.757   7.624  0.00  0.00     0.044 A 
ATOM     36  C18 ZIN A   1      17.243  -5.124   8.775  0.00  0.00     0.142 A 
ATOM     37  F19 ZIN A   1      15.926  -4.887   8.952  0.00  0.00    -0.204 F 
ENDBRANCH  27  30
ENDBRANCH  26  27
ENDBRANCH   5  26
TORSDOF 7
ENDMDL
MODEL 7
REMARK VINA RESULT:      -8.6      3.710      6.889
REMARK  7 active torsions:
REMARK  status: ('A' for Active; 'I' for Inactive)
REMARK    1  A    between atoms: C2_2  and  C5_5 
REMARK    2  A    between atoms: C7_7  and  C8_8 
REMARK    3  A    between atoms: C12_12  and  N13_13 
REMARK    4  A    between atoms: N13_13  and  S14_14 
REMARK    5  A    between atoms: S14_14  and  C17_17 
REMARK    6  A    between atoms: C27_27  and  C28_28 
REMARK    7  A    between atoms: C32_32  and  N33_33 
ROOT
ATOM      1  C8  ZIN A   1      17.993  -0.452  10.445  0.00  0.00     0.035 A 
ATOM      2  C9  ZIN A   1      17.355   0.316  11.419  0.00  0.00     0.017 A 
ATOM      3  C10 ZIN A   1      17.076  -0.229  12.656  0.00  0.00     0.003 A 
ATOM      4  C11 ZIN A   1      17.426  -1.537  12.936  0.00  0.00     0.036 A 
ATOM      5  C12 ZIN A   1      18.061  -2.312  11.973  0.00  0.00     0.109 A 
ATOM      6  C25 ZIN A   1      18.341  -1.774  10.724  0.00  0.00     0.158 A 
ATOM      7  F26 ZIN A   1      18.959  -2.525   9.786  0.00  0.00    -0.203 F 
ENDROOT
BRANCH   1   8
ATOM      8  C7  ZIN A   1      18.293   0.131   9.117  0.00  0.00     0.090 A 
ATOM      9  N6  ZIN A   1      18.277  -0.570   7.997  0.00  0.00    -0.243 NA
ATOM     10  C5  ZIN A   1      18.557   0.053   6.904  0.00  0.00     0.084 A 
ATOM     11  S35 ZIN A   1      18.900   1.698   7.211  0.00  0.00    -0.069 SA
ATOM     12  C27 ZIN A   1      18.618   1.453   8.932  0.00  0.00     0.066 A 
BRANCH  10  13
ATOM     13  C2  ZIN A   1      18.584  -0.586   5.540  0.00  0.00     0.000 C 
ATOM     14  C1  ZIN A   1      19.310   0.335   4.559  0.00  0.00     0.021 C 
ATOM     15  C3  ZIN A   1      17.151  -0.819   5.057  0.00  0.00     0.021 C 
ATOM     16  C4  ZIN A   1      19.319  -1.926   5.620  0.00  0.00     0.021 C 
ENDBRANCH  10  13
BRANCH  12  17
ATOM     17  C28 ZIN A   1      18.719   2.480   9.985  0.00  0.00     0.097 A 
ATOM     18  N34 ZIN A   1      17.735   3.362  10.168  0.00  0.00    -0.062 NA
ATOM     19  C32 ZIN A   1      17.822   4.281  11.116  0.00  0.00     0.720 A 
ATOM     20  N31 ZIN A   1      18.883   4.369  11.906  0.00  0.00    -0.075 NA
ATOM     21  C30 ZIN A   1      19.901   3.529  11.779  0.00  0.00     0.139 A 
ATOM     22  C29 ZIN A   1      19.852   2.550  10.806  0.00  0.00     0.053 A 
BRANCH  19  23
ATOM     23  N33 ZIN A   1      16.782   5.178  11.284  0.00  0.00    -0.231 N 
ATOM     24  H53 ZIN A   1      16.947   6.132  11.217  0.00  0.00     0.174 HD
ATOM     25  H54 ZIN A   1      15.886   4.853  11.469  0.00  0.00     0.174 HD
ENDBRANCH  19  23
ENDBRANCH  12  17
ENDBRANCH   1   8
BRANCH   5  26
ATOM     26  N13 ZIN A   1      18.413  -3.635  12.260  0.00  0.00    -0.157 NA
BRANCH  26  27
ATOM     27  S14 ZIN A   1      17.435  -4.878  11.767  0.00  0.00     0.290 S 
ATOM     28  O15 ZIN A   1      17.675  -5.956  12.660  0.00  0.00    -0.198 OA
ATOM     29  O16 ZIN A   1      16.146  -4.314  11.557  0.00  0.00    -0.198 OA
BRANCH  27  30
ATOM     30  C17 ZIN A   1      18.012  -5.400  10.188  0.00  0.00     0.158 A 
ATOM     31  C23 ZIN A   1      19.370  -5.401   9.912  0.00  0.00     0.142 A 
ATOM     32  C22 ZIN A   1      19.823  -5.818   8.672  0.00  0.00     0.044 A 
ATOM     33  F24 ZIN A   1      20.250  -5.005  10.856  0.00  0.00    -0.204 F 
ATOM     34  C21 ZIN A   1      18.922  -6.223   7.705  0.00  0.00     0.006 A 
ATOM     35  C20 ZIN A   1      17.567  -6.218   7.978  0.00  0.00     0.044 A 
ATOM     36  C18 ZIN A   1      17.110  -5.807   9.219  0.00  0.00     0.142 A 
ATOM     37  F19 ZIN A   1      15.787  -5.802   9.484  0.00  0.00    -0.204 F 
ENDBRANCH  27  30
ENDBRANCH  26  27
ENDBRANCH   5  26
TORSDOF 7
ENDMDL
MODEL 8
REMARK VINA RESULT:      -8.5      4.222      6.021
REMARK  7 active torsions:
REMARK  status: ('A' for Active; 'I' for Inactive)
REMARK    1  A    between atoms: C2_2  and  C5_5 
REMARK    2  A    between atoms: C7_7  and  C8_8 
REMARK    3  A    between atoms: C12_12  and  N13_13 
REMARK    4  A    between atoms: N13_13  and  S14_14 
REMARK    5  A    between atoms: S14_14  and  C17_17 
REMARK    6  A    between atoms: C27_27  and  C28_28 
REMARK    7  A    between atoms: C32_32  and  N33_33 
ROOT
ATOM      1  C8  ZIN A   1      18.267  -2.874  11.813  0.00  0.00     0.035 A 
ATOM      2  C9  ZIN A   1      17.169  -3.734  11.825  0.00  0.00     0.017 A 
ATOM      3  C10 ZIN A   1      17.157  -4.851  11.014  0.00  0.00     0.003 A 
ATOM      4  C11 ZIN A   1      18.232  -5.123  10.188  0.00  0.00     0.036 A 
ATOM      5  C12 ZIN A   1      19.331  -4.273  10.168  0.00  0.00     0.109 A 
ATOM      6  C25 ZIN A   1      19.349  -3.144  10.976  0.00  0.00     0.158 A 
ATOM      7  F26 ZIN A   1      20.417  -2.316  10.959  0.00  0.00    -0.203 F 
ENDROOT
BRANCH   1   8
ATOM      8  C7  ZIN A   1      18.281  -1.675  12.683  0.00  0.00     0.090 A 
ATOM      9  N6  ZIN A   1      18.326  -1.737  14.002  0.00  0.00    -0.243 NA
ATOM     10  C5  ZIN A   1      18.332  -0.622  14.648  0.00  0.00     0.084 A 
ATOM     11  S35 ZIN A   1      18.271   0.705  13.574  0.00  0.00    -0.069 SA
ATOM     12  C27 ZIN A   1      18.247  -0.391  12.195  0.00  0.00     0.066 A 
BRANCH  10  13
ATOM     13  C2  ZIN A   1      18.381  -0.505  16.149  0.00  0.00     0.000 C 
ATOM     14  C1  ZIN A   1      19.282  -1.603  16.718  0.00  0.00     0.021 C 
ATOM     15  C3  ZIN A   1      16.970  -0.657  16.719  0.00  0.00     0.021 C 
ATOM     16  C4  ZIN A   1      18.942   0.865  16.536  0.00  0.00     0.021 C 
ENDBRANCH  10  13
BRANCH  12  17
ATOM     17  C28 ZIN A   1      18.193  -0.001  10.774  0.00  0.00     0.097 A 
ATOM     18  N34 ZIN A   1      19.158   0.749  10.241  0.00  0.00    -0.062 NA
ATOM     19  C32 ZIN A   1      19.114   1.095   8.964  0.00  0.00     0.720 A 
ATOM     20  N31 ZIN A   1      18.114   0.724   8.176  0.00  0.00    -0.075 NA
ATOM     21  C30 ZIN A   1      17.118  -0.018   8.639  0.00  0.00     0.139 A 
ATOM     22  C29 ZIN A   1      17.124  -0.408   9.964  0.00  0.00     0.053 A 
BRANCH  19  23
ATOM     23  N33 ZIN A   1      20.133   1.870   8.439  0.00  0.00    -0.231 N 
ATOM     24  H53 ZIN A   1      20.910   2.082   8.980  0.00  0.00     0.174 HD
ATOM     25  H54 ZIN A   1      20.070   2.202   7.529  0.00  0.00     0.174 HD
ENDBRANCH  19  23
ENDBRANCH  12  17
ENDBRANCH   1   8
BRANCH   5  26
ATOM     26  N13 ZIN A   1      20.416  -4.552   9.330  0.00  0.00    -0.157 NA
BRANCH  26  27
ATOM     27  S14 ZIN A   1      20.309  -5.772   8.215  0.00  0.00     0.290 S 
ATOM     28  O15 ZIN A   1      21.603  -5.909   7.644  0.00  0.00    -0.198 OA
ATOM     29  O16 ZIN A   1      19.624  -6.841   8.854  0.00  0.00    -0.198 OA
BRANCH  27  30
ATOM     30  C17 ZIN A   1      19.252  -5.206   6.924  0.00  0.00     0.158 A 
ATOM     31  C23 ZIN A   1      19.379  -3.914   6.441  0.00  0.00     0.142 A 
ATOM     32  C22 ZIN A   1      18.553  -3.473   5.423  0.00  0.00     0.044 A 
ATOM     33  F24 ZIN A   1      20.317  -3.090   6.957  0.00  0.00    -0.204 F 
ATOM     34  C21 ZIN A   1      17.593  -4.315   4.895  0.00  0.00     0.006 A 
ATOM     35  C20 ZIN A   1      17.461  -5.603   5.380  0.00  0.00     0.044 A 
ATOM     36  C18 ZIN A   1      18.291  -6.050   6.395  0.00  0.00     0.142 A 
ATOM     37  F19 ZIN A   1      18.162  -7.308   6.868  0.00  0.00    -0.204 F 
ENDBRANCH  27  30
ENDBRANCH  26  27
ENDBRANCH   5  26
TORSDOF 7
ENDMDL
MODEL 9
REMARK VINA RESULT:      -8.5      3.962     10.172
REMARK  7 active torsions:
REMARK  status: ('A' for Active; 'I' for Inactive)
REMARK    1  A    between atoms: C2_2  and  C5_5 
REMARK    2  A    between atoms: C7_7  and  C8_8 
REMARK    3  A    between atoms: C12_12  and  N13_13 
REMARK    4  A    between atoms: N13_13  and  S14_14 
REMARK    5  A    between atoms: S14_14  and  C17_17 
REMARK    6  A    between atoms: C27_27  and  C28_28 
REMARK    7  A    between atoms: C32_32  and  N33_33 
ROOT
ATOM      1  C8  ZIN A   1      18.306  -2.361  10.118  0.00  0.00     0.035 A 
ATOM      2  C9  ZIN A   1      17.508  -3.409  10.578  0.00  0.00     0.017 A 
ATOM      3  C10 ZIN A   1      17.362  -3.623  11.934  0.00  0.00     0.003 A 
ATOM      4  C11 ZIN A   1      18.005  -2.801  12.841  0.00  0.00     0.036 A 
ATOM      5  C12 ZIN A   1      18.803  -1.755  12.394  0.00  0.00     0.109 A 
ATOM      6  C25 ZIN A   1      18.960  -1.536  11.032  0.00  0.00     0.158 A 
ATOM      7  F26 ZIN A   1      19.735  -0.519  10.594  0.00  0.00    -0.203 F 
ENDROOT
BRANCH   1   8
ATOM      8  C7  ZIN A   1      18.463  -2.130   8.663  0.00  0.00     0.090 A 
ATOM      9  N6  ZIN A   1      18.393  -0.934   8.107  0.00  0.00    -0.243 NA
ATOM     10  C5  ZIN A   1      18.546  -0.864   6.830  0.00  0.00     0.084 A 
ATOM     11  S35 ZIN A   1      18.802  -2.415   6.160  0.00  0.00    -0.069 SA
ATOM     12  C27 ZIN A   1      18.693  -3.141   7.761  0.00  0.00     0.066 A 
BRANCH  10  13
ATOM     13  C2  ZIN A   1      18.497   0.414   6.033  0.00  0.00     0.000 C 
ATOM     14  C1  ZIN A   1      19.342   0.259   4.767  0.00  0.00     0.021 C 
ATOM     15  C3  ZIN A   1      19.051   1.563   6.878  0.00  0.00     0.021 C 
ATOM     16  C4  ZIN A   1      17.049   0.718   5.644  0.00  0.00     0.021 C 
ENDBRANCH  10  13
BRANCH  12  17
ATOM     17  C28 ZIN A   1      18.820  -4.576   8.076  0.00  0.00     0.097 A 
ATOM     18  N34 ZIN A   1      17.827  -5.422   7.795  0.00  0.00    -0.062 NA
ATOM     19  C32 ZIN A   1      17.942  -6.711   8.073  0.00  0.00     0.720 A 
ATOM     20  N31 ZIN A   1      19.032  -7.206   8.644  0.00  0.00    -0.075 NA
ATOM     21  C30 ZIN A   1      20.055  -6.424   8.955  0.00  0.00     0.139 A 
ATOM     22  C29 ZIN A   1      19.983  -5.072   8.679  0.00  0.00     0.053 A 
BRANCH  19  23
ATOM     23  N33 ZIN A   1      16.897  -7.563   7.765  0.00  0.00    -0.231 N 
ATOM     24  H53 ZIN A   1      15.983  -7.240   7.792  0.00  0.00     0.174 HD
ATOM     25  H54 ZIN A   1      17.078  -8.485   7.523  0.00  0.00     0.174 HD
ENDBRANCH  19  23
ENDBRANCH  12  17
ENDBRANCH   1   8
BRANCH   5  26
ATOM     26  N13 ZIN A   1      19.452  -0.926  13.315  0.00  0.00    -0.157 NA
BRANCH  26  27
ATOM     27  S14 ZIN A   1      18.763   0.512  13.764  0.00  0.00     0.290 S 
ATOM     28  O15 ZIN A   1      19.566   1.537  13.196  0.00  0.00    -0.198 OA
ATOM     29  O16 ZIN A   1      17.370   0.385  13.510  0.00  0.00    -0.198 OA
BRANCH  27  30
ATOM     30  C17 ZIN A   1      18.939   0.652  15.511  0.00  0.00     0.158 A 
ATOM     31  C23 ZIN A   1      18.888  -0.482  16.305  0.00  0.00     0.142 A 
ATOM     32  C22 ZIN A   1      19.034  -0.371  17.677  0.00  0.00     0.044 A 
ATOM     33  F24 ZIN A   1      18.708  -1.695  15.739  0.00  0.00    -0.204 F 
ATOM     34  C21 ZIN A   1      19.218   0.870  18.257  0.00  0.00     0.006 A 
ATOM     35  C20 ZIN A   1      19.263   2.002  17.465  0.00  0.00     0.044 A 
ATOM     36  C18 ZIN A   1      19.124   1.895  16.092  0.00  0.00     0.142 A 
ATOM     37  F19 ZIN A   1      19.168   3.001  15.320  0.00  0.00    -0.204 F 
ENDBRANCH  27  30
ENDBRANCH  26  27
ENDBRANCH   5  26
TORSDOF 7
ENDMDL
