MODEL 1
REMARK VINA RESULT:      -9.2      0.000      0.000
REMARK  6 active torsions:
REMARK  status: ('A' for Active; 'I' for Inactive)
REMARK    1  A    between atoms: C2_2  and  N3_3 
REMARK    2  A    between atoms: C5_5  and  C7_6 
REMARK    3  A    between atoms: C7_6  and  C8_7 
REMARK    4  A    between atoms: C8_7  and  N9_8 
REMARK    5  A    between atoms: C16_15  and  C17_16 
REMARK    6  A    between atoms: C16_15  and  C23_22 
ROOT
ATOM      1  N3  ZIN A   1      18.078  -1.226  11.250  0.00  0.00    -0.351 N 
ATOM      2  C4  ZIN A   1      19.513  -1.091  10.969  0.00  0.00     0.132 C 
ATOM      3  C5  ZIN A   1      19.732   0.405  10.652  0.00  0.00     0.032 C 
ATOM      4  C16 ZIN A   1      18.332   0.830  10.152  0.00  0.00     0.100 C 
ATOM      5  C29 ZIN A   1      17.390  -0.165  10.792  0.00  0.00     0.238 C 
ATOM      6  O30 ZIN A   1      16.189  -0.025  10.885  0.00  0.00    -0.272 OA
ENDROOT
BRANCH   4   7
ATOM      7  C17 ZIN A   1      18.013   2.231  10.606  0.00  0.00    -0.035 A 
ATOM      8  C22 ZIN A   1      17.602   2.459  11.906  0.00  0.00     0.009 A 
ATOM      9  C21 ZIN A   1      17.313   3.745  12.324  0.00  0.00     0.001 A 
ATOM     10  C20 ZIN A   1      17.426   4.802  11.439  0.00  0.00     0.000 A 
ATOM     11  C19 ZIN A   1      17.832   4.572  10.138  0.00  0.00     0.001 A 
ATOM     12  C18 ZIN A   1      18.126   3.287   9.722  0.00  0.00     0.009 A 
ENDBRANCH   4   7
BRANCH   4  13
ATOM     13  C23 ZIN A   1      18.256   0.734   8.650  0.00  0.00    -0.035 A 
ATOM     14  C28 ZIN A   1      17.246   0.002   8.054  0.00  0.00     0.009 A 
ATOM     15  C27 ZIN A   1      17.174  -0.083   6.676  0.00  0.00     0.001 A 
ATOM     16  C26 ZIN A   1      18.118   0.557   5.894  0.00  0.00     0.000 A 
ATOM     17  C25 ZIN A   1      19.131   1.285   6.490  0.00  0.00     0.001 A 
ATOM     18  C24 ZIN A   1      19.200   1.373   7.868  0.00  0.00     0.009 A 
ENDBRANCH   4  13
BRANCH   3  19
ATOM     19  C7  ZIN A   1      20.124   1.180  11.911  0.00  0.00     0.036 C 
BRANCH  19  20
ATOM     20  C8  ZIN A   1      20.474   0.196  13.029  0.00  0.00     0.235 C 
BRANCH  20  21
ATOM     21  N9  ZIN A   1      19.363   0.125  13.986  0.00  0.00    -0.067 N 
ATOM     22  H10 ZIN A   1      18.487   0.144  13.487  0.00  0.00     0.280 HD
ATOM     23  C15 ZIN A   1      19.460  -1.122  14.759  0.00  0.00     0.261 C 
ATOM     24  C14 ZIN A   1      18.300  -1.192  15.756  0.00  0.00     0.195 C 
ATOM     25  O13 ZIN A   1      18.339  -0.044  16.606  0.00  0.00    -0.388 OA
ATOM     26  C12 ZIN A   1      18.272   1.197  15.898  0.00  0.00     0.195 C 
ATOM     27  C11 ZIN A   1      19.431   1.273  14.902  0.00  0.00     0.261 C 
ENDBRANCH  20  21
ENDBRANCH  19  20
ENDBRANCH   3  19
BRANCH   1  28
ATOM     28  C2  ZIN A   1      17.475  -2.370  11.935  0.00  0.00     0.121 C 
ATOM     29  C1  ZIN A   1      18.441  -3.554  11.900  0.00  0.00     0.026 C 
ENDBRANCH   1  28
TORSDOF 6
ENDMDL
MODEL 2
REMARK VINA RESULT:      -8.6      1.729      6.758
REMARK  6 active torsions:
REMARK  status: ('A' for Active; 'I' for Inactive)
REMARK    1  A    between atoms: C2_2  and  N3_3 
REMARK    2  A    between atoms: C5_5  and  C7_6 
REMARK    3  A    between atoms: C7_6  and  C8_7 
REMARK    4  A    between atoms: C8_7  and  N9_8 
REMARK    5  A    between atoms: C16_15  and  C17_16 
REMARK    6  A    between atoms: C16_15  and  C23_22 
ROOT
ATOM      1  N3  ZIN A   1      18.120   1.414  11.609  0.00  0.00    -0.351 N 
ATOM      2  C4  ZIN A   1      19.552   1.458  11.926  0.00  0.00     0.132 C 
ATOM      3  C5  ZIN A   1      19.969  -0.012  12.154  0.00  0.00     0.032 C 
ATOM      4  C16 ZIN A   1      18.630  -0.657  12.581  0.00  0.00     0.100 C 
ATOM      5  C29 ZIN A   1      17.575   0.241  11.976  0.00  0.00     0.238 C 
ATOM      6  O30 ZIN A   1      16.407  -0.055  11.836  0.00  0.00    -0.272 OA
ENDROOT
BRANCH   4   7
ATOM      7  C17 ZIN A   1      18.518  -2.055  12.029  0.00  0.00    -0.035 A 
ATOM      8  C22 ZIN A   1      19.603  -2.910  12.086  0.00  0.00     0.009 A 
ATOM      9  C21 ZIN A   1      19.499  -4.193  11.582  0.00  0.00     0.001 A 
ATOM     10  C20 ZIN A   1      18.313  -4.619  11.014  0.00  0.00     0.000 A 
ATOM     11  C19 ZIN A   1      17.230  -3.762  10.952  0.00  0.00     0.001 A 
ATOM     12  C18 ZIN A   1      17.332  -2.481  11.460  0.00  0.00     0.009 A 
ENDBRANCH   4   7
BRANCH   4  13
ATOM     13  C23 ZIN A   1      18.507  -0.674  14.083  0.00  0.00    -0.035 A 
ATOM     14  C28 ZIN A   1      17.538   0.090  14.706  0.00  0.00     0.009 A 
ATOM     15  C27 ZIN A   1      17.424   0.071  16.084  0.00  0.00     0.001 A 
ATOM     16  C26 ZIN A   1      18.284  -0.704  16.838  0.00  0.00     0.000 A 
ATOM     17  C25 ZIN A   1      19.256  -1.464  16.216  0.00  0.00     0.001 A 
ATOM     18  C24 ZIN A   1      19.368  -1.449  14.838  0.00  0.00     0.009 A 
ENDBRANCH   4  13
BRANCH   3  19
ATOM     19  C7  ZIN A   1      20.492  -0.640  10.861  0.00  0.00     0.036 C 
BRANCH  19  20
ATOM     20  C8  ZIN A   1      20.185   0.286   9.682  0.00  0.00     0.235 C 
BRANCH  20  21
ATOM     21  N9  ZIN A   1      19.110  -0.296   8.869  0.00  0.00    -0.067 N 
ATOM     22  H10 ZIN A   1      18.259  -0.328   9.409  0.00  0.00     0.280 HD
ATOM     23  C15 ZIN A   1      18.899   0.530   7.671  0.00  0.00     0.261 C 
ATOM     24  C14 ZIN A   1      17.778  -0.079   6.826  0.00  0.00     0.195 C 
ATOM     25  O13 ZIN A   1      18.124  -1.423   6.482  0.00  0.00    -0.388 OA
ATOM     26  C12 ZIN A   1      18.363  -2.262   7.615  0.00  0.00     0.195 C 
ATOM     27  C11 ZIN A   1      19.485  -1.657   8.462  0.00  0.00     0.261 C 
ENDBRANCH  20  21
ENDBRANCH  19  20
ENDBRANCH   3  19
BRANCH   1  28
ATOM     28  C2  ZIN A   1      17.379   2.509  10.979  0.00  0.00     0.121 C 
ATOM     29  C1  ZIN A   1      18.337   3.358  10.142  0.00  0.00     0.026 C 
ENDBRANCH   1  28
TORSDOF 6
ENDMDL
MODEL 3
REMARK VINA RESULT:      -8.4      1.859      4.412
REMARK  6 active torsions:
REMARK  status: ('A' for Active; 'I' for Inactive)
REMARK    1  A    between atoms: C2_2  and  N3_3 
REMARK    2  A    between atoms: C5_5  and  C7_6 
REMARK    3  A    between atoms: C7_6  and  C8_7 
REMARK    4  A    between atoms: C8_7  and  N9_8 
REMARK    5  A    between atoms: C16_15  and  C17_16 
REMARK    6  A    between atoms: C16_15  and  C23_22 
ROOT
ATOM      1  N3  ZIN A   1      19.185   1.419  10.484  0.00  0.00    -0.351 N 
ATOM      2  C4  ZIN A   1      17.719   1.477  10.438  0.00  0.00     0.132 C 
ATOM      3  C5  ZIN A   1      17.252   0.008  10.333  0.00  0.00     0.032 C 
ATOM      4  C16 ZIN A   1      18.481  -0.668   9.683  0.00  0.00     0.100 C 
ATOM      5  C29 ZIN A   1      19.640   0.229  10.055  0.00  0.00     0.238 C 
ATOM      6  O30 ZIN A   1      20.810  -0.082   9.983  0.00  0.00    -0.272 OA
ENDROOT
BRANCH   4   7
ATOM      7  C17 ZIN A   1      18.680  -2.053  10.244  0.00  0.00    -0.035 A 
ATOM      8  C22 ZIN A   1      17.823  -3.076   9.881  0.00  0.00     0.009 A 
ATOM      9  C21 ZIN A   1      18.008  -4.346  10.393  0.00  0.00     0.001 A 
ATOM     10  C20 ZIN A   1      19.044  -4.593  11.274  0.00  0.00     0.000 A 
ATOM     11  C19 ZIN A   1      19.897  -3.569  11.641  0.00  0.00     0.001 A 
ATOM     12  C18 ZIN A   1      19.715  -2.300  11.125  0.00  0.00     0.009 A 
ENDBRANCH   4   7
BRANCH   4  13
ATOM     13  C23 ZIN A   1      18.321  -0.725   8.185  0.00  0.00    -0.035 A 
ATOM     14  C28 ZIN A   1      19.278  -1.354   7.411  0.00  0.00     0.009 A 
ATOM     15  C27 ZIN A   1      19.129  -1.410   6.037  0.00  0.00     0.001 A 
ATOM     16  C26 ZIN A   1      18.027  -0.828   5.438  0.00  0.00     0.000 A 
ATOM     17  C25 ZIN A   1      17.072  -0.195   6.211  0.00  0.00     0.001 A 
ATOM     18  C24 ZIN A   1      17.220  -0.144   7.585  0.00  0.00     0.009 A 
ENDBRANCH   4  13
BRANCH   3  19
ATOM     19  C7  ZIN A   1      16.972  -0.579  11.718  0.00  0.00     0.036 C 
BRANCH  19  20
ATOM     20  C8  ZIN A   1      16.974   0.544  12.758  0.00  0.00     0.235 C 
BRANCH  20  21
ATOM     21  N9  ZIN A   1      18.074   0.332  13.706  0.00  0.00    -0.067 N 
ATOM     22  H10 ZIN A   1      18.944   0.619  13.282  0.00  0.00     0.280 HD
ATOM     23  C15 ZIN A   1      17.837   1.129  14.920  0.00  0.00     0.261 C 
ATOM     24  C14 ZIN A   1      18.986   0.906  15.906  0.00  0.00     0.195 C 
ATOM     25  O13 ZIN A   1      19.087  -0.488  16.205  0.00  0.00    -0.388 OA
ATOM     26  C12 ZIN A   1      19.296  -1.309  15.052  0.00  0.00     0.195 C 
ATOM     27  C11 ZIN A   1      18.148  -1.091  14.064  0.00  0.00     0.261 C 
ENDBRANCH  20  21
ENDBRANCH  19  20
ENDBRANCH   3  19
BRANCH   1  28
ATOM     28  C2  ZIN A   1      20.041   2.518  10.934  0.00  0.00     0.121 C 
ATOM     29  C1  ZIN A   1      19.285   3.369  11.955  0.00  0.00     0.026 C 
ENDBRANCH   1  28
TORSDOF 6
ENDMDL
MODEL 4
REMARK VINA RESULT:      -8.3      1.938      6.039
REMARK  6 active torsions:
REMARK  status: ('A' for Active; 'I' for Inactive)
REMARK    1  A    between atoms: C2_2  and  N3_3 
REMARK    2  A    between atoms: C5_5  and  C7_6 
REMARK    3  A    between atoms: C7_6  and  C8_7 
REMARK    4  A    between atoms: C8_7  and  N9_8 
REMARK    5  A    between atoms: C16_15  and  C17_16 
REMARK    6  A    between atoms: C16_15  and  C23_22 
ROOT
ATOM      1  N3  ZIN A   1      19.145  -1.295  12.575  0.00  0.00    -0.351 N 
ATOM      2  C4  ZIN A   1      17.678  -1.316  12.587  0.00  0.00     0.132 C 
ATOM      3  C5  ZIN A   1      17.248   0.145  12.848  0.00  0.00     0.032 C 
ATOM      4  C16 ZIN A   1      18.479   0.708  13.593  0.00  0.00     0.100 C 
ATOM      5  C29 ZIN A   1      19.622  -0.174  13.144  0.00  0.00     0.238 C 
ATOM      6  O30 ZIN A   1      20.798   0.093  13.271  0.00  0.00    -0.272 OA
ENDROOT
BRANCH   4   7
ATOM      7  C17 ZIN A   1      18.727   2.141  13.195  0.00  0.00    -0.035 A 
ATOM      8  C22 ZIN A   1      19.686   2.439  12.245  0.00  0.00     0.009 A 
ATOM      9  C21 ZIN A   1      19.910   3.752  11.878  0.00  0.00     0.001 A 
ATOM     10  C20 ZIN A   1      19.180   4.769  12.465  0.00  0.00     0.000 A 
ATOM     11  C19 ZIN A   1      18.224   4.471  13.419  0.00  0.00     0.001 A 
ATOM     12  C18 ZIN A   1      17.997   3.157  13.783  0.00  0.00     0.009 A 
ENDBRANCH   4   7
BRANCH   4  13
ATOM     13  C23 ZIN A   1      18.289   0.602  15.084  0.00  0.00    -0.035 A 
ATOM     14  C28 ZIN A   1      17.191  -0.064  15.595  0.00  0.00     0.009 A 
ATOM     15  C27 ZIN A   1      17.019  -0.165  16.963  0.00  0.00     0.001 A 
ATOM     16  C26 ZIN A   1      17.941   0.407  17.820  0.00  0.00     0.000 A 
ATOM     17  C25 ZIN A   1      19.037   1.077  17.309  0.00  0.00     0.001 A 
ATOM     18  C24 ZIN A   1      19.210   1.174  15.941  0.00  0.00     0.009 A 
ENDBRANCH   4  13
BRANCH   3  19
ATOM     19  C7  ZIN A   1      17.013   0.890  11.533  0.00  0.00     0.036 C 
BRANCH  19  20
ATOM     20  C8  ZIN A   1      16.867  -0.119  10.392  0.00  0.00     0.235 C 
BRANCH  20  21
ATOM     21  N9  ZIN A   1      17.917   0.116   9.393  0.00  0.00    -0.067 N 
ATOM     22  H10 ZIN A   1      18.750  -0.389   9.655  0.00  0.00     0.280 HD
ATOM     23  C15 ZIN A   1      17.455  -0.352   8.077  0.00  0.00     0.261 C 
ATOM     24  C14 ZIN A   1      18.551  -0.106   7.038  0.00  0.00     0.195 C 
ATOM     25  O13 ZIN A   1      18.876   1.287   7.016  0.00  0.00    -0.388 OA
ATOM     26  C12 ZIN A   1      19.309   1.795   8.281  0.00  0.00     0.195 C 
ATOM     27  C11 ZIN A   1      18.215   1.553   9.323  0.00  0.00     0.261 C 
ENDBRANCH  20  21
ENDBRANCH  19  20
ENDBRANCH   3  19
BRANCH   1  28
ATOM     28  C2  ZIN A   1      19.982  -2.361  12.020  0.00  0.00     0.121 C 
ATOM     29  C1  ZIN A   1      19.090  -3.467  11.453  0.00  0.00     0.026 C 
ENDBRANCH   1  28
TORSDOF 6
ENDMDL
MODEL 5
REMARK VINA RESULT:      -8.1      2.053      5.137
REMARK  6 active torsions:
REMARK  status: ('A' for Active; 'I' for Inactive)
REMARK    1  A    between atoms: C2_2  and  N3_3 
REMARK    2  A    between atoms: C5_5  and  C7_6 
REMARK    3  A    between atoms: C7_6  and  C8_7 
REMARK    4  A    between atoms: C8_7  and  N9_8 
REMARK    5  A    between atoms: C16_15  and  C17_16 
REMARK    6  A    between atoms: C16_15  and  C23_22 
ROOT
ATOM      1  N3  ZIN A   1      19.116  -0.128  13.559  0.00  0.00    -0.351 N 
ATOM      2  C4  ZIN A   1      17.660   0.054  13.566  0.00  0.00     0.132 C 
ATOM      3  C5  ZIN A   1      17.324   0.732  12.219  0.00  0.00     0.032 C 
ATOM      4  C16 ZIN A   1      18.654   1.444  11.883  0.00  0.00     0.100 C 
ATOM      5  C29 ZIN A   1      19.701   0.649  12.631  0.00  0.00     0.238 C 
ATOM      6  O30 ZIN A   1      20.894   0.699  12.419  0.00  0.00    -0.272 OA
ENDROOT
BRANCH   4   7
ATOM      7  C17 ZIN A   1      18.915   1.402  10.399  0.00  0.00    -0.035 A 
ATOM      8  C22 ZIN A   1      19.581   0.325   9.845  0.00  0.00     0.009 A 
ATOM      9  C21 ZIN A   1      19.816   0.285   8.483  0.00  0.00     0.001 A 
ATOM     10  C20 ZIN A   1      19.394   1.325   7.676  0.00  0.00     0.000 A 
ATOM     11  C19 ZIN A   1      18.732   2.404   8.232  0.00  0.00     0.001 A 
ATOM     12  C18 ZIN A   1      18.492   2.442   9.593  0.00  0.00     0.009 A 
ENDBRANCH   4   7
BRANCH   4  13
ATOM     13  C23 ZIN A   1      18.629   2.869  12.372  0.00  0.00    -0.035 A 
ATOM     14  C28 ZIN A   1      17.436   3.442  12.771  0.00  0.00     0.009 A 
ATOM     15  C27 ZIN A   1      17.413   4.749  13.224  0.00  0.00     0.001 A 
ATOM     16  C26 ZIN A   1      18.583   5.484  13.269  0.00  0.00     0.000 A 
ATOM     17  C25 ZIN A   1      19.776   4.913  12.867  0.00  0.00     0.001 A 
ATOM     18  C24 ZIN A   1      19.798   3.605  12.418  0.00  0.00     0.009 A 
ENDBRANCH   4  13
BRANCH   3  19
ATOM     19  C7  ZIN A   1      16.974  -0.309  11.154  0.00  0.00     0.036 C 
BRANCH  19  20
ATOM     20  C8  ZIN A   1      17.149  -1.713  11.735  0.00  0.00     0.235 C 
BRANCH  20  21
ATOM     21  N9  ZIN A   1      18.268  -2.386  11.063  0.00  0.00    -0.067 N 
ATOM     22  H10 ZIN A   1      19.005  -1.719  10.888  0.00  0.00     0.280 HD
ATOM     23  C15 ZIN A   1      18.779  -3.465  11.921  0.00  0.00     0.261 C 
ATOM     24  C14 ZIN A   1      19.946  -4.163  11.218  0.00  0.00     0.195 C 
ATOM     25  O13 ZIN A   1      19.503  -4.663   9.954  0.00  0.00    -0.388 OA
ATOM     26  C12 ZIN A   1      18.974  -3.653   9.091  0.00  0.00     0.195 C 
ATOM     27  C11 ZIN A   1      17.806  -2.953   9.789  0.00  0.00     0.261 C 
ENDBRANCH  20  21
ENDBRANCH  19  20
ENDBRANCH   3  19
BRANCH   1  28
ATOM     28  C2  ZIN A   1      19.839  -1.035  14.453  0.00  0.00     0.121 C 
ATOM     29  C1  ZIN A   1      18.960  -1.374  15.657  0.00  0.00     0.026 C 
ENDBRANCH   1  28
TORSDOF 6
ENDMDL
MODEL 6
REMARK VINA RESULT:      -7.9      2.080      5.076
REMARK  6 active torsions:
REMARK  status: ('A' for Active; 'I' for Inactive)
REMARK    1  A    between atoms: C2_2  and  N3_3 
REMARK    2  A    between atoms: C5_5  and  C7_6 
REMARK    3  A    between atoms: C7_6  and  C8_7 
REMARK    4  A    between atoms: C8_7  and  N9_8 
REMARK    5  A    between atoms: C16_15  and  C17_16 
REMARK    6  A    between atoms: C16_15  and  C23_22 
ROOT
ATOM      1  N3  ZIN A   1      19.210  -0.037   9.572  0.00  0.00    -0.351 N 
ATOM      2  C4  ZIN A   1      17.744  -0.115   9.540  0.00  0.00     0.132 C 
ATOM      3  C5  ZIN A   1      17.315  -0.400  10.996  0.00  0.00     0.032 C 
ATOM      4  C16 ZIN A   1      18.575  -1.090  11.567  0.00  0.00     0.100 C 
ATOM      5  C29 ZIN A   1      19.703  -0.587  10.695  0.00  0.00     0.238 C 
ATOM      6  O30 ZIN A   1      20.882  -0.663  10.970  0.00  0.00    -0.272 OA
ENDROOT
BRANCH   4   7
ATOM      7  C17 ZIN A   1      18.793  -0.686  13.003  0.00  0.00    -0.035 A 
ATOM      8  C22 ZIN A   1      19.642   0.362  13.304  0.00  0.00     0.009 A 
ATOM      9  C21 ZIN A   1      19.839   0.735  14.621  0.00  0.00     0.001 A 
ATOM     10  C20 ZIN A   1      19.193   0.054  15.637  0.00  0.00     0.000 A 
ATOM     11  C19 ZIN A   1      18.349  -0.997  15.335  0.00  0.00     0.001 A 
ATOM     12  C18 ZIN A   1      18.148  -1.367  14.018  0.00  0.00     0.009 A 
ENDBRANCH   4   7
BRANCH   4  13
ATOM     13  C23 ZIN A   1      18.453  -2.588  11.455  0.00  0.00    -0.035 A 
ATOM     14  C28 ZIN A   1      17.205  -3.175  11.364  0.00  0.00     0.009 A 
ATOM     15  C27 ZIN A   1      17.094  -4.549  11.257  0.00  0.00     0.001 A 
ATOM     16  C26 ZIN A   1      18.230  -5.336  11.250  0.00  0.00     0.000 A 
ATOM     17  C25 ZIN A   1      19.478  -4.750  11.345  0.00  0.00     0.001 A 
ATOM     18  C24 ZIN A   1      19.589  -3.376  11.448  0.00  0.00     0.009 A 
ENDBRANCH   4  13
BRANCH   3  19
ATOM     19  C7  ZIN A   1      17.016   0.901  11.744  0.00  0.00     0.036 C 
BRANCH  19  20
ATOM     20  C8  ZIN A   1      17.331   2.094  10.839  0.00  0.00     0.235 C 
BRANCH  20  21
ATOM     21  N9  ZIN A   1      17.781   3.226  11.659  0.00  0.00    -0.067 N 
ATOM     22  H10 ZIN A   1      17.315   4.068  11.356  0.00  0.00     0.280 HD
ATOM     23  C15 ZIN A   1      17.457   2.969  13.070  0.00  0.00     0.261 C 
ATOM     24  C14 ZIN A   1      17.927   4.150  13.922  0.00  0.00     0.195 C 
ATOM     25  O13 ZIN A   1      19.331   4.339  13.732  0.00  0.00    -0.388 OA
ATOM     26  C12 ZIN A   1      19.700   4.569  12.370  0.00  0.00     0.195 C 
ATOM     27  C11 ZIN A   1      19.234   3.390  11.515  0.00  0.00     0.261 C 
ENDBRANCH  20  21
ENDBRANCH  19  20
ENDBRANCH   3  19
BRANCH   1  28
ATOM     28  C2  ZIN A   1      20.028   0.559   8.514  0.00  0.00     0.121 C 
ATOM     29  C1  ZIN A   1      19.136   1.372   7.575  0.00  0.00     0.026 C 
ENDBRANCH   1  28
TORSDOF 6
ENDMDL
MODEL 7
REMARK VINA RESULT:      -7.8      1.808      4.953
REMARK  6 active torsions:
REMARK  status: ('A' for Active; 'I' for Inactive)
REMARK    1  A    between atoms: C2_2  and  N3_3 
REMARK    2  A    between atoms: C5_5  and  C7_6 
REMARK    3  A    between atoms: C7_6  and  C8_7 
REMARK    4  A    between atoms: C8_7  and  N9_8 
REMARK    5  A    between atoms: C16_15  and  C17_16 
REMARK    6  A    between atoms: C16_15  and  C23_22 
ROOT
ATOM      1  N3  ZIN A   1      18.020  -0.364  13.274  0.00  0.00    -0.351 N 
ATOM      2  C4  ZIN A   1      19.442  -0.722  13.327  0.00  0.00     0.132 C 
ATOM      3  C5  ZIN A   1      19.838  -1.055  11.871  0.00  0.00     0.032 C 
ATOM      4  C16 ZIN A   1      18.481  -1.480  11.264  0.00  0.00     0.100 C 
ATOM      5  C29 ZIN A   1      17.453  -0.787  12.130  0.00  0.00     0.238 C 
ATOM      6  O30 ZIN A   1      16.287  -0.630  11.834  0.00  0.00    -0.272 OA
ENDROOT
BRANCH   4   7
ATOM      7  C17 ZIN A   1      18.373  -1.013   9.835  0.00  0.00    -0.035 A 
ATOM      8  C22 ZIN A   1      17.471  -0.021   9.498  0.00  0.00     0.009 A 
ATOM      9  C21 ZIN A   1      17.375   0.409   8.188  0.00  0.00     0.001 A 
ATOM     10  C20 ZIN A   1      18.175  -0.158   7.213  0.00  0.00     0.000 A 
ATOM     11  C19 ZIN A   1      19.073  -1.153   7.550  0.00  0.00     0.001 A 
ATOM     12  C18 ZIN A   1      19.173  -1.580   8.861  0.00  0.00     0.009 A 
ENDBRANCH   4   7
BRANCH   4  13
ATOM     13  C23 ZIN A   1      18.313  -2.975  11.344  0.00  0.00    -0.035 A 
ATOM     14  C28 ZIN A   1      17.046  -3.528  11.359  0.00  0.00     0.009 A 
ATOM     15  C27 ZIN A   1      16.892  -4.901  11.428  0.00  0.00     0.001 A 
ATOM     16  C26 ZIN A   1      18.005  -5.719  11.490  0.00  0.00     0.000 A 
ATOM     17  C25 ZIN A   1      19.271  -5.166  11.480  0.00  0.00     0.001 A 
ATOM     18  C24 ZIN A   1      19.425  -3.794  11.406  0.00  0.00     0.009 A 
ENDBRANCH   4  13
BRANCH   3  19
ATOM     19  C7  ZIN A   1      20.396   0.179  11.159  0.00  0.00     0.036 C 
BRANCH  19  20
ATOM     20  C8  ZIN A   1      20.368   1.376  12.112  0.00  0.00     0.235 C 
BRANCH  20  21
ATOM     21  N9  ZIN A   1      19.232   2.244  11.777  0.00  0.00    -0.067 N 
ATOM     22  H10 ZIN A   1      18.375   1.715  11.839  0.00  0.00     0.280 HD
ATOM     23  C15 ZIN A   1      19.180   3.371  12.719  0.00  0.00     0.261 C 
ATOM     24  C14 ZIN A   1      17.996   4.274  12.367  0.00  0.00     0.195 C 
ATOM     25  O13 ZIN A   1      18.131   4.724  11.016  0.00  0.00    -0.388 OA
ATOM     26  C12 ZIN A   1      18.209   3.661  10.062  0.00  0.00     0.195 C 
ATOM     27  C11 ZIN A   1      19.394   2.757  10.410  0.00  0.00     0.261 C 
ENDBRANCH  20  21
ENDBRANCH  19  20
ENDBRANCH   3  19
BRANCH   1  28
ATOM     28  C2  ZIN A   1      17.309   0.357  14.332  0.00  0.00     0.121 C 
ATOM     29  C1  ZIN A   1      17.662  -0.252  15.689  0.00  0.00     0.026 C 
ENDBRANCH   1  28
TORSDOF 6
ENDMDL
MODEL 8
REMARK VINA RESULT:      -7.4      1.948      5.317
REMARK  6 active torsions:
REMARK  status: ('A' for Active; 'I' for Inactive)
REMARK    1  A    between atoms: C2_2  and  N3_3 
REMARK    2  A    between atoms: C5_5  and  C7_6 
REMARK    3  A    between atoms: C7_6  and  C8_7 
REMARK    4  A    between atoms: C8_7  and  N9_8 
REMARK    5  A    between atoms: C16_15  and  C17_16 
REMARK    6  A    between atoms: C16_15  and  C23_22 
ROOT
ATOM      1  N3  ZIN A   1      18.050   0.641   9.909  0.00  0.00    -0.351 N 
ATOM      2  C4  ZIN A   1      19.484   0.948   9.833  0.00  0.00     0.132 C 
ATOM      3  C5  ZIN A   1      19.996   0.888  11.289  0.00  0.00     0.032 C 
ATOM      4  C16 ZIN A   1      18.710   1.197  12.089  0.00  0.00     0.100 C 
ATOM      5  C29 ZIN A   1      17.588   0.784  11.164  0.00  0.00     0.238 C 
ATOM      6  O30 ZIN A   1      16.438   0.600  11.504  0.00  0.00    -0.272 OA
ENDROOT
BRANCH   4   7
ATOM      7  C17 ZIN A   1      18.674   0.390  13.361  0.00  0.00    -0.035 A 
ATOM      8  C22 ZIN A   1      19.162   0.930  14.537  0.00  0.00     0.009 A 
ATOM      9  C21 ZIN A   1      19.125   0.190  15.704  0.00  0.00     0.001 A 
ATOM     10  C20 ZIN A   1      18.609  -1.093  15.695  0.00  0.00     0.000 A 
ATOM     11  C19 ZIN A   1      18.127  -1.634  14.518  0.00  0.00     0.001 A 
ATOM     12  C18 ZIN A   1      18.159  -0.893  13.352  0.00  0.00     0.009 A 
ENDBRANCH   4   7
BRANCH   4  13
ATOM     13  C23 ZIN A   1      18.621   2.669  12.398  0.00  0.00    -0.035 A 
ATOM     14  C28 ZIN A   1      17.429   3.212  12.841  0.00  0.00     0.009 A 
ATOM     15  C27 ZIN A   1      17.349   4.562  13.128  0.00  0.00     0.001 A 
ATOM     16  C26 ZIN A   1      18.458   5.371  12.963  0.00  0.00     0.000 A 
ATOM     17  C25 ZIN A   1      19.648   4.830  12.515  0.00  0.00     0.001 A 
ATOM     18  C24 ZIN A   1      19.729   3.479  12.232  0.00  0.00     0.009 A 
ENDBRANCH   4  13
BRANCH   3  19
ATOM     19  C7  ZIN A   1      20.531  -0.505  11.625  0.00  0.00     0.036 C 
BRANCH  19  20
ATOM     20  C8  ZIN A   1      20.477  -1.388  10.376  0.00  0.00     0.235 C 
BRANCH  20  21
ATOM     21  N9  ZIN A   1      19.453  -2.425  10.553  0.00  0.00    -0.067 N 
ATOM     22  H10 ZIN A   1      18.672  -2.043  11.065  0.00  0.00     0.280 HD
ATOM     23  C15 ZIN A   1      18.994  -2.891   9.236  0.00  0.00     0.261 C 
ATOM     24  C14 ZIN A   1      17.927  -3.972   9.424  0.00  0.00     0.195 C 
ATOM     25  O13 ZIN A   1      18.471  -5.043  10.200  0.00  0.00    -0.388 OA
ATOM     26  C12 ZIN A   1      18.954  -4.634  11.483  0.00  0.00     0.195 C 
ATOM     27  C11 ZIN A   1      20.023  -3.555  11.299  0.00  0.00     0.261 C 
ENDBRANCH  20  21
ENDBRANCH  19  20
ENDBRANCH   3  19
BRANCH   1  28
ATOM     28  C2  ZIN A   1      17.229   0.238   8.766  0.00  0.00     0.121 C 
ATOM     29  C1  ZIN A   1      18.076   0.272   7.493  0.00  0.00     0.026 C 
ENDBRANCH   1  28
TORSDOF 6
ENDMDL
MODEL 9
REMARK VINA RESULT:      -7.4      2.153      6.074
REMARK  6 active torsions:
REMARK  status: ('A' for Active; 'I' for Inactive)
REMARK    1  A    between atoms: C2_2  and  N3_3 
REMARK    2  A    between atoms: C5_5  and  C7_6 
REMARK    3  A    between atoms: C7_6  and  C8_7 
REMARK    4  A    between atoms: C8_7  and  N9_8 
REMARK    5  A    between atoms: C16_15  and  C17_16 
REMARK    6  A    between atoms: C16_15  and  C23_22 
ROOT
ATOM      1  N3  ZIN A   1      19.541  -2.686  11.331  0.00  0.00    -0.351 N 
ATOM      2  C4  ZIN A   1      18.099  -2.938  11.434  0.00  0.00     0.132 C 
ATOM      3  C5  ZIN A   1      17.432  -1.545  11.370  0.00  0.00     0.032 C 
ATOM      4  C16 ZIN A   1      18.564  -0.630  11.889  0.00  0.00     0.100 C 
ATOM      5  C29 ZIN A   1      19.831  -1.400  11.592  0.00  0.00     0.238 C 
ATOM      6  O30 ZIN A   1      20.948  -0.925  11.585  0.00  0.00    -0.272 OA
ENDROOT
BRANCH   4   7
ATOM      7  C17 ZIN A   1      18.558   0.686  11.153  0.00  0.00    -0.035 A 
ATOM      8  C22 ZIN A   1      19.414   0.886  10.087  0.00  0.00     0.009 A 
ATOM      9  C21 ZIN A   1      19.405   2.090   9.410  0.00  0.00     0.001 A 
ATOM     10  C20 ZIN A   1      18.545   3.099   9.804  0.00  0.00     0.000 A 
ATOM     11  C19 ZIN A   1      17.693   2.901  10.874  0.00  0.00     0.001 A 
ATOM     12  C18 ZIN A   1      17.699   1.694  11.548  0.00  0.00     0.009 A 
ENDBRANCH   4   7
BRANCH   4  13
ATOM     13  C23 ZIN A   1      18.423  -0.404  13.372  0.00  0.00    -0.035 A 
ATOM     14  C28 ZIN A   1      19.243  -1.078  14.256  0.00  0.00     0.009 A 
ATOM     15  C27 ZIN A   1      19.116  -0.868  15.617  0.00  0.00     0.001 A 
ATOM     16  C26 ZIN A   1      18.161   0.012  16.093  0.00  0.00     0.000 A 
ATOM     17  C25 ZIN A   1      17.337   0.683  15.210  0.00  0.00     0.001 A 
ATOM     18  C24 ZIN A   1      17.468   0.475  13.849  0.00  0.00     0.009 A 
ENDBRANCH   4  13
BRANCH   3  19
ATOM     19  C7  ZIN A   1      17.050  -1.186   9.933  0.00  0.00     0.036 C 
BRANCH  19  20
ATOM     20  C8  ZIN A   1      17.509  -2.298   8.988  0.00  0.00     0.235 C 
BRANCH  20  21
ATOM     21  N9  ZIN A   1      17.695  -1.750   7.639  0.00  0.00    -0.067 N 
ATOM     22  H10 ZIN A   1      17.160  -2.294   6.978  0.00  0.00     0.280 HD
ATOM     23  C15 ZIN A   1      17.235  -0.354   7.609  0.00  0.00     0.261 C 
ATOM     24  C14 ZIN A   1      17.430   0.214   6.201  0.00  0.00     0.195 C 
ATOM     25  O13 ZIN A   1      18.808   0.108   5.836  0.00  0.00    -0.388 OA
ATOM     26  C12 ZIN A   1      19.309  -1.231   5.873  0.00  0.00     0.195 C 
ATOM     27  C11 ZIN A   1      19.118  -1.803   7.280  0.00  0.00     0.261 C 
ENDBRANCH  20  21
ENDBRANCH  19  20
ENDBRANCH   3  19
BRANCH   1  28
ATOM     28  C2  ZIN A   1      20.536  -3.706  10.992  0.00  0.00     0.121 C 
ATOM     29  C1  ZIN A   1      19.853  -4.862  10.260  0.00  0.00     0.026 C 
ENDBRANCH   1  28
TORSDOF 6
ENDMDL
