MODEL 1
REMARK VINA RESULT:      -8.0      0.000      0.000
REMARK  3 active torsions:
REMARK  status: ('A' for Active; 'I' for Inactive)
REMARK    1  A    between atoms: C5_5  and  S6_6 
REMARK    2  A    between atoms: S6_6  and  N9_9 
REMARK       I    between atoms: C10_10  and  N12_12 
REMARK    3  A    between atoms: N12_12  and  N13_13 
ROOT
ATOM      1  N9  ZIN A   1      18.093   2.893  12.822  0.00  0.00    -0.114 NA
ATOM      2  C10 ZIN A   1      17.699   3.500  13.902  0.00  0.00     0.299 C 
ATOM      3  O11 ZIN A   1      17.132   4.724  13.821  0.00  0.00    -0.147 OA
ATOM      4  N12 ZIN A   1      17.859   2.899  15.126  0.00  0.00    -0.280 N 
ATOM      5  H27 ZIN A   1      17.566   3.352  15.932  0.00  0.00     0.184 HD
ENDROOT
BRANCH   1   6
ATOM      6  S6  ZIN A   1      17.899   3.618  11.346  0.00  0.00     0.286 S 
ATOM      7  O7  ZIN A   1      18.970   4.543  11.211  0.00  0.00    -0.198 OA
ATOM      8  O8  ZIN A   1      16.532   3.994  11.261  0.00  0.00    -0.198 OA
BRANCH   6   9
ATOM      9  C5  ZIN A   1      18.153   2.379  10.118  0.00  0.00     0.081 A 
ATOM     10  C4  ZIN A   1      18.975   2.636   9.038  0.00  0.00     0.026 A 
ATOM     11  C3  ZIN A   1      19.175   1.664   8.075  0.00  0.00     0.008 A 
ATOM     12  C2  ZIN A   1      18.553   0.435   8.194  0.00  0.00    -0.062 A 
ATOM     13  C1  ZIN A   1      18.771  -0.624   7.144  0.00  0.00     0.048 C 
ATOM     14  C21 ZIN A   1      17.726   0.181   9.272  0.00  0.00     0.008 A 
ATOM     15  C20 ZIN A   1      17.529   1.152  10.237  0.00  0.00     0.026 A 
ENDBRANCH   6   9
ENDBRANCH   1   6
BRANCH   4  16
ATOM     16  N13 ZIN A   1      18.433   1.662  15.209  0.00  0.00    -0.228 NA
ATOM     17  C19 ZIN A   1      17.411   0.596  15.107  0.00  0.00     0.113 C 
ATOM     18  C18 ZIN A   1      17.949  -0.763  15.463  0.00  0.00     0.016 C 
ATOM     19  C17 ZIN A   1      17.670  -1.025  16.958  0.00  0.00     0.001 C 
ATOM     20  C16 ZIN A   1      18.619  -0.335  17.824  0.00  0.00     0.001 C 
ATOM     21  C15 ZIN A   1      18.561   1.197  17.648  0.00  0.00     0.016 C 
ATOM     22  C14 ZIN A   1      19.311   1.563  16.397  0.00  0.00     0.113 C 
ENDBRANCH   4  16
TORSDOF 3
ENDMDL
MODEL 2
REMARK VINA RESULT:      -7.9      0.990      2.102
REMARK  3 active torsions:
REMARK  status: ('A' for Active; 'I' for Inactive)
REMARK    1  A    between atoms: C5_5  and  S6_6 
REMARK    2  A    between atoms: S6_6  and  N9_9 
REMARK       I    between atoms: C10_10  and  N12_12 
REMARK    3  A    between atoms: N12_12  and  N13_13 
ROOT
ATOM      1  N9  ZIN A   1      18.235   2.571  12.655  0.00  0.00    -0.114 NA
ATOM      2  C10 ZIN A   1      19.349   1.943  12.889  0.00  0.00     0.299 C 
ATOM      3  O11 ZIN A   1      20.325   1.926  11.954  0.00  0.00    -0.147 OA
ATOM      4  N12 ZIN A   1      19.534   1.294  14.085  0.00  0.00    -0.280 N 
ATOM      5  H27 ZIN A   1      20.365   0.825  14.259  0.00  0.00     0.184 HD
ENDROOT
BRANCH   1   6
ATOM      6  S6  ZIN A   1      18.011   3.353  11.212  0.00  0.00     0.286 S 
ATOM      7  O7  ZIN A   1      19.121   4.228  11.054  0.00  0.00    -0.198 OA
ATOM      8  O8  ZIN A   1      16.662   3.798  11.203  0.00  0.00    -0.198 OA
BRANCH   6   9
ATOM      9  C5  ZIN A   1      18.145   2.144   9.937  0.00  0.00     0.081 A 
ATOM     10  C4  ZIN A   1      17.426   0.967  10.022  0.00  0.00     0.026 A 
ATOM     11  C3  ZIN A   1      17.530   0.019   9.022  0.00  0.00     0.008 A 
ATOM     12  C2  ZIN A   1      18.353   0.248   7.936  0.00  0.00    -0.062 A 
ATOM     13  C1  ZIN A   1      18.467  -0.786   6.845  0.00  0.00     0.048 C 
ATOM     14  C21 ZIN A   1      19.077   1.423   7.853  0.00  0.00     0.008 A 
ATOM     15  C20 ZIN A   1      18.970   2.373   8.852  0.00  0.00     0.026 A 
ENDBRANCH   6   9
ENDBRANCH   1   6
BRANCH   4  16
ATOM     16  N13 ZIN A   1      18.548   1.310  15.030  0.00  0.00    -0.228 NA
ATOM     17  C19 ZIN A   1      19.110   1.534  16.380  0.00  0.00     0.113 C 
ATOM     18  C18 ZIN A   1      18.110   1.289  17.477  0.00  0.00     0.016 C 
ATOM     19  C17 ZIN A   1      18.259  -0.168  17.961  0.00  0.00     0.001 C 
ATOM     20  C16 ZIN A   1      17.619  -1.117  17.057  0.00  0.00     0.001 C 
ATOM     21  C15 ZIN A   1      18.235  -1.079  15.643  0.00  0.00     0.016 C 
ATOM     22  C14 ZIN A   1      17.683   0.114  14.913  0.00  0.00     0.113 C 
ENDBRANCH   4  16
TORSDOF 3
ENDMDL
MODEL 3
REMARK VINA RESULT:      -7.6      2.531      7.370
REMARK  3 active torsions:
REMARK  status: ('A' for Active; 'I' for Inactive)
REMARK    1  A    between atoms: C5_5  and  S6_6 
REMARK    2  A    between atoms: S6_6  and  N9_9 
REMARK       I    between atoms: C10_10  and  N12_12 
REMARK    3  A    between atoms: N12_12  and  N13_13 
ROOT
ATOM      1  N9  ZIN A   1      18.517   1.344  10.254  0.00  0.00    -0.114 NA
ATOM      2  C10 ZIN A   1      17.542   0.523   9.995  0.00  0.00     0.299 C 
ATOM      3  O11 ZIN A   1      16.514   0.399  10.863  0.00  0.00    -0.147 OA
ATOM      4  N12 ZIN A   1      17.556  -0.218   8.839  0.00  0.00    -0.280 N 
ATOM      5  H27 ZIN A   1      16.829  -0.831   8.646  0.00  0.00     0.184 HD
ENDROOT
BRANCH   1   6
ATOM      6  S6  ZIN A   1      18.500   2.238  11.647  0.00  0.00     0.286 S 
ATOM      7  O7  ZIN A   1      17.219   2.852  11.714  0.00  0.00    -0.198 OA
ATOM      8  O8  ZIN A   1      19.716   2.972  11.667  0.00  0.00    -0.198 OA
BRANCH   6   9
ATOM      9  C5  ZIN A   1      18.580   1.106  12.995  0.00  0.00     0.081 A 
ATOM     10  C4  ZIN A   1      19.560   0.132  13.022  0.00  0.00     0.026 A 
ATOM     11  C3  ZIN A   1      19.624  -0.756  14.079  0.00  0.00     0.008 A 
ATOM     12  C2  ZIN A   1      18.706  -0.670  15.111  0.00  0.00    -0.062 A 
ATOM     13  C1  ZIN A   1      18.775  -1.638  16.263  0.00  0.00     0.048 C 
ATOM     14  C21 ZIN A   1      17.722   0.301  15.080  0.00  0.00     0.008 A 
ATOM     15  C20 ZIN A   1      17.661   1.191  14.025  0.00  0.00     0.026 A 
ENDBRANCH   6   9
ENDBRANCH   1   6
BRANCH   4  16
ATOM     16  N13 ZIN A   1      18.595  -0.094   7.961  0.00  0.00    -0.228 NA
ATOM     17  C19 ZIN A   1      18.172   0.625   6.737  0.00  0.00     0.113 C 
ATOM     18  C18 ZIN A   1      19.192   0.549   5.635  0.00  0.00     0.016 C 
ATOM     19  C17 ZIN A   1      18.840  -0.643   4.721  0.00  0.00     0.001 C 
ATOM     20  C16 ZIN A   1      19.250  -1.918   5.296  0.00  0.00     0.001 C 
ATOM     21  C15 ZIN A   1      18.553  -2.201   6.643  0.00  0.00     0.016 C 
ATOM     22  C14 ZIN A   1      19.241  -1.403   7.715  0.00  0.00     0.113 C 
ENDBRANCH   4  16
TORSDOF 3
ENDMDL
MODEL 4
REMARK VINA RESULT:      -7.5      3.394      3.973
REMARK  3 active torsions:
REMARK  status: ('A' for Active; 'I' for Inactive)
REMARK    1  A    between atoms: C5_5  and  S6_6 
REMARK    2  A    between atoms: S6_6  and  N9_9 
REMARK       I    between atoms: C10_10  and  N12_12 
REMARK    3  A    between atoms: N12_12  and  N13_13 
ROOT
ATOM      1  N9  ZIN A   1      18.635  -1.809  12.514  0.00  0.00    -0.114 NA
ATOM      2  C10 ZIN A   1      17.658  -0.995  12.783  0.00  0.00     0.299 C 
ATOM      3  O11 ZIN A   1      16.638  -0.851  11.909  0.00  0.00    -0.147 OA
ATOM      4  N12 ZIN A   1      17.663  -0.279  13.955  0.00  0.00    -0.280 N 
ATOM      5  H27 ZIN A   1      16.935   0.329  14.155  0.00  0.00     0.184 HD
ENDROOT
BRANCH   1   6
ATOM      6  S6  ZIN A   1      18.629  -2.673  11.100  0.00  0.00     0.286 S 
ATOM      7  O7  ZIN A   1      17.352  -3.293  11.016  0.00  0.00    -0.198 OA
ATOM      8  O8  ZIN A   1      19.850  -3.399  11.070  0.00  0.00    -0.198 OA
BRANCH   6   9
ATOM      9  C5  ZIN A   1      18.706  -1.511   9.778  0.00  0.00     0.081 A 
ATOM     10  C4  ZIN A   1      19.633  -0.486   9.813  0.00  0.00     0.026 A 
ATOM     11  C3  ZIN A   1      19.695   0.425   8.776  0.00  0.00     0.008 A 
ATOM     12  C2  ZIN A   1      18.830   0.312   7.703  0.00  0.00    -0.062 A 
ATOM     13  C1  ZIN A   1      18.897   1.306   6.572  0.00  0.00     0.048 C 
ATOM     14  C21 ZIN A   1      17.900  -0.710   7.672  0.00  0.00     0.008 A 
ATOM     15  C20 ZIN A   1      17.840  -1.624   8.707  0.00  0.00     0.026 A 
ENDBRANCH   6   9
ENDBRANCH   1   6
BRANCH   4  16
ATOM     16  N13 ZIN A   1      18.695  -0.423  14.838  0.00  0.00    -0.228 NA
ATOM     17  C19 ZIN A   1      18.291  -1.255  15.994  0.00  0.00     0.113 C 
ATOM     18  C18 ZIN A   1      19.292  -1.219  17.117  0.00  0.00     0.016 C 
ATOM     19  C17 ZIN A   1      18.870  -0.121  18.115  0.00  0.00     0.001 C 
ATOM     20  C16 ZIN A   1      19.226   1.214  17.648  0.00  0.00     0.001 C 
ATOM     21  C15 ZIN A   1      18.533   1.570  16.316  0.00  0.00     0.016 C 
ATOM     22  C14 ZIN A   1      19.274   0.892  15.197  0.00  0.00     0.113 C 
ENDBRANCH   4  16
TORSDOF 3
ENDMDL
MODEL 5
REMARK VINA RESULT:      -7.5      2.746      4.233
REMARK  3 active torsions:
REMARK  status: ('A' for Active; 'I' for Inactive)
REMARK    1  A    between atoms: C5_5  and  S6_6 
REMARK    2  A    between atoms: S6_6  and  N9_9 
REMARK       I    between atoms: C10_10  and  N12_12 
REMARK    3  A    between atoms: N12_12  and  N13_13 
ROOT
ATOM      1  N9  ZIN A   1      17.809   1.577  12.667  0.00  0.00    -0.114 NA
ATOM      2  C10 ZIN A   1      17.637   1.603  13.955  0.00  0.00     0.299 C 
ATOM      3  O11 ZIN A   1      17.219   0.493  14.603  0.00  0.00    -0.147 OA
ATOM      4  N12 ZIN A   1      17.877   2.758  14.658  0.00  0.00    -0.280 N 
ATOM      5  H27 ZIN A   1      17.748   2.777  15.619  0.00  0.00     0.184 HD
ENDROOT
BRANCH   1   6
ATOM      6  S6  ZIN A   1      17.519   0.184  11.818  0.00  0.00     0.286 S 
ATOM      7  O7  ZIN A   1      16.110  -0.001  11.823  0.00  0.00    -0.198 OA
ATOM      8  O8  ZIN A   1      18.433  -0.784  12.315  0.00  0.00    -0.198 OA
BRANCH   6   9
ATOM      9  C5  ZIN A   1      17.976   0.488  10.144  0.00  0.00     0.081 A 
ATOM     10  C4  ZIN A   1      18.946   1.428   9.852  0.00  0.00     0.026 A 
ATOM     11  C3  ZIN A   1      19.305   1.666   8.539  0.00  0.00     0.008 A 
ATOM     12  C2  ZIN A   1      18.694   0.963   7.517  0.00  0.00    -0.062 A 
ATOM     13  C1  ZIN A   1      19.085   1.223   6.085  0.00  0.00     0.048 C 
ATOM     14  C21 ZIN A   1      17.720   0.027   7.809  0.00  0.00     0.008 A 
ATOM     15  C20 ZIN A   1      17.363  -0.214   9.123  0.00  0.00     0.026 A 
ENDBRANCH   6   9
ENDBRANCH   1   6
BRANCH   4  16
ATOM     16  N13 ZIN A   1      18.299   3.880  14.003  0.00  0.00    -0.228 NA
ATOM     17  C19 ZIN A   1      19.321   4.602  14.793  0.00  0.00     0.113 C 
ATOM     18  C18 ZIN A   1      19.616   5.974  14.250  0.00  0.00     0.016 C 
ATOM     19  C17 ZIN A   1      18.726   6.995  14.988  0.00  0.00     0.001 C 
ATOM     20  C16 ZIN A   1      17.358   7.002  14.482  0.00  0.00     0.001 C 
ATOM     21  C15 ZIN A   1      16.665   5.635  14.660  0.00  0.00     0.016 C 
ATOM     22  C14 ZIN A   1      17.149   4.709  13.578  0.00  0.00     0.113 C 
ENDBRANCH   4  16
TORSDOF 3
ENDMDL
MODEL 6
REMARK VINA RESULT:      -7.5      4.320      7.586
REMARK  3 active torsions:
REMARK  status: ('A' for Active; 'I' for Inactive)
REMARK    1  A    between atoms: C5_5  and  S6_6 
REMARK    2  A    between atoms: S6_6  and  N9_9 
REMARK       I    between atoms: C10_10  and  N12_12 
REMARK    3  A    between atoms: N12_12  and  N13_13 
ROOT
ATOM      1  N9  ZIN A   1      17.703  -1.352  10.569  0.00  0.00    -0.114 NA
ATOM      2  C10 ZIN A   1      17.548  -1.366   9.278  0.00  0.00     0.299 C 
ATOM      3  O11 ZIN A   1      17.144  -0.249   8.634  0.00  0.00    -0.147 OA
ATOM      4  N12 ZIN A   1      17.794  -2.516   8.569  0.00  0.00    -0.280 N 
ATOM      5  H27 ZIN A   1      17.677  -2.527   7.606  0.00  0.00     0.184 HD
ENDROOT
BRANCH   1   6
ATOM      6  S6  ZIN A   1      17.407   0.035  11.425  0.00  0.00     0.286 S 
ATOM      7  O7  ZIN A   1      15.995   0.199  11.446  0.00  0.00    -0.198 OA
ATOM      8  O8  ZIN A   1      18.297   1.018  10.913  0.00  0.00    -0.198 OA
BRANCH   6   9
ATOM      9  C5  ZIN A   1      17.899  -0.264  13.090  0.00  0.00     0.081 A 
ATOM     10  C4  ZIN A   1      18.741  -1.320  13.382  0.00  0.00     0.026 A 
ATOM     11  C3  ZIN A   1      19.128  -1.554  14.688  0.00  0.00     0.008 A 
ATOM     12  C2  ZIN A   1      18.672  -0.733  15.702  0.00  0.00    -0.062 A 
ATOM     13  C1  ZIN A   1      19.093  -0.989  17.127  0.00  0.00     0.048 C 
ATOM     14  C21 ZIN A   1      17.825   0.320  15.410  0.00  0.00     0.008 A 
ATOM     15  C20 ZIN A   1      17.441   0.557  14.104  0.00  0.00     0.026 A 
ENDBRANCH   6   9
ENDBRANCH   1   6
BRANCH   4  16
ATOM     16  N13 ZIN A   1      18.202  -3.646   9.220  0.00  0.00    -0.228 NA
ATOM     17  C19 ZIN A   1      19.085  -4.464   8.360  0.00  0.00     0.113 C 
ATOM     18  C18 ZIN A   1      19.338  -5.836   8.921  0.00  0.00     0.016 C 
ATOM     19  C17 ZIN A   1      18.309  -6.812   8.315  0.00  0.00     0.001 C 
ATOM     20  C16 ZIN A   1      17.003  -6.704   8.955  0.00  0.00     0.001 C 
ATOM     21  C15 ZIN A   1      16.391  -5.296   8.796  0.00  0.00     0.016 C 
ATOM     22  C14 ZIN A   1      17.046  -4.376   9.789  0.00  0.00     0.113 C 
ENDBRANCH   4  16
TORSDOF 3
ENDMDL
MODEL 7
REMARK VINA RESULT:      -7.3      4.232      8.233
REMARK  3 active torsions:
REMARK  status: ('A' for Active; 'I' for Inactive)
REMARK    1  A    between atoms: C5_5  and  S6_6 
REMARK    2  A    between atoms: S6_6  and  N9_9 
REMARK       I    between atoms: C10_10  and  N12_12 
REMARK    3  A    between atoms: N12_12  and  N13_13 
ROOT
ATOM      1  N9  ZIN A   1      18.503  -2.212  10.173  0.00  0.00    -0.114 NA
ATOM      2  C10 ZIN A   1      19.542  -1.468   9.933  0.00  0.00     0.299 C 
ATOM      3  O11 ZIN A   1      20.454  -1.248  10.905  0.00  0.00    -0.147 OA
ATOM      4  N12 ZIN A   1      19.711  -0.904   8.693  0.00  0.00    -0.280 N 
ATOM      5  H27 ZIN A   1      20.486  -0.348   8.514  0.00  0.00     0.184 HD
ENDROOT
BRANCH   1   6
ATOM      6  S6  ZIN A   1      18.298  -2.893  11.669  0.00  0.00     0.286 S 
ATOM      7  O7  ZIN A   1      19.461  -3.672  11.917  0.00  0.00    -0.198 OA
ATOM      8  O8  ZIN A   1      16.983  -3.431  11.687  0.00  0.00    -0.198 OA
BRANCH   6   9
ATOM      9  C5  ZIN A   1      18.316  -1.581  12.846  0.00  0.00     0.081 A 
ATOM     10  C4  ZIN A   1      17.477  -0.496  12.683  0.00  0.00     0.026 A 
ATOM     11  C3  ZIN A   1      17.491   0.533  13.607  0.00  0.00     0.008 A 
ATOM     12  C2  ZIN A   1      18.343   0.475  14.693  0.00  0.00    -0.062 A 
ATOM     13  C1  ZIN A   1      18.359   1.597  15.700  0.00  0.00     0.048 C 
ATOM     14  C21 ZIN A   1      19.187  -0.609  14.852  0.00  0.00     0.008 A 
ATOM     15  C20 ZIN A   1      19.171  -1.639  13.931  0.00  0.00     0.026 A 
ENDBRANCH   6   9
ENDBRANCH   1   6
BRANCH   4  16
ATOM     16  N13 ZIN A   1      18.788  -1.125   7.710  0.00  0.00    -0.228 NA
ATOM     17  C19 ZIN A   1      19.290  -2.107   6.723  0.00  0.00     0.113 C 
ATOM     18  C18 ZIN A   1      18.436  -2.180   5.487  0.00  0.00     0.016 C 
ATOM     19  C17 ZIN A   1      19.027  -1.230   4.425  0.00  0.00     0.001 C 
ATOM     20  C16 ZIN A   1      18.679   0.164   4.679  0.00  0.00     0.001 C 
ATOM     21  C15 ZIN A   1      19.221   0.661   6.036  0.00  0.00     0.016 C 
ATOM     22  C14 ZIN A   1      18.319   0.152   7.126  0.00  0.00     0.113 C 
ENDBRANCH   4  16
TORSDOF 3
ENDMDL
MODEL 8
REMARK VINA RESULT:      -7.2      4.179      7.369
REMARK  3 active torsions:
REMARK  status: ('A' for Active; 'I' for Inactive)
REMARK    1  A    between atoms: C5_5  and  S6_6 
REMARK    2  A    between atoms: S6_6  and  N9_9 
REMARK       I    between atoms: C10_10  and  N12_12 
REMARK    3  A    between atoms: N12_12  and  N13_13 
ROOT
ATOM      1  N9  ZIN A   1      19.232  -0.894  11.978  0.00  0.00    -0.114 NA
ATOM      2  C10 ZIN A   1      19.914  -1.376  10.981  0.00  0.00     0.299 C 
ATOM      3  O11 ZIN A   1      21.005  -0.721  10.529  0.00  0.00    -0.147 OA
ATOM      4  N12 ZIN A   1      19.523  -2.551  10.386  0.00  0.00    -0.280 N 
ATOM      5  H27 ZIN A   1      20.032  -2.910   9.643  0.00  0.00     0.184 HD
ENDROOT
BRANCH   1   6
ATOM      6  S6  ZIN A   1      19.702   0.523  12.696  0.00  0.00     0.286 S 
ATOM      7  O7  ZIN A   1      18.840   1.534  12.189  0.00  0.00    -0.198 OA
ATOM      8  O8  ZIN A   1      21.117   0.579  12.582  0.00  0.00    -0.198 OA
BRANCH   6   9
ATOM      9  C5  ZIN A   1      19.346   0.381  14.415  0.00  0.00     0.081 A 
ATOM     10  C4  ZIN A   1      19.198  -0.868  14.989  0.00  0.00     0.026 A 
ATOM     11  C3  ZIN A   1      18.920  -0.981  16.338  0.00  0.00     0.008 A 
ATOM     12  C2  ZIN A   1      18.788   0.156  17.114  0.00  0.00    -0.062 A 
ATOM     13  C1  ZIN A   1      18.484   0.034  18.585  0.00  0.00     0.048 C 
ATOM     14  C21 ZIN A   1      18.930   1.405  16.538  0.00  0.00     0.008 A 
ATOM     15  C20 ZIN A   1      19.213   1.518  15.190  0.00  0.00     0.026 A 
ENDBRANCH   6   9
ENDBRANCH   1   6
BRANCH   4  16
ATOM     16  N13 ZIN A   1      18.419  -3.213  10.842  0.00  0.00    -0.228 NA
ATOM     17  C19 ZIN A   1      18.780  -4.552  11.360  0.00  0.00     0.113 C 
ATOM     18  C18 ZIN A   1      17.579  -5.420  11.619  0.00  0.00     0.016 C 
ATOM     19  C17 ZIN A   1      17.319  -6.282  10.366  0.00  0.00     0.001 C 
ATOM     20  C16 ZIN A   1      16.648  -5.532   9.311  0.00  0.00     0.001 C 
ATOM     21  C15 ZIN A   1      17.487  -4.331   8.827  0.00  0.00     0.016 C 
ATOM     22  C14 ZIN A   1      17.344  -3.215   9.824  0.00  0.00     0.113 C 
ENDBRANCH   4  16
TORSDOF 3
ENDMDL
MODEL 9
REMARK VINA RESULT:      -7.2      7.137      9.789
REMARK  3 active torsions:
REMARK  status: ('A' for Active; 'I' for Inactive)
REMARK    1  A    between atoms: C5_5  and  S6_6 
REMARK    2  A    between atoms: S6_6  and  N9_9 
REMARK       I    between atoms: C10_10  and  N12_12 
REMARK    3  A    between atoms: N12_12  and  N13_13 
ROOT
ATOM      1  N9  ZIN A   1      18.158  -4.542   8.569  0.00  0.00    -0.114 NA
ATOM      2  C10 ZIN A   1      19.075  -3.782   9.092  0.00  0.00     0.299 C 
ATOM      3  O11 ZIN A   1      19.811  -4.231  10.132  0.00  0.00    -0.147 OA
ATOM      4  N12 ZIN A   1      19.293  -2.524   8.588  0.00  0.00    -0.280 N 
ATOM      5  H27 ZIN A   1      19.976  -1.957   8.979  0.00  0.00     0.184 HD
ENDROOT
BRANCH   1   6
ATOM      6  S6  ZIN A   1      17.894  -6.061   9.175  0.00  0.00     0.286 S 
ATOM      7  O7  ZIN A   1      17.675  -5.901  10.571  0.00  0.00    -0.198 OA
ATOM      8  O8  ZIN A   1      18.915  -6.890   8.638  0.00  0.00    -0.198 OA
BRANCH   6   9
ATOM      9  C5  ZIN A   1      16.374  -6.637   8.495  0.00  0.00     0.081 A 
ATOM     10  C4  ZIN A   1      16.304  -7.898   7.933  0.00  0.00     0.026 A 
ATOM     11  C3  ZIN A   1      15.112  -8.351   7.400  0.00  0.00     0.008 A 
ATOM     12  C2  ZIN A   1      13.990  -7.544   7.429  0.00  0.00    -0.062 A 
ATOM     13  C1  ZIN A   1      12.691  -8.038   6.848  0.00  0.00     0.048 C 
ATOM     14  C21 ZIN A   1      14.063  -6.281   7.987  0.00  0.00     0.008 A 
ATOM     15  C20 ZIN A   1      15.254  -5.829   8.523  0.00  0.00     0.026 A 
ENDBRANCH   6   9
ENDBRANCH   1   6
BRANCH   4  16
ATOM     16  N13 ZIN A   1      18.548  -2.070   7.537  0.00  0.00    -0.228 NA
ATOM     17  C19 ZIN A   1      19.338  -2.080   6.285  0.00  0.00     0.113 C 
ATOM     18  C18 ZIN A   1      18.661  -1.341   5.163  0.00  0.00     0.016 C 
ATOM     19  C17 ZIN A   1      19.178   0.112   5.150  0.00  0.00     0.001 C 
ATOM     20  C16 ZIN A   1      18.546   0.932   6.177  0.00  0.00     0.001 C 
ATOM     21  C15 ZIN A   1      18.824   0.400   7.599  0.00  0.00     0.016 C 
ATOM     22  C14 ZIN A   1      17.916  -0.770   7.857  0.00  0.00     0.113 C 
ENDBRANCH   4  16
TORSDOF 3
ENDMDL
