MODEL 1
REMARK VINA RESULT:      -8.2      0.000      0.000
REMARK  3 active torsions:
REMARK  status: ('A' for Active; 'I' for Inactive)
REMARK    1  A    between atoms: C5_5  and  S6_6 
REMARK    2  A    between atoms: S6_6  and  C7_7 
REMARK    3  A    between atoms: C12_12  and  N13_13 
ROOT
ATOM      1  C7  ZIN A   1      18.335   3.248  11.424  0.00  0.00     0.027 A 
ATOM      2  C8  ZIN A   1      17.848   4.001  10.365  0.00  0.00     0.021 A 
ATOM      3  C9  ZIN A   1      17.012   5.075  10.608  0.00  0.00     0.001 A 
ATOM      4  C10 ZIN A   1      16.658   5.402  11.904  0.00  0.00     0.002 A 
ATOM      5  C11 ZIN A   1      17.138   4.657  12.965  0.00  0.00     0.025 A 
ATOM      6  C12 ZIN A   1      17.972   3.574  12.731  0.00  0.00     0.028 A 
ENDROOT
BRANCH   1   7
ATOM      7  S6  ZIN A   1      19.401   1.879  11.118  0.00  0.00    -0.088 SA
BRANCH   7   8
ATOM      8  C5  ZIN A   1      18.819   1.260   9.575  0.00  0.00     0.011 A 
ATOM      9  C4  ZIN A   1      19.440   1.643   8.392  0.00  0.00     0.020 A 
ATOM     10  C3  ZIN A   1      18.980   1.157   7.184  0.00  0.00     0.008 A 
ATOM     11  C2  ZIN A   1      17.905   0.289   7.149  0.00  0.00    -0.061 A 
ATOM     12  C1  ZIN A   1      17.406  -0.240   5.830  0.00  0.00     0.048 C 
ATOM     13  C23 ZIN A   1      17.280  -0.090   8.325  0.00  0.00     0.014 A 
ATOM     14  C21 ZIN A   1      17.737   0.388   9.536  0.00  0.00    -0.044 A 
ATOM     15  C22 ZIN A   1      17.060  -0.030  10.816  0.00  0.00     0.049 C 
ENDBRANCH   7   8
ENDBRANCH   1   7
BRANCH   6  16
ATOM     16  N13 ZIN A   1      18.458   2.818  13.804  0.00  0.00    -0.279 NA
ATOM     17  C20 ZIN A   1      18.643   3.656  14.998  0.00  0.00     0.123 C 
ATOM     18  C19 ZIN A   1      19.231   2.807  16.127  0.00  0.00     0.247 C 
ATOM     19  N16 ZIN A   1      18.322   1.693  16.427  0.00  0.00    -0.073 N 
ATOM     20  C15 ZIN A   1      18.166   0.851  15.232  0.00  0.00     0.247 C 
ATOM     21  H17 ZIN A   1      17.422   2.058  16.700  0.00  0.00     0.277 HD
ATOM     22  H18 ZIN A   1      18.704   1.140  17.179  0.00  0.00     0.277 HD
ATOM     23  C14 ZIN A   1      17.569   1.685  14.095  0.00  0.00     0.123 C 
ENDBRANCH   6  16
TORSDOF 3
ENDMDL
MODEL 2
REMARK VINA RESULT:      -7.9      2.691      6.122
REMARK  3 active torsions:
REMARK  status: ('A' for Active; 'I' for Inactive)
REMARK    1  A    between atoms: C5_5  and  S6_6 
REMARK    2  A    between atoms: S6_6  and  C7_7 
REMARK    3  A    between atoms: C12_12  and  N13_13 
ROOT
ATOM      1  C7  ZIN A   1      19.661   1.753  11.398  0.00  0.00     0.027 A 
ATOM      2  C8  ZIN A   1      19.649   3.053  11.881  0.00  0.00     0.021 A 
ATOM      3  C9  ZIN A   1      18.900   4.022  11.239  0.00  0.00     0.001 A 
ATOM      4  C10 ZIN A   1      18.162   3.700  10.115  0.00  0.00     0.002 A 
ATOM      5  C11 ZIN A   1      18.169   2.406   9.626  0.00  0.00     0.025 A 
ATOM      6  C12 ZIN A   1      18.922   1.430  10.259  0.00  0.00     0.028 A 
ENDROOT
BRANCH   1   7
ATOM      7  S6  ZIN A   1      20.614   0.516  12.214  0.00  0.00    -0.088 SA
BRANCH   7   8
ATOM      8  C5  ZIN A   1      19.619   0.104  13.608  0.00  0.00     0.011 A 
ATOM      9  C4  ZIN A   1      19.304   1.076  14.550  0.00  0.00     0.020 A 
ATOM     10  C3  ZIN A   1      18.524   0.750  15.642  0.00  0.00     0.008 A 
ATOM     11  C2  ZIN A   1      18.055  -0.541  15.799  0.00  0.00    -0.061 A 
ATOM     12  C1  ZIN A   1      17.205  -0.894  16.991  0.00  0.00     0.048 C 
ATOM     13  C23 ZIN A   1      18.372  -1.513  14.865  0.00  0.00     0.014 A 
ATOM     14  C21 ZIN A   1      19.147  -1.192  13.769  0.00  0.00    -0.044 A 
ATOM     15  C22 ZIN A   1      19.486  -2.251  12.750  0.00  0.00     0.049 C 
ENDBRANCH   7   8
ENDBRANCH   1   7
BRANCH   6  16
ATOM     16  N13 ZIN A   1      18.931   0.120   9.765  0.00  0.00    -0.279 NA
ATOM     17  C20 ZIN A   1      17.660  -0.561  10.055  0.00  0.00     0.123 C 
ATOM     18  C19 ZIN A   1      17.733  -2.005   9.554  0.00  0.00     0.247 C 
ATOM     19  N16 ZIN A   1      17.991  -2.008   8.107  0.00  0.00    -0.073 N 
ATOM     20  C15 ZIN A   1      19.275  -1.347   7.836  0.00  0.00     0.247 C 
ATOM     21  H17 ZIN A   1      17.251  -1.513   7.632  0.00  0.00     0.277 HD
ATOM     22  H18 ZIN A   1      18.027  -2.961   7.775  0.00  0.00     0.277 HD
ATOM     23  C14 ZIN A   1      19.215   0.103   8.324  0.00  0.00     0.123 C 
ENDBRANCH   6  16
TORSDOF 3
ENDMDL
MODEL 3
REMARK VINA RESULT:      -7.8      2.743      4.541
REMARK  3 active torsions:
REMARK  status: ('A' for Active; 'I' for Inactive)
REMARK    1  A    between atoms: C5_5  and  S6_6 
REMARK    2  A    between atoms: S6_6  and  C7_7 
REMARK    3  A    between atoms: C12_12  and  N13_13 
ROOT
ATOM      1  C7  ZIN A   1      19.631   0.510  10.480  0.00  0.00     0.027 A 
ATOM      2  C8  ZIN A   1      19.728  -0.181   9.281  0.00  0.00     0.021 A 
ATOM      3  C9  ZIN A   1      19.433   0.456   8.090  0.00  0.00     0.001 A 
ATOM      4  C10 ZIN A   1      19.040   1.781   8.089  0.00  0.00     0.002 A 
ATOM      5  C11 ZIN A   1      18.940   2.478   9.279  0.00  0.00     0.025 A 
ATOM      6  C12 ZIN A   1      19.228   1.846  10.479  0.00  0.00     0.028 A 
ENDROOT
BRANCH   1   7
ATOM      7  S6  ZIN A   1      20.007  -0.299  11.999  0.00  0.00    -0.088 SA
BRANCH   7   8
ATOM      8  C5  ZIN A   1      19.274  -1.888  11.795  0.00  0.00     0.011 A 
ATOM      9  C4  ZIN A   1      20.077  -3.003  11.589  0.00  0.00     0.020 A 
ATOM     10  C3  ZIN A   1      19.499  -4.247  11.428  0.00  0.00     0.008 A 
ATOM     11  C2  ZIN A   1      18.124  -4.385  11.473  0.00  0.00    -0.061 A 
ATOM     12  C1  ZIN A   1      17.498  -5.743  11.297  0.00  0.00     0.048 C 
ATOM     13  C23 ZIN A   1      17.321  -3.275  11.672  0.00  0.00     0.014 A 
ATOM     14  C21 ZIN A   1      17.893  -2.030  11.838  0.00  0.00    -0.044 A 
ATOM     15  C22 ZIN A   1      17.017  -0.822  12.061  0.00  0.00     0.049 C 
ENDBRANCH   7   8
ENDBRANCH   1   7
BRANCH   6  16
ATOM     16  N13 ZIN A   1      19.126   2.550  11.685  0.00  0.00    -0.279 NA
ATOM     17  C20 ZIN A   1      19.875   3.813  11.622  0.00  0.00     0.123 C 
ATOM     18  C19 ZIN A   1      19.789   4.521  12.976  0.00  0.00     0.247 C 
ATOM     19  N16 ZIN A   1      18.381   4.783  13.303  0.00  0.00    -0.073 N 
ATOM     20  C15 ZIN A   1      17.651   3.510  13.386  0.00  0.00     0.247 C 
ATOM     21  H17 ZIN A   1      17.970   5.359  12.584  0.00  0.00     0.277 HD
ATOM     22  H18 ZIN A   1      18.325   5.260  14.190  0.00  0.00     0.277 HD
ATOM     23  C14 ZIN A   1      17.720   2.794  12.035  0.00  0.00     0.123 C 
ENDBRANCH   6  16
TORSDOF 3
ENDMDL
MODEL 4
REMARK VINA RESULT:      -7.5      3.232      6.893
REMARK  3 active torsions:
REMARK  status: ('A' for Active; 'I' for Inactive)
REMARK    1  A    between atoms: C5_5  and  S6_6 
REMARK    2  A    between atoms: S6_6  and  C7_7 
REMARK    3  A    between atoms: C12_12  and  N13_13 
ROOT
ATOM      1  C7  ZIN A   1      19.201  -1.494  10.742  0.00  0.00     0.027 A 
ATOM      2  C8  ZIN A   1      19.142  -2.005  12.031  0.00  0.00     0.021 A 
ATOM      3  C9  ZIN A   1      18.293  -3.057  12.319  0.00  0.00     0.001 A 
ATOM      4  C10 ZIN A   1      17.500  -3.603  11.327  0.00  0.00     0.002 A 
ATOM      5  C11 ZIN A   1      17.552  -3.101  10.040  0.00  0.00     0.025 A 
ATOM      6  C12 ZIN A   1      18.396  -2.042   9.742  0.00  0.00     0.028 A 
ENDROOT
BRANCH   1   7
ATOM      7  S6  ZIN A   1      20.283  -0.154  10.371  0.00  0.00    -0.088 SA
BRANCH   7   8
ATOM      8  C5  ZIN A   1      19.268   1.260  10.639  0.00  0.00     0.011 A 
ATOM      9  C4  ZIN A   1      18.709   1.489  11.890  0.00  0.00     0.020 A 
ATOM     10  C3  ZIN A   1      17.913   2.599  12.096  0.00  0.00     0.008 A 
ATOM     11  C2  ZIN A   1      17.673   3.483  11.061  0.00  0.00    -0.061 A 
ATOM     12  C1  ZIN A   1      16.804   4.692  11.289  0.00  0.00     0.048 C 
ATOM     13  C23 ZIN A   1      18.224   3.255   9.812  0.00  0.00     0.014 A 
ATOM     14  C21 ZIN A   1      19.024   2.151   9.600  0.00  0.00    -0.044 A 
ATOM     15  C22 ZIN A   1      19.628   1.907   8.240  0.00  0.00     0.049 C 
ENDBRANCH   7   8
ENDBRANCH   1   7
BRANCH   6  16
ATOM     16  N13 ZIN A   1      18.449  -1.531   8.440  0.00  0.00    -0.279 NA
ATOM     17  C20 ZIN A   1      18.667  -2.607   7.461  0.00  0.00     0.123 C 
ATOM     18  C19 ZIN A   1      18.779  -2.001   6.060  0.00  0.00     0.247 C 
ATOM     19  N16 ZIN A   1      17.545  -1.270   5.742  0.00  0.00    -0.073 N 
ATOM     20  C15 ZIN A   1      17.354  -0.184   6.714  0.00  0.00     0.247 C 
ATOM     21  H17 ZIN A   1      16.759  -1.901   5.785  0.00  0.00     0.277 HD
ATOM     22  H18 ZIN A   1      17.615  -0.881   4.814  0.00  0.00     0.277 HD
ATOM     23  C14 ZIN A   1      17.231  -0.775   8.121  0.00  0.00     0.123 C 
ENDBRANCH   6  16
TORSDOF 3
ENDMDL
MODEL 5
REMARK VINA RESULT:      -7.5      2.954      5.716
REMARK  3 active torsions:
REMARK  status: ('A' for Active; 'I' for Inactive)
REMARK    1  A    between atoms: C5_5  and  S6_6 
REMARK    2  A    between atoms: S6_6  and  C7_7 
REMARK    3  A    between atoms: C12_12  and  N13_13 
ROOT
ATOM      1  C7  ZIN A   1      19.725   0.008  13.247  0.00  0.00     0.027 A 
ATOM      2  C8  ZIN A   1      19.659   0.647  14.476  0.00  0.00     0.021 A 
ATOM      3  C9  ZIN A   1      18.943   0.079  15.513  0.00  0.00     0.001 A 
ATOM      4  C10 ZIN A   1      18.290  -1.126  15.330  0.00  0.00     0.002 A 
ATOM      5  C11 ZIN A   1      18.350  -1.770  14.107  0.00  0.00     0.025 A 
ATOM      6  C12 ZIN A   1      19.061  -1.205  13.060  0.00  0.00     0.028 A 
ENDROOT
BRANCH   1   7
ATOM      7  S6  ZIN A   1      20.638   0.730  11.924  0.00  0.00    -0.088 SA
BRANCH   7   8
ATOM      8  C5  ZIN A   1      19.630   2.093  11.444  0.00  0.00     0.011 A 
ATOM      9  C4  ZIN A   1      19.387   3.127  12.339  0.00  0.00     0.020 A 
ATOM     10  C3  ZIN A   1      18.595   4.194  11.961  0.00  0.00     0.008 A 
ATOM     11  C2  ZIN A   1      18.047   4.235  10.692  0.00  0.00    -0.061 A 
ATOM     12  C1  ZIN A   1      17.185   5.400  10.282  0.00  0.00     0.048 C 
ATOM     13  C23 ZIN A   1      18.283   3.204   9.800  0.00  0.00     0.014 A 
ATOM     14  C21 ZIN A   1      19.077   2.137  10.170  0.00  0.00    -0.044 A 
ATOM     15  C22 ZIN A   1      19.338   1.017   9.195  0.00  0.00     0.049 C 
ENDBRANCH   7   8
ENDBRANCH   1   7
BRANCH   6  16
ATOM     16  N13 ZIN A   1      19.122  -1.855  11.822  0.00  0.00    -0.279 NA
ATOM     17  C20 ZIN A   1      19.558  -3.250  11.981  0.00  0.00     0.123 C 
ATOM     18  C19 ZIN A   1      19.669  -3.906  10.603  0.00  0.00     0.247 C 
ATOM     19  N16 ZIN A   1      18.365  -3.856   9.929  0.00  0.00    -0.073 N 
ATOM     20  C15 ZIN A   1      17.955  -2.456   9.756  0.00  0.00     0.247 C 
ATOM     21  H17 ZIN A   1      17.678  -4.340  10.488  0.00  0.00     0.277 HD
ATOM     22  H18 ZIN A   1      18.436  -4.299   9.025  0.00  0.00     0.277 HD
ATOM     23  C14 ZIN A   1      17.829  -1.788  11.127  0.00  0.00     0.123 C 
ENDBRANCH   6  16
TORSDOF 3
ENDMDL
MODEL 6
REMARK VINA RESULT:      -7.5      3.740      7.896
REMARK  3 active torsions:
REMARK  status: ('A' for Active; 'I' for Inactive)
REMARK    1  A    between atoms: C5_5  and  S6_6 
REMARK    2  A    between atoms: S6_6  and  C7_7 
REMARK    3  A    between atoms: C12_12  and  N13_13 
ROOT
ATOM      1  C7  ZIN A   1      18.475  -2.787  10.988  0.00  0.00     0.027 A 
ATOM      2  C8  ZIN A   1      18.061  -3.714  11.934  0.00  0.00     0.021 A 
ATOM      3  C9  ZIN A   1      17.266  -4.779  11.554  0.00  0.00     0.001 A 
ATOM      4  C10 ZIN A   1      16.881  -4.925  10.235  0.00  0.00     0.002 A 
ATOM      5  C11 ZIN A   1      17.288  -4.006   9.286  0.00  0.00     0.025 A 
ATOM      6  C12 ZIN A   1      18.080  -2.931   9.657  0.00  0.00     0.028 A 
ENDROOT
BRANCH   1   7
ATOM      7  S6  ZIN A   1      19.489  -1.428  11.468  0.00  0.00    -0.088 SA
BRANCH   7   8
ATOM      8  C5  ZIN A   1      18.872  -1.018  13.066  0.00  0.00     0.011 A 
ATOM      9  C4  ZIN A   1      19.484  -1.534  14.202  0.00  0.00     0.020 A 
ATOM     10  C3  ZIN A   1      18.997  -1.211  15.454  0.00  0.00     0.008 A 
ATOM     11  C2  ZIN A   1      17.904  -0.375  15.578  0.00  0.00    -0.061 A 
ATOM     12  C1  ZIN A   1      17.375  -0.025  16.945  0.00  0.00     0.048 C 
ATOM     13  C23 ZIN A   1      17.288   0.136  14.449  0.00  0.00     0.014 A 
ATOM     14  C21 ZIN A   1      17.772  -0.178  13.195  0.00  0.00    -0.044 A 
ATOM     15  C22 ZIN A   1      17.105   0.384  11.966  0.00  0.00     0.049 C 
ENDBRANCH   7   8
ENDBRANCH   1   7
BRANCH   6  16
ATOM     16  N13 ZIN A   1      18.493  -1.998   8.698  0.00  0.00    -0.279 NA
ATOM     17  C20 ZIN A   1      18.823  -2.661   7.428  0.00  0.00     0.123 C 
ATOM     18  C19 ZIN A   1      19.325  -1.617   6.428  0.00  0.00     0.247 C 
ATOM     19  N16 ZIN A   1      18.285  -0.602   6.215  0.00  0.00    -0.073 N 
ATOM     20  C15 ZIN A   1      17.985   0.068   7.488  0.00  0.00     0.247 C 
ATOM     21  H17 ZIN A   1      17.450  -1.045   5.863  0.00  0.00     0.277 HD
ATOM     22  H18 ZIN A   1      18.613   0.080   5.546  0.00  0.00     0.277 HD
ATOM     23  C14 ZIN A   1      17.471  -0.963   8.497  0.00  0.00     0.123 C 
ENDBRANCH   6  16
TORSDOF 3
ENDMDL
MODEL 7
REMARK VINA RESULT:      -7.3      4.049      7.556
REMARK  3 active torsions:
REMARK  status: ('A' for Active; 'I' for Inactive)
REMARK    1  A    between atoms: C5_5  and  S6_6 
REMARK    2  A    between atoms: S6_6  and  C7_7 
REMARK    3  A    between atoms: C12_12  and  N13_13 
ROOT
ATOM      1  C7  ZIN A   1      18.431  -0.323   8.655  0.00  0.00     0.027 A 
ATOM      2  C8  ZIN A   1      18.750   0.769   9.448  0.00  0.00     0.021 A 
ATOM      3  C9  ZIN A   1      19.144   1.958   8.861  0.00  0.00     0.001 A 
ATOM      4  C10 ZIN A   1      19.221   2.063   7.485  0.00  0.00     0.002 A 
ATOM      5  C11 ZIN A   1      18.905   0.979   6.687  0.00  0.00     0.025 A 
ATOM      6  C12 ZIN A   1      18.516  -0.219   7.266  0.00  0.00     0.028 A 
ENDROOT
BRANCH   1   7
ATOM      7  S6  ZIN A   1      17.929  -1.839   9.399  0.00  0.00    -0.088 SA
BRANCH   7   8
ATOM      8  C5  ZIN A   1      18.019  -1.483  11.122  0.00  0.00     0.011 A 
ATOM      9  C4  ZIN A   1      17.196  -0.510  11.676  0.00  0.00     0.020 A 
ATOM     10  C3  ZIN A   1      17.269  -0.233  13.027  0.00  0.00     0.008 A 
ATOM     11  C2  ZIN A   1      18.158  -0.923  13.829  0.00  0.00    -0.061 A 
ATOM     12  C1  ZIN A   1      18.236  -0.619  15.302  0.00  0.00     0.048 C 
ATOM     13  C23 ZIN A   1      18.984  -1.889  13.280  0.00  0.00     0.014 A 
ATOM     14  C21 ZIN A   1      18.912  -2.174  11.932  0.00  0.00    -0.044 A 
ATOM     15  C22 ZIN A   1      19.807  -3.231  11.336  0.00  0.00     0.049 C 
ENDBRANCH   7   8
ENDBRANCH   1   7
BRANCH   6  16
ATOM     16  N13 ZIN A   1      18.196  -1.317   6.459  0.00  0.00    -0.279 NA
ATOM     17  C20 ZIN A   1      17.677  -0.880   5.155  0.00  0.00     0.123 C 
ATOM     18  C19 ZIN A   1      17.285  -2.106   4.329  0.00  0.00     0.247 C 
ATOM     19  N16 ZIN A   1      18.460  -2.968   4.143  0.00  0.00    -0.073 N 
ATOM     20  C15 ZIN A   1      18.952  -3.417   5.452  0.00  0.00     0.247 C 
ATOM     21  H17 ZIN A   1      19.186  -2.450   3.670  0.00  0.00     0.277 HD
ATOM     22  H18 ZIN A   1      18.203  -3.772   3.587  0.00  0.00     0.277 HD
ATOM     23  C14 ZIN A   1      19.358  -2.201   6.288  0.00  0.00     0.123 C 
ENDBRANCH   6  16
TORSDOF 3
ENDMDL
MODEL 8
REMARK VINA RESULT:      -7.3      4.716      7.709
REMARK  3 active torsions:
REMARK  status: ('A' for Active; 'I' for Inactive)
REMARK    1  A    between atoms: C5_5  and  S6_6 
REMARK    2  A    between atoms: S6_6  and  C7_7 
REMARK    3  A    between atoms: C12_12  and  N13_13 
ROOT
ATOM      1  C7  ZIN A   1      18.597  -2.487   9.705  0.00  0.00     0.027 A 
ATOM      2  C8  ZIN A   1      19.510  -1.954  10.605  0.00  0.00     0.021 A 
ATOM      3  C9  ZIN A   1      20.174  -2.784  11.489  0.00  0.00     0.001 A 
ATOM      4  C10 ZIN A   1      19.932  -4.145  11.480  0.00  0.00     0.002 A 
ATOM      5  C11 ZIN A   1      19.024  -4.685  10.588  0.00  0.00     0.025 A 
ATOM      6  C12 ZIN A   1      18.349  -3.860   9.702  0.00  0.00     0.028 A 
ENDROOT
BRANCH   1   7
ATOM      7  S6  ZIN A   1      17.750  -1.431   8.577  0.00  0.00    -0.088 SA
BRANCH   7   8
ATOM      8  C5  ZIN A   1      17.927   0.159   9.313  0.00  0.00     0.011 A 
ATOM      9  C4  ZIN A   1      17.360   0.419  10.554  0.00  0.00     0.020 A 
ATOM     10  C3  ZIN A   1      17.500   1.668  11.128  0.00  0.00     0.008 A 
ATOM     11  C2  ZIN A   1      18.204   2.658  10.470  0.00  0.00    -0.061 A 
ATOM     12  C1  ZIN A   1      18.355   4.019  11.099  0.00  0.00     0.048 C 
ATOM     13  C23 ZIN A   1      18.767   2.405   9.231  0.00  0.00     0.014 A 
ATOM     14  C21 ZIN A   1      18.634   1.158   8.654  0.00  0.00    -0.044 A 
ATOM     15  C22 ZIN A   1      19.252   0.881   7.307  0.00  0.00     0.049 C 
ENDBRANCH   7   8
ENDBRANCH   1   7
BRANCH   6  16
ATOM     16  N13 ZIN A   1      17.429  -4.404   8.798  0.00  0.00    -0.279 NA
ATOM     17  C20 ZIN A   1      18.114  -5.172   7.748  0.00  0.00     0.123 C 
ATOM     18  C19 ZIN A   1      17.080  -5.698   6.749  0.00  0.00     0.247 C 
ATOM     19  N16 ZIN A   1      16.112  -6.551   7.450  0.00  0.00    -0.073 N 
ATOM     20  C15 ZIN A   1      15.418  -5.764   8.479  0.00  0.00     0.247 C 
ATOM     21  H17 ZIN A   1      16.596  -7.322   7.886  0.00  0.00     0.277 HD
ATOM     22  H18 ZIN A   1      15.437  -6.908   6.790  0.00  0.00     0.277 HD
ATOM     23  C14 ZIN A   1      16.439  -5.238   9.493  0.00  0.00     0.123 C 
ENDBRANCH   6  16
TORSDOF 3
ENDMDL
MODEL 9
REMARK VINA RESULT:      -7.2      1.939      2.564
REMARK  3 active torsions:
REMARK  status: ('A' for Active; 'I' for Inactive)
REMARK    1  A    between atoms: C5_5  and  S6_6 
REMARK    2  A    between atoms: S6_6  and  C7_7 
REMARK    3  A    between atoms: C12_12  and  N13_13 
ROOT
ATOM      1  C7  ZIN A   1      17.817   1.393  11.100  0.00  0.00     0.027 A 
ATOM      2  C8  ZIN A   1      17.878   2.435  10.185  0.00  0.00     0.021 A 
ATOM      3  C9  ZIN A   1      18.502   3.620  10.529  0.00  0.00     0.001 A 
ATOM      4  C10 ZIN A   1      19.065   3.772  11.782  0.00  0.00     0.002 A 
ATOM      5  C11 ZIN A   1      19.008   2.739  12.700  0.00  0.00     0.025 A 
ATOM      6  C12 ZIN A   1      18.380   1.550  12.367  0.00  0.00     0.028 A 
ENDROOT
BRANCH   1   7
ATOM      7  S6  ZIN A   1      17.023  -0.118  10.665  0.00  0.00    -0.088 SA
BRANCH   7   8
ATOM      8  C5  ZIN A   1      17.695  -0.476   9.076  0.00  0.00     0.011 A 
ATOM      9  C4  ZIN A   1      17.047  -0.033   7.930  0.00  0.00     0.020 A 
ATOM     10  C3  ZIN A   1      17.577  -0.316   6.686  0.00  0.00     0.008 A 
ATOM     11  C2  ZIN A   1      18.751  -1.038   6.580  0.00  0.00    -0.061 A 
ATOM     12  C1  ZIN A   1      19.326  -1.345   5.222  0.00  0.00     0.048 C 
ATOM     13  C23 ZIN A   1      19.396  -1.486   7.720  0.00  0.00     0.014 A 
ATOM     14  C21 ZIN A   1      18.875  -1.202   8.966  0.00  0.00    -0.044 A 
ATOM     15  C22 ZIN A   1      19.582  -1.685  10.207  0.00  0.00     0.049 C 
ENDBRANCH   7   8
ENDBRANCH   1   7
BRANCH   6  16
ATOM     16  N13 ZIN A   1      18.320   0.503  13.295  0.00  0.00    -0.279 NA
ATOM     17  C20 ZIN A   1      19.652  -0.078  13.519  0.00  0.00     0.123 C 
ATOM     18  C19 ZIN A   1      19.535  -1.254  14.491  0.00  0.00     0.247 C 
ATOM     19  N16 ZIN A   1      18.967  -0.784  15.762  0.00  0.00    -0.073 N 
ATOM     20  C15 ZIN A   1      17.627  -0.229  15.525  0.00  0.00     0.247 C 
ATOM     21  H17 ZIN A   1      19.562  -0.070  16.153  0.00  0.00     0.277 HD
ATOM     22  H18 ZIN A   1      18.900  -1.558  16.407  0.00  0.00     0.277 HD
ATOM     23  C14 ZIN A   1      17.729   0.956  14.561  0.00  0.00     0.123 C 
ENDBRANCH   6  16
TORSDOF 3
ENDMDL
