MODEL 1
REMARK VINA RESULT:      -6.5      0.000      0.000
REMARK  4 active torsions:
REMARK  status: ('A' for Active; 'I' for Inactive)
REMARK    1  A    between atoms: N1_1  and  C2_2 
REMARK    2  A    between atoms: C5_5  and  S6_6 
REMARK    3  A    between atoms: S6_6  and  N9_9 
REMARK    4  A    between atoms: N9_9  and  C10_10 
ROOT
ATOM      1  S6  ZIN A   1      17.868   2.056  11.194  0.00  0.00     0.298 S 
ATOM      2  O7  ZIN A   1      19.140   2.081  11.824  0.00  0.00    -0.198 OA
ATOM      3  O8  ZIN A   1      17.054   3.210  11.038  0.00  0.00    -0.198 OA
ENDROOT
BRANCH   1   4
ATOM      4  C5  ZIN A   1      18.127   1.408   9.576  0.00  0.00     0.082 A 
ATOM      5  C4  ZIN A   1      18.987   2.051   8.704  0.00  0.00     0.027 A 
ATOM      6  C3  ZIN A   1      19.192   1.545   7.435  0.00  0.00     0.030 A 
ATOM      7  C2  ZIN A   1      18.533   0.390   7.035  0.00  0.00     0.025 A 
ATOM      8  C17 ZIN A   1      17.666  -0.251   7.911  0.00  0.00     0.030 A 
ATOM      9  C16 ZIN A   1      17.470   0.257   9.181  0.00  0.00     0.027 A 
BRANCH   7  10
ATOM     10  N1  ZIN A   1      18.738  -0.124   5.752  0.00  0.00    -0.399 N 
ATOM     11  H18 ZIN A   1      18.022  -0.595   5.298  0.00  0.00     0.156 HD
ATOM     12  H19 ZIN A   1      19.595  -0.004   5.313  0.00  0.00     0.156 HD
ENDBRANCH   7  10
ENDBRANCH   1   4
BRANCH   1  13
ATOM     13  N9  ZIN A   1      16.957   0.950  12.025  0.00  0.00     0.034 NA
BRANCH  13  14
ATOM     14  C10 ZIN A   1      17.531   0.200  13.035  0.00  0.00     0.759 A 
ATOM     15  N15 ZIN A   1      17.452   0.630  14.286  0.00  0.00    -0.073 NA
ATOM     16  C14 ZIN A   1      17.987  -0.066  15.276  0.00  0.00     0.138 A 
ATOM     17  C13 ZIN A   1      18.644  -1.253  14.990  0.00  0.00     0.040 A 
ATOM     18  C12 ZIN A   1      18.712  -1.671  13.671  0.00  0.00     0.138 A 
ATOM     19  N11 ZIN A   1      18.152  -0.931  12.729  0.00  0.00    -0.073 NA
ENDBRANCH  13  14
ENDBRANCH   1  13
TORSDOF 4
ENDMDL
MODEL 2
REMARK VINA RESULT:      -6.5      0.054      1.630
REMARK  4 active torsions:
REMARK  status: ('A' for Active; 'I' for Inactive)
REMARK    1  A    between atoms: N1_1  and  C2_2 
REMARK    2  A    between atoms: C5_5  and  S6_6 
REMARK    3  A    between atoms: S6_6  and  N9_9 
REMARK    4  A    between atoms: N9_9  and  C10_10 
ROOT
ATOM      1  S6  ZIN A   1      17.844   2.079  11.240  0.00  0.00     0.298 S 
ATOM      2  O7  ZIN A   1      19.117   2.122  11.868  0.00  0.00    -0.198 OA
ATOM      3  O8  ZIN A   1      17.015   3.223  11.081  0.00  0.00    -0.198 OA
ENDROOT
BRANCH   1   4
ATOM      4  C5  ZIN A   1      18.108   1.428   9.624  0.00  0.00     0.082 A 
ATOM      5  C4  ZIN A   1      17.436   0.289   9.220  0.00  0.00     0.027 A 
ATOM      6  C3  ZIN A   1      17.641  -0.223   7.953  0.00  0.00     0.030 A 
ATOM      7  C2  ZIN A   1      18.523   0.407   7.086  0.00  0.00     0.025 A 
ATOM      8  C17 ZIN A   1      19.200   1.548   7.496  0.00  0.00     0.030 A 
ATOM      9  C16 ZIN A   1      18.986   2.059   8.762  0.00  0.00     0.027 A 
BRANCH   7  10
ATOM     10  N1  ZIN A   1      18.732  -0.109   5.804  0.00  0.00    -0.399 N 
ATOM     11  H18 ZIN A   1      18.063  -0.682   5.397  0.00  0.00     0.156 HD
ATOM     12  H19 ZIN A   1      19.543   0.110   5.320  0.00  0.00     0.156 HD
ENDBRANCH   7  10
ENDBRANCH   1   4
BRANCH   1  13
ATOM     13  N9  ZIN A   1      16.947   0.965  12.076  0.00  0.00     0.034 NA
BRANCH  13  14
ATOM     14  C10 ZIN A   1      17.537   0.213  13.076  0.00  0.00     0.759 A 
ATOM     15  N15 ZIN A   1      18.174  -0.904  12.756  0.00  0.00    -0.073 NA
ATOM     16  C14 ZIN A   1      18.753  -1.644  13.687  0.00  0.00     0.138 A 
ATOM     17  C13 ZIN A   1      18.677  -1.244  15.013  0.00  0.00     0.040 A 
ATOM     18  C12 ZIN A   1      17.998  -0.073  15.313  0.00  0.00     0.138 A 
ATOM     19  N11 ZIN A   1      17.446   0.623  14.334  0.00  0.00    -0.073 NA
ENDBRANCH  13  14
ENDBRANCH   1  13
TORSDOF 4
ENDMDL
MODEL 3
REMARK VINA RESULT:      -6.4      1.899      2.495
REMARK  4 active torsions:
REMARK  status: ('A' for Active; 'I' for Inactive)
REMARK    1  A    between atoms: N1_1  and  C2_2 
REMARK    2  A    between atoms: C5_5  and  S6_6 
REMARK    3  A    between atoms: S6_6  and  N9_9 
REMARK    4  A    between atoms: N9_9  and  C10_10 
ROOT
ATOM      1  S6  ZIN A   1      17.175   0.761  11.423  0.00  0.00     0.298 S 
ATOM      2  O7  ZIN A   1      17.347   2.080  11.921  0.00  0.00    -0.198 OA
ATOM      3  O8  ZIN A   1      15.917   0.100  11.389  0.00  0.00    -0.198 OA
ENDROOT
BRANCH   1   4
ATOM      4  C5  ZIN A   1      17.776   0.773   9.766  0.00  0.00     0.082 A 
ATOM      5  C4  ZIN A   1      18.766   1.665   9.397  0.00  0.00     0.027 A 
ATOM      6  C3  ZIN A   1      19.239   1.676   8.099  0.00  0.00     0.030 A 
ATOM      7  C2  ZIN A   1      18.719   0.791   7.164  0.00  0.00     0.025 A 
ATOM      8  C17 ZIN A   1      17.721  -0.101   7.537  0.00  0.00     0.030 A 
ATOM      9  C16 ZIN A   1      17.256  -0.111   8.838  0.00  0.00     0.027 A 
BRANCH   7  10
ATOM     10  N1  ZIN A   1      19.195   0.800   5.851  0.00  0.00    -0.399 N 
ATOM     11  H18 ZIN A   1      18.577   0.918   5.112  0.00  0.00     0.156 HD
ATOM     12  H19 ZIN A   1      20.143   0.694   5.678  0.00  0.00     0.156 HD
ENDBRANCH   7  10
ENDBRANCH   1   4
BRANCH   1  13
ATOM     13  N9  ZIN A   1      18.189  -0.208  12.304  0.00  0.00     0.034 NA
BRANCH  13  14
ATOM     14  C10 ZIN A   1      18.386  -1.525  11.929  0.00  0.00     0.759 A 
ATOM     15  N15 ZIN A   1      17.336  -2.317  11.769  0.00  0.00    -0.073 NA
ATOM     16  C14 ZIN A   1      17.490  -3.580  11.407  0.00  0.00     0.138 A 
ATOM     17  C13 ZIN A   1      18.770  -4.074  11.205  0.00  0.00     0.040 A 
ATOM     18  C12 ZIN A   1      19.846  -3.220  11.386  0.00  0.00     0.138 A 
ATOM     19  N11 ZIN A   1      19.623  -1.967  11.744  0.00  0.00    -0.073 NA
ENDBRANCH  13  14
ENDBRANCH   1  13
TORSDOF 4
ENDMDL
MODEL 4
REMARK VINA RESULT:      -6.4      2.691      3.472
REMARK  4 active torsions:
REMARK  status: ('A' for Active; 'I' for Inactive)
REMARK    1  A    between atoms: N1_1  and  C2_2 
REMARK    2  A    between atoms: C5_5  and  S6_6 
REMARK    3  A    between atoms: S6_6  and  N9_9 
REMARK    4  A    between atoms: N9_9  and  C10_10 
ROOT
ATOM      1  S6  ZIN A   1      17.479   0.953  11.136  0.00  0.00     0.298 S 
ATOM      2  O7  ZIN A   1      16.269   0.229  11.310  0.00  0.00    -0.198 OA
ATOM      3  O8  ZIN A   1      18.662   0.680  11.875  0.00  0.00    -0.198 OA
ENDROOT
BRANCH   1   4
ATOM      4  C5  ZIN A   1      17.909   0.801   9.434  0.00  0.00     0.082 A 
ATOM      5  C4  ZIN A   1      17.305  -0.168   8.653  0.00  0.00     0.027 A 
ATOM      6  C3  ZIN A   1      17.641  -0.289   7.318  0.00  0.00     0.030 A 
ATOM      7  C2  ZIN A   1      18.585   0.563   6.761  0.00  0.00     0.025 A 
ATOM      8  C17 ZIN A   1      19.193   1.532   7.550  0.00  0.00     0.030 A 
ATOM      9  C16 ZIN A   1      18.849   1.652   8.882  0.00  0.00     0.027 A 
BRANCH   7  10
ATOM     10  N1  ZIN A   1      18.926   0.442   5.412  0.00  0.00    -0.399 N 
ATOM     11  H18 ZIN A   1      19.821   0.161   5.161  0.00  0.00     0.156 HD
ATOM     12  H19 ZIN A   1      18.268   0.635   4.726  0.00  0.00     0.156 HD
ENDBRANCH   7  10
ENDBRANCH   1   4
BRANCH   1  13
ATOM     13  N9  ZIN A   1      17.114   2.546  11.409  0.00  0.00     0.034 NA
BRANCH  13  14
ATOM     14  C10 ZIN A   1      17.914   3.305  12.242  0.00  0.00     0.759 A 
ATOM     15  N15 ZIN A   1      18.942   3.965  11.728  0.00  0.00    -0.073 NA
ATOM     16  C14 ZIN A   1      19.725   4.705  12.497  0.00  0.00     0.138 A 
ATOM     17  C13 ZIN A   1      19.464   4.776  13.857  0.00  0.00     0.040 A 
ATOM     18  C12 ZIN A   1      18.384   4.069  14.362  0.00  0.00     0.138 A 
ATOM     19  N11 ZIN A   1      17.639   3.352  13.539  0.00  0.00    -0.073 NA
ENDBRANCH  13  14
ENDBRANCH   1  13
TORSDOF 4
ENDMDL
MODEL 5
REMARK VINA RESULT:      -6.2      2.913      6.018
REMARK  4 active torsions:
REMARK  status: ('A' for Active; 'I' for Inactive)
REMARK    1  A    between atoms: N1_1  and  C2_2 
REMARK    2  A    between atoms: C5_5  and  S6_6 
REMARK    3  A    between atoms: S6_6  and  N9_9 
REMARK    4  A    between atoms: N9_9  and  C10_10 
ROOT
ATOM      1  S6  ZIN A   1      17.288  -0.599  11.758  0.00  0.00     0.298 S 
ATOM      2  O7  ZIN A   1      17.496  -1.943  11.348  0.00  0.00    -0.198 OA
ATOM      3  O8  ZIN A   1      16.018   0.039  11.715  0.00  0.00    -0.198 OA
ENDROOT
BRANCH   1   4
ATOM      4  C5  ZIN A   1      17.840  -0.496  13.428  0.00  0.00     0.082 A 
ATOM      5  C4  ZIN A   1      18.726  -1.437  13.921  0.00  0.00     0.027 A 
ATOM      6  C3  ZIN A   1      19.160  -1.359  15.230  0.00  0.00     0.030 A 
ATOM      7  C2  ZIN A   1      18.708  -0.335  16.051  0.00  0.00     0.025 A 
ATOM      8  C17 ZIN A   1      17.814   0.606  15.553  0.00  0.00     0.030 A 
ATOM      9  C16 ZIN A   1      17.388   0.526  14.242  0.00  0.00     0.027 A 
BRANCH   7  10
ATOM     10  N1  ZIN A   1      19.145  -0.253  17.375  0.00  0.00    -0.399 N 
ATOM     11  H18 ZIN A   1      19.816  -0.873  17.703  0.00  0.00     0.156 HD
ATOM     12  H19 ZIN A   1      18.783   0.426  17.964  0.00  0.00     0.156 HD
ENDBRANCH   7  10
ENDBRANCH   1   4
BRANCH   1  13
ATOM     13  N9  ZIN A   1      18.310   0.332  10.845  0.00  0.00     0.034 NA
BRANCH  13  14
ATOM     14  C10 ZIN A   1      18.405   1.691  11.083  0.00  0.00     0.759 A 
ATOM     15  N15 ZIN A   1      19.477   2.166  11.701  0.00  0.00    -0.073 NA
ATOM     16  C14 ZIN A   1      19.602   3.462  11.939  0.00  0.00     0.138 A 
ATOM     17  C13 ZIN A   1      18.589   4.322  11.544  0.00  0.00     0.040 A 
ATOM     18  C12 ZIN A   1      17.480   3.791  10.906  0.00  0.00     0.138 A 
ATOM     19  N11 ZIN A   1      17.420   2.487  10.693  0.00  0.00    -0.073 NA
ENDBRANCH  13  14
ENDBRANCH   1  13
TORSDOF 4
ENDMDL
MODEL 6
REMARK VINA RESULT:      -6.2      2.223      6.428
REMARK  4 active torsions:
REMARK  status: ('A' for Active; 'I' for Inactive)
REMARK    1  A    between atoms: N1_1  and  C2_2 
REMARK    2  A    between atoms: C5_5  and  S6_6 
REMARK    3  A    between atoms: S6_6  and  N9_9 
REMARK    4  A    between atoms: N9_9  and  C10_10 
ROOT
ATOM      1  S6  ZIN A   1      17.451  -0.498  11.983  0.00  0.00     0.298 S 
ATOM      2  O7  ZIN A   1      16.923  -1.801  11.783  0.00  0.00    -0.198 OA
ATOM      3  O8  ZIN A   1      16.715   0.689  11.717  0.00  0.00    -0.198 OA
ENDROOT
BRANCH   1   4
ATOM      4  C5  ZIN A   1      17.937  -0.412  13.675  0.00  0.00     0.082 A 
ATOM      5  C4  ZIN A   1      17.556   0.669  14.449  0.00  0.00     0.027 A 
ATOM      6  C3  ZIN A   1      17.935   0.739  15.775  0.00  0.00     0.030 A 
ATOM      7  C2  ZIN A   1      18.700  -0.278  16.331  0.00  0.00     0.025 A 
ATOM      8  C17 ZIN A   1      19.085  -1.361  15.550  0.00  0.00     0.030 A 
ATOM      9  C16 ZIN A   1      18.697  -1.427  14.226  0.00  0.00     0.027 A 
BRANCH   7  10
ATOM     10  N1  ZIN A   1      19.085  -0.211  17.673  0.00  0.00    -0.399 N 
ATOM     11  H18 ZIN A   1      18.816  -0.910  18.290  0.00  0.00     0.156 HD
ATOM     12  H19 ZIN A   1      19.625   0.531  17.985  0.00  0.00     0.156 HD
ENDBRANCH   7  10
ENDBRANCH   1   4
BRANCH   1  13
ATOM     13  N9  ZIN A   1      18.831  -0.407  11.072  0.00  0.00     0.034 NA
BRANCH  13  14
ATOM     14  C10 ZIN A   1      18.773   0.072   9.775  0.00  0.00     0.759 A 
ATOM     15  N15 ZIN A   1      19.344   1.233   9.488  0.00  0.00    -0.073 NA
ATOM     16  C14 ZIN A   1      19.311   1.717   8.257  0.00  0.00     0.138 A 
ATOM     17  C13 ZIN A   1      18.661   1.000   7.265  0.00  0.00     0.040 A 
ATOM     18  C12 ZIN A   1      18.070  -0.209   7.602  0.00  0.00     0.138 A 
ATOM     19  N11 ZIN A   1      18.143  -0.638   8.850  0.00  0.00    -0.073 NA
ENDBRANCH  13  14
ENDBRANCH   1  13
TORSDOF 4
ENDMDL
MODEL 7
REMARK VINA RESULT:      -6.0      2.275      2.813
REMARK  4 active torsions:
REMARK  status: ('A' for Active; 'I' for Inactive)
REMARK    1  A    between atoms: N1_1  and  C2_2 
REMARK    2  A    between atoms: C5_5  and  S6_6 
REMARK    3  A    between atoms: S6_6  and  N9_9 
REMARK    4  A    between atoms: N9_9  and  C10_10 
ROOT
ATOM      1  S6  ZIN A   1      19.035   0.721   9.297  0.00  0.00     0.298 S 
ATOM      2  O7  ZIN A   1      19.462   2.053   9.053  0.00  0.00    -0.198 OA
ATOM      3  O8  ZIN A   1      17.793   0.403   9.912  0.00  0.00    -0.198 OA
ENDROOT
BRANCH   1   4
ATOM      4  C5  ZIN A   1      19.040  -0.098   7.737  0.00  0.00     0.082 A 
ATOM      5  C4  ZIN A   1      18.872   0.631   6.574  0.00  0.00     0.027 A 
ATOM      6  C3  ZIN A   1      18.876  -0.007   5.349  0.00  0.00     0.030 A 
ATOM      7  C2  ZIN A   1      19.049  -1.384   5.286  0.00  0.00     0.025 A 
ATOM      8  C17 ZIN A   1      19.213  -2.115   6.457  0.00  0.00     0.030 A 
ATOM      9  C16 ZIN A   1      19.214  -1.469   7.678  0.00  0.00     0.027 A 
BRANCH   7  10
ATOM     10  N1  ZIN A   1      19.054  -2.033   4.049  0.00  0.00    -0.399 N 
ATOM     11  H18 ZIN A   1      19.895  -2.214   3.600  0.00  0.00     0.156 HD
ATOM     12  H19 ZIN A   1      18.218  -2.307   3.643  0.00  0.00     0.156 HD
ENDBRANCH   7  10
ENDBRANCH   1   4
BRANCH   1  13
ATOM     13  N9  ZIN A   1      20.211   0.014  10.225  0.00  0.00     0.034 NA
BRANCH  13  14
ATOM     14  C10 ZIN A   1      19.938  -0.345  11.533  0.00  0.00     0.759 A 
ATOM     15  N15 ZIN A   1      19.501  -1.569  11.790  0.00  0.00    -0.073 NA
ATOM     16  C14 ZIN A   1      19.235  -1.946  13.030  0.00  0.00     0.138 A 
ATOM     17  C13 ZIN A   1      19.408  -1.039  14.064  0.00  0.00     0.040 A 
ATOM     18  C12 ZIN A   1      19.861   0.235  13.759  0.00  0.00     0.138 A 
ATOM     19  N11 ZIN A   1      20.114   0.546  12.499  0.00  0.00    -0.073 NA
ENDBRANCH  13  14
ENDBRANCH   1  13
TORSDOF 4
ENDMDL
MODEL 8
REMARK VINA RESULT:      -5.9      4.512      6.792
REMARK  4 active torsions:
REMARK  status: ('A' for Active; 'I' for Inactive)
REMARK    1  A    between atoms: N1_1  and  C2_2 
REMARK    2  A    between atoms: C5_5  and  S6_6 
REMARK    3  A    between atoms: S6_6  and  N9_9 
REMARK    4  A    between atoms: N9_9  and  C10_10 
ROOT
ATOM      1  S6  ZIN A   1      19.082  -1.397   5.624  0.00  0.00     0.298 S 
ATOM      2  O7  ZIN A   1      17.689  -1.523   5.376  0.00  0.00    -0.198 OA
ATOM      3  O8  ZIN A   1      19.999  -0.880   4.669  0.00  0.00    -0.198 OA
ENDROOT
BRANCH   1   4
ATOM      4  C5  ZIN A   1      19.242  -0.390   7.062  0.00  0.00     0.082 A 
ATOM      5  C4  ZIN A   1      19.076   0.980   6.968  0.00  0.00     0.027 A 
ATOM      6  C3  ZIN A   1      19.200   1.771   8.093  0.00  0.00     0.030 A 
ATOM      7  C2  ZIN A   1      19.493   1.191   9.319  0.00  0.00     0.025 A 
ATOM      8  C17 ZIN A   1      19.665  -0.185   9.410  0.00  0.00     0.030 A 
ATOM      9  C16 ZIN A   1      19.533  -0.972   8.282  0.00  0.00     0.027 A 
BRANCH   7  10
ATOM     10  N1  ZIN A   1      19.620   1.989  10.459  0.00  0.00    -0.399 N 
ATOM     11  H18 ZIN A   1      19.005   2.724  10.607  0.00  0.00     0.156 HD
ATOM     12  H19 ZIN A   1      20.319   1.804  11.105  0.00  0.00     0.156 HD
ENDBRANCH   7  10
ENDBRANCH   1   4
BRANCH   1  13
ATOM     13  N9  ZIN A   1      19.625  -2.910   6.023  0.00  0.00     0.034 NA
BRANCH  13  14
ATOM     14  C10 ZIN A   1      18.724  -3.946   6.189  0.00  0.00     0.759 A 
ATOM     15  N15 ZIN A   1      18.347  -4.652   5.132  0.00  0.00    -0.073 NA
ATOM     16  C14 ZIN A   1      17.491  -5.653   5.258  0.00  0.00     0.138 A 
ATOM     17  C13 ZIN A   1      16.980  -5.952   6.511  0.00  0.00     0.040 A 
ATOM     18  C12 ZIN A   1      17.392  -5.191   7.593  0.00  0.00     0.138 A 
ATOM     19  N11 ZIN A   1      18.254  -4.207   7.401  0.00  0.00    -0.073 NA
ENDBRANCH  13  14
ENDBRANCH   1  13
TORSDOF 4
ENDMDL
MODEL 9
REMARK VINA RESULT:      -5.9      1.681      2.212
REMARK  4 active torsions:
REMARK  status: ('A' for Active; 'I' for Inactive)
REMARK    1  A    between atoms: N1_1  and  C2_2 
REMARK    2  A    between atoms: C5_5  and  S6_6 
REMARK    3  A    between atoms: S6_6  and  N9_9 
REMARK    4  A    between atoms: N9_9  and  C10_10 
ROOT
ATOM      1  S6  ZIN A   1      17.330  -0.343  11.487  0.00  0.00     0.298 S 
ATOM      2  O7  ZIN A   1      16.336   0.621  11.804  0.00  0.00    -0.198 OA
ATOM      3  O8  ZIN A   1      17.086  -1.743  11.500  0.00  0.00    -0.198 OA
ENDROOT
BRANCH   1   4
ATOM      4  C5  ZIN A   1      17.902   0.047   9.866  0.00  0.00     0.082 A 
ATOM      5  C4  ZIN A   1      18.715   1.148   9.668  0.00  0.00     0.027 A 
ATOM      6  C3  ZIN A   1      19.165   1.457   8.399  0.00  0.00     0.030 A 
ATOM      7  C2  ZIN A   1      18.801   0.659   7.322  0.00  0.00     0.025 A 
ATOM      8  C17 ZIN A   1      17.980  -0.444   7.524  0.00  0.00     0.030 A 
ATOM      9  C16 ZIN A   1      17.538  -0.750   8.796  0.00  0.00     0.027 A 
BRANCH   7  10
ATOM     10  N1  ZIN A   1      19.255   0.969   6.037  0.00  0.00    -0.399 N 
ATOM     11  H18 ZIN A   1      18.619   1.090   5.315  0.00  0.00     0.156 HD
ATOM     12  H19 ZIN A   1      20.205   1.067   5.869  0.00  0.00     0.156 HD
ENDBRANCH   7  10
ENDBRANCH   1   4
BRANCH   1  13
ATOM     13  N9  ZIN A   1      18.590  -0.078  12.528  0.00  0.00     0.034 NA
BRANCH  13  14
ATOM     14  C10 ZIN A   1      18.430  -0.316  13.882  0.00  0.00     0.759 A 
ATOM     15  N15 ZIN A   1      19.095  -1.314  14.446  0.00  0.00    -0.073 NA
ATOM     16  C14 ZIN A   1      18.969  -1.565  15.739  0.00  0.00     0.138 A 
ATOM     17  C13 ZIN A   1      18.120  -0.778  16.501  0.00  0.00     0.040 A 
ATOM     18  C12 ZIN A   1      17.436   0.254  15.878  0.00  0.00     0.138 A 
ATOM     19  N11 ZIN A   1      17.611   0.455  14.583  0.00  0.00    -0.073 NA
ENDBRANCH  13  14
ENDBRANCH   1  13
TORSDOF 4
ENDMDL
