MODEL 1
REMARK VINA RESULT:      -6.0      0.000      0.000
REMARK  1 active torsions:
REMARK  status: ('A' for Active; 'I' for Inactive)
REMARK    1  A    between atoms: N6_6  and  C7_7 
ROOT
ATOM      1  C1  ZIN A   1      16.371   5.516  12.814  0.00  0.00     0.072 C 
ATOM      2  C2  ZIN A   1      17.316   4.558  12.135  0.00  0.00     0.057 A 
ATOM      3  C3  ZIN A   1      18.613   4.373  12.453  0.00  0.00     0.104 A 
ATOM      4  C4  ZIN A   1      19.143   3.392  11.582  0.00  0.00     0.270 A 
ATOM      5  O5  ZIN A   1      20.287   2.974  11.581  0.00  0.00    -0.266 OA
ATOM      6  N6  ZIN A   1      18.152   3.004  10.754  0.00  0.00    -0.198 N 
ATOM      7  N13 ZIN A   1      17.002   3.727  11.098  0.00  0.00    -0.169 NA
ENDROOT
BRANCH   6   8
ATOM      8  C7  ZIN A   1      18.252   2.049   9.738  0.00  0.00     0.062 A 
ATOM      9  C12 ZIN A   1      18.984   2.326   8.590  0.00  0.00     0.032 A 
ATOM     10  C11 ZIN A   1      19.085   1.377   7.591  0.00  0.00     0.002 A 
ATOM     11  C10 ZIN A   1      18.450   0.157   7.727  0.00  0.00     0.000 A 
ATOM     12  C9  ZIN A   1      17.715  -0.120   8.866  0.00  0.00     0.002 A 
ATOM     13  C8  ZIN A   1      17.615   0.821   9.871  0.00  0.00     0.032 A 
ENDBRANCH   6   8
TORSDOF 1
ENDMDL
MODEL 2
REMARK VINA RESULT:      -5.9      2.272      2.962
REMARK  1 active torsions:
REMARK  status: ('A' for Active; 'I' for Inactive)
REMARK    1  A    between atoms: N6_6  and  C7_7 
ROOT
ATOM      1  C1  ZIN A   1      19.993   0.221  13.734  0.00  0.00     0.072 C 
ATOM      2  C2  ZIN A   1      19.269   0.754  12.525  0.00  0.00     0.057 A 
ATOM      3  C3  ZIN A   1      18.397   1.783  12.518  0.00  0.00     0.104 A 
ATOM      4  C4  ZIN A   1      17.945   1.966  11.190  0.00  0.00     0.270 A 
ATOM      5  O5  ZIN A   1      17.149   2.807  10.812  0.00  0.00    -0.266 OA
ATOM      6  N6  ZIN A   1      18.553   1.042  10.420  0.00  0.00    -0.198 N 
ATOM      7  N13 ZIN A   1      19.389   0.281  11.248  0.00  0.00    -0.169 NA
ENDROOT
BRANCH   6   8
ATOM      8  C7  ZIN A   1      18.384   0.874   9.043  0.00  0.00     0.062 A 
ATOM      9  C12 ZIN A   1      19.184   1.578   8.152  0.00  0.00     0.032 A 
ATOM     10  C11 ZIN A   1      19.018   1.406   6.792  0.00  0.00     0.002 A 
ATOM     11  C10 ZIN A   1      18.050   0.541   6.315  0.00  0.00     0.000 A 
ATOM     12  C9  ZIN A   1      17.248  -0.158   7.200  0.00  0.00     0.002 A 
ATOM     13  C8  ZIN A   1      17.412   0.006   8.561  0.00  0.00     0.032 A 
ENDBRANCH   6   8
TORSDOF 1
ENDMDL
MODEL 3
REMARK VINA RESULT:      -5.9      3.253      4.104
REMARK  1 active torsions:
REMARK  status: ('A' for Active; 'I' for Inactive)
REMARK    1  A    between atoms: N6_6  and  C7_7 
ROOT
ATOM      1  C1  ZIN A   1      19.551  -1.276  14.306  0.00  0.00     0.072 C 
ATOM      2  C2  ZIN A   1      18.772  -0.789  13.112  0.00  0.00     0.057 A 
ATOM      3  C3  ZIN A   1      17.447  -0.543  13.082  0.00  0.00     0.104 A 
ATOM      4  C4  ZIN A   1      17.110  -0.104  11.780  0.00  0.00     0.270 A 
ATOM      5  O5  ZIN A   1      15.999   0.209  11.392  0.00  0.00    -0.266 OA
ATOM      6  N6  ZIN A   1      18.242  -0.095  11.048  0.00  0.00    -0.198 N 
ATOM      7  N13 ZIN A   1      19.289  -0.518  11.877  0.00  0.00    -0.169 NA
ENDROOT
BRANCH   6   8
ATOM      8  C7  ZIN A   1      18.352   0.275   9.704  0.00  0.00     0.062 A 
ATOM      9  C12 ZIN A   1      17.730  -0.481   8.719  0.00  0.00     0.032 A 
ATOM     10  C11 ZIN A   1      17.837  -0.108   7.394  0.00  0.00     0.002 A 
ATOM     11  C10 ZIN A   1      18.571   1.009   7.044  0.00  0.00     0.000 A 
ATOM     12  C9  ZIN A   1      19.198   1.761   8.022  0.00  0.00     0.002 A 
ATOM     13  C8  ZIN A   1      19.091   1.398   9.350  0.00  0.00     0.032 A 
ENDBRANCH   6   8
TORSDOF 1
ENDMDL
MODEL 4
REMARK VINA RESULT:      -5.9      0.644      1.473
REMARK  1 active torsions:
REMARK  status: ('A' for Active; 'I' for Inactive)
REMARK    1  A    between atoms: N6_6  and  C7_7 
ROOT
ATOM      1  C1  ZIN A   1      16.838   5.136  13.025  0.00  0.00     0.072 C 
ATOM      2  C2  ZIN A   1      17.598   4.049  12.311  0.00  0.00     0.057 A 
ATOM      3  C3  ZIN A   1      18.715   3.441  12.760  0.00  0.00     0.104 A 
ATOM      4  C4  ZIN A   1      19.112   2.483  11.797  0.00  0.00     0.270 A 
ATOM      5  O5  ZIN A   1      20.080   1.748  11.871  0.00  0.00    -0.266 OA
ATOM      6  N6  ZIN A   1      18.225   2.532  10.783  0.00  0.00    -0.198 N 
ATOM      7  N13 ZIN A   1      17.270   3.507  11.100  0.00  0.00    -0.169 NA
ENDROOT
BRANCH   6   8
ATOM      8  C7  ZIN A   1      18.249   1.748   9.626  0.00  0.00     0.062 A 
ATOM      9  C12 ZIN A   1      17.481   0.594   9.550  0.00  0.00     0.032 A 
ATOM     10  C11 ZIN A   1      17.503  -0.175   8.403  0.00  0.00     0.002 A 
ATOM     11  C10 ZIN A   1      18.298   0.197   7.335  0.00  0.00     0.000 A 
ATOM     12  C9  ZIN A   1      19.070   1.343   7.410  0.00  0.00     0.002 A 
ATOM     13  C8  ZIN A   1      19.047   2.119   8.551  0.00  0.00     0.032 A 
ENDBRANCH   6   8
TORSDOF 1
ENDMDL
MODEL 5
REMARK VINA RESULT:      -5.8      1.854      5.038
REMARK  1 active torsions:
REMARK  status: ('A' for Active; 'I' for Inactive)
REMARK    1  A    between atoms: N6_6  and  C7_7 
ROOT
ATOM      1  C1  ZIN A   1      19.152   0.602   5.794  0.00  0.00     0.072 C 
ATOM      2  C2  ZIN A   1      18.744   0.913   7.211  0.00  0.00     0.057 A 
ATOM      3  C3  ZIN A   1      17.963   0.143   7.994  0.00  0.00     0.104 A 
ATOM      4  C4  ZIN A   1      17.822   0.788   9.245  0.00  0.00     0.270 A 
ATOM      5  O5  ZIN A   1      17.183   0.378  10.198  0.00  0.00    -0.266 OA
ATOM      6  N6  ZIN A   1      18.523   1.938   9.192  0.00  0.00    -0.198 N 
ATOM      7  N13 ZIN A   1      19.109   2.022   7.922  0.00  0.00    -0.169 NA
ENDROOT
BRANCH   6   8
ATOM      8  C7  ZIN A   1      18.649   2.877  10.221  0.00  0.00     0.062 A 
ATOM      9  C12 ZIN A   1      17.696   3.876  10.372  0.00  0.00     0.032 A 
ATOM     10  C11 ZIN A   1      17.820   4.798  11.393  0.00  0.00     0.002 A 
ATOM     11  C10 ZIN A   1      18.897   4.734  12.258  0.00  0.00     0.000 A 
ATOM     12  C9  ZIN A   1      19.850   3.743  12.107  0.00  0.00     0.002 A 
ATOM     13  C8  ZIN A   1      19.729   2.815  11.092  0.00  0.00     0.032 A 
ENDBRANCH   6   8
TORSDOF 1
ENDMDL
MODEL 6
REMARK VINA RESULT:      -5.8      4.368      5.747
REMARK  1 active torsions:
REMARK  status: ('A' for Active; 'I' for Inactive)
REMARK    1  A    between atoms: N6_6  and  C7_7 
ROOT
ATOM      1  C1  ZIN A   1      18.751   2.794  10.060  0.00  0.00     0.072 C 
ATOM      2  C2  ZIN A   1      18.298   1.696  10.988  0.00  0.00     0.057 A 
ATOM      3  C3  ZIN A   1      17.472   0.681  10.664  0.00  0.00     0.104 A 
ATOM      4  C4  ZIN A   1      17.299  -0.128  11.811  0.00  0.00     0.270 A 
ATOM      5  O5  ZIN A   1      16.616  -1.134  11.885  0.00  0.00    -0.266 OA
ATOM      6  N6  ZIN A   1      18.025   0.416  12.808  0.00  0.00    -0.198 N 
ATOM      7  N13 ZIN A   1      18.659   1.557  12.298  0.00  0.00    -0.169 NA
ENDROOT
BRANCH   6   8
ATOM      8  C7  ZIN A   1      18.132  -0.072  14.114  0.00  0.00     0.062 A 
ATOM      9  C12 ZIN A   1      17.326   0.446  15.120  0.00  0.00     0.032 A 
ATOM     10  C11 ZIN A   1      17.430  -0.043  16.407  0.00  0.00     0.002 A 
ATOM     11  C10 ZIN A   1      18.343  -1.040  16.698  0.00  0.00     0.000 A 
ATOM     12  C9  ZIN A   1      19.151  -1.554  15.700  0.00  0.00     0.002 A 
ATOM     13  C8  ZIN A   1      19.048  -1.074  14.409  0.00  0.00     0.032 A 
ENDBRANCH   6   8
TORSDOF 1
ENDMDL
MODEL 7
REMARK VINA RESULT:      -5.6      1.680      2.441
REMARK  1 active torsions:
REMARK  status: ('A' for Active; 'I' for Inactive)
REMARK    1  A    between atoms: N6_6  and  C7_7 
ROOT
ATOM      1  C1  ZIN A   1      19.433   5.439  14.374  0.00  0.00     0.072 C 
ATOM      2  C2  ZIN A   1      18.700   4.868  13.187  0.00  0.00     0.057 A 
ATOM      3  C3  ZIN A   1      17.564   5.359  12.651  0.00  0.00     0.104 A 
ATOM      4  C4  ZIN A   1      17.204   4.538  11.556  0.00  0.00     0.270 A 
ATOM      5  O5  ZIN A   1      16.232   4.684  10.837  0.00  0.00    -0.266 OA
ATOM      6  N6  ZIN A   1      18.132   3.565  11.454  0.00  0.00    -0.198 N 
ATOM      7  N13 ZIN A   1      19.076   3.768  12.469  0.00  0.00    -0.169 NA
ENDROOT
BRANCH   6   8
ATOM      8  C7  ZIN A   1      18.153   2.541  10.502  0.00  0.00     0.062 A 
ATOM      9  C12 ZIN A   1      17.451   1.364  10.729  0.00  0.00     0.032 A 
ATOM     10  C11 ZIN A   1      17.469   0.358   9.784  0.00  0.00     0.002 A 
ATOM     11  C10 ZIN A   1      18.193   0.515   8.617  0.00  0.00     0.000 A 
ATOM     12  C9  ZIN A   1      18.899   1.683   8.391  0.00  0.00     0.002 A 
ATOM     13  C8  ZIN A   1      18.880   2.696   9.328  0.00  0.00     0.032 A 
ENDBRANCH   6   8
TORSDOF 1
ENDMDL
MODEL 8
REMARK VINA RESULT:      -5.6      3.644      4.741
REMARK  1 active torsions:
REMARK  status: ('A' for Active; 'I' for Inactive)
REMARK    1  A    between atoms: N6_6  and  C7_7 
ROOT
ATOM      1  C1  ZIN A   1      18.129  -3.827  12.071  0.00  0.00     0.072 C 
ATOM      2  C2  ZIN A   1      17.895  -2.504  11.388  0.00  0.00     0.057 A 
ATOM      3  C3  ZIN A   1      17.244  -1.448  11.916  0.00  0.00     0.104 A 
ATOM      4  C4  ZIN A   1      17.243  -0.408  10.957  0.00  0.00     0.270 A 
ATOM      5  O5  ZIN A   1      16.744   0.694  11.093  0.00  0.00    -0.266 OA
ATOM      6  N6  ZIN A   1      17.896  -0.858   9.867  0.00  0.00    -0.198 N 
ATOM      7  N13 ZIN A   1      18.312  -2.170  10.131  0.00  0.00    -0.169 NA
ENDROOT
BRANCH   6   8
ATOM      8  C7  ZIN A   1      18.121  -0.144   8.686  0.00  0.00     0.062 A 
ATOM      9  C12 ZIN A   1      19.038   0.899   8.667  0.00  0.00     0.032 A 
ATOM     10  C11 ZIN A   1      19.261   1.599   7.497  0.00  0.00     0.002 A 
ATOM     11  C10 ZIN A   1      18.567   1.269   6.349  0.00  0.00     0.000 A 
ATOM     12  C9  ZIN A   1      17.648   0.234   6.366  0.00  0.00     0.002 A 
ATOM     13  C8  ZIN A   1      17.424  -0.473   7.530  0.00  0.00     0.032 A 
ENDBRANCH   6   8
TORSDOF 1
ENDMDL
MODEL 9
REMARK VINA RESULT:      -5.4      4.071      5.032
REMARK  1 active torsions:
REMARK  status: ('A' for Active; 'I' for Inactive)
REMARK    1  A    between atoms: N6_6  and  C7_7 
ROOT
ATOM      1  C1  ZIN A   1      17.520   3.886  10.633  0.00  0.00     0.072 C 
ATOM      2  C2  ZIN A   1      17.913   3.341  11.983  0.00  0.00     0.057 A 
ATOM      3  C3  ZIN A   1      18.437   4.054  12.999  0.00  0.00     0.104 A 
ATOM      4  C4  ZIN A   1      18.662   3.173  14.084  0.00  0.00     0.270 A 
ATOM      5  O5  ZIN A   1      19.127   3.473  15.169  0.00  0.00    -0.266 OA
ATOM      6  N6  ZIN A   1      18.268   1.943  13.699  0.00  0.00    -0.198 N 
ATOM      7  N13 ZIN A   1      17.792   2.040  12.384  0.00  0.00    -0.169 NA
ENDROOT
BRANCH   6   8
ATOM      8  C7  ZIN A   1      18.319   0.780  14.472  0.00  0.00     0.062 A 
ATOM      9  C12 ZIN A   1      19.285  -0.186  14.217  0.00  0.00     0.032 A 
ATOM     10  C11 ZIN A   1      19.336  -1.330  14.987  0.00  0.00     0.002 A 
ATOM     11  C10 ZIN A   1      18.421  -1.522  16.005  0.00  0.00     0.000 A 
ATOM     12  C9  ZIN A   1      17.454  -0.566  16.259  0.00  0.00     0.002 A 
ATOM     13  C8  ZIN A   1      17.401   0.584  15.497  0.00  0.00     0.032 A 
ENDBRANCH   6   8
TORSDOF 1
ENDMDL
