MODEL 1
REMARK VINA RESULT:      -8.5      0.000      0.000
REMARK  6 active torsions:
REMARK  status: ('A' for Active; 'I' for Inactive)
REMARK    1  A    between atoms: C7_7  and  O9_8 
REMARK    2  A    between atoms: O9_8  and  C10_9 
REMARK    3  A    between atoms: C10_9  and  C12_11 
REMARK    4  A    between atoms: C12_11  and  O13_12 
REMARK    5  A    between atoms: C12_11  and  C14_13 
REMARK    6  A    between atoms: C12_11  and  C20_19 
ROOT
ATOM      1  C12 <0> d   1      19.015   0.682  10.203  0.00  0.00     0.201 C 
ENDROOT
BRANCH   1   2
ATOM      2  C10 <0> d   1      18.153  -0.267  10.996  0.00  0.00     0.303 C 
ATOM      3  O11 <0> d   1      17.025   0.049  11.295  0.00  0.00    -0.261 OA
BRANCH   2   4
ATOM      4  O9  <0> d   1      18.637  -1.461  11.370  0.00  0.00    -0.311 OA
BRANCH   4   5
ATOM      5  C7  <0> d   1      18.102  -2.629  10.694  0.00  0.00     0.158 C 
ATOM      6  C6  <0> d   1      17.328  -3.492  11.696  0.00  0.00     0.036 C 
ATOM      7  C5  <0> d   1      16.834  -4.758  10.990  0.00  0.00     0.030 C 
ATOM      8  C4  <0> d   1      18.031  -5.500  10.390  0.00  0.00     0.236 C 
ATOM      9  N2  <0> d   1      18.713  -4.633   9.422  0.00  0.00    -0.072 N 
ATOM     10  C1  <0> d   1      19.813  -5.375   8.791  0.00  0.00     0.272 C 
ATOM     11  C26 <0> d   1      19.251  -3.450  10.104  0.00  0.00     0.268 C 
ATOM     12  C3  <0> d   1      17.756  -4.208   8.390  0.00  0.00     0.272 C 
ENDBRANCH   4   5
ENDBRANCH   2   4
ENDBRANCH   1   2
BRANCH   1  13
ATOM     13  O13 <0> d   1      20.386   0.300  10.334  0.00  0.00    -0.371 OA
ATOM     14  H39 <0> d   1      20.519  -0.542  10.791  0.00  0.00     0.212 HD
ENDBRANCH   1  13
BRANCH   1  15
ATOM     15  C14 <0> d   1      18.616   0.630   8.752  0.00  0.00    -0.009 A 
ATOM     16  C19 <0> d   1      17.531  -0.131   8.359  0.00  0.00     0.011 A 
ATOM     17  C18 <0> d   1      17.162  -0.174   7.027  0.00  0.00     0.001 A 
ATOM     18  C17 <0> d   1      17.883   0.537   6.087  0.00  0.00     0.000 A 
ATOM     19  C16 <0> d   1      18.972   1.295   6.479  0.00  0.00     0.001 A 
ATOM     20  C15 <0> d   1      19.338   1.341   7.812  0.00  0.00     0.011 A 
ENDBRANCH   1  15
BRANCH   1  21
ATOM     21  C20 <0> d   1      18.832   2.083  10.726  0.00  0.00    -0.009 A 
ATOM     22  C25 <0> d   1      17.753   2.841  10.309  0.00  0.00     0.011 A 
ATOM     23  C24 <0> d   1      17.583   4.125  10.792  0.00  0.00     0.001 A 
ATOM     24  C23 <0> d   1      18.496   4.656  11.683  0.00  0.00     0.000 A 
ATOM     25  C22 <0> d   1      19.578   3.900  12.096  0.00  0.00     0.001 A 
ATOM     26  C21 <0> d   1      19.746   2.614  11.617  0.00  0.00     0.011 A 
ENDBRANCH   1  21
TORSDOF 6
ENDMDL
MODEL 2
REMARK VINA RESULT:      -8.2      3.736      5.223
REMARK  6 active torsions:
REMARK  status: ('A' for Active; 'I' for Inactive)
REMARK    1  A    between atoms: C7_7  and  O9_8 
REMARK    2  A    between atoms: O9_8  and  C10_9 
REMARK    3  A    between atoms: C10_9  and  C12_11 
REMARK    4  A    between atoms: C12_11  and  O13_12 
REMARK    5  A    between atoms: C12_11  and  C14_13 
REMARK    6  A    between atoms: C12_11  and  C20_19 
ROOT
ATOM      1  C12 <0> d   1      19.424   2.409  11.706  0.00  0.00     0.201 C 
ENDROOT
BRANCH   1   2
ATOM      2  C10 <0> d   1      19.436   1.432  12.854  0.00  0.00     0.303 C 
ATOM      3  O11 <0> d   1      20.383   0.697  13.010  0.00  0.00    -0.261 OA
BRANCH   2   4
ATOM      4  O9  <0> d   1      18.398   1.380  13.702  0.00  0.00    -0.311 OA
BRANCH   4   5
ATOM      5  C7  <0> d   1      18.592   0.641  14.936  0.00  0.00     0.158 C 
ATOM      6  C6  <0> d   1      18.013  -0.770  14.785  0.00  0.00     0.036 C 
ATOM      7  C5  <0> d   1      18.154  -1.514  16.116  0.00  0.00     0.030 C 
ATOM      8  C4  <0> d   1      17.454  -0.715  17.217  0.00  0.00     0.236 C 
ATOM      9  N2  <0> d   1      18.069   0.612  17.330  0.00  0.00    -0.072 N 
ATOM     10  C1  <0> d   1      17.446   1.347  18.440  0.00  0.00     0.272 C 
ATOM     11  C26 <0> d   1      17.875   1.360  16.081  0.00  0.00     0.268 C 
ATOM     12  C3  <0> d   1      19.507   0.462  17.591  0.00  0.00     0.272 C 
ENDBRANCH   4   5
ENDBRANCH   2   4
ENDBRANCH   1   2
BRANCH   1  13
ATOM     13  O13 <0> d   1      20.750   2.892  11.478  0.00  0.00    -0.371 OA
ATOM     14  H39 <0> d   1      21.053   2.795  10.565  0.00  0.00     0.212 HD
ENDBRANCH   1  13
BRANCH   1  15
ATOM     15  C14 <0> d   1      18.919   1.721  10.464  0.00  0.00    -0.009 A 
ATOM     16  C19 <0> d   1      19.434   2.062   9.227  0.00  0.00     0.011 A 
ATOM     17  C18 <0> d   1      18.974   1.426   8.089  0.00  0.00     0.001 A 
ATOM     18  C17 <0> d   1      17.994   0.457   8.187  0.00  0.00     0.000 A 
ATOM     19  C16 <0> d   1      17.475   0.120   9.424  0.00  0.00     0.001 A 
ATOM     20  C15 <0> d   1      17.939   0.752  10.562  0.00  0.00     0.011 A 
ENDBRANCH   1  15
BRANCH   1  21
ATOM     21  C20 <0> d   1      18.519   3.567  12.042  0.00  0.00    -0.009 A 
ATOM     22  C25 <0> d   1      17.443   3.862  11.226  0.00  0.00     0.011 A 
ATOM     23  C24 <0> d   1      16.611   4.921  11.536  0.00  0.00     0.001 A 
ATOM     24  C23 <0> d   1      16.860   5.692  12.656  0.00  0.00     0.000 A 
ATOM     25  C22 <0> d   1      17.939   5.400  13.469  0.00  0.00     0.001 A 
ATOM     26  C21 <0> d   1      18.769   4.339  13.161  0.00  0.00     0.011 A 
ENDBRANCH   1  21
TORSDOF 6
ENDMDL
MODEL 3
REMARK VINA RESULT:      -8.2      3.406      5.642
REMARK  6 active torsions:
REMARK  status: ('A' for Active; 'I' for Inactive)
REMARK    1  A    between atoms: C7_7  and  O9_8 
REMARK    2  A    between atoms: O9_8  and  C10_9 
REMARK    3  A    between atoms: C10_9  and  C12_11 
REMARK    4  A    between atoms: C12_11  and  O13_12 
REMARK    5  A    between atoms: C12_11  and  C14_13 
REMARK    6  A    between atoms: C12_11  and  C20_19 
ROOT
ATOM      1  C12 <0> d   1      20.250  -0.596  10.993  0.00  0.00     0.201 C 
ENDROOT
BRANCH   1   2
ATOM      2  C10 <0> d   1      20.061   0.275  12.209  0.00  0.00     0.303 C 
ATOM      3  O11 <0> d   1      20.940   1.029  12.553  0.00  0.00    -0.261 OA
BRANCH   2   4
ATOM      4  O9  <0> d   1      18.917   0.214  12.907  0.00  0.00    -0.311 OA
BRANCH   4   5
ATOM      5  C7  <0> d   1      19.029   0.011  14.340  0.00  0.00     0.158 C 
ATOM      6  C6  <0> d   1      19.460  -1.433  14.620  0.00  0.00     0.036 C 
ATOM      7  C5  <0> d   1      19.501  -1.658  16.134  0.00  0.00     0.030 C 
ATOM      8  C4  <0> d   1      18.128  -1.336  16.729  0.00  0.00     0.236 C 
ATOM      9  N2  <0> d   1      17.785   0.063  16.450  0.00  0.00    -0.072 N 
ATOM     10  C1  <0> d   1      16.503   0.389  17.090  0.00  0.00     0.272 C 
ATOM     11  C26 <0> d   1      17.674   0.270  15.001  0.00  0.00     0.268 C 
ATOM     12  C3  <0> d   1      18.836   0.938  16.990  0.00  0.00     0.272 C 
ENDBRANCH   4   5
ENDBRANCH   2   4
ENDBRANCH   1   2
BRANCH   1  13
ATOM     13  O13 <0> d   1      21.642  -0.873  10.818  0.00  0.00    -0.371 OA
ATOM     14  H39 <0> d   1      21.890  -1.784  11.023  0.00  0.00     0.212 HD
ENDBRANCH   1  13
BRANCH   1  15
ATOM     15  C14 <0> d   1      19.500  -1.889  11.179  0.00  0.00    -0.009 A 
ATOM     16  C19 <0> d   1      18.118  -1.897  11.155  0.00  0.00     0.011 A 
ATOM     17  C18 <0> d   1      17.430  -3.085  11.321  0.00  0.00     0.001 A 
ATOM     18  C17 <0> d   1      18.124  -4.263  11.520  0.00  0.00     0.000 A 
ATOM     19  C16 <0> d   1      19.507  -4.255  11.550  0.00  0.00     0.001 A 
ATOM     20  C15 <0> d   1      20.195  -3.067  11.379  0.00  0.00     0.011 A 
ENDBRANCH   1  15
BRANCH   1  21
ATOM     21  C20 <0> d   1      19.724   0.120   9.776  0.00  0.00    -0.009 A 
ATOM     22  C25 <0> d   1      19.610  -0.554   8.573  0.00  0.00     0.011 A 
ATOM     23  C24 <0> d   1      19.124   0.102   7.458  0.00  0.00     0.001 A 
ATOM     24  C23 <0> d   1      18.761   1.433   7.540  0.00  0.00     0.000 A 
ATOM     25  C22 <0> d   1      18.880   2.108   8.741  0.00  0.00     0.001 A 
ATOM     26  C21 <0> d   1      19.363   1.452   9.858  0.00  0.00     0.011 A 
ENDBRANCH   1  21
TORSDOF 6
ENDMDL
MODEL 4
REMARK VINA RESULT:      -8.2      1.021      3.922
REMARK  6 active torsions:
REMARK  status: ('A' for Active; 'I' for Inactive)
REMARK    1  A    between atoms: C7_7  and  O9_8 
REMARK    2  A    between atoms: O9_8  and  C10_9 
REMARK    3  A    between atoms: C10_9  and  C12_11 
REMARK    4  A    between atoms: C12_11  and  O13_12 
REMARK    5  A    between atoms: C12_11  and  C14_13 
REMARK    6  A    between atoms: C12_11  and  C20_19 
ROOT
ATOM      1  C12 <0> d   1      17.868   0.796  10.538  0.00  0.00     0.201 C 
ENDROOT
BRANCH   1   2
ATOM      2  C10 <0> d   1      18.752  -0.244  11.176  0.00  0.00     0.303 C 
ATOM      3  O11 <0> d   1      18.832  -0.312  12.380  0.00  0.00    -0.261 OA
BRANCH   2   4
ATOM      4  O9  <0> d   1      19.450  -1.095  10.408  0.00  0.00    -0.311 OA
BRANCH   4   5
ATOM      5  C7  <0> d   1      19.020  -2.482  10.402  0.00  0.00     0.158 C 
ATOM      6  C6  <0> d   1      19.989  -3.322  11.241  0.00  0.00     0.036 C 
ATOM      7  C5  <0> d   1      19.570  -4.794  11.165  0.00  0.00     0.030 C 
ATOM      8  C4  <0> d   1      19.539  -5.234   9.699  0.00  0.00     0.236 C 
ATOM      9  N2  <0> d   1      18.576  -4.411   8.958  0.00  0.00    -0.072 N 
ATOM     10  C1  <0> d   1      18.492  -4.888   7.571  0.00  0.00     0.272 C 
ATOM     11  C26 <0> d   1      19.009  -3.008   8.966  0.00  0.00     0.268 C 
ATOM     12  C3  <0> d   1      17.254  -4.518   9.591  0.00  0.00     0.272 C 
ENDBRANCH   4   5
ENDBRANCH   2   4
ENDBRANCH   1   2
BRANCH   1  13
ATOM     13  O13 <0> d   1      16.506   0.541  10.888  0.00  0.00    -0.371 OA
ATOM     14  H39 <0> d   1      16.046   1.305  11.262  0.00  0.00     0.212 HD
ENDBRANCH   1  13
BRANCH   1  15
ATOM     15  C14 <0> d   1      18.266   2.164  11.027  0.00  0.00    -0.009 A 
ATOM     16  C19 <0> d   1      19.557   2.394  11.462  0.00  0.00     0.011 A 
ATOM     17  C18 <0> d   1      19.923   3.651  11.907  0.00  0.00     0.001 A 
ATOM     18  C17 <0> d   1      18.994   4.675  11.925  0.00  0.00     0.000 A 
ATOM     19  C16 <0> d   1      17.700   4.443  11.496  0.00  0.00     0.001 A 
ATOM     20  C15 <0> d   1      17.336   3.187  11.047  0.00  0.00     0.011 A 
ENDBRANCH   1  15
BRANCH   1  21
ATOM     21  C20 <0> d   1      18.021   0.733   9.040  0.00  0.00    -0.009 A 
ATOM     22  C25 <0> d   1      18.994   1.489   8.412  0.00  0.00     0.011 A 
ATOM     23  C24 <0> d   1      19.137   1.429   7.039  0.00  0.00     0.001 A 
ATOM     24  C23 <0> d   1      18.301   0.622   6.291  0.00  0.00     0.000 A 
ATOM     25  C22 <0> d   1      17.324  -0.130   6.918  0.00  0.00     0.001 A 
ATOM     26  C21 <0> d   1      17.184  -0.073   8.292  0.00  0.00     0.011 A 
ENDBRANCH   1  21
TORSDOF 6
ENDMDL
MODEL 5
REMARK VINA RESULT:      -8.1      3.138      5.552
REMARK  6 active torsions:
REMARK  status: ('A' for Active; 'I' for Inactive)
REMARK    1  A    between atoms: C7_7  and  O9_8 
REMARK    2  A    between atoms: O9_8  and  C10_9 
REMARK    3  A    between atoms: C10_9  and  C12_11 
REMARK    4  A    between atoms: C12_11  and  O13_12 
REMARK    5  A    between atoms: C12_11  and  C14_13 
REMARK    6  A    between atoms: C12_11  and  C20_19 
ROOT
ATOM      1  C12 <0> d   1      17.454   0.154  10.797  0.00  0.00     0.201 C 
ENDROOT
BRANCH   1   2
ATOM      2  C10 <0> d   1      17.844   1.243  11.762  0.00  0.00     0.303 C 
ATOM      3  O11 <0> d   1      17.284   2.313  11.724  0.00  0.00    -0.261 OA
BRANCH   2   4
ATOM      4  O9  <0> d   1      18.813   1.024  12.665  0.00  0.00    -0.311 OA
BRANCH   4   5
ATOM      5  C7  <0> d   1      18.422   1.021  14.063  0.00  0.00     0.158 C 
ATOM      6  C6  <0> d   1      18.933   2.296  14.741  0.00  0.00     0.036 C 
ATOM      7  C5  <0> d   1      18.582   2.247  16.231  0.00  0.00     0.030 C 
ATOM      8  C4  <0> d   1      19.182   0.981  16.848  0.00  0.00     0.236 C 
ATOM      9  N2  <0> d   1      18.635  -0.202  16.176  0.00  0.00    -0.072 N 
ATOM     10  C1  <0> d   1      19.153  -1.416  16.823  0.00  0.00     0.272 C 
ATOM     11  C26 <0> d   1      19.027  -0.198  14.761  0.00  0.00     0.268 C 
ATOM     12  C3  <0> d   1      17.168  -0.185  16.275  0.00  0.00     0.272 C 
ENDBRANCH   4   5
ENDBRANCH   2   4
ENDBRANCH   1   2
BRANCH   1  13
ATOM     13  O13 <0> d   1      16.035  -0.021  10.827  0.00  0.00    -0.371 OA
ATOM     14  H39 <0> d   1      15.737  -0.710  11.436  0.00  0.00     0.212 HD
ENDBRANCH   1  13
BRANCH   1  15
ATOM     15  C14 <0> d   1      17.883   0.538   9.404  0.00  0.00    -0.009 A 
ATOM     16  C19 <0> d   1      17.351  -0.119   8.311  0.00  0.00     0.011 A 
ATOM     17  C18 <0> d   1      17.742   0.236   7.033  0.00  0.00     0.001 A 
ATOM     18  C17 <0> d   1      18.670   1.243   6.850  0.00  0.00     0.000 A 
ATOM     19  C16 <0> d   1      19.207   1.897   7.944  0.00  0.00     0.001 A 
ATOM     20  C15 <0> d   1      18.812   1.544   9.221  0.00  0.00     0.011 A 
ENDBRANCH   1  15
BRANCH   1  21
ATOM     21  C20 <0> d   1      18.127  -1.134  11.193  0.00  0.00    -0.009 A 
ATOM     22  C25 <0> d   1      19.483  -1.301  10.977  0.00  0.00     0.011 A 
ATOM     23  C24 <0> d   1      20.101  -2.481  11.344  0.00  0.00     0.001 A 
ATOM     24  C23 <0> d   1      19.364  -3.499  11.919  0.00  0.00     0.000 A 
ATOM     25  C22 <0> d   1      18.007  -3.334  12.131  0.00  0.00     0.001 A 
ATOM     26  C21 <0> d   1      17.389  -2.153  11.767  0.00  0.00     0.011 A 
ENDBRANCH   1  21
TORSDOF 6
ENDMDL
MODEL 6
REMARK VINA RESULT:      -8.1      2.327      3.807
REMARK  6 active torsions:
REMARK  status: ('A' for Active; 'I' for Inactive)
REMARK    1  A    between atoms: C7_7  and  O9_8 
REMARK    2  A    between atoms: O9_8  and  C10_9 
REMARK    3  A    between atoms: C10_9  and  C12_11 
REMARK    4  A    between atoms: C12_11  and  O13_12 
REMARK    5  A    between atoms: C12_11  and  C14_13 
REMARK    6  A    between atoms: C12_11  and  C20_19 
ROOT
ATOM      1  C12 <0> d   1      18.937  -0.340  12.180  0.00  0.00     0.201 C 
ENDROOT
BRANCH   1   2
ATOM      2  C10 <0> d   1      17.963  -1.185  11.400  0.00  0.00     0.303 C 
ATOM      3  O11 <0> d   1      16.894  -1.474  11.883  0.00  0.00    -0.261 OA
BRANCH   2   4
ATOM      4  O9  <0> d   1      18.283  -1.615  10.169  0.00  0.00    -0.311 OA
BRANCH   4   5
ATOM      5  C7  <0> d   1      18.117  -3.032   9.903  0.00  0.00     0.158 C 
ATOM      6  C6  <0> d   1      19.281  -3.810  10.524  0.00  0.00     0.036 C 
ATOM      7  C5  <0> d   1      19.137  -5.293  10.172  0.00  0.00     0.030 C 
ATOM      8  C4  <0> d   1      19.083  -5.447   8.650  0.00  0.00     0.236 C 
ATOM      9  N2  <0> d   1      17.935  -4.703   8.120  0.00  0.00    -0.072 N 
ATOM     10  C1  <0> d   1      17.842  -4.917   6.669  0.00  0.00     0.272 C 
ATOM     11  C26 <0> d   1      18.101  -3.270   8.391  0.00  0.00     0.268 C 
ATOM     12  C3  <0> d   1      16.704  -5.183   8.764  0.00  0.00     0.272 C 
ENDBRANCH   4   5
ENDBRANCH   2   4
ENDBRANCH   1   2
BRANCH   1  13
ATOM     13  O13 <0> d   1      20.267  -0.811  11.948  0.00  0.00    -0.371 OA
ATOM     14  H39 <0> d   1      20.830  -0.803  12.734  0.00  0.00     0.212 HD
ENDBRANCH   1  13
BRANCH   1  15
ATOM     15  C14 <0> d   1      18.828   1.095  11.734  0.00  0.00    -0.009 A 
ATOM     16  C19 <0> d   1      17.704   1.525  11.054  0.00  0.00     0.011 A 
ATOM     17  C18 <0> d   1      17.602   2.843  10.650  0.00  0.00     0.001 A 
ATOM     18  C17 <0> d   1      18.628   3.729  10.917  0.00  0.00     0.000 A 
ATOM     19  C16 <0> d   1      19.756   3.298  11.591  0.00  0.00     0.001 A 
ATOM     20  C15 <0> d   1      19.855   1.981  12.000  0.00  0.00     0.011 A 
ENDBRANCH   1  15
BRANCH   1  21
ATOM     21  C20 <0> d   1      18.620  -0.435  13.650  0.00  0.00    -0.009 A 
ATOM     22  C25 <0> d   1      17.700   0.428  14.216  0.00  0.00     0.011 A 
ATOM     23  C24 <0> d   1      17.406   0.338  15.563  0.00  0.00     0.001 A 
ATOM     24  C23 <0> d   1      18.039  -0.608  16.348  0.00  0.00     0.000 A 
ATOM     25  C22 <0> d   1      18.963  -1.468  15.783  0.00  0.00     0.001 A 
ATOM     26  C21 <0> d   1      19.254  -1.380  14.435  0.00  0.00     0.011 A 
ENDBRANCH   1  21
TORSDOF 6
ENDMDL
MODEL 7
REMARK VINA RESULT:      -8.1      3.243      7.557
REMARK  6 active torsions:
REMARK  status: ('A' for Active; 'I' for Inactive)
REMARK    1  A    between atoms: C7_7  and  O9_8 
REMARK    2  A    between atoms: O9_8  and  C10_9 
REMARK    3  A    between atoms: C10_9  and  C12_11 
REMARK    4  A    between atoms: C12_11  and  O13_12 
REMARK    5  A    between atoms: C12_11  and  C14_13 
REMARK    6  A    between atoms: C12_11  and  C20_19 
ROOT
ATOM      1  C12 <0> d   1      19.071  -0.875  12.633  0.00  0.00     0.201 C 
ENDROOT
BRANCH   1   2
ATOM      2  C10 <0> d   1      18.149   0.012  11.838  0.00  0.00     0.303 C 
ATOM      3  O11 <0> d   1      16.988  -0.295  11.698  0.00  0.00    -0.261 OA
BRANCH   2   4
ATOM      4  O9  <0> d   1      18.615   1.143  11.286  0.00  0.00    -0.311 OA
BRANCH   4   5
ATOM      5  C7  <0> d   1      18.067   2.393  11.782  0.00  0.00     0.158 C 
ATOM      6  C6  <0> d   1      17.564   3.234  10.604  0.00  0.00     0.036 C 
ATOM      7  C5  <0> d   1      17.059   4.581  11.131  0.00  0.00     0.030 C 
ATOM      8  C4  <0> d   1      18.185   5.275  11.901  0.00  0.00     0.236 C 
ATOM      9  N2  <0> d   1      18.604   4.433  13.028  0.00  0.00    -0.072 N 
ATOM     10  C1  <0> d   1      19.629   5.137  13.810  0.00  0.00     0.272 C 
ATOM     11  C26 <0> d   1      19.155   3.168  12.527  0.00  0.00     0.268 C 
ATOM     12  C3  <0> d   1      17.443   4.155  13.885  0.00  0.00     0.272 C 
ENDBRANCH   4   5
ENDBRANCH   2   4
ENDBRANCH   1   2
BRANCH   1  13
ATOM     13  O13 <0> d   1      20.419  -0.427  12.470  0.00  0.00    -0.371 OA
ATOM     14  H39 <0> d   1      21.036  -0.789  13.121  0.00  0.00     0.212 HD
ENDBRANCH   1  13
BRANCH   1  15
ATOM     15  C14 <0> d   1      18.695  -0.814  14.091  0.00  0.00    -0.009 A 
ATOM     16  C19 <0> d   1      17.675   0.021  14.508  0.00  0.00     0.011 A 
ATOM     17  C18 <0> d   1      17.327   0.073  15.845  0.00  0.00     0.001 A 
ATOM     18  C17 <0> d   1      18.003  -0.704  16.765  0.00  0.00     0.000 A 
ATOM     19  C16 <0> d   1      19.027  -1.536  16.350  0.00  0.00     0.001 A 
ATOM     20  C15 <0> d   1      19.372  -1.591  15.012  0.00  0.00     0.011 A 
ENDBRANCH   1  15
BRANCH   1  21
ATOM     21  C20 <0> d   1      18.952  -2.294  12.142  0.00  0.00    -0.009 A 
ATOM     22  C25 <0> d   1      17.736  -2.950  12.214  0.00  0.00     0.011 A 
ATOM     23  C24 <0> d   1      17.625  -4.251  11.759  0.00  0.00     0.001 A 
ATOM     24  C23 <0> d   1      18.731  -4.900  11.241  0.00  0.00     0.000 A 
ATOM     25  C22 <0> d   1      19.947  -4.245  11.173  0.00  0.00     0.001 A 
ATOM     26  C21 <0> d   1      20.057  -2.943  11.625  0.00  0.00     0.011 A 
ENDBRANCH   1  21
TORSDOF 6
ENDMDL
MODEL 8
REMARK VINA RESULT:      -8.0      2.233      3.746
REMARK  6 active torsions:
REMARK  status: ('A' for Active; 'I' for Inactive)
REMARK    1  A    between atoms: C7_7  and  O9_8 
REMARK    2  A    between atoms: O9_8  and  C10_9 
REMARK    3  A    between atoms: C10_9  and  C12_11 
REMARK    4  A    between atoms: C12_11  and  O13_12 
REMARK    5  A    between atoms: C12_11  and  C14_13 
REMARK    6  A    between atoms: C12_11  and  C20_19 
ROOT
ATOM      1  C12 <0> d   1      20.032   0.212  12.355  0.00  0.00     0.201 C 
ENDROOT
BRANCH   1   2
ATOM      2  C10 <0> d   1      20.020  -0.992  11.448  0.00  0.00     0.303 C 
ATOM      3  O11 <0> d   1      20.367  -0.883  10.295  0.00  0.00    -0.261 OA
BRANCH   2   4
ATOM      4  O9  <0> d   1      19.625  -2.184  11.920  0.00  0.00    -0.311 OA
BRANCH   4   5
ATOM      5  C7  <0> d   1      18.792  -2.995  11.050  0.00  0.00     0.158 C 
ATOM      6  C6  <0> d   1      17.642  -3.600  11.861  0.00  0.00     0.036 C 
ATOM      7  C5  <0> d   1      16.815  -4.514  10.952  0.00  0.00     0.030 C 
ATOM      8  C4  <0> d   1      17.727  -5.585  10.350  0.00  0.00     0.236 C 
ATOM      9  N2  <0> d   1      18.790  -4.945   9.566  0.00  0.00    -0.072 N 
ATOM     10  C1  <0> d   1      19.616  -5.978   8.927  0.00  0.00     0.272 C 
ATOM     11  C26 <0> d   1      19.631  -4.123  10.445  0.00  0.00     0.268 C 
ATOM     12  C3  <0> d   1      18.186  -4.094   8.531  0.00  0.00     0.272 C 
ENDBRANCH   4   5
ENDBRANCH   2   4
ENDBRANCH   1   2
BRANCH   1  13
ATOM     13  O13 <0> d   1      21.382   0.544  12.686  0.00  0.00    -0.371 OA
ATOM     14  H39 <0> d   1      22.003  -0.190  12.587  0.00  0.00     0.212 HD
ENDBRANCH   1  13
BRANCH   1  15
ATOM     15  C14 <0> d   1      19.385   1.378  11.652  0.00  0.00    -0.009 A 
ATOM     16  C19 <0> d   1      19.852   2.661  11.868  0.00  0.00     0.011 A 
ATOM     17  C18 <0> d   1      19.261   3.729  11.219  0.00  0.00     0.001 A 
ATOM     18  C17 <0> d   1      18.199   3.515  10.362  0.00  0.00     0.000 A 
ATOM     19  C16 <0> d   1      17.728   2.232  10.150  0.00  0.00     0.001 A 
ATOM     20  C15 <0> d   1      18.322   1.163  10.795  0.00  0.00     0.011 A 
ENDBRANCH   1  15
BRANCH   1  21
ATOM     21  C20 <0> d   1      19.268  -0.102  13.616  0.00  0.00    -0.009 A 
ATOM     22  C25 <0> d   1      19.757  -1.043  14.503  0.00  0.00     0.011 A 
ATOM     23  C24 <0> d   1      19.059  -1.328  15.662  0.00  0.00     0.001 A 
ATOM     24  C23 <0> d   1      17.868  -0.680  15.929  0.00  0.00     0.000 A 
ATOM     25  C22 <0> d   1      17.377   0.258  15.039  0.00  0.00     0.001 A 
ATOM     26  C21 <0> d   1      18.077   0.546  13.882  0.00  0.00     0.011 A 
ENDBRANCH   1  21
TORSDOF 6
ENDMDL
MODEL 9
REMARK VINA RESULT:      -7.9      2.586      5.403
REMARK  6 active torsions:
REMARK  status: ('A' for Active; 'I' for Inactive)
REMARK    1  A    between atoms: C7_7  and  O9_8 
REMARK    2  A    between atoms: O9_8  and  C10_9 
REMARK    3  A    between atoms: C10_9  and  C12_11 
REMARK    4  A    between atoms: C12_11  and  O13_12 
REMARK    5  A    between atoms: C12_11  and  C14_13 
REMARK    6  A    between atoms: C12_11  and  C20_19 
ROOT
ATOM      1  C12 <0> d   1      19.453   2.275  11.896  0.00  0.00     0.201 C 
ENDROOT
BRANCH   1   2
ATOM      2  C10 <0> d   1      18.731   2.455  10.585  0.00  0.00     0.303 C 
ATOM      3  O11 <0> d   1      17.604   2.893  10.573  0.00  0.00    -0.261 OA
BRANCH   2   4
ATOM      4  O9  <0> d   1      19.339   2.132   9.434  0.00  0.00    -0.311 OA
BRANCH   4   5
ATOM      5  C7  <0> d   1      18.813   0.988   8.710  0.00  0.00     0.158 C 
ATOM      6  C6  <0> d   1      19.521  -0.286   9.182  0.00  0.00     0.036 C 
ATOM      7  C5  <0> d   1      19.015  -1.475   8.360  0.00  0.00     0.030 C 
ATOM      8  C4  <0> d   1      19.252  -1.196   6.873  0.00  0.00     0.236 C 
ATOM      9  N2  <0> d   1      18.529   0.018   6.478  0.00  0.00    -0.072 N 
ATOM     10  C1  <0> d   1      18.696   0.238   5.035  0.00  0.00     0.272 C 
ATOM     11  C26 <0> d   1      19.058   1.174   7.211  0.00  0.00     0.268 C 
ATOM     12  C3  <0> d   1      17.101  -0.144   6.785  0.00  0.00     0.272 C 
ENDBRANCH   4   5
ENDBRANCH   2   4
ENDBRANCH   1   2
BRANCH   1  13
ATOM     13  O13 <0> d   1      20.864   2.340  11.674  0.00  0.00    -0.371 OA
ATOM     14  H39 <0> d   1      21.373   2.607  12.451  0.00  0.00     0.212 HD
ENDBRANCH   1  13
BRANCH   1  15
ATOM     15  C14 <0> d   1      19.045   3.367  12.850  0.00  0.00    -0.009 A 
ATOM     16  C19 <0> d   1      18.108   3.111  13.834  0.00  0.00     0.011 A 
ATOM     17  C18 <0> d   1      17.737   4.112  14.712  0.00  0.00     0.001 A 
ATOM     18  C17 <0> d   1      18.296   5.371  14.601  0.00  0.00     0.000 A 
ATOM     19  C16 <0> d   1      19.228   5.629  13.613  0.00  0.00     0.001 A 
ATOM     20  C15 <0> d   1      19.603   4.627  12.738  0.00  0.00     0.011 A 
ENDBRANCH   1  15
BRANCH   1  21
ATOM     21  C20 <0> d   1      19.099   0.934  12.484  0.00  0.00    -0.009 A 
ATOM     22  C25 <0> d   1      17.893   0.337  12.167  0.00  0.00     0.011 A 
ATOM     23  C24 <0> d   1      17.570  -0.896  12.703  0.00  0.00     0.001 A 
ATOM     24  C23 <0> d   1      18.447  -1.527  13.565  0.00  0.00     0.000 A 
ATOM     25  C22 <0> d   1      19.650  -0.927  13.887  0.00  0.00     0.001 A 
ATOM     26  C21 <0> d   1      19.976   0.303  13.347  0.00  0.00     0.011 A 
ENDBRANCH   1  21
TORSDOF 6
ENDMDL
