MODEL 1
REMARK VINA RESULT:      -4.2      0.000      0.000
REMARK  12 active torsions:
REMARK  status: ('A' for Active; 'I' for Inactive)
REMARK    1  A    between atoms: N1_1  and  C5_5 
REMARK    2  A    between atoms: C5_5  and  C6_6 
REMARK    3  A    between atoms: C6_6  and  N7_7 
REMARK    4  A    between atoms: N7_7  and  C8_8 
REMARK    5  A    between atoms: C8_8  and  C9_9 
REMARK    6  A    between atoms: C9_9  and  N10_10 
REMARK    7  A    between atoms: N10_10  and  C11_11 
REMARK    8  A    between atoms: C11_11  and  C12_12 
REMARK    9  A    between atoms: C12_12  and  N13_13 
REMARK   10  A    between atoms: N13_13  and  C14_14 
REMARK   11  A    between atoms: C14_14  and  C15_15 
REMARK   12  A    between atoms: C15_15  and  N16_16 
ROOT
ATOM      1  N10 <0> d   1      19.598   1.930   9.001  0.00  0.00     0.086 N 
ATOM      2  H29 <0> d   1      19.636   2.635   8.279  0.00  0.00     0.315 HD
ENDROOT
BRANCH   1   3
ATOM      3  C9  <0> d   1      18.615   2.285  10.033  0.00  0.00     0.299 C 
BRANCH   3   4
ATOM      4  C8  <0> d   1      19.225   3.319  10.983  0.00  0.00     0.299 C 
BRANCH   4   5
ATOM      5  N7  <0> d   1      20.090   2.639  11.956  0.00  0.00     0.086 N 
ATOM      6  H24 <0> d   1      20.445   3.289  12.640  0.00  0.00     0.315 HD
BRANCH   5   7
ATOM      7  C6  <0> d   1      19.381   1.527  12.603  0.00  0.00     0.296 C 
BRANCH   7   8
ATOM      8  C5  <0> d   1      20.394   0.477  13.067  0.00  0.00     0.259 C 
BRANCH   8   9
ATOM      9  N1  <0> d   1      21.590   0.543  12.217  0.00  0.00    -0.078 N 
ATOM     10  H2  <0> d   1      21.548  -0.184  11.518  0.00  0.00     0.274 HD
ATOM     11  H3  <0> d   1      22.414   0.416  12.785  0.00  0.00     0.274 HD
ATOM     12  H4  <0> d   1      21.631   1.444  11.762  0.00  0.00     0.274 HD
ENDBRANCH   8   9
ENDBRANCH   7   8
ENDBRANCH   5   7
ENDBRANCH   4   5
ENDBRANCH   3   4
ENDBRANCH   1   3
BRANCH   1  13
ATOM     13  C11 <0> d   1      19.308   0.608   8.430  0.00  0.00     0.299 C 
BRANCH  13  14
ATOM     14  C12 <0> d   1      19.779  -0.480   9.397  0.00  0.00     0.299 C 
BRANCH  14  15
ATOM     15  N13 <0> d   1      19.659  -1.795   8.752  0.00  0.00     0.086 N 
ATOM     16  H34 <0> d   1      19.159  -1.724   7.879  0.00  0.00     0.315 HD
BRANCH  15  17
ATOM     17  C14 <0> d   1      19.018  -2.765   9.649  0.00  0.00     0.296 C 
BRANCH  17  18
ATOM     18  C15 <0> d   1      19.494  -2.525  11.083  0.00  0.00     0.259 C 
BRANCH  18  19
ATOM     19  N16 <0> d   1      20.716  -3.303  11.330  0.00  0.00    -0.078 N 
ATOM     20  H17 <0> d   1      20.882  -3.924  10.552  0.00  0.00     0.274 HD
ATOM     21  H18 <0> d   1      21.499  -2.676  11.433  0.00  0.00     0.274 HD
ATOM     22  H19 <0> d   1      20.605  -3.844  12.174  0.00  0.00     0.274 HD
ENDBRANCH  18  19
ENDBRANCH  17  18
ENDBRANCH  15  17
ENDBRANCH  14  15
ENDBRANCH  13  14
ENDBRANCH   1  13
TORSDOF 12
ENDMDL
MODEL 2
REMARK VINA RESULT:      -4.1      1.829      5.031
REMARK  12 active torsions:
REMARK  status: ('A' for Active; 'I' for Inactive)
REMARK    1  A    between atoms: N1_1  and  C5_5 
REMARK    2  A    between atoms: C5_5  and  C6_6 
REMARK    3  A    between atoms: C6_6  and  N7_7 
REMARK    4  A    between atoms: N7_7  and  C8_8 
REMARK    5  A    between atoms: C8_8  and  C9_9 
REMARK    6  A    between atoms: C9_9  and  N10_10 
REMARK    7  A    between atoms: N10_10  and  C11_11 
REMARK    8  A    between atoms: C11_11  and  C12_12 
REMARK    9  A    between atoms: C12_12  and  N13_13 
REMARK   10  A    between atoms: N13_13  and  C14_14 
REMARK   11  A    between atoms: C14_14  and  C15_15 
REMARK   12  A    between atoms: C15_15  and  N16_16 
ROOT
ATOM      1  N10 <0> d   1      19.515   2.229   9.452  0.00  0.00     0.086 N 
ATOM      2  H29 <0> d   1      20.120   1.887  10.184  0.00  0.00     0.315 HD
ENDROOT
BRANCH   1   3
ATOM      3  C9  <0> d   1      19.506   1.313   8.304  0.00  0.00     0.299 C 
BRANCH   3   4
ATOM      4  C8  <0> d   1      19.522  -0.133   8.806  0.00  0.00     0.299 C 
BRANCH   4   5
ATOM      5  N7  <0> d   1      20.666  -0.326   9.707  0.00  0.00     0.086 N 
ATOM      6  H24 <0> d   1      21.114   0.553   9.916  0.00  0.00     0.315 HD
BRANCH   5   7
ATOM      7  C6  <0> d   1      20.254  -1.014  10.938  0.00  0.00     0.296 C 
BRANCH   7   8
ATOM      8  C5  <0> d   1      20.259  -0.020  12.102  0.00  0.00     0.259 C 
BRANCH   8   9
ATOM      9  N1  <0> d   1      21.555   0.668  12.153  0.00  0.00    -0.078 N 
ATOM     10  H2  <0> d   1      22.254   0.043  12.529  0.00  0.00     0.274 HD
ATOM     11  H3  <0> d   1      21.482   1.483  12.744  0.00  0.00     0.274 HD
ATOM     12  H4  <0> d   1      21.824   0.950  11.222  0.00  0.00     0.274 HD
ENDBRANCH   8   9
ENDBRANCH   7   8
ENDBRANCH   5   7
ENDBRANCH   4   5
ENDBRANCH   3   4
ENDBRANCH   1   3
BRANCH   1  13
ATOM     13  C11 <0> d   1      18.154   2.455   9.957  0.00  0.00     0.299 C 
BRANCH  13  14
ATOM     14  C12 <0> d   1      18.145   3.681  10.871  0.00  0.00     0.299 C 
BRANCH  14  15
ATOM     15  N13 <0> d   1      18.952   3.408  12.068  0.00  0.00     0.086 N 
ATOM     16  H34 <0> d   1      18.373   3.087  12.828  0.00  0.00     0.315 HD
BRANCH  15  17
ATOM     17  C14 <0> d   1      19.730   4.590  12.460  0.00  0.00     0.296 C 
BRANCH  17  18
ATOM     18  C15 <0> d   1      19.391   4.968  13.903  0.00  0.00     0.259 C 
BRANCH  18  19
ATOM     19  N16 <0> d   1      20.596   5.472  14.574  0.00  0.00    -0.078 N 
ATOM     20  H17 <0> d   1      20.870   4.829  15.303  0.00  0.00     0.274 HD
ATOM     21  H18 <0> d   1      21.344   5.558  13.903  0.00  0.00     0.274 HD
ATOM     22  H19 <0> d   1      20.403   6.375  14.979  0.00  0.00     0.274 HD
ENDBRANCH  18  19
ENDBRANCH  17  18
ENDBRANCH  15  17
ENDBRANCH  14  15
ENDBRANCH  13  14
ENDBRANCH   1  13
TORSDOF 12
ENDMDL
MODEL 3
REMARK VINA RESULT:      -4.1      2.734      4.606
REMARK  12 active torsions:
REMARK  status: ('A' for Active; 'I' for Inactive)
REMARK    1  A    between atoms: N1_1  and  C5_5 
REMARK    2  A    between atoms: C5_5  and  C6_6 
REMARK    3  A    between atoms: C6_6  and  N7_7 
REMARK    4  A    between atoms: N7_7  and  C8_8 
REMARK    5  A    between atoms: C8_8  and  C9_9 
REMARK    6  A    between atoms: C9_9  and  N10_10 
REMARK    7  A    between atoms: N10_10  and  C11_11 
REMARK    8  A    between atoms: C11_11  and  C12_12 
REMARK    9  A    between atoms: C12_12  and  N13_13 
REMARK   10  A    between atoms: N13_13  and  C14_14 
REMARK   11  A    between atoms: C14_14  and  C15_15 
REMARK   12  A    between atoms: C15_15  and  N16_16 
ROOT
ATOM      1  N10 <0> d   1      17.613   0.747  15.671  0.00  0.00     0.086 N 
ATOM      2  H29 <0> d   1      17.259   0.285  16.496  0.00  0.00     0.315 HD
ENDROOT
BRANCH   1   3
ATOM      3  C9  <0> d   1      18.815   1.532  15.981  0.00  0.00     0.299 C 
BRANCH   3   4
ATOM      4  C8  <0> d   1      18.691   2.924  15.357  0.00  0.00     0.299 C 
BRANCH   4   5
ATOM      5  N7  <0> d   1      19.369   2.938  14.054  0.00  0.00     0.086 N 
ATOM      6  H24 <0> d   1      19.872   2.078  13.899  0.00  0.00     0.315 HD
BRANCH   5   7
ATOM      7  C6  <0> d   1      18.414   3.194  12.968  0.00  0.00     0.296 C 
BRANCH   7   8
ATOM      8  C5  <0> d   1      19.145   3.842  11.789  0.00  0.00     0.259 C 
BRANCH   8   9
ATOM      9  N1  <0> d   1      20.588   3.858  12.058  0.00  0.00    -0.078 N 
ATOM     10  H2  <0> d   1      21.086   3.525  11.245  0.00  0.00     0.274 HD
ATOM     11  H3  <0> d   1      20.791   3.259  12.844  0.00  0.00     0.274 HD
ATOM     12  H4  <0> d   1      20.882   4.800  12.268  0.00  0.00     0.274 HD
ENDBRANCH   8   9
ENDBRANCH   7   8
ENDBRANCH   5   7
ENDBRANCH   4   5
ENDBRANCH   3   4
ENDBRANCH   1   3
BRANCH   1  13
ATOM     13  C11 <0> d   1      17.878  -0.221  14.599  0.00  0.00     0.299 C 
BRANCH  13  14
ATOM     14  C12 <0> d   1      19.194  -0.948  14.881  0.00  0.00     0.299 C 
BRANCH  14  15
ATOM     15  N13 <0> d   1      20.052  -0.889  13.690  0.00  0.00     0.086 N 
ATOM     16  H34 <0> d   1      20.866  -0.318  13.860  0.00  0.00     0.315 HD
BRANCH  15  17
ATOM     17  C14 <0> d   1      19.302  -0.404  12.524  0.00  0.00     0.296 C 
BRANCH  17  18
ATOM     18  C15 <0> d   1      20.274   0.197  11.507  0.00  0.00     0.259 C 
BRANCH  18  19
ATOM     19  N16 <0> d   1      21.535   0.540  12.177  0.00  0.00    -0.078 N 
ATOM     20  H17 <0> d   1      21.379   1.305  12.818  0.00  0.00     0.274 HD
ATOM     21  H18 <0> d   1      21.874  -0.261  12.688  0.00  0.00     0.274 HD
ATOM     22  H19 <0> d   1      22.219   0.814  11.488  0.00  0.00     0.274 HD
ENDBRANCH  18  19
ENDBRANCH  17  18
ENDBRANCH  15  17
ENDBRANCH  14  15
ENDBRANCH  13  14
ENDBRANCH   1  13
TORSDOF 12
ENDMDL
MODEL 4
REMARK VINA RESULT:      -4.0      1.632      1.857
REMARK  12 active torsions:
REMARK  status: ('A' for Active; 'I' for Inactive)
REMARK    1  A    between atoms: N1_1  and  C5_5 
REMARK    2  A    between atoms: C5_5  and  C6_6 
REMARK    3  A    between atoms: C6_6  and  N7_7 
REMARK    4  A    between atoms: N7_7  and  C8_8 
REMARK    5  A    between atoms: C8_8  and  C9_9 
REMARK    6  A    between atoms: C9_9  and  N10_10 
REMARK    7  A    between atoms: N10_10  and  C11_11 
REMARK    8  A    between atoms: C11_11  and  C12_12 
REMARK    9  A    between atoms: C12_12  and  N13_13 
REMARK   10  A    between atoms: N13_13  and  C14_14 
REMARK   11  A    between atoms: C14_14  and  C15_15 
REMARK   12  A    between atoms: C15_15  and  N16_16 
ROOT
ATOM      1  N10 <0> d   1      18.646   0.013   9.387  0.00  0.00     0.086 N 
ATOM      2  H29 <0> d   1      18.587  -0.673   8.648  0.00  0.00     0.315 HD
ENDROOT
BRANCH   1   3
ATOM      3  C9  <0> d   1      19.248   1.261   8.900  0.00  0.00     0.299 C 
BRANCH   3   4
ATOM      4  C8  <0> d   1      18.984   2.383   9.907  0.00  0.00     0.299 C 
BRANCH   4   5
ATOM      5  N7  <0> d   1      20.090   2.444  10.871  0.00  0.00     0.086 N 
ATOM      6  H24 <0> d   1      20.527   3.353  10.863  0.00  0.00     0.315 HD
BRANCH   5   7
ATOM      7  C6  <0> d   1      19.630   2.093  12.221  0.00  0.00     0.296 C 
BRANCH   7   8
ATOM      8  C5  <0> d   1      20.195   0.725  12.612  0.00  0.00     0.259 C 
BRANCH   8   9
ATOM      9  N1  <0> d   1      21.574   0.607  12.121  0.00  0.00    -0.078 N 
ATOM     10  H2  <0> d   1      21.702   1.214  11.325  0.00  0.00     0.274 HD
ATOM     11  H3  <0> d   1      21.754  -0.348  11.848  0.00  0.00     0.274 HD
ATOM     12  H4  <0> d   1      22.216   0.874  12.853  0.00  0.00     0.274 HD
ENDBRANCH   8   9
ENDBRANCH   7   8
ENDBRANCH   5   7
ENDBRANCH   4   5
ENDBRANCH   3   4
ENDBRANCH   1   3
BRANCH   1  13
ATOM     13  C11 <0> d   1      17.325   0.262   9.979  0.00  0.00     0.299 C 
BRANCH  13  14
ATOM     14  C12 <0> d   1      17.121  -0.666  11.178  0.00  0.00     0.299 C 
BRANCH  14  15
ATOM     15  N13 <0> d   1      17.757  -1.963  10.909  0.00  0.00     0.086 N 
ATOM     16  H34 <0> d   1      17.091  -2.621  10.533  0.00  0.00     0.315 HD
BRANCH  15  17
ATOM     17  C14 <0> d   1      18.398  -2.496  12.118  0.00  0.00     0.296 C 
BRANCH  17  18
ATOM     18  C15 <0> d   1      19.485  -3.496  11.719  0.00  0.00     0.259 C 
BRANCH  18  19
ATOM     19  N16 <0> d   1      20.697  -2.769  11.319  0.00  0.00    -0.078 N 
ATOM     20  H17 <0> d   1      20.950  -3.030  10.377  0.00  0.00     0.274 HD
ATOM     21  H18 <0> d   1      20.522  -1.776  11.357  0.00  0.00     0.274 HD
ATOM     22  H19 <0> d   1      21.452  -3.002  11.947  0.00  0.00     0.274 HD
ENDBRANCH  18  19
ENDBRANCH  17  18
ENDBRANCH  15  17
ENDBRANCH  14  15
ENDBRANCH  13  14
ENDBRANCH   1  13
TORSDOF 12
ENDMDL
MODEL 5
REMARK VINA RESULT:      -4.0      1.702      4.964
REMARK  12 active torsions:
REMARK  status: ('A' for Active; 'I' for Inactive)
REMARK    1  A    between atoms: N1_1  and  C5_5 
REMARK    2  A    between atoms: C5_5  and  C6_6 
REMARK    3  A    between atoms: C6_6  and  N7_7 
REMARK    4  A    between atoms: N7_7  and  C8_8 
REMARK    5  A    between atoms: C8_8  and  C9_9 
REMARK    6  A    between atoms: C9_9  and  N10_10 
REMARK    7  A    between atoms: N10_10  and  C11_11 
REMARK    8  A    between atoms: C11_11  and  C12_12 
REMARK    9  A    between atoms: C12_12  and  N13_13 
REMARK   10  A    between atoms: N13_13  and  C14_14 
REMARK   11  A    between atoms: C14_14  and  C15_15 
REMARK   12  A    between atoms: C15_15  and  N16_16 
ROOT
ATOM      1  N10 <0> d   1      19.658   0.198   8.621  0.00  0.00     0.086 N 
ATOM      2  H29 <0> d   1      20.173   0.096   9.483  0.00  0.00     0.315 HD
ENDROOT
BRANCH   1   3
ATOM      3  C9  <0> d   1      18.452  -0.641   8.625  0.00  0.00     0.299 C 
BRANCH   3   4
ATOM      4  C8  <0> d   1      18.649  -1.813   9.589  0.00  0.00     0.299 C 
BRANCH   4   5
ATOM      5  N7  <0> d   1      19.510  -2.824   8.960  0.00  0.00     0.086 N 
ATOM      6  H24 <0> d   1      19.816  -3.508   9.635  0.00  0.00     0.315 HD
BRANCH   5   7
ATOM      7  C6  <0> d   1      18.825  -3.467   7.830  0.00  0.00     0.296 C 
BRANCH   7   8
ATOM      8  C5  <0> d   1      19.800  -3.611   6.659  0.00  0.00     0.259 C 
BRANCH   8   9
ATOM      9  N1  <0> d   1      20.874  -4.541   7.028  0.00  0.00    -0.078 N 
ATOM     10  H2  <0> d   1      21.759  -4.055   7.023  0.00  0.00     0.274 HD
ATOM     11  H3  <0> d   1      20.905  -5.301   6.364  0.00  0.00     0.274 HD
ATOM     12  H4  <0> d   1      20.699  -4.910   7.951  0.00  0.00     0.274 HD
ENDBRANCH   8   9
ENDBRANCH   7   8
ENDBRANCH   5   7
ENDBRANCH   4   5
ENDBRANCH   3   4
ENDBRANCH   1   3
BRANCH   1  13
ATOM     13  C11 <0> d   1      19.320   1.606   8.374  0.00  0.00     0.299 C 
BRANCH  13  14
ATOM     14  C12 <0> d   1      18.934   2.278   9.692  0.00  0.00     0.299 C 
BRANCH  14  15
ATOM     15  N13 <0> d   1      19.940   1.965  10.716  0.00  0.00     0.086 N 
ATOM     16  H34 <0> d   1      20.605   1.288  10.374  0.00  0.00     0.315 HD
BRANCH  15  17
ATOM     17  C14 <0> d   1      19.305   1.501  11.956  0.00  0.00     0.296 C 
BRANCH  17  18
ATOM     18  C15 <0> d   1      20.211   0.476  12.640  0.00  0.00     0.259 C 
BRANCH  18  19
ATOM     19  N16 <0> d   1      21.571   0.584  12.097  0.00  0.00    -0.078 N 
ATOM     20  H17 <0> d   1      21.825  -0.285  11.651  0.00  0.00     0.274 HD
ATOM     21  H18 <0> d   1      21.604   1.331  11.419  0.00  0.00     0.274 HD
ATOM     22  H19 <0> d   1      22.218   0.780  12.845  0.00  0.00     0.274 HD
ENDBRANCH  18  19
ENDBRANCH  17  18
ENDBRANCH  15  17
ENDBRANCH  14  15
ENDBRANCH  13  14
ENDBRANCH   1  13
TORSDOF 12
ENDMDL
MODEL 6
REMARK VINA RESULT:      -4.0      1.761      2.719
REMARK  12 active torsions:
REMARK  status: ('A' for Active; 'I' for Inactive)
REMARK    1  A    between atoms: N1_1  and  C5_5 
REMARK    2  A    between atoms: C5_5  and  C6_6 
REMARK    3  A    between atoms: C6_6  and  N7_7 
REMARK    4  A    between atoms: N7_7  and  C8_8 
REMARK    5  A    between atoms: C8_8  and  C9_9 
REMARK    6  A    between atoms: C9_9  and  N10_10 
REMARK    7  A    between atoms: N10_10  and  C11_11 
REMARK    8  A    between atoms: C11_11  and  C12_12 
REMARK    9  A    between atoms: C12_12  and  N13_13 
REMARK   10  A    between atoms: N13_13  and  C14_14 
REMARK   11  A    between atoms: C14_14  and  C15_15 
REMARK   12  A    between atoms: C15_15  and  N16_16 
ROOT
ATOM      1  N10 <0> d   1      19.562   1.903   9.101  0.00  0.00     0.086 N 
ATOM      2  H29 <0> d   1      20.123   2.149   8.299  0.00  0.00     0.315 HD
ENDROOT
BRANCH   1   3
ATOM      3  C9  <0> d   1      18.683   3.015   9.490  0.00  0.00     0.299 C 
BRANCH   3   4
ATOM      4  C8  <0> d   1      18.925   3.365  10.960  0.00  0.00     0.299 C 
BRANCH   4   5
ATOM      5  N7  <0> d   1      18.114   4.535  11.323  0.00  0.00     0.086 N 
ATOM      6  H24 <0> d   1      17.225   4.522  10.847  0.00  0.00     0.315 HD
BRANCH   5   7
ATOM      7  C6  <0> d   1      17.931   4.617  12.778  0.00  0.00     0.296 C 
BRANCH   7   8
ATOM      8  C5  <0> d   1      19.300   4.663  13.462  0.00  0.00     0.259 C 
BRANCH   8   9
ATOM      9  N1  <0> d   1      19.352   3.650  14.523  0.00  0.00    -0.078 N 
ATOM     10  H2  <0> d   1      20.052   2.959  14.296  0.00  0.00     0.274 HD
ATOM     11  H3  <0> d   1      18.451   3.201  14.604  0.00  0.00     0.274 HD
ATOM     12  H4  <0> d   1      19.588   4.091  15.399  0.00  0.00     0.274 HD
ENDBRANCH   8   9
ENDBRANCH   7   8
ENDBRANCH   5   7
ENDBRANCH   4   5
ENDBRANCH   3   4
ENDBRANCH   1   3
BRANCH   1  13
ATOM     13  C11 <0> d   1      18.786   0.683   8.845  0.00  0.00     0.299 C 
BRANCH  13  14
ATOM     14  C12 <0> d   1      19.735  -0.511   8.731  0.00  0.00     0.299 C 
BRANCH  14  15
ATOM     15  N13 <0> d   1      20.735  -0.448   9.805  0.00  0.00     0.086 N 
ATOM     16  H34 <0> d   1      21.594  -0.896   9.527  0.00  0.00     0.315 HD
BRANCH  15  17
ATOM     17  C14 <0> d   1      20.212  -1.035  11.046  0.00  0.00     0.296 C 
BRANCH  17  18
ATOM     18  C15 <0> d   1      20.247   0.014  12.160  0.00  0.00     0.259 C 
BRANCH  18  19
ATOM     19  N16 <0> d   1      21.560   0.671  12.174  0.00  0.00    -0.078 N 
ATOM     20  H17 <0> d   1      21.436   1.673  12.147  0.00  0.00     0.274 HD
ATOM     21  H18 <0> d   1      22.055   0.417  13.015  0.00  0.00     0.274 HD
ATOM     22  H19 <0> d   1      22.092   0.377  11.369  0.00  0.00     0.274 HD
ENDBRANCH  18  19
ENDBRANCH  17  18
ENDBRANCH  15  17
ENDBRANCH  14  15
ENDBRANCH  13  14
ENDBRANCH   1  13
TORSDOF 12
ENDMDL
MODEL 7
REMARK VINA RESULT:      -4.0      2.109      5.598
REMARK  12 active torsions:
REMARK  status: ('A' for Active; 'I' for Inactive)
REMARK    1  A    between atoms: N1_1  and  C5_5 
REMARK    2  A    between atoms: C5_5  and  C6_6 
REMARK    3  A    between atoms: C6_6  and  N7_7 
REMARK    4  A    between atoms: N7_7  and  C8_8 
REMARK    5  A    between atoms: C8_8  and  C9_9 
REMARK    6  A    between atoms: C9_9  and  N10_10 
REMARK    7  A    between atoms: N10_10  and  C11_11 
REMARK    8  A    between atoms: C11_11  and  C12_12 
REMARK    9  A    between atoms: C12_12  and  N13_13 
REMARK   10  A    between atoms: N13_13  and  C14_14 
REMARK   11  A    between atoms: C14_14  and  C15_15 
REMARK   12  A    between atoms: C15_15  and  N16_16 
ROOT
ATOM      1  N10 <0> d   1      19.765  -2.531  10.481  0.00  0.00     0.086 N 
ATOM      2  H29 <0> d   1      19.971  -3.260   9.814  0.00  0.00     0.315 HD
ENDROOT
BRANCH   1   3
ATOM      3  C9  <0> d   1      18.461  -1.914  10.201  0.00  0.00     0.299 C 
BRANCH   3   4
ATOM      4  C8  <0> d   1      18.407  -1.477   8.736  0.00  0.00     0.299 C 
BRANCH   4   5
ATOM      5  N7  <0> d   1      19.634  -1.907   8.052  0.00  0.00     0.086 N 
ATOM      6  H24 <0> d   1      20.161  -2.549   8.623  0.00  0.00     0.315 HD
BRANCH   5   7
ATOM      7  C6  <0> d   1      19.325  -2.499   6.743  0.00  0.00     0.296 C 
BRANCH   7   8
ATOM      8  C5  <0> d   1      19.881  -3.924   6.684  0.00  0.00     0.259 C 
BRANCH   8   9
ATOM      9  N1  <0> d   1      19.071  -4.727   5.759  0.00  0.00    -0.078 N 
ATOM     10  H2  <0> d   1      18.521  -4.115   5.175  0.00  0.00     0.274 HD
ATOM     11  H3  <0> d   1      18.457  -5.331   6.286  0.00  0.00     0.274 HD
ATOM     12  H4  <0> d   1      19.678  -5.288   5.180  0.00  0.00     0.274 HD
ENDBRANCH   8   9
ENDBRANCH   7   8
ENDBRANCH   5   7
ENDBRANCH   4   5
ENDBRANCH   3   4
ENDBRANCH   1   3
BRANCH   1  13
ATOM     13  C11 <0> d   1      19.821  -3.044  11.855  0.00  0.00     0.299 C 
BRANCH  13  14
ATOM     14  C12 <0> d   1      19.059  -2.099  12.786  0.00  0.00     0.299 C 
BRANCH  14  15
ATOM     15  N13 <0> d   1      20.014  -1.264  13.526  0.00  0.00     0.086 N 
ATOM     16  H34 <0> d   1      20.130  -1.598  14.471  0.00  0.00     0.315 HD
BRANCH  15  17
ATOM     17  C14 <0> d   1      19.602   0.146  13.513  0.00  0.00     0.296 C 
BRANCH  17  18
ATOM     18  C15 <0> d   1      20.133   0.821  12.247  0.00  0.00     0.259 C 
BRANCH  18  19
ATOM     19  N16 <0> d   1      21.571   0.549  12.114  0.00  0.00    -0.078 N 
ATOM     20  H17 <0> d   1      22.005   0.580  13.025  0.00  0.00     0.274 HD
ATOM     21  H18 <0> d   1      21.704  -0.366  11.710  0.00  0.00     0.274 HD
ATOM     22  H19 <0> d   1      21.991   1.244  11.517  0.00  0.00     0.274 HD
ENDBRANCH  18  19
ENDBRANCH  17  18
ENDBRANCH  15  17
ENDBRANCH  14  15
ENDBRANCH  13  14
ENDBRANCH   1  13
TORSDOF 12
ENDMDL
MODEL 8
REMARK VINA RESULT:      -3.9      2.725      5.005
REMARK  12 active torsions:
REMARK  status: ('A' for Active; 'I' for Inactive)
REMARK    1  A    between atoms: N1_1  and  C5_5 
REMARK    2  A    between atoms: C5_5  and  C6_6 
REMARK    3  A    between atoms: C6_6  and  N7_7 
REMARK    4  A    between atoms: N7_7  and  C8_8 
REMARK    5  A    between atoms: C8_8  and  C9_9 
REMARK    6  A    between atoms: C9_9  and  N10_10 
REMARK    7  A    between atoms: N10_10  and  C11_11 
REMARK    8  A    between atoms: C11_11  and  C12_12 
REMARK    9  A    between atoms: C12_12  and  N13_13 
REMARK   10  A    between atoms: N13_13  and  C14_14 
REMARK   11  A    between atoms: C14_14  and  C15_15 
REMARK   12  A    between atoms: C15_15  and  N16_16 
ROOT
ATOM      1  N10 <0> d   1      19.680  -1.514   8.578  0.00  0.00     0.086 N 
ATOM      2  H29 <0> d   1      20.164  -2.343   8.893  0.00  0.00     0.315 HD
ENDROOT
BRANCH   1   3
ATOM      3  C9  <0> d   1      18.246  -1.776   8.404  0.00  0.00     0.299 C 
BRANCH   3   4
ATOM      4  C8  <0> d   1      17.560  -0.520   7.861  0.00  0.00     0.299 C 
BRANCH   4   5
ATOM      5  N7  <0> d   1      17.354  -0.662   6.414  0.00  0.00     0.086 N 
ATOM      6  H24 <0> d   1      16.377  -0.576   6.177  0.00  0.00     0.315 HD
BRANCH   5   7
ATOM      7  C6  <0> d   1      18.163   0.313   5.670  0.00  0.00     0.296 C 
BRANCH   7   8
ATOM      8  C5  <0> d   1      19.343  -0.404   5.008  0.00  0.00     0.259 C 
BRANCH   8   9
ATOM      9  N1  <0> d   1      18.843  -1.523   4.200  0.00  0.00    -0.078 N 
ATOM     10  H2  <0> d   1      19.585  -1.871   3.610  0.00  0.00     0.274 HD
ATOM     11  H3  <0> d   1      18.076  -1.208   3.625  0.00  0.00     0.274 HD
ATOM     12  H4  <0> d   1      18.525  -2.262   4.809  0.00  0.00     0.274 HD
ENDBRANCH   8   9
ENDBRANCH   7   8
ENDBRANCH   5   7
ENDBRANCH   4   5
ENDBRANCH   3   4
ENDBRANCH   1   3
BRANCH   1  13
ATOM     13  C11 <0> d   1      19.903  -0.394   9.501  0.00  0.00     0.299 C 
BRANCH  13  14
ATOM     14  C12 <0> d   1      19.905  -0.910  10.941  0.00  0.00     0.299 C 
BRANCH  14  15
ATOM     15  N13 <0> d   1      20.554  -2.227  10.989  0.00  0.00     0.086 N 
ATOM     16  H34 <0> d   1      20.641  -2.621  10.065  0.00  0.00     0.315 HD
BRANCH  15  17
ATOM     17  C14 <0> d   1      19.829  -3.139  11.884  0.00  0.00     0.296 C 
BRANCH  17  18
ATOM     18  C15 <0> d   1      19.227  -4.283  11.066  0.00  0.00     0.259 C 
BRANCH  18  19
ATOM     19  N16 <0> d   1      20.151  -4.653   9.986  0.00  0.00    -0.078 N 
ATOM     20  H17 <0> d   1      19.700  -4.510   9.094  0.00  0.00     0.274 HD
ATOM     21  H18 <0> d   1      20.978  -4.079  10.040  0.00  0.00     0.274 HD
ATOM     22  H19 <0> d   1      20.408  -5.624  10.080  0.00  0.00     0.274 HD
ENDBRANCH  18  19
ENDBRANCH  17  18
ENDBRANCH  15  17
ENDBRANCH  14  15
ENDBRANCH  13  14
ENDBRANCH   1  13
TORSDOF 12
ENDMDL
MODEL 9
REMARK VINA RESULT:      -3.9      3.075      5.186
REMARK  12 active torsions:
REMARK  status: ('A' for Active; 'I' for Inactive)
REMARK    1  A    between atoms: N1_1  and  C5_5 
REMARK    2  A    between atoms: C5_5  and  C6_6 
REMARK    3  A    between atoms: C6_6  and  N7_7 
REMARK    4  A    between atoms: N7_7  and  C8_8 
REMARK    5  A    between atoms: C8_8  and  C9_9 
REMARK    6  A    between atoms: C9_9  and  N10_10 
REMARK    7  A    between atoms: N10_10  and  C11_11 
REMARK    8  A    between atoms: C11_11  and  C12_12 
REMARK    9  A    between atoms: C12_12  and  N13_13 
REMARK   10  A    between atoms: N13_13  and  C14_14 
REMARK   11  A    between atoms: C14_14  and  C15_15 
REMARK   12  A    between atoms: C15_15  and  N16_16 
ROOT
ATOM      1  N10 <0> d   1      19.739   2.225  12.616  0.00  0.00     0.086 N 
ATOM      2  H29 <0> d   1      20.180   1.320  12.545  0.00  0.00     0.315 HD
ENDROOT
BRANCH   1   3
ATOM      3  C9  <0> d   1      19.827   2.955  11.344  0.00  0.00     0.299 C 
BRANCH   3   4
ATOM      4  C8  <0> d   1      19.100   2.167  10.252  0.00  0.00     0.299 C 
BRANCH   4   5
ATOM      5  N7  <0> d   1      19.998   1.139   9.710  0.00  0.00     0.086 N 
ATOM      6  H24 <0> d   1      20.903   1.180  10.152  0.00  0.00     0.315 HD
BRANCH   5   7
ATOM      7  C6  <0> d   1      19.406  -0.199   9.843  0.00  0.00     0.296 C 
BRANCH   7   8
ATOM      8  C5  <0> d   1      20.155  -0.981  10.924  0.00  0.00     0.259 C 
BRANCH   8   9
ATOM      9  N1  <0> d   1      21.563  -0.563  10.944  0.00  0.00    -0.078 N 
ATOM     10  H2  <0> d   1      21.637   0.349  11.368  0.00  0.00     0.274 HD
ATOM     11  H3  <0> d   1      21.916  -0.525  10.000  0.00  0.00     0.274 HD
ATOM     12  H4  <0> d   1      22.104  -1.227  11.479  0.00  0.00     0.274 HD
ENDBRANCH   8   9
ENDBRANCH   7   8
ENDBRANCH   5   7
ENDBRANCH   4   5
ENDBRANCH   3   4
ENDBRANCH   1   3
BRANCH   1  13
ATOM     13  C11 <0> d   1      18.344   2.098  13.055  0.00  0.00     0.299 C 
BRANCH  13  14
ATOM     14  C12 <0> d   1      18.200   2.663  14.469  0.00  0.00     0.299 C 
BRANCH  14  15
ATOM     15  N13 <0> d   1      17.675   1.621  15.362  0.00  0.00     0.086 N 
ATOM     16  H34 <0> d   1      16.752   1.857  15.691  0.00  0.00     0.315 HD
BRANCH  15  17
ATOM     17  C14 <0> d   1      18.589   1.383  16.487  0.00  0.00     0.296 C 
BRANCH  17  18
ATOM     18  C15 <0> d   1      17.847   0.637  17.598  0.00  0.00     0.259 C 
BRANCH  18  19
ATOM     19  N16 <0> d   1      16.563   0.142  17.083  0.00  0.00    -0.078 N 
ATOM     20  H17 <0> d   1      16.552   0.221  16.076  0.00  0.00     0.274 HD
ATOM     21  H18 <0> d   1      16.446  -0.825  17.345  0.00  0.00     0.274 HD
ATOM     22  H19 <0> d   1      15.811   0.690  17.472  0.00  0.00     0.274 HD
ENDBRANCH  18  19
ENDBRANCH  17  18
ENDBRANCH  15  17
ENDBRANCH  14  15
ENDBRANCH  13  14
ENDBRANCH   1  13
TORSDOF 12
ENDMDL
