MODEL 1
REMARK VINA RESULT:      -7.1      0.000      0.000
REMARK  5 active torsions:
REMARK  status: ('A' for Active; 'I' for Inactive)
REMARK    1  A    between atoms: C2_2  and  C3_3 
REMARK    2  A    between atoms: C3_3  and  C4_4 
REMARK    3  A    between atoms: C4_4  and  N5_5 
REMARK    4  A    between atoms: C10_10  and  C12_11 
REMARK       I    between atoms: C12_11  and  N14_13 
REMARK    5  A    between atoms: N14_13  and  C15_14 
ROOT
ATOM      1  C12 ZIN A   1      18.675  -1.431   8.715  0.00  0.00     0.255 C 
ATOM      2  O13 ZIN A   1      19.727  -1.214   9.278  0.00  0.00    -0.271 OA
ATOM      3  N14 ZIN A   1      17.691  -0.511   8.747  0.00  0.00    -0.324 N 
ATOM      4  H40 ZIN A   1      16.832  -0.705   8.341  0.00  0.00     0.169 HD
ENDROOT
BRANCH   1   5
ATOM      5  C10 ZIN A   1      18.468  -2.731   7.980  0.00  0.00     0.314 C 
ATOM      6  N5  ZIN A   1      18.619  -3.853   8.915  0.00  0.00     0.102 N 
ATOM      7  C6  ZIN A   1      18.385  -5.138   8.245  0.00  0.00     0.273 C 
ATOM      8  C7  ZIN A   1      19.418  -5.333   7.135  0.00  0.00     0.030 C 
ATOM      9  C8  ZIN A   1      19.304  -4.184   6.130  0.00  0.00     0.004 C 
ATOM     10  C9  ZIN A   1      19.505  -2.855   6.860  0.00  0.00     0.046 C 
BRANCH   6  11
ATOM     11  C4  ZIN A   1      17.733  -3.693  10.075  0.00  0.00     0.273 C 
BRANCH  11  12
ATOM     12  C3  ZIN A   1      18.339  -4.411  11.283  0.00  0.00     0.030 C 
BRANCH  12  13
ATOM     13  C2  ZIN A   1      19.679  -3.763  11.641  0.00  0.00    -0.003 C 
ATOM     14  C1  ZIN A   1      19.430  -2.507  12.479  0.00  0.00     0.005 C 
ENDBRANCH  12  13
ENDBRANCH  11  12
ENDBRANCH   6  11
ENDBRANCH   1   5
BRANCH   3  15
ATOM     15  C15 ZIN A   1      17.909   0.724   9.368  0.00  0.00     0.046 A 
ATOM     16  C21 ZIN A   1      17.469   0.936  10.668  0.00  0.00    -0.035 A 
ATOM     17  C20 ZIN A   1      17.691   2.154  11.280  0.00  0.00     0.009 A 
ATOM     18  C22 ZIN A   1      16.762  -0.166  11.415  0.00  0.00     0.050 C 
ATOM     19  C19 ZIN A   1      18.340   3.165  10.596  0.00  0.00     0.001 A 
ATOM     20  C18 ZIN A   1      18.773   2.959   9.299  0.00  0.00     0.009 A 
ATOM     21  C16 ZIN A   1      18.560   1.741   8.684  0.00  0.00    -0.035 A 
ATOM     22  C17 ZIN A   1      19.033   1.517   7.270  0.00  0.00     0.050 C 
ENDBRANCH   3  15
TORSDOF 5
ENDMDL
MODEL 2
REMARK VINA RESULT:      -7.0      3.866      6.041
REMARK  5 active torsions:
REMARK  status: ('A' for Active; 'I' for Inactive)
REMARK    1  A    between atoms: C2_2  and  C3_3 
REMARK    2  A    between atoms: C3_3  and  C4_4 
REMARK    3  A    between atoms: C4_4  and  N5_5 
REMARK    4  A    between atoms: C10_10  and  C12_11 
REMARK       I    between atoms: C12_11  and  N14_13 
REMARK    5  A    between atoms: N14_13  and  C15_14 
ROOT
ATOM      1  C12 ZIN A   1      18.745   1.015  13.447  0.00  0.00     0.255 C 
ATOM      2  O13 ZIN A   1      19.917   0.759  13.628  0.00  0.00    -0.271 OA
ATOM      3  N14 ZIN A   1      17.907   1.112  14.497  0.00  0.00    -0.324 N 
ATOM      4  H40 ZIN A   1      16.961   1.267  14.350  0.00  0.00     0.169 HD
ENDROOT
BRANCH   1   5
ATOM      5  C10 ZIN A   1      18.228   1.227  12.047  0.00  0.00     0.314 C 
ATOM      6  N5  ZIN A   1      18.169  -0.062  11.347  0.00  0.00     0.102 N 
ATOM      7  C6  ZIN A   1      17.630   0.095   9.990  0.00  0.00     0.273 C 
ATOM      8  C7  ZIN A   1      18.549   1.008   9.177  0.00  0.00     0.030 C 
ATOM      9  C8  ZIN A   1      18.647   2.371   9.868  0.00  0.00     0.004 C 
ATOM     10  C9  ZIN A   1      19.165   2.175  11.294  0.00  0.00     0.046 C 
BRANCH   6  11
ATOM     11  C4  ZIN A   1      17.389  -1.042  12.113  0.00  0.00     0.273 C 
BRANCH  11  12
ATOM     12  C3  ZIN A   1      17.948  -2.444  11.868  0.00  0.00     0.030 C 
BRANCH  12  13
ATOM     13  C2  ZIN A   1      19.452  -2.451  12.154  0.00  0.00    -0.003 C 
ATOM     14  C1  ZIN A   1      20.078  -3.715  11.559  0.00  0.00     0.005 C 
ENDBRANCH  12  13
ENDBRANCH  11  12
ENDBRANCH   6  11
ENDBRANCH   1   5
BRANCH   3  15
ATOM     15  C15 ZIN A   1      18.401   0.987  15.801  0.00  0.00     0.046 A 
ATOM     16  C21 ZIN A   1      18.505  -0.267  16.388  0.00  0.00    -0.035 A 
ATOM     17  C20 ZIN A   1      18.999  -0.387  17.672  0.00  0.00     0.009 A 
ATOM     18  C22 ZIN A   1      18.090  -1.496  15.621  0.00  0.00     0.050 C 
ATOM     19  C19 ZIN A   1      19.379   0.740  18.377  0.00  0.00     0.001 A 
ATOM     20  C18 ZIN A   1      19.271   1.991  17.796  0.00  0.00     0.009 A 
ATOM     21  C16 ZIN A   1      18.784   2.117  16.510  0.00  0.00    -0.035 A 
ATOM     22  C17 ZIN A   1      18.667   3.480  15.879  0.00  0.00     0.050 C 
ENDBRANCH   3  15
TORSDOF 5
ENDMDL
MODEL 3
REMARK VINA RESULT:      -7.0      3.813      6.072
REMARK  5 active torsions:
REMARK  status: ('A' for Active; 'I' for Inactive)
REMARK    1  A    between atoms: C2_2  and  C3_3 
REMARK    2  A    between atoms: C3_3  and  C4_4 
REMARK    3  A    between atoms: C4_4  and  N5_5 
REMARK    4  A    between atoms: C10_10  and  C12_11 
REMARK       I    between atoms: C12_11  and  N14_13 
REMARK    5  A    between atoms: N14_13  and  C15_14 
ROOT
ATOM      1  C12 ZIN A   1      18.787   1.028  13.359  0.00  0.00     0.255 C 
ATOM      2  O13 ZIN A   1      19.957   0.770  13.548  0.00  0.00    -0.271 OA
ATOM      3  N14 ZIN A   1      17.942   1.131  14.403  0.00  0.00    -0.324 N 
ATOM      4  H40 ZIN A   1      16.997   1.287  14.249  0.00  0.00     0.169 HD
ENDROOT
BRANCH   1   5
ATOM      5  C10 ZIN A   1      18.279   1.233  11.954  0.00  0.00     0.314 C 
ATOM      6  N5  ZIN A   1      18.192  -0.063  11.270  0.00  0.00     0.102 N 
ATOM      7  C6  ZIN A   1      17.661   0.088   9.910  0.00  0.00     0.273 C 
ATOM      8  C7  ZIN A   1      18.603   0.969   9.089  0.00  0.00     0.030 C 
ATOM      9  C8  ZIN A   1      18.730   2.339   9.762  0.00  0.00     0.004 C 
ATOM     10  C9  ZIN A   1      19.240   2.149  11.193  0.00  0.00     0.046 C 
BRANCH   6  11
ATOM     11  C4  ZIN A   1      17.387  -1.015  12.047  0.00  0.00     0.273 C 
BRANCH  11  12
ATOM     12  C3  ZIN A   1      17.912  -2.433  11.819  0.00  0.00     0.030 C 
BRANCH  12  13
ATOM     13  C2  ZIN A   1      19.415  -2.474  12.111  0.00  0.00    -0.003 C 
ATOM     14  C1  ZIN A   1      20.006  -3.773  11.559  0.00  0.00     0.005 C 
ENDBRANCH  12  13
ENDBRANCH  11  12
ENDBRANCH   6  11
ENDBRANCH   1   5
BRANCH   3  15
ATOM     15  C15 ZIN A   1      18.427   1.013  15.710  0.00  0.00     0.046 A 
ATOM     16  C21 ZIN A   1      18.816   2.145  16.413  0.00  0.00    -0.035 A 
ATOM     17  C20 ZIN A   1      19.289   2.026  17.705  0.00  0.00     0.009 A 
ATOM     18  C22 ZIN A   1      18.712   3.505  15.770  0.00  0.00     0.050 C 
ATOM     19  C19 ZIN A   1      19.386   0.779  18.295  0.00  0.00     0.001 A 
ATOM     20  C18 ZIN A   1      19.005  -0.352  17.595  0.00  0.00     0.009 A 
ATOM     21  C16 ZIN A   1      18.525  -0.238  16.305  0.00  0.00    -0.035 A 
ATOM     22  C17 ZIN A   1      18.110  -1.470  15.544  0.00  0.00     0.050 C 
ENDBRANCH   3  15
TORSDOF 5
ENDMDL
MODEL 4
REMARK VINA RESULT:      -7.0      1.896      5.868
REMARK  5 active torsions:
REMARK  status: ('A' for Active; 'I' for Inactive)
REMARK    1  A    between atoms: C2_2  and  C3_3 
REMARK    2  A    between atoms: C3_3  and  C4_4 
REMARK    3  A    between atoms: C4_4  and  N5_5 
REMARK    4  A    between atoms: C10_10  and  C12_11 
REMARK       I    between atoms: C12_11  and  N14_13 
REMARK    5  A    between atoms: N14_13  and  C15_14 
ROOT
ATOM      1  C12 ZIN A   1      19.330  -0.330   9.749  0.00  0.00     0.255 C 
ATOM      2  O13 ZIN A   1      20.492  -0.429   9.414  0.00  0.00    -0.271 OA
ATOM      3  N14 ZIN A   1      18.355  -0.364   8.820  0.00  0.00    -0.324 N 
ATOM      4  H40 ZIN A   1      17.431  -0.234   9.082  0.00  0.00     0.169 HD
ENDROOT
BRANCH   1   5
ATOM      5  C10 ZIN A   1      18.978  -0.168  11.206  0.00  0.00     0.314 C 
ATOM      6  N5  ZIN A   1      19.687   0.994  11.756  0.00  0.00     0.102 N 
ATOM      7  C6  ZIN A   1      19.339   1.212  13.165  0.00  0.00     0.273 C 
ATOM      8  C7  ZIN A   1      19.760  -0.006  13.989  0.00  0.00     0.030 C 
ATOM      9  C8  ZIN A   1      19.047  -1.250  13.454  0.00  0.00     0.004 C 
ATOM     10  C9  ZIN A   1      19.389  -1.427  11.973  0.00  0.00     0.046 C 
BRANCH   6  11
ATOM     11  C4  ZIN A   1      19.423   2.198  10.956  0.00  0.00     0.273 C 
BRANCH  11  12
ATOM     12  C3  ZIN A   1      17.984   2.661  11.191  0.00  0.00     0.030 C 
BRANCH  12  13
ATOM     13  C2  ZIN A   1      17.705   3.906  10.345  0.00  0.00    -0.003 C 
ATOM     14  C1  ZIN A   1      16.822   4.873  11.138  0.00  0.00     0.005 C 
ENDBRANCH  12  13
ENDBRANCH  11  12
ENDBRANCH   6  11
ENDBRANCH   1   5
BRANCH   3  15
ATOM     15  C15 ZIN A   1      18.677  -0.586   7.476  0.00  0.00     0.046 A 
ATOM     16  C21 ZIN A   1      18.936   0.488   6.636  0.00  0.00    -0.035 A 
ATOM     17  C20 ZIN A   1      19.260   0.265   5.312  0.00  0.00     0.009 A 
ATOM     18  C22 ZIN A   1      18.875   1.896   7.171  0.00  0.00     0.050 C 
ATOM     19  C19 ZIN A   1      19.316  -1.026   4.820  0.00  0.00     0.001 A 
ATOM     20  C18 ZIN A   1      19.052  -2.098   5.654  0.00  0.00     0.009 A 
ATOM     21  C16 ZIN A   1      18.734  -1.881   6.980  0.00  0.00    -0.035 A 
ATOM     22  C17 ZIN A   1      18.448  -3.051   7.887  0.00  0.00     0.050 C 
ENDBRANCH   3  15
TORSDOF 5
ENDMDL
MODEL 5
REMARK VINA RESULT:      -7.0      1.904      5.605
REMARK  5 active torsions:
REMARK  status: ('A' for Active; 'I' for Inactive)
REMARK    1  A    between atoms: C2_2  and  C3_3 
REMARK    2  A    between atoms: C3_3  and  C4_4 
REMARK    3  A    between atoms: C4_4  and  N5_5 
REMARK    4  A    between atoms: C10_10  and  C12_11 
REMARK       I    between atoms: C12_11  and  N14_13 
REMARK    5  A    between atoms: N14_13  and  C15_14 
ROOT
ATOM      1  C12 ZIN A   1      19.311  -0.349   9.892  0.00  0.00     0.255 C 
ATOM      2  O13 ZIN A   1      20.478  -0.428   9.571  0.00  0.00    -0.271 OA
ATOM      3  N14 ZIN A   1      18.353  -0.310   8.945  0.00  0.00    -0.324 N 
ATOM      4  H40 ZIN A   1      17.424  -0.197   9.200  0.00  0.00     0.169 HD
ENDROOT
BRANCH   1   5
ATOM      5  C10 ZIN A   1      18.933  -0.294  11.350  0.00  0.00     0.314 C 
ATOM      6  N5  ZIN A   1      19.710   0.757  12.019  0.00  0.00     0.102 N 
ATOM      7  C6  ZIN A   1      19.341   0.870  13.435  0.00  0.00     0.273 C 
ATOM      8  C7  ZIN A   1      19.651  -0.445  14.151  0.00  0.00     0.030 C 
ATOM      9  C8  ZIN A   1      18.864  -1.579  13.489  0.00  0.00     0.004 C 
ATOM     10  C9  ZIN A   1      19.231  -1.646  12.005  0.00  0.00     0.046 C 
BRANCH   6  11
ATOM     11  C4  ZIN A   1      19.555   2.044  11.329  0.00  0.00     0.273 C 
BRANCH  11  12
ATOM     12  C3  ZIN A   1      18.258   2.715  11.785  0.00  0.00     0.030 C 
BRANCH  12  13
ATOM     13  C2  ZIN A   1      17.590   3.401  10.591  0.00  0.00    -0.003 C 
ATOM     14  C1  ZIN A   1      16.970   4.724  11.045  0.00  0.00     0.005 C 
ENDBRANCH  12  13
ENDBRANCH  11  12
ENDBRANCH   6  11
ENDBRANCH   1   5
BRANCH   3  15
ATOM     15  C15 ZIN A   1      18.698  -0.434   7.595  0.00  0.00     0.046 A 
ATOM     16  C21 ZIN A   1      18.767  -1.690   7.006  0.00  0.00    -0.035 A 
ATOM     17  C20 ZIN A   1      19.102  -1.808   5.672  0.00  0.00     0.009 A 
ATOM     18  C22 ZIN A   1      18.465  -2.922   7.821  0.00  0.00     0.050 C 
ATOM     19  C19 ZIN A   1      19.380  -0.679   4.924  0.00  0.00     0.001 A 
ATOM     20  C18 ZIN A   1      19.318   0.574   5.509  0.00  0.00     0.009 A 
ATOM     21  C16 ZIN A   1      18.977   0.698   6.842  0.00  0.00    -0.035 A 
ATOM     22  C17 ZIN A   1      18.909   2.063   7.477  0.00  0.00     0.050 C 
ENDBRANCH   3  15
TORSDOF 5
ENDMDL
MODEL 6
REMARK VINA RESULT:      -6.8      3.406      6.575
REMARK  5 active torsions:
REMARK  status: ('A' for Active; 'I' for Inactive)
REMARK    1  A    between atoms: C2_2  and  C3_3 
REMARK    2  A    between atoms: C3_3  and  C4_4 
REMARK    3  A    between atoms: C4_4  and  N5_5 
REMARK    4  A    between atoms: C10_10  and  C12_11 
REMARK       I    between atoms: C12_11  and  N14_13 
REMARK    5  A    between atoms: N14_13  and  C15_14 
ROOT
ATOM      1  C12 ZIN A   1      18.858   0.511  12.911  0.00  0.00     0.255 C 
ATOM      2  O13 ZIN A   1      20.029   0.777  12.733  0.00  0.00    -0.271 OA
ATOM      3  N14 ZIN A   1      17.988   0.580  11.884  0.00  0.00    -0.324 N 
ATOM      4  H40 ZIN A   1      17.044   0.417  12.037  0.00  0.00     0.169 HD
ENDROOT
BRANCH   1   5
ATOM      5  C10 ZIN A   1      18.378   0.104  14.281  0.00  0.00     0.314 C 
ATOM      6  N5  ZIN A   1      18.648   1.186  15.236  0.00  0.00     0.102 N 
ATOM      7  C6  ZIN A   1      18.157   0.845  16.577  0.00  0.00     0.273 C 
ATOM      8  C7  ZIN A   1      18.885  -0.400  17.087  0.00  0.00     0.030 C 
ATOM      9  C8  ZIN A   1      18.636  -1.562  16.121  0.00  0.00     0.004 C 
ATOM     10  C9  ZIN A   1      19.113  -1.164  14.723  0.00  0.00     0.046 C 
BRANCH   6  11
ATOM     11  C4  ZIN A   1      18.073   2.454  14.771  0.00  0.00     0.273 C 
BRANCH  11  12
ATOM     12  C3  ZIN A   1      18.985   3.611  15.184  0.00  0.00     0.030 C 
BRANCH  12  13
ATOM     13  C2  ZIN A   1      18.628   4.858  14.372  0.00  0.00    -0.003 C 
ATOM     14  C1  ZIN A   1      19.851   5.313  13.572  0.00  0.00     0.005 C 
ENDBRANCH  12  13
ENDBRANCH  11  12
ENDBRANCH   6  11
ENDBRANCH   1   5
BRANCH   3  15
ATOM     15  C15 ZIN A   1      18.447   0.887  10.598  0.00  0.00     0.046 A 
ATOM     16  C21 ZIN A   1      18.936  -0.118   9.776  0.00  0.00    -0.035 A 
ATOM     17  C20 ZIN A   1      19.382   0.187   8.505  0.00  0.00     0.009 A 
ATOM     18  C22 ZIN A   1      18.970  -1.544  10.265  0.00  0.00     0.050 C 
ATOM     19  C19 ZIN A   1      19.352   1.494   8.055  0.00  0.00     0.001 A 
ATOM     20  C18 ZIN A   1      18.870   2.499   8.874  0.00  0.00     0.009 A 
ATOM     21  C16 ZIN A   1      18.417   2.199  10.144  0.00  0.00    -0.035 A 
ATOM     22  C17 ZIN A   1      17.892   3.295  11.035  0.00  0.00     0.050 C 
ENDBRANCH   3  15
TORSDOF 5
ENDMDL
MODEL 7
REMARK VINA RESULT:      -6.8      2.281      5.939
REMARK  5 active torsions:
REMARK  status: ('A' for Active; 'I' for Inactive)
REMARK    1  A    between atoms: C2_2  and  C3_3 
REMARK    2  A    between atoms: C3_3  and  C4_4 
REMARK    3  A    between atoms: C4_4  and  N5_5 
REMARK    4  A    between atoms: C10_10  and  C12_11 
REMARK       I    between atoms: C12_11  and  N14_13 
REMARK    5  A    between atoms: N14_13  and  C15_14 
ROOT
ATOM      1  C12 ZIN A   1      17.524   0.032  11.202  0.00  0.00     0.255 C 
ATOM      2  O13 ZIN A   1      16.461   0.240  10.657  0.00  0.00    -0.271 OA
ATOM      3  N14 ZIN A   1      18.631  -0.177  10.463  0.00  0.00    -0.324 N 
ATOM      4  H40 ZIN A   1      19.471  -0.393  10.898  0.00  0.00     0.169 HD
ENDROOT
BRANCH   1   5
ATOM      5  C10 ZIN A   1      17.606   0.008  12.708  0.00  0.00     0.314 C 
ATOM      6  N5  ZIN A   1      18.362   1.176  13.176  0.00  0.00     0.102 N 
ATOM      7  C6  ZIN A   1      18.430   1.213  14.641  0.00  0.00     0.273 C 
ATOM      8  C7  ZIN A   1      19.160  -0.031  15.151  0.00  0.00     0.030 C 
ATOM      9  C8  ZIN A   1      18.410  -1.282  14.687  0.00  0.00     0.004 C 
ATOM     10  C9  ZIN A   1      18.312  -1.273  13.160  0.00  0.00     0.046 C 
BRANCH   6  11
ATOM     11  C4  ZIN A   1      17.791   2.421  12.644  0.00  0.00     0.273 C 
BRANCH  11  12
ATOM     12  C3  ZIN A   1      18.709   3.594  12.991  0.00  0.00     0.030 C 
BRANCH  12  13
ATOM     13  C2  ZIN A   1      18.455   4.747  12.018  0.00  0.00    -0.003 C 
ATOM     14  C1  ZIN A   1      17.040   4.630  11.447  0.00  0.00     0.005 C 
ENDBRANCH  12  13
ENDBRANCH  11  12
ENDBRANCH   6  11
ENDBRANCH   1   5
BRANCH   3  15
ATOM     15  C15 ZIN A   1      18.569  -0.084   9.068  0.00  0.00     0.046 A 
ATOM     16  C21 ZIN A   1      18.269  -1.207   8.309  0.00  0.00    -0.035 A 
ATOM     17  C20 ZIN A   1      18.201  -1.110   6.933  0.00  0.00     0.009 A 
ATOM     18  C22 ZIN A   1      18.004  -2.527   8.986  0.00  0.00     0.050 C 
ATOM     19  C19 ZIN A   1      18.444   0.101   6.311  0.00  0.00     0.001 A 
ATOM     20  C18 ZIN A   1      18.750   1.220   7.065  0.00  0.00     0.009 A 
ATOM     21  C16 ZIN A   1      18.812   1.131   8.441  0.00  0.00    -0.035 A 
ATOM     22  C17 ZIN A   1      19.144   2.351   9.261  0.00  0.00     0.050 C 
ENDBRANCH   3  15
TORSDOF 5
ENDMDL
MODEL 8
REMARK VINA RESULT:      -6.8      2.092      4.945
REMARK  5 active torsions:
REMARK  status: ('A' for Active; 'I' for Inactive)
REMARK    1  A    between atoms: C2_2  and  C3_3 
REMARK    2  A    between atoms: C3_3  and  C4_4 
REMARK    3  A    between atoms: C4_4  and  N5_5 
REMARK    4  A    between atoms: C10_10  and  C12_11 
REMARK       I    between atoms: C12_11  and  N14_13 
REMARK    5  A    between atoms: N14_13  and  C15_14 
ROOT
ATOM      1  C12 ZIN A   1      18.345  -0.103  10.822  0.00  0.00     0.255 C 
ATOM      2  O13 ZIN A   1      17.197  -0.072  10.431  0.00  0.00    -0.271 OA
ATOM      3  N14 ZIN A   1      19.357  -0.161   9.935  0.00  0.00    -0.324 N 
ATOM      4  H40 ZIN A   1      20.272  -0.236  10.247  0.00  0.00     0.169 HD
ENDROOT
BRANCH   1   5
ATOM      5  C10 ZIN A   1      18.638  -0.078  12.301  0.00  0.00     0.314 C 
ATOM      6  N5  ZIN A   1      18.207  -1.343  12.908  0.00  0.00     0.102 N 
ATOM      7  C6  ZIN A   1      18.513  -1.375  14.343  0.00  0.00     0.273 C 
ATOM      8  C7  ZIN A   1      17.754  -0.252  15.053  0.00  0.00     0.030 C 
ATOM      9  C8  ZIN A   1      18.168   1.095  14.454  0.00  0.00     0.004 C 
ATOM     10  C9  ZIN A   1      17.882   1.085  12.950  0.00  0.00     0.046 C 
BRANCH   6  11
ATOM     11  C4  ZIN A   1      18.809  -2.490  12.215  0.00  0.00     0.273 C 
BRANCH  11  12
ATOM     12  C3  ZIN A   1      17.732  -3.541  11.939  0.00  0.00     0.030 C 
BRANCH  12  13
ATOM     13  C2  ZIN A   1      18.396  -4.852  11.510  0.00  0.00    -0.003 C 
ATOM     14  C1  ZIN A   1      17.342  -5.783  10.907  0.00  0.00     0.005 C 
ENDBRANCH  12  13
ENDBRANCH  11  12
ENDBRANCH   6  11
ENDBRANCH   1   5
BRANCH   3  15
ATOM     15  C15 ZIN A   1      19.088  -0.111   8.562  0.00  0.00     0.046 A 
ATOM     16  C21 ZIN A   1      18.932  -1.288   7.842  0.00  0.00    -0.035 A 
ATOM     17  C20 ZIN A   1      18.661  -1.237   6.489  0.00  0.00     0.009 A 
ATOM     18  C22 ZIN A   1      19.048  -2.620   8.538  0.00  0.00     0.050 C 
ATOM     19  C19 ZIN A   1      18.555  -0.015   5.849  0.00  0.00     0.001 A 
ATOM     20  C18 ZIN A   1      18.716   1.159   6.563  0.00  0.00     0.009 A 
ATOM     21  C16 ZIN A   1      18.982   1.113   7.918  0.00  0.00    -0.035 A 
ATOM     22  C17 ZIN A   1      19.156   2.393   8.695  0.00  0.00     0.050 C 
ENDBRANCH   3  15
TORSDOF 5
ENDMDL
MODEL 9
REMARK VINA RESULT:      -6.7      2.196      5.988
REMARK  5 active torsions:
REMARK  status: ('A' for Active; 'I' for Inactive)
REMARK    1  A    between atoms: C2_2  and  C3_3 
REMARK    2  A    between atoms: C3_3  and  C4_4 
REMARK    3  A    between atoms: C4_4  and  N5_5 
REMARK    4  A    between atoms: C10_10  and  C12_11 
REMARK       I    between atoms: C12_11  and  N14_13 
REMARK    5  A    between atoms: N14_13  and  C15_14 
ROOT
ATOM      1  C12 ZIN A   1      17.669  -0.030  10.915  0.00  0.00     0.255 C 
ATOM      2  O13 ZIN A   1      16.608   0.036  10.331  0.00  0.00    -0.271 OA
ATOM      3  N14 ZIN A   1      18.820  -0.090  10.217  0.00  0.00    -0.324 N 
ATOM      4  H40 ZIN A   1      19.665  -0.193  10.682  0.00  0.00     0.169 HD
ENDROOT
BRANCH   1   5
ATOM      5  C10 ZIN A   1      17.699  -0.045  12.422  0.00  0.00     0.314 C 
ATOM      6  N5  ZIN A   1      18.374   1.164  12.911  0.00  0.00     0.102 N 
ATOM      7  C6  ZIN A   1      18.388   1.208  14.378  0.00  0.00     0.273 C 
ATOM      8  C7  ZIN A   1      19.166   0.008  14.918  0.00  0.00     0.030 C 
ATOM      9  C8  ZIN A   1      18.502  -1.284  14.435  0.00  0.00     0.004 C 
ATOM     10  C9  ZIN A   1      18.458  -1.284  12.905  0.00  0.00     0.046 C 
BRANCH   6  11
ATOM     11  C4  ZIN A   1      17.755   2.374  12.353  0.00  0.00     0.273 C 
BRANCH  11  12
ATOM     12  C3  ZIN A   1      18.722   3.551  12.489  0.00  0.00     0.030 C 
BRANCH  12  13
ATOM     13  C2  ZIN A   1      17.952   4.865  12.335  0.00  0.00    -0.003 C 
ATOM     14  C1  ZIN A   1      17.037   4.780  11.111  0.00  0.00     0.005 C 
ENDBRANCH  12  13
ENDBRANCH  11  12
ENDBRANCH   6  11
ENDBRANCH   1   5
BRANCH   3  15
ATOM     15  C15 ZIN A   1      18.797  -0.003   8.820  0.00  0.00     0.046 A 
ATOM     16  C21 ZIN A   1      18.892   1.235   8.199  0.00  0.00    -0.035 A 
ATOM     17  C20 ZIN A   1      18.875   1.317   6.821  0.00  0.00     0.009 A 
ATOM     18  C22 ZIN A   1      19.025   2.487   9.028  0.00  0.00     0.050 C 
ATOM     19  C19 ZIN A   1      18.752   0.170   6.060  0.00  0.00     0.001 A 
ATOM     20  C18 ZIN A   1      18.651  -1.065   6.676  0.00  0.00     0.009 A 
ATOM     21  C16 ZIN A   1      18.673  -1.153   8.054  0.00  0.00    -0.035 A 
ATOM     22  C17 ZIN A   1      18.564  -2.499   8.724  0.00  0.00     0.050 C 
ENDBRANCH   3  15
TORSDOF 5
ENDMDL
