MODEL 1
REMARK VINA RESULT:      -8.9      0.000      0.000
REMARK  5 active torsions:
REMARK  status: ('A' for Active; 'I' for Inactive)
REMARK    1  A    between atoms: O1_1  and  C2_2 
REMARK    2  A    between atoms: C2_2  and  C4_3 
REMARK    3  A    between atoms: C2_2  and  C22_21 
REMARK    4  A    between atoms: C9_8  and  C10_9 
REMARK    5  A    between atoms: C16_15  and  C17_16 
ROOT
ATOM      1  C4  <0> d   1      19.193  -1.121  11.103  0.00  0.00    -0.013 A 
ATOM      2  C5  <0> d   1      19.094  -0.022  10.229  0.00  0.00     0.002 A 
ATOM      3  C6  <0> d   1      19.360  -0.152   8.856  0.00  0.00     0.014 A 
ATOM      4  C7  <0> d   1      19.253   0.935   8.044  0.00  0.00     0.002 A 
ATOM      5  C8  <0> d   1      18.880   2.177   8.556  0.00  0.00     0.019 A 
ATOM      6  C9  <0> d   1      18.615   2.338   9.881  0.00  0.00     0.077 A 
ATOM      7  C14 <0> d   1      18.715   1.240  10.752  0.00  0.00     0.083 A 
ATOM      8  N15 <0> d   1      18.459   1.368  12.057  0.00  0.00    -0.243 NA
ATOM      9  C16 <0> d   1      18.550   0.347  12.875  0.00  0.00     0.141 A 
ATOM     10  C21 <0> d   1      18.913  -0.921  12.424  0.00  0.00     0.047 A 
ENDROOT
BRANCH   1  11
ATOM     11  C2  <0> d   1      19.591  -2.482  10.593  0.00  0.00     0.182 C 
BRANCH  11  12
ATOM     12  O1  <0> d   1      20.656  -2.998  11.395  0.00  0.00    -0.389 OA
ATOM     13  H31 <0> d   1      20.805  -3.947  11.287  0.00  0.00     0.210 HD
ENDBRANCH  11  12
BRANCH  11  14
ATOM     14  C22 <0> d   1      18.391  -3.427  10.670  0.00  0.00     0.219 C 
ATOM     15  N28 <0> d   1      18.090  -3.944   9.330  0.00  0.00    -0.068 N 
ATOM     16  C27 <0> d   1      16.892  -4.792   9.382  0.00  0.00     0.233 C 
ATOM     17  H29 <0> d   1      17.926  -3.172   8.702  0.00  0.00     0.277 HD
ATOM     18  H30 <0> d   1      18.871  -4.489   8.997  0.00  0.00     0.277 HD
ATOM     19  C26 <0> d   1      17.161  -6.009  10.270  0.00  0.00     0.027 C 
ATOM     20  C25 <0> d   1      17.513  -5.534  11.683  0.00  0.00     0.004 C 
ATOM     21  C24 <0> d   1      18.718  -4.591  11.608  0.00  0.00     0.036 C 
ENDBRANCH  11  14
ENDBRANCH   1  11
BRANCH   9  22
ATOM     22  C17 <0> d   1      18.249   0.548  14.337  0.00  0.00     0.434 C 
ATOM     23  F18 <0> d   1      17.500   1.718  14.503  0.00  0.00    -0.165 F 
ATOM     24  F19 <0> d   1      17.521  -0.546  14.818  0.00  0.00    -0.165 F 
ATOM     25  F20 <0> d   1      19.449   0.659  15.049  0.00  0.00    -0.165 F 
ENDBRANCH   9  22
BRANCH   6  26
ATOM     26  C10 <0> d   1      18.214   3.691  10.412  0.00  0.00     0.419 C 
ATOM     27  F11 <0> d   1      19.187   4.148  11.306  0.00  0.00    -0.166 F 
ATOM     28  F12 <0> d   1      18.097   4.593   9.349  0.00  0.00    -0.166 F 
ATOM     29  F13 <0> d   1      16.985   3.587  11.072  0.00  0.00    -0.166 F 
ENDBRANCH   6  26
TORSDOF 5
ENDMDL
MODEL 2
REMARK VINA RESULT:      -8.4      2.996      3.824
REMARK  5 active torsions:
REMARK  status: ('A' for Active; 'I' for Inactive)
REMARK    1  A    between atoms: O1_1  and  C2_2 
REMARK    2  A    between atoms: C2_2  and  C4_3 
REMARK    3  A    between atoms: C2_2  and  C22_21 
REMARK    4  A    between atoms: C9_8  and  C10_9 
REMARK    5  A    between atoms: C16_15  and  C17_16 
ROOT
ATOM      1  C4  <0> d   1      19.140  -2.488   7.650  0.00  0.00    -0.013 A 
ATOM      2  C5  <0> d   1      19.066  -1.095   7.459  0.00  0.00     0.002 A 
ATOM      3  C6  <0> d   1      19.188  -0.525   6.181  0.00  0.00     0.014 A 
ATOM      4  C7  <0> d   1      19.111   0.826   6.038  0.00  0.00     0.002 A 
ATOM      5  C8  <0> d   1      18.909   1.653   7.142  0.00  0.00     0.019 A 
ATOM      6  C9  <0> d   1      18.786   1.133   8.393  0.00  0.00     0.077 A 
ATOM      7  C14 <0> d   1      18.862  -0.258   8.583  0.00  0.00     0.083 A 
ATOM      8  N15 <0> d   1      18.742  -0.796   9.800  0.00  0.00    -0.243 NA
ATOM      9  C16 <0> d   1      18.811  -2.093   9.983  0.00  0.00     0.141 A 
ATOM     10  C21 <0> d   1      19.006  -2.972   8.920  0.00  0.00     0.047 A 
ENDROOT
BRANCH   1  11
ATOM     11  C2  <0> d   1      19.356  -3.419   6.485  0.00  0.00     0.182 C 
BRANCH  11  12
ATOM     12  O1  <0> d   1      20.659  -4.000   6.574  0.00  0.00    -0.389 OA
ATOM     13  H31 <0> d   1      21.340  -3.391   6.893  0.00  0.00     0.210 HD
ENDBRANCH  11  12
BRANCH  11  14
ATOM     14  C22 <0> d   1      18.301  -4.527   6.515  0.00  0.00     0.219 C 
ATOM     15  N28 <0> d   1      17.443  -4.417   5.329  0.00  0.00    -0.068 N 
ATOM     16  C27 <0> d   1      16.382  -5.429   5.388  0.00  0.00     0.233 C 
ATOM     17  H29 <0> d   1      17.029  -3.498   5.300  0.00  0.00     0.277 HD
ATOM     18  H30 <0> d   1      17.998  -4.563   4.499  0.00  0.00     0.277 HD
ATOM     19  C26 <0> d   1      17.000  -6.828   5.352  0.00  0.00     0.027 C 
ATOM     20  C25 <0> d   1      17.936  -6.997   6.553  0.00  0.00     0.004 C 
ATOM     21  C24 <0> d   1      18.995  -5.891   6.522  0.00  0.00     0.036 C 
ENDBRANCH  11  14
ENDBRANCH   1  11
BRANCH   9  22
ATOM     22  C17 <0> d   1      18.670  -2.647  11.377  0.00  0.00     0.434 C 
ATOM     23  F18 <0> d   1      19.307  -3.891  11.451  0.00  0.00    -0.165 F 
ATOM     24  F19 <0> d   1      19.257  -1.766  12.291  0.00  0.00    -0.165 F 
ATOM     25  F20 <0> d   1      17.312  -2.800  11.682  0.00  0.00    -0.165 F 
ENDBRANCH   9  22
BRANCH   6  26
ATOM     26  C10 <0> d   1      18.569   2.047   9.573  0.00  0.00     0.419 C 
ATOM     27  F11 <0> d   1      19.615   1.886  10.486  0.00  0.00    -0.166 F 
ATOM     28  F12 <0> d   1      18.533   3.374   9.134  0.00  0.00    -0.166 F 
ATOM     29  F13 <0> d   1      17.355   1.728  10.192  0.00  0.00    -0.166 F 
ENDBRANCH   6  26
TORSDOF 5
ENDMDL
MODEL 3
REMARK VINA RESULT:      -8.3      4.264      6.322
REMARK  5 active torsions:
REMARK  status: ('A' for Active; 'I' for Inactive)
REMARK    1  A    between atoms: O1_1  and  C2_2 
REMARK    2  A    between atoms: C2_2  and  C4_3 
REMARK    3  A    between atoms: C2_2  and  C22_21 
REMARK    4  A    between atoms: C9_8  and  C10_9 
REMARK    5  A    between atoms: C16_15  and  C17_16 
ROOT
ATOM      1  C4  <0> d   1      17.766  -0.885  10.041  0.00  0.00    -0.013 A 
ATOM      2  C5  <0> d   1      17.868  -1.024   8.644  0.00  0.00     0.002 A 
ATOM      3  C6  <0> d   1      17.393  -0.030   7.773  0.00  0.00     0.014 A 
ATOM      4  C7  <0> d   1      17.510  -0.202   6.428  0.00  0.00     0.002 A 
ATOM      5  C8  <0> d   1      18.097  -1.352   5.902  0.00  0.00     0.019 A 
ATOM      6  C9  <0> d   1      18.567  -2.335   6.717  0.00  0.00     0.077 A 
ATOM      7  C14 <0> d   1      18.464  -2.195   8.112  0.00  0.00     0.083 A 
ATOM      8  N15 <0> d   1      18.919  -3.143   8.936  0.00  0.00    -0.243 NA
ATOM      9  C16 <0> d   1      18.826  -3.017  10.238  0.00  0.00     0.141 A 
ATOM     10  C21 <0> d   1      18.255  -1.890  10.826  0.00  0.00     0.047 A 
ENDROOT
BRANCH   1  11
ATOM     11  C2  <0> d   1      17.140   0.341  10.653  0.00  0.00     0.182 C 
BRANCH  11  12
ATOM     12  O1  <0> d   1      16.146  -0.054  11.600  0.00  0.00    -0.389 OA
ATOM     13  H31 <0> d   1      15.420  -0.566  11.218  0.00  0.00     0.210 HD
ENDBRANCH  11  12
BRANCH  11  14
ATOM     14  C22 <0> d   1      18.218   1.165  11.361  0.00  0.00     0.219 C 
ATOM     15  N28 <0> d   1      18.570   2.324  10.532  0.00  0.00    -0.068 N 
ATOM     16  C27 <0> d   1      19.657   3.078  11.167  0.00  0.00     0.233 C 
ATOM     17  H29 <0> d   1      18.869   2.006   9.621  0.00  0.00     0.277 HD
ATOM     18  H30 <0> d   1      17.763   2.921  10.431  0.00  0.00     0.277 HD
ATOM     19  C26 <0> d   1      19.183   3.631  12.513  0.00  0.00     0.027 C 
ATOM     20  C25 <0> d   1      18.771   2.467  13.418  0.00  0.00     0.004 C 
ATOM     21  C24 <0> d   1      17.688   1.643  12.714  0.00  0.00     0.036 C 
ENDBRANCH  11  14
ENDBRANCH   1  11
BRANCH   9  22
ATOM     22  C17 <0> d   1      19.356  -4.116  11.122  0.00  0.00     0.434 C 
ATOM     23  F18 <0> d   1      20.408  -3.622  11.901  0.00  0.00    -0.165 F 
ATOM     24  F19 <0> d   1      18.333  -4.577  11.958  0.00  0.00    -0.165 F 
ATOM     25  F20 <0> d   1      19.820  -5.170  10.327  0.00  0.00    -0.165 F 
ENDBRANCH   9  22
BRANCH   6  26
ATOM     26  C10 <0> d   1      19.197  -3.570   6.125  0.00  0.00     0.419 C 
ATOM     27  F11 <0> d   1      18.440  -4.693   6.474  0.00  0.00    -0.166 F 
ATOM     28  F12 <0> d   1      19.239  -3.450   4.732  0.00  0.00    -0.166 F 
ATOM     29  F13 <0> d   1      20.499  -3.711   6.619  0.00  0.00    -0.166 F 
ENDBRANCH   6  26
TORSDOF 5
ENDMDL
MODEL 4
REMARK VINA RESULT:      -8.3      3.255      5.634
REMARK  5 active torsions:
REMARK  status: ('A' for Active; 'I' for Inactive)
REMARK    1  A    between atoms: O1_1  and  C2_2 
REMARK    2  A    between atoms: C2_2  and  C4_3 
REMARK    3  A    between atoms: C2_2  and  C22_21 
REMARK    4  A    between atoms: C9_8  and  C10_9 
REMARK    5  A    between atoms: C16_15  and  C17_16 
ROOT
ATOM      1  C4  <0> d   1      17.754   1.115  12.820  0.00  0.00    -0.013 A 
ATOM      2  C5  <0> d   1      18.017   0.795  14.166  0.00  0.00     0.002 A 
ATOM      3  C6  <0> d   1      17.920  -0.524  14.637  0.00  0.00     0.014 A 
ATOM      4  C7  <0> d   1      18.182  -0.792  15.945  0.00  0.00     0.002 A 
ATOM      5  C8  <0> d   1      18.548   0.226  16.825  0.00  0.00     0.019 A 
ATOM      6  C9  <0> d   1      18.652   1.515  16.402  0.00  0.00     0.077 A 
ATOM      7  C14 <0> d   1      18.388   1.832  15.058  0.00  0.00     0.083 A 
ATOM      8  N15 <0> d   1      18.485   3.089  14.614  0.00  0.00    -0.243 NA
ATOM      9  C16 <0> d   1      18.240   3.390  13.361  0.00  0.00     0.141 A 
ATOM     10  C21 <0> d   1      17.876   2.418  12.432  0.00  0.00     0.047 A 
ENDROOT
BRANCH   1  11
ATOM     11  C2  <0> d   1      17.357   0.046  11.834  0.00  0.00     0.182 C 
BRANCH  11  12
ATOM     12  O1  <0> d   1      15.951   0.123  11.591  0.00  0.00    -0.389 OA
ATOM     13  H31 <0> d   1      15.716   0.184  10.655  0.00  0.00     0.210 HD
ENDBRANCH  11  12
BRANCH  11  14
ATOM     14  C22 <0> d   1      18.113   0.256  10.521  0.00  0.00     0.219 C 
ATOM     15  N28 <0> d   1      19.303  -0.603  10.500  0.00  0.00    -0.068 N 
ATOM     16  C27 <0> d   1      20.076  -0.352   9.278  0.00  0.00     0.233 C 
ATOM     17  H29 <0> d   1      19.876  -0.402  11.306  0.00  0.00     0.277 HD
ATOM     18  H30 <0> d   1      19.018  -1.570  10.523  0.00  0.00     0.277 HD
ATOM     19  C26 <0> d   1      19.241  -0.731   8.053  0.00  0.00     0.027 C 
ATOM     20  C25 <0> d   1      17.963   0.113   8.034  0.00  0.00     0.004 C 
ATOM     21  C24 <0> d   1      17.202  -0.099   9.345  0.00  0.00     0.036 C 
ENDBRANCH  11  14
ENDBRANCH   1  11
BRANCH   9  22
ATOM     22  C17 <0> d   1      18.364   4.824  12.913  0.00  0.00     0.434 C 
ATOM     23  F18 <0> d   1      17.497   5.053  11.839  0.00  0.00    -0.165 F 
ATOM     24  F19 <0> d   1      18.030   5.674  13.972  0.00  0.00    -0.165 F 
ATOM     25  F20 <0> d   1      19.681   5.074  12.510  0.00  0.00    -0.165 F 
ENDBRANCH   9  22
BRANCH   6  26
ATOM     26  C10 <0> d   1      19.049   2.599  17.371  0.00  0.00     0.419 C 
ATOM     27  F11 <0> d   1      19.417   2.022  18.591  0.00  0.00    -0.166 F 
ATOM     28  F12 <0> d   1      20.130   3.317  16.850  0.00  0.00    -0.166 F 
ATOM     29  F13 <0> d   1      17.968   3.464  17.571  0.00  0.00    -0.166 F 
ENDBRANCH   6  26
TORSDOF 5
ENDMDL
MODEL 5
REMARK VINA RESULT:      -8.2      3.633      6.923
REMARK  5 active torsions:
REMARK  status: ('A' for Active; 'I' for Inactive)
REMARK    1  A    between atoms: O1_1  and  C2_2 
REMARK    2  A    between atoms: C2_2  and  C4_3 
REMARK    3  A    between atoms: C2_2  and  C22_21 
REMARK    4  A    between atoms: C9_8  and  C10_9 
REMARK    5  A    between atoms: C16_15  and  C17_16 
ROOT
ATOM      1  C4  <0> d   1      19.786  -0.377  10.864  0.00  0.00    -0.013 A 
ATOM      2  C5  <0> d   1      19.683  -1.779  10.788  0.00  0.00     0.002 A 
ATOM      3  C6  <0> d   1      20.002  -2.597  11.884  0.00  0.00     0.014 A 
ATOM      4  C7  <0> d   1      19.890  -3.948  11.770  0.00  0.00     0.002 A 
ATOM      5  C8  <0> d   1      19.460  -4.533  10.579  0.00  0.00     0.019 A 
ATOM      6  C9  <0> d   1      19.143  -3.770   9.498  0.00  0.00     0.077 A 
ATOM      7  C14 <0> d   1      19.247  -2.370   9.576  0.00  0.00     0.083 A 
ATOM      8  N15 <0> d   1      18.940  -1.596   8.531  0.00  0.00    -0.243 NA
ATOM      9  C16 <0> d   1      19.035  -0.290   8.598  0.00  0.00     0.141 A 
ATOM     10  C21 <0> d   1      19.453   0.355   9.761  0.00  0.00     0.047 A 
ENDROOT
BRANCH   1  11
ATOM     11  C2  <0> d   1      20.245   0.297  12.132  0.00  0.00     0.182 C 
BRANCH  11  12
ATOM     12  O1  <0> d   1      21.628   0.640  12.014  0.00  0.00    -0.389 OA
ATOM     13  H31 <0> d   1      22.024   0.963  12.835  0.00  0.00     0.210 HD
ENDBRANCH  11  12
BRANCH  11  14
ATOM     14  C22 <0> d   1      19.423   1.567  12.360  0.00  0.00     0.219 C 
ATOM     15  N28 <0> d   1      19.290   1.810  13.802  0.00  0.00    -0.068 N 
ATOM     16  C27 <0> d   1      18.439   2.984  14.032  0.00  0.00     0.233 C 
ATOM     17  H29 <0> d   1      18.873   1.002  14.240  0.00  0.00     0.277 HD
ATOM     18  H30 <0> d   1      20.202   1.975  14.200  0.00  0.00     0.277 HD
ATOM     19  C26 <0> d   1      19.104   4.227  13.438  0.00  0.00     0.027 C 
ATOM     20  C25 <0> d   1      19.301   4.024  11.933  0.00  0.00     0.004 C 
ATOM     21  C24 <0> d   1      20.127   2.756  11.702  0.00  0.00     0.036 C 
ENDBRANCH  11  14
ENDBRANCH   1  11
BRANCH   9  22
ATOM     22  C17 <0> d   1      18.676   0.536   7.390  0.00  0.00     0.434 C 
ATOM     23  F18 <0> d   1      18.998   1.877   7.629  0.00  0.00    -0.165 F 
ATOM     24  F19 <0> d   1      19.393   0.075   6.280  0.00  0.00    -0.165 F 
ATOM     25  F20 <0> d   1      17.304   0.424   7.140  0.00  0.00    -0.165 F 
ENDBRANCH   9  22
BRANCH   6  26
ATOM     26  C10 <0> d   1      18.681  -4.424   8.221  0.00  0.00     0.419 C 
ATOM     27  F11 <0> d   1      17.349  -4.077   7.974  0.00  0.00    -0.166 F 
ATOM     28  F12 <0> d   1      19.480  -3.990   7.158  0.00  0.00    -0.166 F 
ATOM     29  F13 <0> d   1      18.786  -5.814   8.345  0.00  0.00    -0.166 F 
ENDBRANCH   6  26
TORSDOF 5
ENDMDL
MODEL 6
REMARK VINA RESULT:      -8.2      1.466      1.982
REMARK  5 active torsions:
REMARK  status: ('A' for Active; 'I' for Inactive)
REMARK    1  A    between atoms: O1_1  and  C2_2 
REMARK    2  A    between atoms: C2_2  and  C4_3 
REMARK    3  A    between atoms: C2_2  and  C22_21 
REMARK    4  A    between atoms: C9_8  and  C10_9 
REMARK    5  A    between atoms: C16_15  and  C17_16 
ROOT
ATOM      1  C4  <0> d   1      19.412   0.198  11.553  0.00  0.00    -0.013 A 
ATOM      2  C5  <0> d   1      19.005   1.441  11.032  0.00  0.00     0.002 A 
ATOM      3  C6  <0> d   1      19.055   1.709   9.654  0.00  0.00     0.014 A 
ATOM      4  C7  <0> d   1      18.652   2.923   9.190  0.00  0.00     0.002 A 
ATOM      5  C8  <0> d   1      18.188   3.906  10.064  0.00  0.00     0.019 A 
ATOM      6  C9  <0> d   1      18.127   3.679  11.404  0.00  0.00     0.077 A 
ATOM      7  C14 <0> d   1      18.535   2.438  11.922  0.00  0.00     0.083 A 
ATOM      8  N15 <0> d   1      18.483   2.187  13.234  0.00  0.00    -0.243 NA
ATOM      9  C16 <0> d   1      18.862   1.031  13.723  0.00  0.00     0.141 A 
ATOM     10  C21 <0> d   1      19.330   0.007  12.902  0.00  0.00     0.047 A 
ENDROOT
BRANCH   1  11
ATOM     11  C2  <0> d   1      19.919  -0.893  10.645  0.00  0.00     0.182 C 
BRANCH  11  12
ATOM     12  O1  <0> d   1      21.284  -1.177  10.959  0.00  0.00    -0.389 OA
ATOM     13  H31 <0> d   1      21.834  -0.390  11.070  0.00  0.00     0.210 HD
ENDBRANCH  11  12
BRANCH  11  14
ATOM     14  C22 <0> d   1      19.077  -2.155  10.844  0.00  0.00     0.219 C 
ATOM     15  N28 <0> d   1      18.471  -2.544   9.565  0.00  0.00    -0.068 N 
ATOM     16  C27 <0> d   1      17.600  -3.709   9.762  0.00  0.00     0.233 C 
ATOM     17  H29 <0> d   1      17.926  -1.775   9.205  0.00  0.00     0.277 HD
ATOM     18  H30 <0> d   1      19.199  -2.778   8.907  0.00  0.00     0.277 HD
ATOM     19  C26 <0> d   1      18.435  -4.902  10.233  0.00  0.00     0.027 C 
ATOM     20  C25 <0> d   1      19.122  -4.547  11.554  0.00  0.00     0.004 C 
ATOM     21  C24 <0> d   1      19.969  -3.287  11.356  0.00  0.00     0.036 C 
ENDBRANCH  11  14
ENDBRANCH   1  11
BRANCH   9  22
ATOM     22  C17 <0> d   1      18.783   0.801  15.210  0.00  0.00     0.434 C 
ATOM     23  F18 <0> d   1      19.377  -0.427  15.524  0.00  0.00    -0.165 F 
ATOM     24  F19 <0> d   1      19.457   1.830  15.878  0.00  0.00    -0.165 F 
ATOM     25  F20 <0> d   1      17.442   0.785  15.608  0.00  0.00    -0.165 F 
ENDBRANCH   9  22
BRANCH   6  26
ATOM     26  C10 <0> d   1      17.623   4.757  12.330  0.00  0.00     0.419 C 
ATOM     27  F11 <0> d   1      18.701   5.327  13.014  0.00  0.00    -0.166 F 
ATOM     28  F12 <0> d   1      16.970   5.744  11.584  0.00  0.00    -0.166 F 
ATOM     29  F13 <0> d   1      16.728   4.199  13.250  0.00  0.00    -0.166 F 
ENDBRANCH   6  26
TORSDOF 5
ENDMDL
MODEL 7
REMARK VINA RESULT:      -8.1      3.489      5.761
REMARK  5 active torsions:
REMARK  status: ('A' for Active; 'I' for Inactive)
REMARK    1  A    between atoms: O1_1  and  C2_2 
REMARK    2  A    between atoms: C2_2  and  C4_3 
REMARK    3  A    between atoms: C2_2  and  C22_21 
REMARK    4  A    between atoms: C9_8  and  C10_9 
REMARK    5  A    between atoms: C16_15  and  C17_16 
ROOT
ATOM      1  C4  <0> d   1      18.828   0.361  11.456  0.00  0.00    -0.013 A 
ATOM      2  C5  <0> d   1      18.697   0.728  12.809  0.00  0.00     0.002 A 
ATOM      3  C6  <0> d   1      18.552   2.071  13.192  0.00  0.00     0.014 A 
ATOM      4  C7  <0> d   1      18.429   2.385  14.510  0.00  0.00     0.002 A 
ATOM      5  C8  <0> d   1      18.443   1.390  15.487  0.00  0.00     0.019 A 
ATOM      6  C9  <0> d   1      18.582   0.079  15.151  0.00  0.00     0.077 A 
ATOM      7  C14 <0> d   1      18.713  -0.285  13.800  0.00  0.00     0.083 A 
ATOM      8  N15 <0> d   1      18.848  -1.565  13.440  0.00  0.00    -0.243 NA
ATOM      9  C16 <0> d   1      18.970  -1.911  12.181  0.00  0.00     0.141 A 
ATOM     10  C21 <0> d   1      18.959  -0.965  11.158  0.00  0.00     0.047 A 
ENDROOT
BRANCH   1  11
ATOM     11  C2  <0> d   1      18.817   1.402  10.367  0.00  0.00     0.182 C 
BRANCH  11  12
ATOM     12  O1  <0> d   1      20.001   2.198  10.458  0.00  0.00    -0.389 OA
ATOM     13  H31 <0> d   1      20.169   2.744   9.678  0.00  0.00     0.210 HD
ENDBRANCH  11  12
BRANCH  11  14
ATOM     14  C22 <0> d   1      18.770   0.713   9.002  0.00  0.00     0.219 C 
ATOM     15  N28 <0> d   1      17.393   0.297   8.712  0.00  0.00    -0.068 N 
ATOM     16  C27 <0> d   1      17.352  -0.433   7.439  0.00  0.00     0.233 C 
ATOM     17  H29 <0> d   1      17.061  -0.302   9.453  0.00  0.00     0.277 HD
ATOM     18  H30 <0> d   1      16.803   1.112   8.650  0.00  0.00     0.277 HD
ATOM     19  C26 <0> d   1      17.778   0.495   6.299  0.00  0.00     0.027 C 
ATOM     20  C25 <0> d   1      19.203   0.991   6.559  0.00  0.00     0.004 C 
ATOM     21  C24 <0> d   1      19.251   1.686   7.923  0.00  0.00     0.036 C 
ENDBRANCH  11  14
ENDBRANCH   1  11
BRANCH   9  22
ATOM     22  C17 <0> d   1      19.120  -3.369  11.831  0.00  0.00     0.434 C 
ATOM     23  F18 <0> d   1      20.384  -3.817  12.232  0.00  0.00    -0.165 F 
ATOM     24  F19 <0> d   1      18.132  -4.110  12.488  0.00  0.00    -0.165 F 
ATOM     25  F20 <0> d   1      18.986  -3.532  10.448  0.00  0.00    -0.165 F 
ENDBRANCH   9  22
BRANCH   6  26
ATOM     26  C10 <0> d   1      18.594  -0.979  16.225  0.00  0.00     0.419 C 
ATOM     27  F11 <0> d   1      19.637  -1.878  15.982  0.00  0.00    -0.166 F 
ATOM     28  F12 <0> d   1      18.780  -0.375  17.473  0.00  0.00    -0.166 F 
ATOM     29  F13 <0> d   1      17.375  -1.665  16.217  0.00  0.00    -0.166 F 
ENDBRANCH   6  26
TORSDOF 5
ENDMDL
MODEL 8
REMARK VINA RESULT:      -8.0      3.100      5.347
REMARK  5 active torsions:
REMARK  status: ('A' for Active; 'I' for Inactive)
REMARK    1  A    between atoms: O1_1  and  C2_2 
REMARK    2  A    between atoms: C2_2  and  C4_3 
REMARK    3  A    between atoms: C2_2  and  C22_21 
REMARK    4  A    between atoms: C9_8  and  C10_9 
REMARK    5  A    between atoms: C16_15  and  C17_16 
ROOT
ATOM      1  C4  <0> d   1      18.643   0.989  13.118  0.00  0.00    -0.013 A 
ATOM      2  C5  <0> d   1      18.602   1.679  11.892  0.00  0.00     0.002 A 
ATOM      3  C6  <0> d   1      18.533   3.081  11.843  0.00  0.00     0.014 A 
ATOM      4  C7  <0> d   1      18.494   3.711  10.637  0.00  0.00     0.002 A 
ATOM      5  C8  <0> d   1      18.524   2.983   9.448  0.00  0.00     0.019 A 
ATOM      6  C9  <0> d   1      18.591   1.624   9.459  0.00  0.00     0.077 A 
ATOM      7  C14 <0> d   1      18.631   0.937  10.685  0.00  0.00     0.083 A 
ATOM      8  N15 <0> d   1      18.699  -0.397  10.726  0.00  0.00    -0.243 NA
ATOM      9  C16 <0> d   1      18.737  -1.043  11.866  0.00  0.00     0.141 A 
ATOM     10  C21 <0> d   1      18.716  -0.374  13.088  0.00  0.00     0.047 A 
ENDROOT
BRANCH   1  11
ATOM     11  C2  <0> d   1      18.614   1.735  14.427  0.00  0.00     0.182 C 
BRANCH  11  12
ATOM     12  O1  <0> d   1      17.377   2.440  14.546  0.00  0.00    -0.389 OA
ATOM     13  H31 <0> d   1      17.405   3.344  14.204  0.00  0.00     0.210 HD
ENDBRANCH  11  12
BRANCH  11  14
ATOM     14  C22 <0> d   1      18.748   0.742  15.584  0.00  0.00     0.219 C 
ATOM     15  N28 <0> d   1      19.265   1.437  16.768  0.00  0.00    -0.068 N 
ATOM     16  C27 <0> d   1      19.468   0.477  17.859  0.00  0.00     0.233 C 
ATOM     17  H29 <0> d   1      20.144   1.878  16.540  0.00  0.00     0.277 HD
ATOM     18  H30 <0> d   1      18.603   2.140  17.060  0.00  0.00     0.277 HD
ATOM     19  C26 <0> d   1      18.126  -0.135  18.263  0.00  0.00     0.027 C 
ATOM     20  C25 <0> d   1      17.516  -0.854  17.056  0.00  0.00     0.004 C 
ATOM     21  C24 <0> d   1      17.377   0.140  15.899  0.00  0.00     0.036 C 
ENDBRANCH  11  14
ENDBRANCH   1  11
BRANCH   9  22
ATOM     22  C17 <0> d   1      18.814  -2.548  11.855  0.00  0.00     0.434 C 
ATOM     23  F18 <0> d   1      17.753  -3.074  12.602  0.00  0.00    -0.165 F 
ATOM     24  F19 <0> d   1      18.731  -3.010  10.537  0.00  0.00    -0.165 F 
ATOM     25  F20 <0> d   1      20.028  -2.957  12.419  0.00  0.00    -0.165 F 
ENDBRANCH   9  22
BRANCH   6  26
ATOM     26  C10 <0> d   1      18.621   0.859   8.161  0.00  0.00     0.419 C 
ATOM     27  F11 <0> d   1      18.875   1.741   7.105  0.00  0.00    -0.166 F 
ATOM     28  F12 <0> d   1      19.631  -0.108   8.213  0.00  0.00    -0.166 F 
ATOM     29  F13 <0> d   1      17.386   0.232   7.960  0.00  0.00    -0.166 F 
ENDBRANCH   6  26
TORSDOF 5
ENDMDL
MODEL 9
REMARK VINA RESULT:      -8.0      3.945      8.002
REMARK  5 active torsions:
REMARK  status: ('A' for Active; 'I' for Inactive)
REMARK    1  A    between atoms: O1_1  and  C2_2 
REMARK    2  A    between atoms: C2_2  and  C4_3 
REMARK    3  A    between atoms: C2_2  and  C22_21 
REMARK    4  A    between atoms: C9_8  and  C10_9 
REMARK    5  A    between atoms: C16_15  and  C17_16 
ROOT
ATOM      1  C4  <0> d   1      18.930   2.763  15.038  0.00  0.00    -0.013 A 
ATOM      2  C5  <0> d   1      18.786   1.363  15.080  0.00  0.00     0.002 A 
ATOM      3  C6  <0> d   1      18.825   0.661  16.296  0.00  0.00     0.014 A 
ATOM      4  C7  <0> d   1      18.681  -0.693  16.295  0.00  0.00     0.002 A 
ATOM      5  C8  <0> d   1      18.493  -1.392  15.103  0.00  0.00     0.019 A 
ATOM      6  C9  <0> d   1      18.451  -0.743  13.909  0.00  0.00     0.077 A 
ATOM      7  C14 <0> d   1      18.596   0.655  13.868  0.00  0.00     0.083 A 
ATOM      8  N15 <0> d   1      18.556   1.319  12.709  0.00  0.00    -0.243 NA
ATOM      9  C16 <0> d   1      18.690   2.623  12.665  0.00  0.00     0.141 A 
ATOM     10  C21 <0> d   1      18.875   3.379  13.821  0.00  0.00     0.047 A 
ENDROOT
BRANCH   1  11
ATOM     11  C2  <0> d   1      19.134   3.559  16.301  0.00  0.00     0.182 C 
BRANCH  11  12
ATOM     12  O1  <0> d   1      20.494   3.991  16.377  0.00  0.00    -0.389 OA
ATOM     13  H31 <0> d   1      21.103   3.471  15.835  0.00  0.00     0.210 HD
ENDBRANCH  11  12
BRANCH  11  14
ATOM     14  C22 <0> d   1      18.212   4.780  16.289  0.00  0.00     0.219 C 
ATOM     15  N28 <0> d   1      17.341   4.746  17.470  0.00  0.00    -0.068 N 
ATOM     16  C27 <0> d   1      16.401   5.872  17.427  0.00  0.00     0.233 C 
ATOM     17  H29 <0> d   1      16.825   3.878  17.481  0.00  0.00     0.277 HD
ATOM     18  H30 <0> d   1      17.905   4.812  18.304  0.00  0.00     0.277 HD
ATOM     19  C26 <0> d   1      17.174   7.191  17.491  0.00  0.00     0.027 C 
ATOM     20  C25 <0> d   1      18.128   7.275  16.296  0.00  0.00     0.004 C 
ATOM     21  C24 <0> d   1      19.055   6.056  16.309  0.00  0.00     0.036 C 
ENDBRANCH  11  14
ENDBRANCH   1  11
BRANCH   9  22
ATOM     22  C17 <0> d   1      18.637   3.322  11.331  0.00  0.00     0.434 C 
ATOM     23  F18 <0> d   1      18.850   4.693  11.515  0.00  0.00    -0.165 F 
ATOM     24  F19 <0> d   1      19.629   2.803  10.492  0.00  0.00    -0.165 F 
ATOM     25  F20 <0> d   1      17.381   3.120  10.749  0.00  0.00    -0.165 F 
ENDBRANCH   9  22
BRANCH   6  26
ATOM     26  C10 <0> d   1      18.247  -1.520  12.633  0.00  0.00     0.419 C 
ATOM     27  F11 <0> d   1      19.267  -1.208  11.729  0.00  0.00    -0.166 F 
ATOM     28  F12 <0> d   1      18.275  -2.890  12.913  0.00  0.00    -0.166 F 
ATOM     29  F13 <0> d   1      17.009  -1.183  12.075  0.00  0.00    -0.166 F 
ENDBRANCH   6  26
TORSDOF 5
ENDMDL
