MODEL 1
REMARK VINA RESULT:      -6.7      0.000      0.000
REMARK  20 active torsions:
REMARK  status: ('A' for Active; 'I' for Inactive)
REMARK    1  A    between atoms: C2_2  and  C4_4 
REMARK    2  A    between atoms: C4_4  and  N5_5 
REMARK    3  A    between atoms: N5_5  and  C6_6 
REMARK    4  A    between atoms: N5_5  and  C35_34 
REMARK    5  A    between atoms: C6_6  and  C7_7 
REMARK    6  A    between atoms: C7_7  and  N8_8 
REMARK    7  A    between atoms: N8_8  and  C10_10 
REMARK    8  A    between atoms: N8_8  and  C31_30 
REMARK    9  A    between atoms: C10_10  and  C11_11 
REMARK   10  A    between atoms: C11_11  and  N12_12 
REMARK   11  A    between atoms: N12_12  and  C13_13 
REMARK   12  A    between atoms: N12_12  and  C17_17 
REMARK   13  A    between atoms: C13_13  and  C14_14 
REMARK   14  A    between atoms: C17_17  and  C19_18 
REMARK   15  A    between atoms: C17_17  and  C28_27 
REMARK   16  A    between atoms: C19_18  and  O20_19 
REMARK   17  A    between atoms: O20_19  and  C21_20 
REMARK   18  A    between atoms: C21_20  and  C22_21 
REMARK   19  A    between atoms: C31_30  and  C32_31 
REMARK   20  A    between atoms: C35_34  and  C36_35 
ROOT
ATOM      1  C11 ZIN A   1      17.901  -2.586   8.341  0.00  0.00     0.302 C 
ENDROOT
BRANCH   1   2
ATOM      2  C10 ZIN A   1      19.250  -2.019   7.898  0.00  0.00     0.265 C 
BRANCH   2   3
ATOM      3  N8  ZIN A   1      19.038  -0.752   7.184  0.00  0.00    -0.058 N 
ATOM      4  H9  ZIN A   1      19.928  -0.383   6.883  0.00  0.00     0.280 HD
BRANCH   3   5
ATOM      5  C7  ZIN A   1      18.384   0.211   8.079  0.00  0.00     0.265 C 
BRANCH   5   6
ATOM      6  C6  ZIN A   1      19.332   1.380   8.351  0.00  0.00     0.301 C 
BRANCH   6   7
ATOM      7  N5  ZIN A   1      19.258   1.751   9.771  0.00  0.00     0.110 N 
BRANCH   7   8
ATOM      8  C4  ZIN A   1      19.093   0.562  10.617  0.00  0.00     0.385 C 
BRANCH   8   9
ATOM      9  C2  ZIN A   1      20.428   0.166  11.193  0.00  0.00     0.202 C 
ATOM     10  O1  ZIN A   1      21.094  -0.700  10.651  0.00  0.00    -0.647 OA
ATOM     11  O3  ZIN A   1      20.844   0.715  12.200  0.00  0.00    -0.647 OA
ENDBRANCH   8   9
ENDBRANCH   7   8
BRANCH   7  12
ATOM     12  C35 ZIN A   1      18.179   2.719  10.006  0.00  0.00     0.385 C 
BRANCH  12  13
ATOM     13  C36 ZIN A   1      18.396   3.401  11.333  0.00  0.00     0.202 C 
ATOM     14  O37 ZIN A   1      19.515   3.762  11.656  0.00  0.00    -0.647 OA
ATOM     15  O38 ZIN A   1      17.454   3.591  12.082  0.00  0.00    -0.647 OA
ENDBRANCH  12  13
ENDBRANCH   7  12
ENDBRANCH   6   7
ENDBRANCH   5   6
ENDBRANCH   3   5
BRANCH   3  16
ATOM     16  C31 ZIN A   1      18.185  -0.988   6.011  0.00  0.00     0.347 C 
BRANCH  16  17
ATOM     17  C32 ZIN A   1      18.940  -0.621   4.760  0.00  0.00     0.199 C 
ATOM     18  O33 ZIN A   1      18.430   0.115   3.933  0.00  0.00    -0.647 OA
ATOM     19  O34 ZIN A   1      20.063  -1.062   4.575  0.00  0.00    -0.647 OA
ENDBRANCH  16  17
ENDBRANCH   3  16
ENDBRANCH   2   3
ENDBRANCH   1   2
BRANCH   1  20
ATOM     20  N12 ZIN A   1      18.115  -3.834   9.087  0.00  0.00     0.117 N 
BRANCH  20  21
ATOM     21  C13 ZIN A   1      19.535  -4.211   9.085  0.00  0.00     0.386 C 
BRANCH  21  22
ATOM     22  C14 ZIN A   1      19.701  -5.538   8.390  0.00  0.00     0.202 C 
ATOM     23  O15 ZIN A   1      19.370  -6.567   8.954  0.00  0.00    -0.647 OA
ATOM     24  O16 ZIN A   1      20.168  -5.582   7.265  0.00  0.00    -0.647 OA
ENDBRANCH  21  22
ENDBRANCH  20  21
BRANCH  20  25
ATOM     25  C17 ZIN A   1      17.602  -3.722  10.458  0.00  0.00     0.346 C 
BRANCH  25  26
ATOM     26  C19 ZIN A   1      18.757  -3.407  11.412  0.00  0.00     0.215 C 
BRANCH  26  27
ATOM     27  O20 ZIN A   1      18.317  -2.471  12.398  0.00  0.00    -0.384 OA
BRANCH  27  28
ATOM     28  C21 ZIN A   1      19.283  -2.205  13.418  0.00  0.00     0.206 C 
BRANCH  28  29
ATOM     29  C22 ZIN A   1      18.663  -1.335  14.482  0.00  0.00    -0.035 A 
ATOM     30  C27 ZIN A   1      18.786  -1.681  15.814  0.00  0.00     0.009 A 
ATOM     31  C26 ZIN A   1      18.220  -0.881  16.790  0.00  0.00     0.001 A 
ATOM     32  C25 ZIN A   1      17.527   0.260  16.433  0.00  0.00     0.000 A 
ATOM     33  C24 ZIN A   1      17.401   0.603  15.099  0.00  0.00     0.001 A 
ATOM     34  C23 ZIN A   1      17.969  -0.194  14.124  0.00  0.00     0.009 A 
ENDBRANCH  28  29
ENDBRANCH  27  28
ENDBRANCH  26  27
ENDBRANCH  25  26
BRANCH  25  35
ATOM     35  C28 ZIN A   1      16.959  -5.023  10.863  0.00  0.00     0.209 C 
ATOM     36  O29 ZIN A   1      16.075  -5.505  10.174  0.00  0.00    -0.646 OA
ATOM     37  O30 ZIN A   1      17.320  -5.593  11.878  0.00  0.00    -0.646 OA
ENDBRANCH  25  35
ENDBRANCH  20  25
ENDBRANCH   1  20
TORSDOF 20
ENDMDL
MODEL 2
REMARK VINA RESULT:      -6.6      0.892      2.265
REMARK  20 active torsions:
REMARK  status: ('A' for Active; 'I' for Inactive)
REMARK    1  A    between atoms: C2_2  and  C4_4 
REMARK    2  A    between atoms: C4_4  and  N5_5 
REMARK    3  A    between atoms: N5_5  and  C6_6 
REMARK    4  A    between atoms: N5_5  and  C35_34 
REMARK    5  A    between atoms: C6_6  and  C7_7 
REMARK    6  A    between atoms: C7_7  and  N8_8 
REMARK    7  A    between atoms: N8_8  and  C10_10 
REMARK    8  A    between atoms: N8_8  and  C31_30 
REMARK    9  A    between atoms: C10_10  and  C11_11 
REMARK   10  A    between atoms: C11_11  and  N12_12 
REMARK   11  A    between atoms: N12_12  and  C13_13 
REMARK   12  A    between atoms: N12_12  and  C17_17 
REMARK   13  A    between atoms: C13_13  and  C14_14 
REMARK   14  A    between atoms: C17_17  and  C19_18 
REMARK   15  A    between atoms: C17_17  and  C28_27 
REMARK   16  A    between atoms: C19_18  and  O20_19 
REMARK   17  A    between atoms: O20_19  and  C21_20 
REMARK   18  A    between atoms: C21_20  and  C22_21 
REMARK   19  A    between atoms: C31_30  and  C32_31 
REMARK   20  A    between atoms: C35_34  and  C36_35 
ROOT
ATOM      1  C11 ZIN A   1      17.794  -2.144   8.795  0.00  0.00     0.302 C 
ENDROOT
BRANCH   1   2
ATOM      2  C10 ZIN A   1      19.142  -1.659   8.258  0.00  0.00     0.265 C 
BRANCH   2   3
ATOM      3  N8  ZIN A   1      18.924  -0.556   7.311  0.00  0.00    -0.058 N 
ATOM      4  H9  ZIN A   1      19.811  -0.137   7.075  0.00  0.00     0.280 HD
BRANCH   3   5
ATOM      5  C7  ZIN A   1      18.053   0.453   7.928  0.00  0.00     0.265 C 
BRANCH   5   6
ATOM      6  C6  ZIN A   1      18.911   1.495   8.649  0.00  0.00     0.301 C 
BRANCH   6   7
ATOM      7  N5  ZIN A   1      18.233   1.920   9.881  0.00  0.00     0.110 N 
BRANCH   7   8
ATOM      8  C4  ZIN A   1      18.725   3.230  10.328  0.00  0.00     0.385 C 
BRANCH   8   9
ATOM      9  C2  ZIN A   1      17.583   4.213  10.353  0.00  0.00     0.202 C 
ATOM     10  O1  ZIN A   1      17.571   5.154   9.577  0.00  0.00    -0.647 OA
ATOM     11  O3  ZIN A   1      16.670   4.066  11.147  0.00  0.00    -0.647 OA
ENDBRANCH   8   9
ENDBRANCH   7   8
BRANCH   7  12
ATOM     12  C35 ZIN A   1      18.385   0.912  10.939  0.00  0.00     0.385 C 
BRANCH  12  13
ATOM     13  C36 ZIN A   1      19.841   0.786  11.307  0.00  0.00     0.202 C 
ATOM     14  O37 ZIN A   1      20.359   1.614  12.036  0.00  0.00    -0.647 OA
ATOM     15  O38 ZIN A   1      20.500  -0.144  10.876  0.00  0.00    -0.647 OA
ENDBRANCH  12  13
ENDBRANCH   7  12
ENDBRANCH   6   7
ENDBRANCH   5   6
ENDBRANCH   3   5
BRANCH   3  16
ATOM     16  C31 ZIN A   1      18.287  -1.075   6.093  0.00  0.00     0.347 C 
BRANCH  16  17
ATOM     17  C32 ZIN A   1      19.250  -0.970   4.940  0.00  0.00     0.199 C 
ATOM     18  O33 ZIN A   1      19.658   0.122   4.583  0.00  0.00    -0.647 OA
ATOM     19  O34 ZIN A   1      19.622  -1.979   4.363  0.00  0.00    -0.647 OA
ENDBRANCH  16  17
ENDBRANCH   3  16
ENDBRANCH   2   3
ENDBRANCH   1   2
BRANCH   1  20
ATOM     20  N12 ZIN A   1      17.973  -3.437   9.471  0.00  0.00     0.117 N 
BRANCH  20  21
ATOM     21  C13 ZIN A   1      19.372  -3.879   9.400  0.00  0.00     0.386 C 
BRANCH  21  22
ATOM     22  C14 ZIN A   1      19.456  -5.149   8.593  0.00  0.00     0.202 C 
ATOM     23  O15 ZIN A   1      19.141  -6.214   9.097  0.00  0.00    -0.647 OA
ATOM     24  O16 ZIN A   1      19.841  -5.112   7.437  0.00  0.00    -0.647 OA
ENDBRANCH  21  22
ENDBRANCH  20  21
BRANCH  20  25
ATOM     25  C17 ZIN A   1      17.512  -3.370  10.864  0.00  0.00     0.346 C 
BRANCH  25  26
ATOM     26  C19 ZIN A   1      18.698  -3.064  11.781  0.00  0.00     0.215 C 
BRANCH  26  27
ATOM     27  O20 ZIN A   1      18.311  -2.086  12.749  0.00  0.00    -0.384 OA
BRANCH  27  28
ATOM     28  C21 ZIN A   1      19.295  -1.845  13.756  0.00  0.00     0.206 C 
BRANCH  28  29
ATOM     29  C22 ZIN A   1      18.681  -1.048  14.879  0.00  0.00    -0.035 A 
ATOM     30  C27 ZIN A   1      18.600   0.329  14.784  0.00  0.00     0.009 A 
ATOM     31  C26 ZIN A   1      18.033   1.060  15.812  0.00  0.00     0.001 A 
ATOM     32  C25 ZIN A   1      17.555   0.415  16.937  0.00  0.00     0.000 A 
ATOM     33  C24 ZIN A   1      17.641  -0.962  17.033  0.00  0.00     0.001 A 
ATOM     34  C23 ZIN A   1      18.204  -1.693  16.004  0.00  0.00     0.009 A 
ENDBRANCH  28  29
ENDBRANCH  27  28
ENDBRANCH  26  27
ENDBRANCH  25  26
BRANCH  25  35
ATOM     35  C28 ZIN A   1      16.903  -4.691  11.256  0.00  0.00     0.209 C 
ATOM     36  O29 ZIN A   1      16.085  -5.225  10.527  0.00  0.00    -0.646 OA
ATOM     37  O30 ZIN A   1      17.227  -5.226  12.302  0.00  0.00    -0.646 OA
ENDBRANCH  25  35
ENDBRANCH  20  25
ENDBRANCH   1  20
TORSDOF 20
ENDMDL
MODEL 3
REMARK VINA RESULT:      -6.3      1.506      5.971
REMARK  20 active torsions:
REMARK  status: ('A' for Active; 'I' for Inactive)
REMARK    1  A    between atoms: C2_2  and  C4_4 
REMARK    2  A    between atoms: C4_4  and  N5_5 
REMARK    3  A    between atoms: N5_5  and  C6_6 
REMARK    4  A    between atoms: N5_5  and  C35_34 
REMARK    5  A    between atoms: C6_6  and  C7_7 
REMARK    6  A    between atoms: C7_7  and  N8_8 
REMARK    7  A    between atoms: N8_8  and  C10_10 
REMARK    8  A    between atoms: N8_8  and  C31_30 
REMARK    9  A    between atoms: C10_10  and  C11_11 
REMARK   10  A    between atoms: C11_11  and  N12_12 
REMARK   11  A    between atoms: N12_12  and  C13_13 
REMARK   12  A    between atoms: N12_12  and  C17_17 
REMARK   13  A    between atoms: C13_13  and  C14_14 
REMARK   14  A    between atoms: C17_17  and  C19_18 
REMARK   15  A    between atoms: C17_17  and  C28_27 
REMARK   16  A    between atoms: C19_18  and  O20_19 
REMARK   17  A    between atoms: O20_19  and  C21_20 
REMARK   18  A    between atoms: C21_20  and  C22_21 
REMARK   19  A    between atoms: C31_30  and  C32_31 
REMARK   20  A    between atoms: C35_34  and  C36_35 
ROOT
ATOM      1  C11 ZIN A   1      17.518  -0.159   9.608  0.00  0.00     0.302 C 
ENDROOT
BRANCH   1   2
ATOM      2  C10 ZIN A   1      17.633  -0.131   8.083  0.00  0.00     0.265 C 
BRANCH   2   3
ATOM      3  N8  ZIN A   1      17.874  -1.493   7.586  0.00  0.00    -0.058 N 
ATOM      4  H9  ZIN A   1      17.155  -1.741   6.923  0.00  0.00     0.280 HD
BRANCH   3   5
ATOM      5  C7  ZIN A   1      17.851  -2.436   8.711  0.00  0.00     0.265 C 
BRANCH   5   6
ATOM      6  C6  ZIN A   1      18.918  -3.512   8.497  0.00  0.00     0.301 C 
BRANCH   6   7
ATOM      7  N5  ZIN A   1      18.427  -4.798   9.012  0.00  0.00     0.110 N 
BRANCH   7   8
ATOM      8  C4  ZIN A   1      18.679  -4.918  10.454  0.00  0.00     0.385 C 
BRANCH   8   9
ATOM      9  C2  ZIN A   1      17.401  -5.298  11.157  0.00  0.00     0.202 C 
ATOM     10  O1  ZIN A   1      17.432  -5.678  12.315  0.00  0.00    -0.647 OA
ATOM     11  O3  ZIN A   1      16.336  -5.221  10.568  0.00  0.00    -0.647 OA
ENDBRANCH   8   9
ENDBRANCH   7   8
BRANCH   7  12
ATOM     12  C35 ZIN A   1      19.024  -5.921   8.278  0.00  0.00     0.385 C 
BRANCH  12  13
ATOM     13  C36 ZIN A   1      18.039  -6.435   7.260  0.00  0.00     0.202 C 
ATOM     14  O37 ZIN A   1      16.863  -6.123   7.337  0.00  0.00    -0.647 OA
ATOM     15  O38 ZIN A   1      18.418  -7.164   6.359  0.00  0.00    -0.647 OA
ENDBRANCH  12  13
ENDBRANCH   7  12
ENDBRANCH   6   7
ENDBRANCH   5   6
ENDBRANCH   3   5
BRANCH   3  16
ATOM     16  C31 ZIN A   1      19.187  -1.548   6.927  0.00  0.00     0.347 C 
BRANCH  16  17
ATOM     17  C32 ZIN A   1      19.004  -1.432   5.436  0.00  0.00     0.199 C 
ATOM     18  O33 ZIN A   1      17.944  -1.749   4.924  0.00  0.00    -0.647 OA
ATOM     19  O34 ZIN A   1      19.919  -1.021   4.740  0.00  0.00    -0.647 OA
ENDBRANCH  16  17
ENDBRANCH   3  16
ENDBRANCH   2   3
ENDBRANCH   1   2
BRANCH   1  20
ATOM     20  N12 ZIN A   1      18.404   0.863  10.184  0.00  0.00     0.117 N 
BRANCH  20  21
ATOM     21  C13 ZIN A   1      17.649   2.069  10.548  0.00  0.00     0.386 C 
BRANCH  21  22
ATOM     22  C14 ZIN A   1      18.165   3.243   9.758  0.00  0.00     0.202 C 
ATOM     23  O15 ZIN A   1      17.849   4.378  10.073  0.00  0.00    -0.647 OA
ATOM     24  O16 ZIN A   1      18.899   3.059   8.802  0.00  0.00    -0.647 OA
ENDBRANCH  21  22
ENDBRANCH  20  21
BRANCH  20  25
ATOM     25  C17 ZIN A   1      19.138   0.332  11.340  0.00  0.00     0.346 C 
BRANCH  25  26
ATOM     26  C19 ZIN A   1      19.937   1.458  11.999  0.00  0.00     0.215 C 
BRANCH  26  27
ATOM     27  O20 ZIN A   1      19.624   1.512  13.393  0.00  0.00    -0.384 OA
BRANCH  27  28
ATOM     28  C21 ZIN A   1      18.597   0.602  13.793  0.00  0.00     0.206 C 
BRANCH  28  29
ATOM     29  C22 ZIN A   1      18.820   0.193  15.227  0.00  0.00    -0.035 A 
ATOM     30  C27 ZIN A   1      18.943  -1.145  15.553  0.00  0.00     0.009 A 
ATOM     31  C26 ZIN A   1      19.150  -1.520  16.868  0.00  0.00     0.001 A 
ATOM     32  C25 ZIN A   1      19.226  -0.557  17.857  0.00  0.00     0.000 A 
ATOM     33  C24 ZIN A   1      19.098   0.781  17.531  0.00  0.00     0.001 A 
ATOM     34  C23 ZIN A   1      18.895   1.156  16.217  0.00  0.00     0.009 A 
ENDBRANCH  28  29
ENDBRANCH  27  28
ENDBRANCH  26  27
ENDBRANCH  25  26
BRANCH  25  35
ATOM     35  C28 ZIN A   1      20.080  -0.751  10.884  0.00  0.00     0.209 C 
ATOM     36  O29 ZIN A   1      20.081  -1.834  11.444  0.00  0.00    -0.646 OA
ATOM     37  O30 ZIN A   1      20.842  -0.545   9.955  0.00  0.00    -0.646 OA
ENDBRANCH  25  35
ENDBRANCH  20  25
ENDBRANCH   1  20
TORSDOF 20
ENDMDL
MODEL 4
REMARK VINA RESULT:      -6.3      1.682      5.896
REMARK  20 active torsions:
REMARK  status: ('A' for Active; 'I' for Inactive)
REMARK    1  A    between atoms: C2_2  and  C4_4 
REMARK    2  A    between atoms: C4_4  and  N5_5 
REMARK    3  A    between atoms: N5_5  and  C6_6 
REMARK    4  A    between atoms: N5_5  and  C35_34 
REMARK    5  A    between atoms: C6_6  and  C7_7 
REMARK    6  A    between atoms: C7_7  and  N8_8 
REMARK    7  A    between atoms: N8_8  and  C10_10 
REMARK    8  A    between atoms: N8_8  and  C31_30 
REMARK    9  A    between atoms: C10_10  and  C11_11 
REMARK   10  A    between atoms: C11_11  and  N12_12 
REMARK   11  A    between atoms: N12_12  and  C13_13 
REMARK   12  A    between atoms: N12_12  and  C17_17 
REMARK   13  A    between atoms: C13_13  and  C14_14 
REMARK   14  A    between atoms: C17_17  and  C19_18 
REMARK   15  A    between atoms: C17_17  and  C28_27 
REMARK   16  A    between atoms: C19_18  and  O20_19 
REMARK   17  A    between atoms: O20_19  and  C21_20 
REMARK   18  A    between atoms: C21_20  and  C22_21 
REMARK   19  A    between atoms: C31_30  and  C32_31 
REMARK   20  A    between atoms: C35_34  and  C36_35 
ROOT
ATOM      1  C11 ZIN A   1      19.225  -0.342   9.653  0.00  0.00     0.302 C 
ENDROOT
BRANCH   1   2
ATOM      2  C10 ZIN A   1      18.589  -0.068   8.289  0.00  0.00     0.265 C 
BRANCH   2   3
ATOM      3  N8  ZIN A   1      18.338  -1.342   7.601  0.00  0.00    -0.058 N 
ATOM      4  H9  ZIN A   1      17.482  -1.275   7.072  0.00  0.00     0.280 HD
BRANCH   3   5
ATOM      5  C7  ZIN A   1      18.219  -2.419   8.593  0.00  0.00     0.265 C 
BRANCH   5   6
ATOM      6  C6  ZIN A   1      18.555  -3.758   7.935  0.00  0.00     0.301 C 
BRANCH   6   7
ATOM      7  N5  ZIN A   1      17.639  -4.793   8.435  0.00  0.00     0.110 N 
BRANCH   7   8
ATOM      8  C4  ZIN A   1      18.288  -5.617   9.464  0.00  0.00     0.385 C 
BRANCH   8   9
ATOM      9  C2  ZIN A   1      17.797  -5.198  10.826  0.00  0.00     0.202 C 
ATOM     10  O1  ZIN A   1      18.587  -4.786  11.658  0.00  0.00    -0.647 OA
ATOM     11  O3  ZIN A   1      16.609  -5.269  11.094  0.00  0.00    -0.647 OA
ENDBRANCH   8   9
ENDBRANCH   7   8
BRANCH   7  12
ATOM     12  C35 ZIN A   1      17.135  -5.625   7.335  0.00  0.00     0.385 C 
BRANCH  12  13
ATOM     13  C36 ZIN A   1      18.160  -6.673   6.987  0.00  0.00     0.202 C 
ATOM     14  O37 ZIN A   1      19.083  -6.399   6.239  0.00  0.00    -0.647 OA
ATOM     15  O38 ZIN A   1      18.067  -7.796   7.454  0.00  0.00    -0.647 OA
ENDBRANCH  12  13
ENDBRANCH   7  12
ENDBRANCH   6   7
ENDBRANCH   5   6
ENDBRANCH   3   5
BRANCH   3  16
ATOM     16  C31 ZIN A   1      19.454  -1.635   6.691  0.00  0.00     0.347 C 
BRANCH  16  17
ATOM     17  C32 ZIN A   1      19.103  -1.171   5.302  0.00  0.00     0.199 C 
ATOM     18  O33 ZIN A   1      17.957  -1.270   4.897  0.00  0.00    -0.647 OA
ATOM     19  O34 ZIN A   1      19.966  -0.697   4.581  0.00  0.00    -0.647 OA
ENDBRANCH  16  17
ENDBRANCH   3  16
ENDBRANCH   2   3
ENDBRANCH   1   2
BRANCH   1  20
ATOM     20  N12 ZIN A   1      18.825   0.709  10.600  0.00  0.00     0.117 N 
BRANCH  20  21
ATOM     21  C13 ZIN A   1      17.792   1.576  10.019  0.00  0.00     0.386 C 
BRANCH  21  22
ATOM     22  C14 ZIN A   1      17.912   2.960  10.600  0.00  0.00     0.202 C 
ATOM     23  O15 ZIN A   1      18.988   3.536  10.587  0.00  0.00    -0.647 OA
ATOM     24  O16 ZIN A   1      16.935   3.505  11.085  0.00  0.00    -0.647 OA
ENDBRANCH  21  22
ENDBRANCH  20  21
BRANCH  20  25
ATOM     25  C17 ZIN A   1      18.372   0.128  11.870  0.00  0.00     0.346 C 
BRANCH  25  26
ATOM     26  C19 ZIN A   1      19.401  -0.893  12.361  0.00  0.00     0.215 C 
BRANCH  26  27
ATOM     27  O20 ZIN A   1      19.786  -0.575  13.700  0.00  0.00    -0.384 OA
BRANCH  27  28
ATOM     28  C21 ZIN A   1      18.951  -1.162  14.700  0.00  0.00     0.206 C 
BRANCH  28  29
ATOM     29  C22 ZIN A   1      19.029  -0.343  15.964  0.00  0.00    -0.035 A 
ATOM     30  C27 ZIN A   1      19.033   1.037  15.893  0.00  0.00     0.009 A 
ATOM     31  C26 ZIN A   1      19.101   1.788  17.052  0.00  0.00     0.001 A 
ATOM     32  C25 ZIN A   1      19.172   1.159  18.280  0.00  0.00     0.000 A 
ATOM     33  C24 ZIN A   1      19.172  -0.222  18.350  0.00  0.00     0.001 A 
ATOM     34  C23 ZIN A   1      19.101  -0.973  17.192  0.00  0.00     0.009 A 
ENDBRANCH  28  29
ENDBRANCH  27  28
ENDBRANCH  26  27
ENDBRANCH  25  26
BRANCH  25  35
ATOM     35  C28 ZIN A   1      17.045  -0.556  11.665  0.00  0.00     0.209 C 
ATOM     36  O29 ZIN A   1      16.986  -1.774  11.633  0.00  0.00    -0.646 OA
ATOM     37  O30 ZIN A   1      16.031   0.107  11.532  0.00  0.00    -0.646 OA
ENDBRANCH  25  35
ENDBRANCH  20  25
ENDBRANCH   1  20
TORSDOF 20
ENDMDL
MODEL 5
REMARK VINA RESULT:      -6.2      2.719      7.463
REMARK  20 active torsions:
REMARK  status: ('A' for Active; 'I' for Inactive)
REMARK    1  A    between atoms: C2_2  and  C4_4 
REMARK    2  A    between atoms: C4_4  and  N5_5 
REMARK    3  A    between atoms: N5_5  and  C6_6 
REMARK    4  A    between atoms: N5_5  and  C35_34 
REMARK    5  A    between atoms: C6_6  and  C7_7 
REMARK    6  A    between atoms: C7_7  and  N8_8 
REMARK    7  A    between atoms: N8_8  and  C10_10 
REMARK    8  A    between atoms: N8_8  and  C31_30 
REMARK    9  A    between atoms: C10_10  and  C11_11 
REMARK   10  A    between atoms: C11_11  and  N12_12 
REMARK   11  A    between atoms: N12_12  and  C13_13 
REMARK   12  A    between atoms: N12_12  and  C17_17 
REMARK   13  A    between atoms: C13_13  and  C14_14 
REMARK   14  A    between atoms: C17_17  and  C19_18 
REMARK   15  A    between atoms: C17_17  and  C28_27 
REMARK   16  A    between atoms: C19_18  and  O20_19 
REMARK   17  A    between atoms: O20_19  and  C21_20 
REMARK   18  A    between atoms: C21_20  and  C22_21 
REMARK   19  A    between atoms: C31_30  and  C32_31 
REMARK   20  A    between atoms: C35_34  and  C36_35 
ROOT
ATOM      1  C11 ZIN A   1      18.494  -0.712  14.032  0.00  0.00     0.302 C 
ENDROOT
BRANCH   1   2
ATOM      2  C10 ZIN A   1      17.630   0.549  14.033  0.00  0.00     0.265 C 
BRANCH   2   3
ATOM      3  N8  ZIN A   1      17.835   1.283  15.290  0.00  0.00    -0.058 N 
ATOM      4  H9  ZIN A   1      17.048   1.126  15.902  0.00  0.00     0.280 HD
BRANCH   3   5
ATOM      5  C7  ZIN A   1      17.957   2.718  15.004  0.00  0.00     0.265 C 
BRANCH   5   6
ATOM      6  C6  ZIN A   1      19.181   2.961  14.120  0.00  0.00     0.301 C 
BRANCH   6   7
ATOM      7  N5  ZIN A   1      18.925   4.102  13.230  0.00  0.00     0.110 N 
BRANCH   7   8
ATOM      8  C4  ZIN A   1      19.085   3.717  11.822  0.00  0.00     0.385 C 
BRANCH   8   9
ATOM      9  C2  ZIN A   1      17.738   3.721  11.145  0.00  0.00     0.202 C 
ATOM     10  O1  ZIN A   1      17.414   4.658  10.436  0.00  0.00    -0.647 OA
ATOM     11  O3  ZIN A   1      16.974   2.784  11.304  0.00  0.00    -0.647 OA
ENDBRANCH   8   9
ENDBRANCH   7   8
BRANCH   7  12
ATOM     12  C35 ZIN A   1      19.794   5.237  13.567  0.00  0.00     0.385 C 
BRANCH  12  13
ATOM     13  C36 ZIN A   1      19.013   6.246  14.369  0.00  0.00     0.202 C 
ATOM     14  O37 ZIN A   1      17.813   6.367  14.194  0.00  0.00    -0.647 OA
ATOM     15  O38 ZIN A   1      19.582   6.942  15.193  0.00  0.00    -0.647 OA
ENDBRANCH  12  13
ENDBRANCH   7  12
ENDBRANCH   6   7
ENDBRANCH   5   6
ENDBRANCH   3   5
BRANCH   3  16
ATOM     16  C31 ZIN A   1      19.064   0.806  15.939  0.00  0.00     0.347 C 
BRANCH  16  17
ATOM     17  C32 ZIN A   1      18.879   0.821  17.434  0.00  0.00     0.199 C 
ATOM     18  O33 ZIN A   1      19.706   1.364  18.146  0.00  0.00    -0.647 OA
ATOM     19  O34 ZIN A   1      17.900   0.290  17.932  0.00  0.00    -0.647 OA
ENDBRANCH  16  17
ENDBRANCH   3  16
ENDBRANCH   2   3
ENDBRANCH   1   2
BRANCH   1  20
ATOM     20  N12 ZIN A   1      18.663  -1.189  12.652  0.00  0.00     0.117 N 
BRANCH  20  21
ATOM     21  C13 ZIN A   1      17.460  -1.893  12.187  0.00  0.00     0.386 C 
BRANCH  21  22
ATOM     22  C14 ZIN A   1      17.829  -3.290  11.760  0.00  0.00     0.202 C 
ATOM     23  O15 ZIN A   1      16.998  -4.002  11.223  0.00  0.00    -0.647 OA
ATOM     24  O16 ZIN A   1      18.957  -3.708  11.954  0.00  0.00    -0.647 OA
ENDBRANCH  21  22
ENDBRANCH  20  21
BRANCH  20  25
ATOM     25  C17 ZIN A   1      19.006  -0.081  11.750  0.00  0.00     0.346 C 
BRANCH  25  26
ATOM     26  C19 ZIN A   1      18.370  -0.322  10.379  0.00  0.00     0.215 C 
BRANCH  26  27
ATOM     27  O20 ZIN A   1      18.810   0.686   9.467  0.00  0.00    -0.384 OA
BRANCH  27  28
ATOM     28  C21 ZIN A   1      17.906   0.925   8.386  0.00  0.00     0.206 C 
BRANCH  28  29
ATOM     29  C22 ZIN A   1      18.422   0.248   7.141  0.00  0.00    -0.035 A 
ATOM     30  C27 ZIN A   1      18.850   1.007   6.069  0.00  0.00     0.009 A 
ATOM     31  C26 ZIN A   1      19.326   0.386   4.929  0.00  0.00     0.001 A 
ATOM     32  C25 ZIN A   1      19.366  -0.994   4.859  0.00  0.00     0.000 A 
ATOM     33  C24 ZIN A   1      18.933  -1.753   5.931  0.00  0.00     0.001 A 
ATOM     34  C23 ZIN A   1      18.461  -1.133   7.071  0.00  0.00     0.009 A 
ENDBRANCH  28  29
ENDBRANCH  27  28
ENDBRANCH  26  27
ENDBRANCH  25  26
BRANCH  25  35
ATOM     35  C28 ZIN A   1      20.503   0.002  11.601  0.00  0.00     0.209 C 
ATOM     36  O29 ZIN A   1      21.079  -0.741  10.825  0.00  0.00    -0.646 OA
ATOM     37  O30 ZIN A   1      21.137   0.809  12.257  0.00  0.00    -0.646 OA
ENDBRANCH  25  35
ENDBRANCH  20  25
ENDBRANCH   1  20
TORSDOF 20
ENDMDL
MODEL 6
REMARK VINA RESULT:      -6.2      3.867      8.310
REMARK  20 active torsions:
REMARK  status: ('A' for Active; 'I' for Inactive)
REMARK    1  A    between atoms: C2_2  and  C4_4 
REMARK    2  A    between atoms: C4_4  and  N5_5 
REMARK    3  A    between atoms: N5_5  and  C6_6 
REMARK    4  A    between atoms: N5_5  and  C35_34 
REMARK    5  A    between atoms: C6_6  and  C7_7 
REMARK    6  A    between atoms: C7_7  and  N8_8 
REMARK    7  A    between atoms: N8_8  and  C10_10 
REMARK    8  A    between atoms: N8_8  and  C31_30 
REMARK    9  A    between atoms: C10_10  and  C11_11 
REMARK   10  A    between atoms: C11_11  and  N12_12 
REMARK   11  A    between atoms: N12_12  and  C13_13 
REMARK   12  A    between atoms: N12_12  and  C17_17 
REMARK   13  A    between atoms: C13_13  and  C14_14 
REMARK   14  A    between atoms: C17_17  and  C19_18 
REMARK   15  A    between atoms: C17_17  and  C28_27 
REMARK   16  A    between atoms: C19_18  and  O20_19 
REMARK   17  A    between atoms: O20_19  and  C21_20 
REMARK   18  A    between atoms: C21_20  and  C22_21 
REMARK   19  A    between atoms: C31_30  and  C32_31 
REMARK   20  A    between atoms: C35_34  and  C36_35 
ROOT
ATOM      1  C11 ZIN A   1      19.624   1.526  13.405  0.00  0.00     0.302 C 
ENDROOT
BRANCH   1   2
ATOM      2  C10 ZIN A   1      18.660   2.614  13.881  0.00  0.00     0.265 C 
BRANCH   2   3
ATOM      3  N8  ZIN A   1      19.428   3.738  14.437  0.00  0.00    -0.058 N 
ATOM      4  H9  ZIN A   1      20.356   3.739  14.041  0.00  0.00     0.280 HD
BRANCH   3   5
ATOM      5  C7  ZIN A   1      19.515   3.597  15.896  0.00  0.00     0.265 C 
BRANCH   5   6
ATOM      6  C6  ZIN A   1      18.184   3.075  16.439  0.00  0.00     0.301 C 
BRANCH   6   7
ATOM      7  N5  ZIN A   1      18.015   3.517  17.830  0.00  0.00     0.110 N 
BRANCH   7   8
ATOM      8  C4  ZIN A   1      17.997   4.983  17.917  0.00  0.00     0.385 C 
BRANCH   8   9
ATOM      9  C2  ZIN A   1      16.591   5.482  17.704  0.00  0.00     0.202 C 
ATOM     10  O1  ZIN A   1      16.281   5.999  16.644  0.00  0.00    -0.647 OA
ATOM     11  O3  ZIN A   1      15.763   5.366  18.592  0.00  0.00    -0.647 OA
ENDBRANCH   8   9
ENDBRANCH   7   8
BRANCH   7  12
ATOM     12  C35 ZIN A   1      19.060   2.951  18.693  0.00  0.00     0.385 C 
BRANCH  12  13
ATOM     13  C36 ZIN A   1      18.953   1.448  18.690  0.00  0.00     0.202 C 
ATOM     14  O37 ZIN A   1      17.894   0.911  18.965  0.00  0.00    -0.647 OA
ATOM     15  O38 ZIN A   1      19.927   0.769  18.412  0.00  0.00    -0.647 OA
ENDBRANCH  12  13
ENDBRANCH   7  12
ENDBRANCH   6   7
ENDBRANCH   5   6
ENDBRANCH   3   5
BRANCH   3  16
ATOM     16  C31 ZIN A   1      18.754   5.001  14.106  0.00  0.00     0.347 C 
BRANCH  16  17
ATOM     17  C32 ZIN A   1      19.590   6.157  14.590  0.00  0.00     0.199 C 
ATOM     18  O33 ZIN A   1      20.785   6.189  14.349  0.00  0.00    -0.647 OA
ATOM     19  O34 ZIN A   1      19.071   7.062  15.224  0.00  0.00    -0.647 OA
ENDBRANCH  16  17
ENDBRANCH   3  16
ENDBRANCH   2   3
ENDBRANCH   1   2
BRANCH   1  20
ATOM     20  N12 ZIN A   1      18.952   0.220  13.460  0.00  0.00     0.117 N 
BRANCH  20  21
ATOM     21  C13 ZIN A   1      17.751   0.280  14.303  0.00  0.00     0.386 C 
BRANCH  21  22
ATOM     22  C14 ZIN A   1      17.966  -0.548  15.543  0.00  0.00     0.202 C 
ATOM     23  O15 ZIN A   1      19.049  -1.072  15.747  0.00  0.00    -0.647 OA
ATOM     24  O16 ZIN A   1      17.058  -0.695  16.343  0.00  0.00    -0.647 OA
ENDBRANCH  21  22
ENDBRANCH  20  21
BRANCH  20  25
ATOM     25  C17 ZIN A   1      18.625  -0.261  12.111  0.00  0.00     0.346 C 
BRANCH  25  26
ATOM     26  C19 ZIN A   1      17.105  -0.295  11.935  0.00  0.00     0.215 C 
BRANCH  26  27
ATOM     27  O20 ZIN A   1      16.750   0.387  10.731  0.00  0.00    -0.384 OA
BRANCH  27  28
ATOM     28  C21 ZIN A   1      17.778   1.237  10.219  0.00  0.00     0.206 C 
BRANCH  28  29
ATOM     29  C22 ZIN A   1      17.988   0.946   8.755  0.00  0.00    -0.035 A 
ATOM     30  C27 ZIN A   1      18.896   1.691   8.026  0.00  0.00     0.009 A 
ATOM     31  C26 ZIN A   1      19.092   1.421   6.684  0.00  0.00     0.001 A 
ATOM     32  C25 ZIN A   1      18.374   0.412   6.070  0.00  0.00     0.000 A 
ATOM     33  C24 ZIN A   1      17.462  -0.330   6.798  0.00  0.00     0.001 A 
ATOM     34  C23 ZIN A   1      17.269  -0.063   8.140  0.00  0.00     0.009 A 
ENDBRANCH  28  29
ENDBRANCH  27  28
ENDBRANCH  26  27
ENDBRANCH  25  26
BRANCH  25  35
ATOM     35  C28 ZIN A   1      19.183  -1.648  11.921  0.00  0.00     0.209 C 
ATOM     36  O29 ZIN A   1      19.924  -1.882  10.981  0.00  0.00    -0.646 OA
ATOM     37  O30 ZIN A   1      18.894  -2.534  12.705  0.00  0.00    -0.646 OA
ENDBRANCH  25  35
ENDBRANCH  20  25
ENDBRANCH   1  20
TORSDOF 20
ENDMDL
MODEL 7
REMARK VINA RESULT:      -6.2      2.151      3.364
REMARK  20 active torsions:
REMARK  status: ('A' for Active; 'I' for Inactive)
REMARK    1  A    between atoms: C2_2  and  C4_4 
REMARK    2  A    between atoms: C4_4  and  N5_5 
REMARK    3  A    between atoms: N5_5  and  C6_6 
REMARK    4  A    between atoms: N5_5  and  C35_34 
REMARK    5  A    between atoms: C6_6  and  C7_7 
REMARK    6  A    between atoms: C7_7  and  N8_8 
REMARK    7  A    between atoms: N8_8  and  C10_10 
REMARK    8  A    between atoms: N8_8  and  C31_30 
REMARK    9  A    between atoms: C10_10  and  C11_11 
REMARK   10  A    between atoms: C11_11  and  N12_12 
REMARK   11  A    between atoms: N12_12  and  C13_13 
REMARK   12  A    between atoms: N12_12  and  C17_17 
REMARK   13  A    between atoms: C13_13  and  C14_14 
REMARK   14  A    between atoms: C17_17  and  C19_18 
REMARK   15  A    between atoms: C17_17  and  C28_27 
REMARK   16  A    between atoms: C19_18  and  O20_19 
REMARK   17  A    between atoms: O20_19  and  C21_20 
REMARK   18  A    between atoms: C21_20  and  C22_21 
REMARK   19  A    between atoms: C31_30  and  C32_31 
REMARK   20  A    between atoms: C35_34  and  C36_35 
ROOT
ATOM      1  C11 ZIN A   1      19.023  -1.456   9.804  0.00  0.00     0.302 C 
ENDROOT
BRANCH   1   2
ATOM      2  C10 ZIN A   1      19.763  -0.117   9.815  0.00  0.00     0.265 C 
BRANCH   2   3
ATOM      3  N8  ZIN A   1      19.112   0.811   8.880  0.00  0.00    -0.058 N 
ATOM      4  H9  ZIN A   1      19.805   1.203   8.260  0.00  0.00     0.280 HD
BRANCH   3   5
ATOM      5  C7  ZIN A   1      18.462   1.890   9.635  0.00  0.00     0.265 C 
BRANCH   5   6
ATOM      6  C6  ZIN A   1      19.509   2.635  10.465  0.00  0.00     0.301 C 
BRANCH   6   7
ATOM      7  N5  ZIN A   1      18.836   3.569  11.378  0.00  0.00     0.110 N 
BRANCH   7   8
ATOM      8  C4  ZIN A   1      19.187   3.283  12.775  0.00  0.00     0.385 C 
BRANCH   8   9
ATOM      9  C2  ZIN A   1      19.230   4.572  13.556  0.00  0.00     0.202 C 
ATOM     10  O1  ZIN A   1      20.122   5.379  13.352  0.00  0.00    -0.647 OA
ATOM     11  O3  ZIN A   1      18.371   4.809  14.388  0.00  0.00    -0.647 OA
ENDBRANCH   8   9
ENDBRANCH   7   8
BRANCH   7  12
ATOM     12  C35 ZIN A   1      17.380   3.538  11.184  0.00  0.00     0.385 C 
BRANCH  12  13
ATOM     13  C36 ZIN A   1      16.861   4.948  11.057  0.00  0.00     0.202 C 
ATOM     14  O37 ZIN A   1      17.139   5.613  10.075  0.00  0.00    -0.647 OA
ATOM     15  O38 ZIN A   1      16.163   5.421  11.937  0.00  0.00    -0.647 OA
ENDBRANCH  12  13
ENDBRANCH   7  12
ENDBRANCH   6   7
ENDBRANCH   5   6
ENDBRANCH   3   5
BRANCH   3  16
ATOM     16  C31 ZIN A   1      18.104   0.086   8.094  0.00  0.00     0.347 C 
BRANCH  16  17
ATOM     17  C32 ZIN A   1      18.235   0.464   6.641  0.00  0.00     0.199 C 
ATOM     18  O33 ZIN A   1      19.165   1.162   6.274  0.00  0.00    -0.647 OA
ATOM     19  O34 ZIN A   1      17.411   0.070   5.833  0.00  0.00    -0.647 OA
ENDBRANCH  16  17
ENDBRANCH   3  16
ENDBRANCH   2   3
ENDBRANCH   1   2
BRANCH   1  20
ATOM     20  N12 ZIN A   1      18.841  -1.926  11.184  0.00  0.00     0.117 N 
BRANCH  20  21
ATOM     21  C13 ZIN A   1      19.868  -2.913  11.544  0.00  0.00     0.386 C 
BRANCH  21  22
ATOM     22  C14 ZIN A   1      19.395  -4.292  11.162  0.00  0.00     0.202 C 
ATOM     23  O15 ZIN A   1      18.432  -4.784  11.727  0.00  0.00    -0.647 OA
ATOM     24  O16 ZIN A   1      19.975  -4.916  10.290  0.00  0.00    -0.647 OA
ENDBRANCH  21  22
ENDBRANCH  20  21
BRANCH  20  25
ATOM     25  C17 ZIN A   1      18.839  -0.801  12.128  0.00  0.00     0.346 C 
BRANCH  25  26
ATOM     26  C19 ZIN A   1      19.455  -1.246  13.456  0.00  0.00     0.215 C 
BRANCH  26  27
ATOM     27  O20 ZIN A   1      18.440  -1.288  14.461  0.00  0.00    -0.384 OA
BRANCH  27  28
ATOM     28  C21 ZIN A   1      18.940  -1.505  15.782  0.00  0.00     0.206 C 
BRANCH  28  29
ATOM     29  C22 ZIN A   1      18.851  -0.223  16.570  0.00  0.00    -0.035 A 
ATOM     30  C27 ZIN A   1      18.577  -0.262  17.924  0.00  0.00     0.009 A 
ATOM     31  C26 ZIN A   1      18.499   0.915  18.647  0.00  0.00     0.001 A 
ATOM     32  C25 ZIN A   1      18.687   2.129  18.014  0.00  0.00     0.000 A 
ATOM     33  C24 ZIN A   1      18.956   2.167  16.658  0.00  0.00     0.001 A 
ATOM     34  C23 ZIN A   1      19.038   0.992  15.936  0.00  0.00     0.009 A 
ENDBRANCH  28  29
ENDBRANCH  27  28
ENDBRANCH  26  27
ENDBRANCH  25  26
BRANCH  25  35
ATOM     35  C28 ZIN A   1      17.423  -0.342  12.361  0.00  0.00     0.209 C 
ATOM     36  O29 ZIN A   1      16.491  -1.009  11.945  0.00  0.00    -0.646 OA
ATOM     37  O30 ZIN A   1      17.209   0.694  12.965  0.00  0.00    -0.646 OA
ENDBRANCH  25  35
ENDBRANCH  20  25
ENDBRANCH   1  20
TORSDOF 20
ENDMDL
MODEL 8
REMARK VINA RESULT:      -6.1      2.893      6.234
REMARK  20 active torsions:
REMARK  status: ('A' for Active; 'I' for Inactive)
REMARK    1  A    between atoms: C2_2  and  C4_4 
REMARK    2  A    between atoms: C4_4  and  N5_5 
REMARK    3  A    between atoms: N5_5  and  C6_6 
REMARK    4  A    between atoms: N5_5  and  C35_34 
REMARK    5  A    between atoms: C6_6  and  C7_7 
REMARK    6  A    between atoms: C7_7  and  N8_8 
REMARK    7  A    between atoms: N8_8  and  C10_10 
REMARK    8  A    between atoms: N8_8  and  C31_30 
REMARK    9  A    between atoms: C10_10  and  C11_11 
REMARK   10  A    between atoms: C11_11  and  N12_12 
REMARK   11  A    between atoms: N12_12  and  C13_13 
REMARK   12  A    between atoms: N12_12  and  C17_17 
REMARK   13  A    between atoms: C13_13  and  C14_14 
REMARK   14  A    between atoms: C17_17  and  C19_18 
REMARK   15  A    between atoms: C17_17  and  C28_27 
REMARK   16  A    between atoms: C19_18  and  O20_19 
REMARK   17  A    between atoms: O20_19  and  C21_20 
REMARK   18  A    between atoms: C21_20  and  C22_21 
REMARK   19  A    between atoms: C31_30  and  C32_31 
REMARK   20  A    between atoms: C35_34  and  C36_35 
ROOT
ATOM      1  C11 ZIN A   1      17.208  -0.504  11.484  0.00  0.00     0.302 C 
ENDROOT
BRANCH   1   2
ATOM      2  C10 ZIN A   1      17.332  -2.018  11.658  0.00  0.00     0.265 C 
BRANCH   2   3
ATOM      3  N8  ZIN A   1      18.094  -2.310  12.881  0.00  0.00    -0.058 N 
ATOM      4  H9  ZIN A   1      17.619  -3.026  13.409  0.00  0.00     0.280 HD
BRANCH   3   5
ATOM      5  C7  ZIN A   1      18.202  -1.090  13.692  0.00  0.00     0.265 C 
BRANCH   5   6
ATOM      6  C6  ZIN A   1      19.233  -1.306  14.802  0.00  0.00     0.301 C 
BRANCH   6   7
ATOM      7  N5  ZIN A   1      19.051  -0.286  15.844  0.00  0.00     0.110 N 
BRANCH   7   8
ATOM      8  C4  ZIN A   1      18.806  -0.908  17.151  0.00  0.00     0.385 C 
BRANCH   8   9
ATOM      9  C2  ZIN A   1      18.964   0.126  18.237  0.00  0.00     0.202 C 
ATOM     10  O1  ZIN A   1      20.029   0.702  18.380  0.00  0.00    -0.647 OA
ATOM     11  O3  ZIN A   1      18.025   0.387  18.971  0.00  0.00    -0.647 OA
ENDBRANCH   8   9
ENDBRANCH   7   8
BRANCH   7  12
ATOM     12  C35 ZIN A   1      17.968   0.641  15.490  0.00  0.00     0.385 C 
BRANCH  12  13
ATOM     13  C36 ZIN A   1      18.549   1.997  15.180  0.00  0.00     0.202 C 
ATOM     14  O37 ZIN A   1      18.613   2.846  16.051  0.00  0.00    -0.647 OA
ATOM     15  O38 ZIN A   1      18.953   2.244  14.056  0.00  0.00    -0.647 OA
ENDBRANCH  12  13
ENDBRANCH   7  12
ENDBRANCH   6   7
ENDBRANCH   5   6
ENDBRANCH   3   5
BRANCH   3  16
ATOM     16  C31 ZIN A   1      19.439  -2.779  12.519  0.00  0.00     0.347 C 
BRANCH  16  17
ATOM     17  C32 ZIN A   1      19.325  -3.933  11.558  0.00  0.00     0.199 C 
ATOM     18  O33 ZIN A   1      19.874  -3.877  10.470  0.00  0.00    -0.647 OA
ATOM     19  O34 ZIN A   1      18.683  -4.923  11.867  0.00  0.00    -0.647 OA
ENDBRANCH  16  17
ENDBRANCH   3  16
ENDBRANCH   2   3
ENDBRANCH   1   2
BRANCH   1  20
ATOM     20  N12 ZIN A   1      18.078  -0.064  10.384  0.00  0.00     0.117 N 
BRANCH  20  21
ATOM     21  C13 ZIN A   1      17.285   0.445   9.257  0.00  0.00     0.386 C 
BRANCH  21  22
ATOM     22  C14 ZIN A   1      17.436  -0.481   8.078  0.00  0.00     0.202 C 
ATOM     23  O15 ZIN A   1      17.948  -1.578   8.226  0.00  0.00    -0.647 OA
ATOM     24  O16 ZIN A   1      17.047  -0.134   6.976  0.00  0.00    -0.647 OA
ENDBRANCH  21  22
ENDBRANCH  20  21
BRANCH  20  25
ATOM     25  C17 ZIN A   1      19.042   0.943  10.846  0.00  0.00     0.346 C 
BRANCH  25  26
ATOM     26  C19 ZIN A   1      19.183   2.039   9.788  0.00  0.00     0.215 C 
BRANCH  26  27
ATOM     27  O20 ZIN A   1      19.166   3.319  10.423  0.00  0.00    -0.384 OA
BRANCH  27  28
ATOM     28  C21 ZIN A   1      17.880   3.943  10.439  0.00  0.00     0.206 C 
BRANCH  28  29
ATOM     29  C22 ZIN A   1      17.700   4.690  11.736  0.00  0.00    -0.035 A 
ATOM     30  C27 ZIN A   1      18.789   4.927  12.554  0.00  0.00     0.009 A 
ATOM     31  C26 ZIN A   1      18.625   5.615  13.742  0.00  0.00     0.001 A 
ATOM     32  C25 ZIN A   1      17.370   6.059  14.116  0.00  0.00     0.000 A 
ATOM     33  C24 ZIN A   1      16.280   5.817  13.300  0.00  0.00     0.001 A 
ATOM     34  C23 ZIN A   1      16.445   5.133  12.111  0.00  0.00     0.009 A 
ENDBRANCH  28  29
ENDBRANCH  27  28
ENDBRANCH  26  27
ENDBRANCH  25  26
BRANCH  25  35
ATOM     35  C28 ZIN A   1      20.381   0.290  11.073  0.00  0.00     0.209 C 
ATOM     36  O29 ZIN A   1      20.830  -0.482  10.244  0.00  0.00    -0.646 OA
ATOM     37  O30 ZIN A   1      21.014   0.534  12.085  0.00  0.00    -0.646 OA
ENDBRANCH  25  35
ENDBRANCH  20  25
ENDBRANCH   1  20
TORSDOF 20
ENDMDL
MODEL 9
REMARK VINA RESULT:      -6.1      2.547      5.168
REMARK  20 active torsions:
REMARK  status: ('A' for Active; 'I' for Inactive)
REMARK    1  A    between atoms: C2_2  and  C4_4 
REMARK    2  A    between atoms: C4_4  and  N5_5 
REMARK    3  A    between atoms: N5_5  and  C6_6 
REMARK    4  A    between atoms: N5_5  and  C35_34 
REMARK    5  A    between atoms: C6_6  and  C7_7 
REMARK    6  A    between atoms: C7_7  and  N8_8 
REMARK    7  A    between atoms: N8_8  and  C10_10 
REMARK    8  A    between atoms: N8_8  and  C31_30 
REMARK    9  A    between atoms: C10_10  and  C11_11 
REMARK   10  A    between atoms: C11_11  and  N12_12 
REMARK   11  A    between atoms: N12_12  and  C13_13 
REMARK   12  A    between atoms: N12_12  and  C17_17 
REMARK   13  A    between atoms: C13_13  and  C14_14 
REMARK   14  A    between atoms: C17_17  and  C19_18 
REMARK   15  A    between atoms: C17_17  and  C28_27 
REMARK   16  A    between atoms: C19_18  and  O20_19 
REMARK   17  A    between atoms: O20_19  and  C21_20 
REMARK   18  A    between atoms: C21_20  and  C22_21 
REMARK   19  A    between atoms: C31_30  and  C32_31 
REMARK   20  A    between atoms: C35_34  and  C36_35 
ROOT
ATOM      1  C11 ZIN A   1      17.847  -5.603   5.983  0.00  0.00     0.302 C 
ENDROOT
BRANCH   1   2
ATOM      2  C10 ZIN A   1      17.812  -4.347   6.855  0.00  0.00     0.265 C 
BRANCH   2   3
ATOM      3  N8  ZIN A   1      19.025  -4.293   7.683  0.00  0.00    -0.058 N 
ATOM      4  H9  ZIN A   1      18.881  -4.830   8.525  0.00  0.00     0.280 HD
BRANCH   3   5
ATOM      5  C7  ZIN A   1      19.315  -2.897   8.036  0.00  0.00     0.265 C 
BRANCH   5   6
ATOM      6  C6  ZIN A   1      18.037  -2.064   7.913  0.00  0.00     0.301 C 
BRANCH   6   7
ATOM      7  N5  ZIN A   1      18.331  -0.820   7.188  0.00  0.00     0.110 N 
BRANCH   7   8
ATOM      8  C4  ZIN A   1      17.685   0.330   7.834  0.00  0.00     0.385 C 
BRANCH   8   9
ATOM      9  C2  ZIN A   1      18.498   0.757   9.030  0.00  0.00     0.202 C 
ATOM     10  O1  ZIN A   1      17.939   1.186  10.025  0.00  0.00    -0.647 OA
ATOM     11  O3  ZIN A   1      19.714   0.670   9.002  0.00  0.00    -0.647 OA
ENDBRANCH   8   9
ENDBRANCH   7   8
BRANCH   7  12
ATOM     12  C35 ZIN A   1      17.932  -0.925   5.779  0.00  0.00     0.385 C 
BRANCH  12  13
ATOM     13  C36 ZIN A   1      19.156  -0.835   4.903  0.00  0.00     0.202 C 
ATOM     14  O37 ZIN A   1      19.505   0.242   4.453  0.00  0.00    -0.647 OA
ATOM     15  O38 ZIN A   1      19.795  -1.841   4.644  0.00  0.00    -0.647 OA
ENDBRANCH  12  13
ENDBRANCH   7  12
ENDBRANCH   6   7
ENDBRANCH   5   6
ENDBRANCH   3   5
BRANCH   3  16
ATOM     16  C31 ZIN A   1      20.157  -4.853   6.932  0.00  0.00     0.347 C 
BRANCH  16  17
ATOM     17  C32 ZIN A   1      20.969  -5.741   7.837  0.00  0.00     0.199 C 
ATOM     18  O33 ZIN A   1      22.177  -5.820   7.691  0.00  0.00    -0.647 OA
ATOM     19  O34 ZIN A   1      20.418  -6.382   8.717  0.00  0.00    -0.647 OA
ENDBRANCH  16  17
ENDBRANCH   3  16
ENDBRANCH   2   3
ENDBRANCH   1   2
BRANCH   1  20
ATOM     20  N12 ZIN A   1      16.895  -6.591   6.510  0.00  0.00     0.117 N 
BRANCH  20  21
ATOM     21  C13 ZIN A   1      17.565  -7.867   6.796  0.00  0.00     0.386 C 
BRANCH  21  22
ATOM     22  C14 ZIN A   1      17.133  -8.898   5.786  0.00  0.00     0.202 C 
ATOM     23  O15 ZIN A   1      17.713  -9.969   5.722  0.00  0.00    -0.647 OA
ATOM     24  O16 ZIN A   1      16.204  -8.661   5.032  0.00  0.00    -0.647 OA
ENDBRANCH  21  22
ENDBRANCH  20  21
BRANCH  20  25
ATOM     25  C17 ZIN A   1      16.209  -6.077   7.703  0.00  0.00     0.346 C 
BRANCH  25  26
ATOM     26  C19 ZIN A   1      16.597  -6.922   8.918  0.00  0.00     0.215 C 
BRANCH  26  27
ATOM     27  O20 ZIN A   1      17.481  -6.173   9.756  0.00  0.00    -0.384 OA
BRANCH  27  28
ATOM     28  C21 ZIN A   1      16.815  -5.296  10.667  0.00  0.00     0.206 C 
BRANCH  28  29
ATOM     29  C22 ZIN A   1      17.782  -4.247  11.152  0.00  0.00    -0.035 A 
ATOM     30  C27 ZIN A   1      17.334  -2.968  11.427  0.00  0.00     0.009 A 
ATOM     31  C26 ZIN A   1      18.221  -2.007  11.875  0.00  0.00     0.001 A 
ATOM     32  C25 ZIN A   1      19.556  -2.322  12.041  0.00  0.00     0.000 A 
ATOM     33  C24 ZIN A   1      20.005  -3.599  11.761  0.00  0.00     0.001 A 
ATOM     34  C23 ZIN A   1      19.118  -4.562  11.317  0.00  0.00     0.009 A 
ENDBRANCH  28  29
ENDBRANCH  27  28
ENDBRANCH  26  27
ENDBRANCH  25  26
BRANCH  25  35
ATOM     35  C28 ZIN A   1      14.718  -6.150   7.497  0.00  0.00     0.209 C 
ATOM     36  O29 ZIN A   1      13.965  -5.998   8.444  0.00  0.00    -0.646 OA
ATOM     37  O30 ZIN A   1      14.266  -6.361   6.386  0.00  0.00    -0.646 OA
ENDBRANCH  25  35
ENDBRANCH  20  25
ENDBRANCH   1  20
TORSDOF 20
ENDMDL
