MODEL 1
REMARK VINA RESULT:      -4.3      0.000      0.000
REMARK  3 active torsions:
REMARK  status: ('A' for Active; 'I' for Inactive)
REMARK    1  A    between atoms: C2_2  and  O4_4 
REMARK    2  A    between atoms: O4_4  and  C5_5 
REMARK    3  A    between atoms: C5_5  and  C8_7 
ROOT
ATOM      1  C5  <0> d   1      17.761   0.434  17.024  0.00  0.00     0.420 C 
ATOM      2  F7  <0> d   1      16.875  -0.646  17.098  0.00  0.00    -0.210 F 
ENDROOT
BRANCH   1   3
ATOM      3  O4  <0> d   1      18.901   0.063  16.245  0.00  0.00    -0.288 OA
BRANCH   3   4
ATOM      4  C2  <0> d   1      19.023  -1.344  16.027  0.00  0.00     0.502 C 
ATOM      5  F1  <0> d   1      19.747  -1.572  14.852  0.00  0.00    -0.184 F 
ATOM      6  F3  <0> d   1      19.694  -1.927  17.108  0.00  0.00    -0.184 F 
ENDBRANCH   3   4
ENDBRANCH   1   3
BRANCH   1   7
ATOM      7  C8  <0> d   1      18.211   0.822  18.433  0.00  0.00     0.442 C 
ATOM      8  F9  <0> d   1      19.444   1.480  18.365  0.00  0.00    -0.166 F 
ATOM      9  F10 <0> d   1      17.261   1.673  19.008  0.00  0.00    -0.166 F 
ATOM     10  F11 <0> d   1      18.340  -0.331  19.216  0.00  0.00    -0.166 F 
ENDBRANCH   1   7
TORSDOF 3
ENDMDL
MODEL 2
REMARK VINA RESULT:      -4.3      1.567      3.768
REMARK  3 active torsions:
REMARK  status: ('A' for Active; 'I' for Inactive)
REMARK    1  A    between atoms: C2_2  and  O4_4 
REMARK    2  A    between atoms: O4_4  and  C5_5 
REMARK    3  A    between atoms: C5_5  and  C8_7 
ROOT
ATOM      1  C5  <0> d   1      19.264  -0.133  18.343  0.00  0.00     0.420 C 
ATOM      2  F7  <0> d   1      18.137  -0.085  19.169  0.00  0.00    -0.210 F 
ENDROOT
BRANCH   1   3
ATOM      3  O4  <0> d   1      19.785   1.186  18.169  0.00  0.00    -0.288 OA
BRANCH   3   4
ATOM      4  C2  <0> d   1      18.814   2.221  18.339  0.00  0.00     0.502 C 
ATOM      5  F1  <0> d   1      19.302   3.174  19.241  0.00  0.00    -0.184 F 
ATOM      6  F3  <0> d   1      18.564   2.833  17.106  0.00  0.00    -0.184 F 
ENDBRANCH   3   4
ENDBRANCH   1   3
BRANCH   1   7
ATOM      7  C8  <0> d   1      18.873  -0.710  16.981  0.00  0.00     0.442 C 
ATOM      8  F9  <0> d   1      19.520  -1.936  16.790  0.00  0.00    -0.166 F 
ATOM      9  F10 <0> d   1      17.488  -0.903  16.936  0.00  0.00    -0.166 F 
ATOM     10  F11 <0> d   1      19.253   0.181  15.971  0.00  0.00    -0.166 F 
ENDBRANCH   1   7
TORSDOF 3
ENDMDL
MODEL 3
REMARK VINA RESULT:      -4.2      1.596      2.939
REMARK  3 active torsions:
REMARK  status: ('A' for Active; 'I' for Inactive)
REMARK    1  A    between atoms: C2_2  and  O4_4 
REMARK    2  A    between atoms: O4_4  and  C5_5 
REMARK    3  A    between atoms: C5_5  and  C8_7 
ROOT
ATOM      1  C5  <0> d   1      18.584  -1.464  16.035  0.00  0.00     0.420 C 
ATOM      2  F7  <0> d   1      19.576  -1.897  16.921  0.00  0.00    -0.210 F 
ENDROOT
BRANCH   1   3
ATOM      3  O4  <0> d   1      19.137  -0.504  15.132  0.00  0.00    -0.288 OA
BRANCH   3   4
ATOM      4  C2  <0> d   1      19.019  -0.866  13.754  0.00  0.00     0.502 C 
ATOM      5  F1  <0> d   1      19.690  -2.073  13.531  0.00  0.00    -0.184 F 
ATOM      6  F3  <0> d   1      17.667  -1.016  13.426  0.00  0.00    -0.184 F 
ENDBRANCH   3   4
ENDBRANCH   1   3
BRANCH   1   7
ATOM      7  C8  <0> d   1      17.441  -0.822  16.823  0.00  0.00     0.442 C 
ATOM      8  F9  <0> d   1      16.462  -1.785  17.094  0.00  0.00    -0.166 F 
ATOM      9  F10 <0> d   1      17.935  -0.310  18.027  0.00  0.00    -0.166 F 
ATOM     10  F11 <0> d   1      16.879   0.215  16.070  0.00  0.00    -0.166 F 
ENDBRANCH   1   7
TORSDOF 3
ENDMDL
MODEL 4
REMARK VINA RESULT:      -4.2      1.145      3.538
REMARK  3 active torsions:
REMARK  status: ('A' for Active; 'I' for Inactive)
REMARK    1  A    between atoms: C2_2  and  O4_4 
REMARK    2  A    between atoms: O4_4  and  C5_5 
REMARK    3  A    between atoms: C5_5  and  C8_7 
ROOT
ATOM      1  C5  <0> d   1      18.644   0.214  16.256  0.00  0.00     0.420 C 
ATOM      2  F7  <0> d   1      19.377   0.667  15.153  0.00  0.00    -0.210 F 
ENDROOT
BRANCH   1   3
ATOM      3  O4  <0> d   1      19.325   0.573  17.460  0.00  0.00    -0.288 OA
BRANCH   3   4
ATOM      4  C2  <0> d   1      18.456   0.826  18.566  0.00  0.00     0.502 C 
ATOM      5  F1  <0> d   1      17.176   1.135  18.091  0.00  0.00    -0.184 F 
ATOM      6  F3  <0> d   1      18.390  -0.312  19.378  0.00  0.00    -0.184 F 
ENDBRANCH   3   4
ENDBRANCH   1   3
BRANCH   1   7
ATOM      7  C8  <0> d   1      18.502  -1.307  16.184  0.00  0.00     0.442 C 
ATOM      8  F9  <0> d   1      18.546  -1.717  14.847  0.00  0.00    -0.166 F 
ATOM      9  F10 <0> d   1      19.549  -1.908  16.890  0.00  0.00    -0.166 F 
ATOM     10  F11 <0> d   1      17.279  -1.688  16.748  0.00  0.00    -0.166 F 
ENDBRANCH   1   7
TORSDOF 3
ENDMDL
MODEL 5
REMARK VINA RESULT:      -4.2      9.597     11.722
REMARK  3 active torsions:
REMARK  status: ('A' for Active; 'I' for Inactive)
REMARK    1  A    between atoms: C2_2  and  O4_4 
REMARK    2  A    between atoms: O4_4  and  C5_5 
REMARK    3  A    between atoms: C5_5  and  C8_7 
ROOT
ATOM      1  C5  <0> d   1      18.134  -0.033   6.212  0.00  0.00     0.420 C 
ATOM      2  F7  <0> d   1      16.750   0.110   6.063  0.00  0.00    -0.210 F 
ENDROOT
BRANCH   1   3
ATOM      3  O4  <0> d   1      18.707   1.225   6.570  0.00  0.00    -0.288 OA
BRANCH   3   4
ATOM      4  C2  <0> d   1      18.946   1.378   7.970  0.00  0.00     0.502 C 
ATOM      5  F1  <0> d   1      19.009   2.740   8.286  0.00  0.00    -0.184 F 
ATOM      6  F3  <0> d   1      17.905   0.781   8.689  0.00  0.00    -0.184 F 
ENDBRANCH   3   4
ENDBRANCH   1   3
BRANCH   1   7
ATOM      7  C8  <0> d   1      18.741  -0.514   4.892  0.00  0.00     0.442 C 
ATOM      8  F9  <0> d   1      17.717  -0.889   4.016  0.00  0.00    -0.166 F 
ATOM      9  F10 <0> d   1      19.488   0.520   4.319  0.00  0.00    -0.166 F 
ATOM     10  F11 <0> d   1      19.573  -1.613   5.135  0.00  0.00    -0.166 F 
ENDBRANCH   1   7
TORSDOF 3
ENDMDL
MODEL 6
REMARK VINA RESULT:      -4.1      9.031     11.102
REMARK  3 active torsions:
REMARK  status: ('A' for Active; 'I' for Inactive)
REMARK    1  A    between atoms: C2_2  and  O4_4 
REMARK    2  A    between atoms: O4_4  and  C5_5 
REMARK    3  A    between atoms: C5_5  and  C8_7 
ROOT
ATOM      1  C5  <0> d   1      18.636   0.849   6.333  0.00  0.00     0.420 C 
ATOM      2  F7  <0> d   1      19.608   1.014   5.341  0.00  0.00    -0.210 F 
ENDROOT
BRANCH   1   3
ATOM      3  O4  <0> d   1      19.270   0.525   7.572  0.00  0.00    -0.288 OA
BRANCH   3   4
ATOM      4  C2  <0> d   1      18.892   1.374   8.658  0.00  0.00     0.502 C 
ATOM      5  F1  <0> d   1      18.956   2.710   8.249  0.00  0.00    -0.184 F 
ATOM      6  F3  <0> d   1      17.585   1.069   9.055  0.00  0.00    -0.184 F 
ENDBRANCH   3   4
ENDBRANCH   1   3
BRANCH   1   7
ATOM      7  C8  <0> d   1      17.687  -0.282   5.934  0.00  0.00     0.442 C 
ATOM      8  F9  <0> d   1      17.799  -0.523   4.561  0.00  0.00    -0.166 F 
ATOM      9  F10 <0> d   1      18.022  -1.443   6.639  0.00  0.00    -0.166 F 
ATOM     10  F11 <0> d   1      16.371   0.085   6.238  0.00  0.00    -0.166 F 
ENDBRANCH   1   7
TORSDOF 3
ENDMDL
MODEL 7
REMARK VINA RESULT:      -4.1      8.032      9.991
REMARK  3 active torsions:
REMARK  status: ('A' for Active; 'I' for Inactive)
REMARK    1  A    between atoms: C2_2  and  O4_4 
REMARK    2  A    between atoms: O4_4  and  C5_5 
REMARK    3  A    between atoms: C5_5  and  C8_7 
ROOT
ATOM      1  C5  <0> d   1      18.687   0.759   8.460  0.00  0.00     0.420 C 
ATOM      2  F7  <0> d   1      17.420   0.777   9.052  0.00  0.00    -0.210 F 
ENDROOT
BRANCH   1   3
ATOM      3  O4  <0> d   1      19.335   2.013   8.684  0.00  0.00    -0.288 OA
BRANCH   3   4
ATOM      4  C2  <0> d   1      18.762   2.784   9.742  0.00  0.00     0.502 C 
ATOM      5  F1  <0> d   1      19.730   3.017  10.725  0.00  0.00    -0.184 F 
ATOM      6  F3  <0> d   1      18.308   4.006   9.235  0.00  0.00    -0.184 F 
ENDBRANCH   3   4
ENDBRANCH   1   3
BRANCH   1   7
ATOM      7  C8  <0> d   1      18.543   0.521   6.956  0.00  0.00     0.442 C 
ATOM      8  F9  <0> d   1      17.205   0.252   6.652  0.00  0.00    -0.166 F 
ATOM      9  F10 <0> d   1      18.958   1.661   6.261  0.00  0.00    -0.166 F 
ATOM     10  F11 <0> d   1      19.335  -0.570   6.579  0.00  0.00    -0.166 F 
ENDBRANCH   1   7
TORSDOF 3
ENDMDL
MODEL 8
REMARK VINA RESULT:      -4.1      9.193     10.853
REMARK  3 active torsions:
REMARK  status: ('A' for Active; 'I' for Inactive)
REMARK    1  A    between atoms: C2_2  and  O4_4 
REMARK    2  A    between atoms: O4_4  and  C5_5 
REMARK    3  A    between atoms: C5_5  and  C8_7 
ROOT
ATOM      1  C5  <0> d   1      18.002   0.307   6.745  0.00  0.00     0.420 C 
ATOM      2  F7  <0> d   1      16.719  -0.134   7.084  0.00  0.00    -0.210 F 
ENDROOT
BRANCH   1   3
ATOM      3  O4  <0> d   1      18.712  -0.748   6.092  0.00  0.00    -0.288 OA
BRANCH   3   4
ATOM      4  C2  <0> d   1      19.220  -0.396   4.804  0.00  0.00     0.502 C 
ATOM      5  F1  <0> d   1      18.182  -0.435   3.867  0.00  0.00    -0.184 F 
ATOM      6  F3  <0> d   1      19.758   0.895   4.851  0.00  0.00    -0.184 F 
ENDBRANCH   3   4
ENDBRANCH   1   3
BRANCH   1   7
ATOM      7  C8  <0> d   1      18.752   0.717   8.014  0.00  0.00     0.442 C 
ATOM      8  F9  <0> d   1      17.839   0.893   9.059  0.00  0.00    -0.166 F 
ATOM      9  F10 <0> d   1      19.668  -0.282   8.358  0.00  0.00    -0.166 F 
ATOM     10  F11 <0> d   1      19.434   1.917   7.784  0.00  0.00    -0.166 F 
ENDBRANCH   1   7
TORSDOF 3
ENDMDL
MODEL 9
REMARK VINA RESULT:      -3.9      6.188      7.601
REMARK  3 active torsions:
REMARK  status: ('A' for Active; 'I' for Inactive)
REMARK    1  A    between atoms: C2_2  and  O4_4 
REMARK    2  A    between atoms: O4_4  and  C5_5 
REMARK    3  A    between atoms: C5_5  and  C8_7 
ROOT
ATOM      1  C5  <0> d   1      17.984   1.350  10.071  0.00  0.00     0.420 C 
ATOM      2  F7  <0> d   1      17.404   0.835   8.907  0.00  0.00    -0.210 F 
ENDROOT
BRANCH   1   3
ATOM      3  O4  <0> d   1      17.002   1.403  11.108  0.00  0.00    -0.288 OA
BRANCH   3   4
ATOM      4  C2  <0> d   1      17.422   0.811  12.339  0.00  0.00     0.502 C 
ATOM      5  F1  <0> d   1      16.638  -0.316  12.605  0.00  0.00    -0.184 F 
ATOM      6  F3  <0> d   1      18.765   0.431  12.239  0.00  0.00    -0.184 F 
ENDBRANCH   3   4
ENDBRANCH   1   3
BRANCH   1   7
ATOM      7  C8  <0> d   1      18.514   2.758   9.798  0.00  0.00     0.442 C 
ATOM      8  F9  <0> d   1      17.518   3.697  10.088  0.00  0.00    -0.166 F 
ATOM      9  F10 <0> d   1      19.632   3.001  10.603  0.00  0.00    -0.166 F 
ATOM     10  F11 <0> d   1      18.877   2.865   8.451  0.00  0.00    -0.166 F 
ENDBRANCH   1   7
TORSDOF 3
ENDMDL
