MODEL 1
REMARK VINA RESULT:      -6.0      0.000      0.000
REMARK  15 active torsions:
REMARK  status: ('A' for Active; 'I' for Inactive)
REMARK    1  A    between atoms: C2_2  and  C3_3 
REMARK    2  A    between atoms: C4_4  and  C5_5 
REMARK    3  A    between atoms: C5_5  and  C6_6 
REMARK    4  A    between atoms: C7_7  and  C8_8 
REMARK    5  A    between atoms: C8_8  and  C9_9 
REMARK    6  A    between atoms: C10_10  and  C11_11 
REMARK    7  A    between atoms: C11_11  and  C12_12 
REMARK    8  A    between atoms: C13_13  and  C14_14 
REMARK    9  A    between atoms: C14_14  and  C15_15 
REMARK   10  A    between atoms: C16_16  and  C17_17 
REMARK   11  A    between atoms: C17_17  and  C18_18 
REMARK   12  A    between atoms: C18_18  and  C19_19 
REMARK   13  A    between atoms: C19_19  and  C20_20 
REMARK   14  A    between atoms: C20_20  and  O22_22 
REMARK   15  A    between atoms: O22_22  and  C23_23 
ROOT
ATOM      1  C12 <0> d   1      19.002   3.069  12.266  0.00  0.00    -0.027 C 
ATOM      2  C13 <0> d   1      19.254   2.272  13.274  0.00  0.00    -0.027 C 
ENDROOT
BRANCH   1   3
ATOM      3  C11 <0> d   1      17.975   2.679  11.235  0.00  0.00     0.053 C 
BRANCH   3   4
ATOM      4  C10 <0> d   1      18.503   2.988   9.858  0.00  0.00    -0.027 C 
ATOM      5  C9  <0> d   1      18.767   2.013   9.023  0.00  0.00    -0.027 C 
BRANCH   5   6
ATOM      6  C8  <0> d   1      18.382   0.598   9.372  0.00  0.00     0.053 C 
BRANCH   6   7
ATOM      7  C7  <0> d   1      19.604  -0.159   9.824  0.00  0.00    -0.027 C 
ATOM      8  C6  <0> d   1      19.496  -1.405  10.212  0.00  0.00    -0.027 C 
BRANCH   8   9
ATOM      9  C5  <0> d   1      18.186  -2.132  10.057  0.00  0.00     0.053 C 
BRANCH   9  10
ATOM     10  C4  <0> d   1      17.553  -2.322  11.411  0.00  0.00    -0.027 C 
ATOM     11  C3  <0> d   1      17.599  -3.494  11.996  0.00  0.00    -0.031 C 
BRANCH  11  12
ATOM     12  C2  <0> d   1      18.419  -4.605  11.394  0.00  0.00     0.022 C 
ATOM     13  C1  <0> d   1      17.488  -5.712  10.894  0.00  0.00     0.009 C 
ENDBRANCH  11  12
ENDBRANCH   9  10
ENDBRANCH   8   9
ENDBRANCH   6   7
ENDBRANCH   5   6
ENDBRANCH   3   4
ENDBRANCH   1   3
BRANCH   2  14
ATOM     14  C14 <0> d   1      18.638   0.898  13.321  0.00  0.00     0.053 C 
BRANCH  14  15
ATOM     15  C15 <0> d   1      19.700  -0.119  13.651  0.00  0.00    -0.027 C 
ATOM     16  C16 <0> d   1      19.445  -1.078  14.507  0.00  0.00    -0.030 C 
BRANCH  16  17
ATOM     17  C17 <0> d   1      18.159  -1.064  15.293  0.00  0.00     0.027 C 
BRANCH  17  18
ATOM     18  C18 <0> d   1      18.466  -0.783  16.766  0.00  0.00     0.013 C 
BRANCH  18  19
ATOM     19  C19 <0> d   1      18.004   0.632  17.122  0.00  0.00     0.111 C 
BRANCH  19  20
ATOM     20  C20 <0> d   1      19.197   1.468  17.507  0.00  0.00     0.258 C 
ATOM     21  O21 <0> d   1      19.665   1.379  18.617  0.00  0.00    -0.265 OA
BRANCH  20  22
ATOM     22  O22 <0> d   1      19.741   2.313  16.615  0.00  0.00    -0.322 OA
BRANCH  22  23
ATOM     23  C23 <0> d   1      19.627   3.732  16.898  0.00  0.00     0.174 C 
ATOM     24  C24 <0> d   1      18.332   4.271  16.289  0.00  0.00     0.034 C 
ENDBRANCH  22  23
ENDBRANCH  20  22
ENDBRANCH  19  20
ENDBRANCH  18  19
ENDBRANCH  17  18
ENDBRANCH  16  17
ENDBRANCH  14  15
ENDBRANCH   2  14
TORSDOF 15
ENDMDL
MODEL 2
REMARK VINA RESULT:      -5.9      2.218      3.265
REMARK  15 active torsions:
REMARK  status: ('A' for Active; 'I' for Inactive)
REMARK    1  A    between atoms: C2_2  and  C3_3 
REMARK    2  A    between atoms: C4_4  and  C5_5 
REMARK    3  A    between atoms: C5_5  and  C6_6 
REMARK    4  A    between atoms: C7_7  and  C8_8 
REMARK    5  A    between atoms: C8_8  and  C9_9 
REMARK    6  A    between atoms: C10_10  and  C11_11 
REMARK    7  A    between atoms: C11_11  and  C12_12 
REMARK    8  A    between atoms: C13_13  and  C14_14 
REMARK    9  A    between atoms: C14_14  and  C15_15 
REMARK   10  A    between atoms: C16_16  and  C17_17 
REMARK   11  A    between atoms: C17_17  and  C18_18 
REMARK   12  A    between atoms: C18_18  and  C19_19 
REMARK   13  A    between atoms: C19_19  and  C20_20 
REMARK   14  A    between atoms: C20_20  and  O22_22 
REMARK   15  A    between atoms: O22_22  and  C23_23 
ROOT
ATOM      1  C12 <0> d   1      18.019   3.761  12.212  0.00  0.00    -0.027 C 
ATOM      2  C13 <0> d   1      18.166   3.061  13.310  0.00  0.00    -0.027 C 
ENDROOT
BRANCH   1   3
ATOM      3  C11 <0> d   1      17.553   3.087  10.948  0.00  0.00     0.053 C 
BRANCH   3   4
ATOM      4  C10 <0> d   1      18.609   3.232   9.883  0.00  0.00    -0.027 C 
ATOM      5  C9  <0> d   1      19.119   2.166   9.317  0.00  0.00    -0.027 C 
BRANCH   5   6
ATOM      6  C8  <0> d   1      18.532   0.807   9.602  0.00  0.00     0.053 C 
BRANCH   6   7
ATOM      7  C7  <0> d   1      19.439  -0.259   9.047  0.00  0.00    -0.027 C 
ATOM      8  C6  <0> d   1      19.230  -0.738   7.846  0.00  0.00    -0.027 C 
BRANCH   8   9
ATOM      9  C5  <0> d   1      18.185  -0.113   6.957  0.00  0.00     0.053 C 
BRANCH   9  10
ATOM     10  C4  <0> d   1      18.853   0.505   5.756  0.00  0.00    -0.027 C 
ATOM     11  C3  <0> d   1      18.835  -0.120   4.604  0.00  0.00    -0.031 C 
BRANCH  11  12
ATOM     12  C2  <0> d   1      18.015  -1.373   4.439  0.00  0.00     0.022 C 
ATOM     13  C1  <0> d   1      18.940  -2.593   4.447  0.00  0.00     0.009 C 
ENDBRANCH  11  12
ENDBRANCH   9  10
ENDBRANCH   8   9
ENDBRANCH   6   7
ENDBRANCH   5   6
ENDBRANCH   3   4
ENDBRANCH   1   3
BRANCH   2  14
ATOM     14  C14 <0> d   1      18.026   1.562  13.274  0.00  0.00     0.053 C 
BRANCH  14  15
ATOM     15  C15 <0> d   1      19.393   0.929  13.244  0.00  0.00    -0.027 C 
ATOM     16  C16 <0> d   1      19.582  -0.249  13.786  0.00  0.00    -0.030 C 
BRANCH  16  17
ATOM     17  C17 <0> d   1      18.483  -0.891  14.593  0.00  0.00     0.027 C 
BRANCH  17  18
ATOM     18  C18 <0> d   1      18.975  -1.129  16.023  0.00  0.00     0.013 C 
BRANCH  18  19
ATOM     19  C19 <0> d   1      18.261  -0.166  16.974  0.00  0.00     0.111 C 
BRANCH  19  20
ATOM     20  C20 <0> d   1      19.206   0.939  17.371  0.00  0.00     0.258 C 
ATOM     21  O21 <0> d   1      19.832   0.857  18.401  0.00  0.00    -0.265 OA
BRANCH  20  22
ATOM     22  O22 <0> d   1      19.350   2.015  16.581  0.00  0.00    -0.322 OA
BRANCH  22  23
ATOM     23  C23 <0> d   1      19.201   3.317  17.205  0.00  0.00     0.174 C 
ATOM     24  C24 <0> d   1      19.955   4.365  16.385  0.00  0.00     0.034 C 
ENDBRANCH  22  23
ENDBRANCH  20  22
ENDBRANCH  19  20
ENDBRANCH  18  19
ENDBRANCH  17  18
ENDBRANCH  16  17
ENDBRANCH  14  15
ENDBRANCH   2  14
TORSDOF 15
ENDMDL
MODEL 3
REMARK VINA RESULT:      -5.9      3.079      7.284
REMARK  15 active torsions:
REMARK  status: ('A' for Active; 'I' for Inactive)
REMARK    1  A    between atoms: C2_2  and  C3_3 
REMARK    2  A    between atoms: C4_4  and  C5_5 
REMARK    3  A    between atoms: C5_5  and  C6_6 
REMARK    4  A    between atoms: C7_7  and  C8_8 
REMARK    5  A    between atoms: C8_8  and  C9_9 
REMARK    6  A    between atoms: C10_10  and  C11_11 
REMARK    7  A    between atoms: C11_11  and  C12_12 
REMARK    8  A    between atoms: C13_13  and  C14_14 
REMARK    9  A    between atoms: C14_14  and  C15_15 
REMARK   10  A    between atoms: C16_16  and  C17_17 
REMARK   11  A    between atoms: C17_17  and  C18_18 
REMARK   12  A    between atoms: C18_18  and  C19_19 
REMARK   13  A    between atoms: C19_19  and  C20_20 
REMARK   14  A    between atoms: C20_20  and  O22_22 
REMARK   15  A    between atoms: O22_22  and  C23_23 
ROOT
ATOM      1  C12 <0> d   1      18.848   3.616  13.377  0.00  0.00    -0.027 C 
ATOM      2  C13 <0> d   1      18.593   4.135  12.201  0.00  0.00    -0.027 C 
ENDROOT
BRANCH   1   3
ATOM      3  C11 <0> d   1      18.407   2.210  13.691  0.00  0.00     0.053 C 
BRANCH   3   4
ATOM      4  C10 <0> d   1      19.587   1.278  13.590  0.00  0.00    -0.027 C 
ATOM      5  C9  <0> d   1      19.474   0.034  13.985  0.00  0.00    -0.027 C 
BRANCH   5   6
ATOM      6  C8  <0> d   1      18.125  -0.513  14.376  0.00  0.00     0.053 C 
BRANCH   6   7
ATOM      7  C7  <0> d   1      18.295  -1.528  15.477  0.00  0.00    -0.027 C 
ATOM      8  C6  <0> d   1      18.056  -1.192  16.720  0.00  0.00    -0.027 C 
BRANCH   8   9
ATOM      9  C5  <0> d   1      17.459   0.156  17.035  0.00  0.00     0.053 C 
BRANCH   9  10
ATOM     10  C4  <0> d   1      17.982   0.638  18.363  0.00  0.00    -0.027 C 
ATOM     11  C3  <0> d   1      18.908   1.565  18.404  0.00  0.00    -0.031 C 
BRANCH  11  12
ATOM     12  C2  <0> d   1      19.333   2.262  17.138  0.00  0.00     0.022 C 
ATOM     13  C1  <0> d   1      18.950   3.742  17.217  0.00  0.00     0.009 C 
ENDBRANCH  11  12
ENDBRANCH   9  10
ENDBRANCH   8   9
ENDBRANCH   6   7
ENDBRANCH   5   6
ENDBRANCH   3   4
ENDBRANCH   1   3
BRANCH   2  14
ATOM     14  C14 <0> d   1      17.723   3.393  11.222  0.00  0.00     0.053 C 
BRANCH  14  15
ATOM     15  C15 <0> d   1      18.437   3.278   9.900  0.00  0.00    -0.027 C 
ATOM     16  C16 <0> d   1      18.715   2.096   9.405  0.00  0.00    -0.030 C 
BRANCH  16  17
ATOM     17  C17 <0> d   1      18.482   0.860  10.234  0.00  0.00     0.027 C 
BRANCH  17  18
ATOM     18  C18 <0> d   1      17.225   0.141   9.736  0.00  0.00     0.013 C 
BRANCH  18  19
ATOM     19  C19 <0> d   1      17.467  -0.387   8.320  0.00  0.00     0.111 C 
BRANCH  19  20
ATOM     20  C20 <0> d   1      18.276  -1.656   8.390  0.00  0.00     0.258 C 
ATOM     21  O21 <0> d   1      19.297  -1.758   7.752  0.00  0.00    -0.265 OA
BRANCH  20  22
ATOM     22  O22 <0> d   1      17.862  -2.674   9.162  0.00  0.00    -0.322 OA
BRANCH  22  23
ATOM     23  C23 <0> d   1      18.867  -3.336   9.974  0.00  0.00     0.174 C 
ATOM     24  C24 <0> d   1      18.743  -2.862  11.423  0.00  0.00     0.034 C 
ENDBRANCH  22  23
ENDBRANCH  20  22
ENDBRANCH  19  20
ENDBRANCH  18  19
ENDBRANCH  17  18
ENDBRANCH  16  17
ENDBRANCH  14  15
ENDBRANCH   2  14
TORSDOF 15
ENDMDL
MODEL 4
REMARK VINA RESULT:      -5.9      2.862      5.592
REMARK  15 active torsions:
REMARK  status: ('A' for Active; 'I' for Inactive)
REMARK    1  A    between atoms: C2_2  and  C3_3 
REMARK    2  A    between atoms: C4_4  and  C5_5 
REMARK    3  A    between atoms: C5_5  and  C6_6 
REMARK    4  A    between atoms: C7_7  and  C8_8 
REMARK    5  A    between atoms: C8_8  and  C9_9 
REMARK    6  A    between atoms: C10_10  and  C11_11 
REMARK    7  A    between atoms: C11_11  and  C12_12 
REMARK    8  A    between atoms: C13_13  and  C14_14 
REMARK    9  A    between atoms: C14_14  and  C15_15 
REMARK   10  A    between atoms: C16_16  and  C17_17 
REMARK   11  A    between atoms: C17_17  and  C18_18 
REMARK   12  A    between atoms: C18_18  and  C19_19 
REMARK   13  A    between atoms: C19_19  and  C20_20 
REMARK   14  A    between atoms: C20_20  and  O22_22 
REMARK   15  A    between atoms: O22_22  and  C23_23 
ROOT
ATOM      1  C12 <0> d   1      19.953  -4.675  10.673  0.00  0.00    -0.027 C 
ATOM      2  C13 <0> d   1      20.017  -3.824  11.667  0.00  0.00    -0.027 C 
ENDROOT
BRANCH   1   3
ATOM      3  C11 <0> d   1      18.707  -4.757   9.830  0.00  0.00     0.053 C 
BRANCH   3   4
ATOM      4  C10 <0> d   1      19.067  -4.555   8.381  0.00  0.00    -0.027 C 
ATOM      5  C9  <0> d   1      18.762  -3.431   7.780  0.00  0.00    -0.027 C 
BRANCH   5   6
ATOM      6  C8  <0> d   1      18.212  -2.276   8.577  0.00  0.00     0.053 C 
BRANCH   6   7
ATOM      7  C7  <0> d   1      19.326  -1.316   8.906  0.00  0.00    -0.027 C 
ATOM      8  C6  <0> d   1      19.401  -0.164   8.289  0.00  0.00    -0.027 C 
BRANCH   8   9
ATOM      9  C5  <0> d   1      18.290   0.272   7.369  0.00  0.00     0.053 C 
BRANCH   9  10
ATOM     10  C4  <0> d   1      18.873   1.009   6.191  0.00  0.00    -0.027 C 
ATOM     11  C3  <0> d   1      19.259   0.345   5.129  0.00  0.00    -0.031 C 
BRANCH  11  12
ATOM     12  C2  <0> d   1      18.974  -1.130   5.018  0.00  0.00     0.022 C 
ATOM     13  C1  <0> d   1      17.628  -1.339   4.321  0.00  0.00     0.009 C 
ENDBRANCH  11  12
ENDBRANCH   9  10
ENDBRANCH   8   9
ENDBRANCH   6   7
ENDBRANCH   5   6
ENDBRANCH   3   4
ENDBRANCH   1   3
BRANCH   2  14
ATOM     14  C14 <0> d   1      18.795  -3.042  12.069  0.00  0.00     0.053 C 
BRANCH  14  15
ATOM     15  C15 <0> d   1      19.215  -1.740  12.702  0.00  0.00    -0.027 C 
ATOM     16  C16 <0> d   1      18.409  -0.708  12.675  0.00  0.00    -0.030 C 
BRANCH  16  17
ATOM     17  C17 <0> d   1      17.141  -0.763  11.863  0.00  0.00     0.027 C 
BRANCH  17  18
ATOM     18  C18 <0> d   1      16.990   0.535  11.066  0.00  0.00     0.013 C 
BRANCH  18  19
ATOM     19  C19 <0> d   1      18.141   1.482  11.411  0.00  0.00     0.111 C 
BRANCH  19  20
ATOM     20  C20 <0> d   1      17.586   2.833  11.781  0.00  0.00     0.258 C 
ATOM     21  O21 <0> d   1      16.970   3.477  10.965  0.00  0.00    -0.265 OA
BRANCH  20  22
ATOM     22  O22 <0> d   1      17.775   3.321  13.018  0.00  0.00    -0.322 OA
BRANCH  22  23
ATOM     23  C23 <0> d   1      18.882   2.774  13.779  0.00  0.00     0.174 C 
ATOM     24  C24 <0> d   1      18.441   2.541  15.225  0.00  0.00     0.034 C 
ENDBRANCH  22  23
ENDBRANCH  20  22
ENDBRANCH  19  20
ENDBRANCH  18  19
ENDBRANCH  17  18
ENDBRANCH  16  17
ENDBRANCH  14  15
ENDBRANCH   2  14
TORSDOF 15
ENDMDL
MODEL 5
REMARK VINA RESULT:      -5.8      4.087      7.815
REMARK  15 active torsions:
REMARK  status: ('A' for Active; 'I' for Inactive)
REMARK    1  A    between atoms: C2_2  and  C3_3 
REMARK    2  A    between atoms: C4_4  and  C5_5 
REMARK    3  A    between atoms: C5_5  and  C6_6 
REMARK    4  A    between atoms: C7_7  and  C8_8 
REMARK    5  A    between atoms: C8_8  and  C9_9 
REMARK    6  A    between atoms: C10_10  and  C11_11 
REMARK    7  A    between atoms: C11_11  and  C12_12 
REMARK    8  A    between atoms: C13_13  and  C14_14 
REMARK    9  A    between atoms: C14_14  and  C15_15 
REMARK   10  A    between atoms: C16_16  and  C17_17 
REMARK   11  A    between atoms: C17_17  and  C18_18 
REMARK   12  A    between atoms: C18_18  and  C19_19 
REMARK   13  A    between atoms: C19_19  and  C20_20 
REMARK   14  A    between atoms: C20_20  and  O22_22 
REMARK   15  A    between atoms: O22_22  and  C23_23 
ROOT
ATOM      1  C12 <0> d   1      17.759   4.301  11.086  0.00  0.00    -0.027 C 
ATOM      2  C13 <0> d   1      18.325   3.728  10.052  0.00  0.00    -0.027 C 
ENDROOT
BRANCH   1   3
ATOM      3  C11 <0> d   1      17.418   3.485  12.306  0.00  0.00     0.053 C 
BRANCH   3   4
ATOM      4  C10 <0> d   1      18.560   3.548  13.287  0.00  0.00    -0.027 C 
ATOM      5  C9  <0> d   1      18.787   2.540  14.094  0.00  0.00    -0.027 C 
BRANCH   5   6
ATOM      6  C8  <0> d   1      18.021   1.253  13.926  0.00  0.00     0.053 C 
BRANCH   6   7
ATOM      7  C7  <0> d   1      18.963   0.161  13.491  0.00  0.00    -0.027 C 
ATOM      8  C6  <0> d   1      19.115  -0.908  14.233  0.00  0.00    -0.027 C 
BRANCH   8   9
ATOM      9  C5  <0> d   1      18.232  -1.121  15.436  0.00  0.00     0.053 C 
BRANCH   9  10
ATOM     10  C4  <0> d   1      19.090  -1.359  16.652  0.00  0.00    -0.027 C 
ATOM     11  C3  <0> d   1      19.134  -0.463  17.607  0.00  0.00    -0.031 C 
BRANCH  11  12
ATOM     12  C2  <0> d   1      18.210   0.726  17.569  0.00  0.00     0.022 C 
ATOM     13  C1  <0> d   1      19.003   1.999  17.871  0.00  0.00     0.009 C 
ENDBRANCH  11  12
ENDBRANCH   9  10
ENDBRANCH   8   9
ENDBRANCH   6   7
ENDBRANCH   5   6
ENDBRANCH   3   4
ENDBRANCH   1   3
BRANCH   2  14
ATOM     14  C14 <0> d   1      18.491   2.231  10.016  0.00  0.00     0.053 C 
BRANCH  14  15
ATOM     15  C15 <0> d   1      19.182   1.832   8.738  0.00  0.00    -0.027 C 
ATOM     16  C16 <0> d   1      18.666   0.897   7.979  0.00  0.00    -0.030 C 
BRANCH  16  17
ATOM     17  C17 <0> d   1      17.485   0.098   8.466  0.00  0.00     0.027 C 
BRANCH  17  18
ATOM     18  C18 <0> d   1      17.812  -1.395   8.385  0.00  0.00     0.013 C 
BRANCH  18  19
ATOM     19  C19 <0> d   1      19.252  -1.577   7.901  0.00  0.00     0.111 C 
BRANCH  19  20
ATOM     20  C20 <0> d   1      19.274  -2.539   6.742  0.00  0.00     0.258 C 
ATOM     21  O21 <0> d   1      18.813  -3.649   6.869  0.00  0.00    -0.265 OA
BRANCH  20  22
ATOM     22  O22 <0> d   1      19.806  -2.163   5.567  0.00  0.00    -0.322 OA
BRANCH  22  23
ATOM     23  C23 <0> d   1      18.898  -1.604   4.582  0.00  0.00     0.174 C 
ATOM     24  C24 <0> d   1      19.065  -0.084   4.541  0.00  0.00     0.034 C 
ENDBRANCH  22  23
ENDBRANCH  20  22
ENDBRANCH  19  20
ENDBRANCH  18  19
ENDBRANCH  17  18
ENDBRANCH  16  17
ENDBRANCH  14  15
ENDBRANCH   2  14
TORSDOF 15
ENDMDL
MODEL 6
REMARK VINA RESULT:      -5.8      1.635      3.117
REMARK  15 active torsions:
REMARK  status: ('A' for Active; 'I' for Inactive)
REMARK    1  A    between atoms: C2_2  and  C3_3 
REMARK    2  A    between atoms: C4_4  and  C5_5 
REMARK    3  A    between atoms: C5_5  and  C6_6 
REMARK    4  A    between atoms: C7_7  and  C8_8 
REMARK    5  A    between atoms: C8_8  and  C9_9 
REMARK    6  A    between atoms: C10_10  and  C11_11 
REMARK    7  A    between atoms: C11_11  and  C12_12 
REMARK    8  A    between atoms: C13_13  and  C14_14 
REMARK    9  A    between atoms: C14_14  and  C15_15 
REMARK   10  A    between atoms: C16_16  and  C17_17 
REMARK   11  A    between atoms: C17_17  and  C18_18 
REMARK   12  A    between atoms: C18_18  and  C19_19 
REMARK   13  A    between atoms: C19_19  and  C20_20 
REMARK   14  A    between atoms: C20_20  and  O22_22 
REMARK   15  A    between atoms: O22_22  and  C23_23 
ROOT
ATOM      1  C12 <0> d   1      19.064   1.489   7.807  0.00  0.00    -0.027 C 
ATOM      2  C13 <0> d   1      19.087   2.262   8.865  0.00  0.00    -0.027 C 
ENDROOT
BRANCH   1   3
ATOM      3  C11 <0> d   1      18.202   0.254   7.795  0.00  0.00     0.053 C 
BRANCH   3   4
ATOM      4  C10 <0> d   1      18.971  -0.891   7.188  0.00  0.00    -0.027 C 
ATOM      5  C9  <0> d   1      19.196  -1.975   7.889  0.00  0.00    -0.027 C 
BRANCH   5   6
ATOM      6  C8  <0> d   1      18.541  -2.151   9.235  0.00  0.00     0.053 C 
BRANCH   6   7
ATOM      7  C7  <0> d   1      19.547  -1.881  10.323  0.00  0.00    -0.027 C 
ATOM      8  C6  <0> d   1      19.795  -2.796  11.227  0.00  0.00    -0.027 C 
BRANCH   8   9
ATOM      9  C5  <0> d   1      19.197  -4.172  11.090  0.00  0.00     0.053 C 
BRANCH   9  10
ATOM     10  C4  <0> d   1      17.963  -4.270  11.949  0.00  0.00    -0.027 C 
ATOM     11  C3  <0> d   1      16.949  -5.002  11.557  0.00  0.00    -0.031 C 
BRANCH  11  12
ATOM     12  C2  <0> d   1      17.075  -5.870  10.333  0.00  0.00     0.022 C 
ATOM     13  C1  <0> d   1      16.099  -5.385   9.259  0.00  0.00     0.009 C 
ENDBRANCH  11  12
ENDBRANCH   9  10
ENDBRANCH   8   9
ENDBRANCH   6   7
ENDBRANCH   5   6
ENDBRANCH   3   4
ENDBRANCH   1   3
BRANCH   2  14
ATOM     14  C14 <0> d   1      18.381   1.836  10.125  0.00  0.00     0.053 C 
BRANCH  14  15
ATOM     15  C15 <0> d   1      19.373   1.757  11.256  0.00  0.00    -0.027 C 
ATOM     16  C16 <0> d   1      19.083   1.072  12.335  0.00  0.00    -0.030 C 
BRANCH  16  17
ATOM     17  C17 <0> d   1      17.696   0.514  12.523  0.00  0.00     0.027 C 
BRANCH  17  18
ATOM     18  C18 <0> d   1      17.765  -0.739  13.399  0.00  0.00     0.013 C 
BRANCH  18  19
ATOM     19  C19 <0> d   1      19.070  -0.730  14.199  0.00  0.00     0.111 C 
BRANCH  19  20
ATOM     20  C20 <0> d   1      18.759  -0.555  15.663  0.00  0.00     0.258 C 
ATOM     21  O21 <0> d   1      18.992  -1.450  16.441  0.00  0.00    -0.265 OA
BRANCH  20  22
ATOM     22  O22 <0> d   1      18.224   0.595  16.103  0.00  0.00    -0.322 OA
BRANCH  22  23
ATOM     23  C23 <0> d   1      19.132   1.710  16.301  0.00  0.00     0.174 C 
ATOM     24  C24 <0> d   1      18.636   2.919  15.506  0.00  0.00     0.034 C 
ENDBRANCH  22  23
ENDBRANCH  20  22
ENDBRANCH  19  20
ENDBRANCH  18  19
ENDBRANCH  17  18
ENDBRANCH  16  17
ENDBRANCH  14  15
ENDBRANCH   2  14
TORSDOF 15
ENDMDL
MODEL 7
REMARK VINA RESULT:      -5.8      2.022      4.708
REMARK  15 active torsions:
REMARK  status: ('A' for Active; 'I' for Inactive)
REMARK    1  A    between atoms: C2_2  and  C3_3 
REMARK    2  A    between atoms: C4_4  and  C5_5 
REMARK    3  A    between atoms: C5_5  and  C6_6 
REMARK    4  A    between atoms: C7_7  and  C8_8 
REMARK    5  A    between atoms: C8_8  and  C9_9 
REMARK    6  A    between atoms: C10_10  and  C11_11 
REMARK    7  A    between atoms: C11_11  and  C12_12 
REMARK    8  A    between atoms: C13_13  and  C14_14 
REMARK    9  A    between atoms: C14_14  and  C15_15 
REMARK   10  A    between atoms: C16_16  and  C17_17 
REMARK   11  A    between atoms: C17_17  and  C18_18 
REMARK   12  A    between atoms: C18_18  and  C19_19 
REMARK   13  A    between atoms: C19_19  and  C20_20 
REMARK   14  A    between atoms: C20_20  and  O22_22 
REMARK   15  A    between atoms: O22_22  and  C23_23 
ROOT
ATOM      1  C12 <0> d   1      18.851   0.015   5.423  0.00  0.00    -0.027 C 
ATOM      2  C13 <0> d   1      18.921   1.104   6.147  0.00  0.00    -0.027 C 
ENDROOT
BRANCH   1   3
ATOM      3  C11 <0> d   1      18.127  -1.196   5.952  0.00  0.00     0.053 C 
BRANCH   3   4
ATOM      4  C10 <0> d   1      19.120  -2.295   6.226  0.00  0.00    -0.027 C 
ATOM      5  C9  <0> d   1      19.294  -2.731   7.450  0.00  0.00    -0.027 C 
BRANCH   5   6
ATOM      6  C8  <0> d   1      18.383  -2.259   8.554  0.00  0.00     0.053 C 
BRANCH   6   7
ATOM      7  C7  <0> d   1      19.209  -1.841   9.742  0.00  0.00    -0.027 C 
ATOM      8  C6  <0> d   1      18.766  -2.055  10.956  0.00  0.00    -0.027 C 
BRANCH   8   9
ATOM      9  C5  <0> d   1      17.511  -2.861  11.168  0.00  0.00     0.053 C 
BRANCH   9  10
ATOM     10  C4  <0> d   1      17.828  -4.072  12.007  0.00  0.00    -0.027 C 
ATOM     11  C3  <0> d   1      17.592  -5.273  11.539  0.00  0.00    -0.031 C 
BRANCH  11  12
ATOM     12  C2  <0> d   1      17.156  -5.452  10.108  0.00  0.00     0.022 C 
ATOM     13  C1  <0> d   1      18.316  -6.022   9.288  0.00  0.00     0.009 C 
ENDBRANCH  11  12
ENDBRANCH   9  10
ENDBRANCH   8   9
ENDBRANCH   6   7
ENDBRANCH   5   6
ENDBRANCH   3   4
ENDBRANCH   1   3
BRANCH   2  14
ATOM     14  C14 <0> d   1      18.420   1.099   7.568  0.00  0.00     0.053 C 
BRANCH  14  15
ATOM     15  C15 <0> d   1      19.420   1.792   8.457  0.00  0.00    -0.027 C 
ATOM     16  C16 <0> d   1      19.160   1.957   9.730  0.00  0.00    -0.030 C 
BRANCH  16  17
ATOM     17  C17 <0> d   1      17.794   1.619  10.271  0.00  0.00     0.027 C 
BRANCH  17  18
ATOM     18  C18 <0> d   1      17.687   2.097  11.720  0.00  0.00     0.013 C 
BRANCH  18  19
ATOM     19  C19 <0> d   1      19.058   1.998  12.393  0.00  0.00     0.111 C 
BRANCH  19  20
ATOM     20  C20 <0> d   1      18.877   1.796  13.875  0.00  0.00     0.258 C 
ATOM     21  O21 <0> d   1      18.026   2.415  14.470  0.00  0.00    -0.265 OA
BRANCH  20  22
ATOM     22  O22 <0> d   1      19.660   0.928  14.535  0.00  0.00    -0.322 OA
BRANCH  22  23
ATOM     23  C23 <0> d   1      18.995  -0.143  15.254  0.00  0.00     0.174 C 
ATOM     24  C24 <0> d   1      19.342  -1.485  14.606  0.00  0.00     0.034 C 
ENDBRANCH  22  23
ENDBRANCH  20  22
ENDBRANCH  19  20
ENDBRANCH  18  19
ENDBRANCH  17  18
ENDBRANCH  16  17
ENDBRANCH  14  15
ENDBRANCH   2  14
TORSDOF 15
ENDMDL
MODEL 8
REMARK VINA RESULT:      -5.8      2.834      4.255
REMARK  15 active torsions:
REMARK  status: ('A' for Active; 'I' for Inactive)
REMARK    1  A    between atoms: C2_2  and  C3_3 
REMARK    2  A    between atoms: C4_4  and  C5_5 
REMARK    3  A    between atoms: C5_5  and  C6_6 
REMARK    4  A    between atoms: C7_7  and  C8_8 
REMARK    5  A    between atoms: C8_8  and  C9_9 
REMARK    6  A    between atoms: C10_10  and  C11_11 
REMARK    7  A    between atoms: C11_11  and  C12_12 
REMARK    8  A    between atoms: C13_13  and  C14_14 
REMARK    9  A    between atoms: C14_14  and  C15_15 
REMARK   10  A    between atoms: C16_16  and  C17_17 
REMARK   11  A    between atoms: C17_17  and  C18_18 
REMARK   12  A    between atoms: C18_18  and  C19_19 
REMARK   13  A    between atoms: C19_19  and  C20_20 
REMARK   14  A    between atoms: C20_20  and  O22_22 
REMARK   15  A    between atoms: O22_22  and  C23_23 
ROOT
ATOM      1  C12 <0> d   1      19.203   1.939   8.054  0.00  0.00    -0.027 C 
ATOM      2  C13 <0> d   1      19.074   2.267   9.316  0.00  0.00    -0.027 C 
ENDROOT
BRANCH   1   3
ATOM      3  C11 <0> d   1      19.044   0.502   7.630  0.00  0.00     0.053 C 
BRANCH   3   4
ATOM      4  C10 <0> d   1      17.885   0.386   6.674  0.00  0.00    -0.027 C 
ATOM      5  C9  <0> d   1      18.039  -0.233   5.529  0.00  0.00    -0.027 C 
BRANCH   5   6
ATOM      6  C8  <0> d   1      19.317  -0.978   5.242  0.00  0.00     0.053 C 
BRANCH   6   7
ATOM      7  C7  <0> d   1      18.993  -2.382   4.801  0.00  0.00    -0.027 C 
ATOM      8  C6  <0> d   1      19.209  -3.389   5.610  0.00  0.00    -0.027 C 
BRANCH   8   9
ATOM      9  C5  <0> d   1      19.630  -3.135   7.034  0.00  0.00     0.053 C 
BRANCH   9  10
ATOM     10  C4  <0> d   1      18.410  -3.100   7.919  0.00  0.00    -0.027 C 
ATOM     11  C3  <0> d   1      18.179  -4.084   8.753  0.00  0.00    -0.031 C 
BRANCH  11  12
ATOM     12  C2  <0> d   1      19.208  -5.167   8.945  0.00  0.00     0.022 C 
ATOM     13  C1  <0> d   1      18.648  -6.499   8.441  0.00  0.00     0.009 C 
ENDBRANCH  11  12
ENDBRANCH   9  10
ENDBRANCH   8   9
ENDBRANCH   6   7
ENDBRANCH   5   6
ENDBRANCH   3   4
ENDBRANCH   1   3
BRANCH   2  14
ATOM     14  C14 <0> d   1      18.924   1.194  10.363  0.00  0.00     0.053 C 
BRANCH  14  15
ATOM     15  C15 <0> d   1      17.514   1.202  10.894  0.00  0.00    -0.027 C 
ATOM     16  C16 <0> d   1      16.919   0.074  11.190  0.00  0.00    -0.030 C 
BRANCH  16  17
ATOM     17  C17 <0> d   1      17.571  -1.238  10.834  0.00  0.00     0.027 C 
BRANCH  17  18
ATOM     18  C18 <0> d   1      17.604  -2.142  12.068  0.00  0.00     0.013 C 
BRANCH  18  19
ATOM     19  C19 <0> d   1      18.997  -2.093  12.699  0.00  0.00     0.111 C 
BRANCH  19  20
ATOM     20  C20 <0> d   1      18.919  -1.403  14.037  0.00  0.00     0.258 C 
ATOM     21  O21 <0> d   1      19.854  -1.457  14.800  0.00  0.00    -0.265 OA
BRANCH  20  22
ATOM     22  O22 <0> d   1      17.810  -0.727  14.379  0.00  0.00    -0.322 OA
BRANCH  22  23
ATOM     23  C23 <0> d   1      17.896   0.130  15.547  0.00  0.00     0.174 C 
ATOM     24  C24 <0> d   1      17.071  -0.473  16.685  0.00  0.00     0.034 C 
ENDBRANCH  22  23
ENDBRANCH  20  22
ENDBRANCH  19  20
ENDBRANCH  18  19
ENDBRANCH  17  18
ENDBRANCH  16  17
ENDBRANCH  14  15
ENDBRANCH   2  14
TORSDOF 15
ENDMDL
MODEL 9
REMARK VINA RESULT:      -5.8      1.625      3.729
REMARK  15 active torsions:
REMARK  status: ('A' for Active; 'I' for Inactive)
REMARK    1  A    between atoms: C2_2  and  C3_3 
REMARK    2  A    between atoms: C4_4  and  C5_5 
REMARK    3  A    between atoms: C5_5  and  C6_6 
REMARK    4  A    between atoms: C7_7  and  C8_8 
REMARK    5  A    between atoms: C8_8  and  C9_9 
REMARK    6  A    between atoms: C10_10  and  C11_11 
REMARK    7  A    between atoms: C11_11  and  C12_12 
REMARK    8  A    between atoms: C13_13  and  C14_14 
REMARK    9  A    between atoms: C14_14  and  C15_15 
REMARK   10  A    between atoms: C16_16  and  C17_17 
REMARK   11  A    between atoms: C17_17  and  C18_18 
REMARK   12  A    between atoms: C18_18  and  C19_19 
REMARK   13  A    between atoms: C19_19  and  C20_20 
REMARK   14  A    between atoms: C20_20  and  O22_22 
REMARK   15  A    between atoms: O22_22  and  C23_23 
ROOT
ATOM      1  C12 <0> d   1      17.880   3.857  10.344  0.00  0.00    -0.027 C 
ATOM      2  C13 <0> d   1      17.464   4.910  11.003  0.00  0.00    -0.027 C 
ENDROOT
BRANCH   1   3
ATOM      3  C11 <0> d   1      17.786   2.490  10.972  0.00  0.00     0.053 C 
BRANCH   3   4
ATOM      4  C10 <0> d   1      19.172   1.952  11.217  0.00  0.00    -0.027 C 
ATOM      5  C9  <0> d   1      19.356   0.984  12.080  0.00  0.00    -0.027 C 
BRANCH   5   6
ATOM      6  C8  <0> d   1      18.169   0.290  12.699  0.00  0.00     0.053 C 
BRANCH   6   7
ATOM      7  C7  <0> d   1      18.589  -1.062  13.212  0.00  0.00    -0.027 C 
ATOM      8  C6  <0> d   1      18.228  -2.147  12.573  0.00  0.00    -0.027 C 
BRANCH   8   9
ATOM      9  C5  <0> d   1      17.532  -2.040  11.241  0.00  0.00     0.053 C 
BRANCH   9  10
ATOM     10  C4  <0> d   1      18.510  -2.352  10.138  0.00  0.00    -0.027 C 
ATOM     11  C3  <0> d   1      18.483  -1.660   9.025  0.00  0.00    -0.031 C 
BRANCH  11  12
ATOM     12  C2  <0> d   1      17.588  -0.454   8.909  0.00  0.00     0.022 C 
ATOM     13  C1  <0> d   1      17.323  -0.155   7.431  0.00  0.00     0.009 C 
ENDBRANCH  11  12
ENDBRANCH   9  10
ENDBRANCH   8   9
ENDBRANCH   6   7
ENDBRANCH   5   6
ENDBRANCH   3   4
ENDBRANCH   1   3
BRANCH   2  14
ATOM     14  C14 <0> d   1      17.039   4.780  12.442  0.00  0.00     0.053 C 
BRANCH  14  15
ATOM     15  C15 <0> d   1      18.069   5.428  13.331  0.00  0.00    -0.027 C 
ATOM     16  C16 <0> d   1      18.562   4.769  14.351  0.00  0.00    -0.030 C 
BRANCH  16  17
ATOM     17  C17 <0> d   1      17.975   3.438  14.742  0.00  0.00     0.027 C 
BRANCH  17  18
ATOM     18  C18 <0> d   1      19.066   2.563  15.365  0.00  0.00     0.013 C 
BRANCH  18  19
ATOM     19  C19 <0> d   1      19.486   3.156  16.712  0.00  0.00     0.111 C 
BRANCH  19  20
ATOM     20  C20 <0> d   1      19.002   2.264  17.826  0.00  0.00     0.258 C 
ATOM     21  O21 <0> d   1      17.925   2.465  18.336  0.00  0.00    -0.265 OA
BRANCH  20  22
ATOM     22  O22 <0> d   1      19.767   1.245  18.251  0.00  0.00    -0.322 OA
BRANCH  22  23
ATOM     23  C23 <0> d   1      19.109  -0.033  18.454  0.00  0.00     0.174 C 
ATOM     24  C24 <0> d   1      19.002  -0.768  17.117  0.00  0.00     0.034 C 
ENDBRANCH  22  23
ENDBRANCH  20  22
ENDBRANCH  19  20
ENDBRANCH  18  19
ENDBRANCH  17  18
ENDBRANCH  16  17
ENDBRANCH  14  15
ENDBRANCH   2  14
TORSDOF 15
ENDMDL
