MODEL 1
REMARK VINA RESULT:      -7.4      0.000      0.000
REMARK  5 active torsions:
REMARK  status: ('A' for Active; 'I' for Inactive)
REMARK    1  A    between atoms: C2_2  and  C3_3 
REMARK    2  A    between atoms: C4_4  and  C5_5 
REMARK    3  A    between atoms: C14_14  and  C15_15 
REMARK    4  A    between atoms: C16_16  and  C17_17 
REMARK    5  A    between atoms: C19_19  and  C20_20 
ROOT
ATOM      1  C1  <0> d   1      17.559  -1.081  12.032  0.00  0.00     0.048 C 
ATOM      2  C2  <0> d   1      17.501   0.211  12.805  0.00  0.00    -0.062 C 
ATOM      3  C14 <0> d   1      17.467   1.404  12.142  0.00  0.00     0.007 C 
ENDROOT
BRANCH   2   4
ATOM      4  C3  <0> d   1      17.482   0.188  14.211  0.00  0.00     0.007 C 
ATOM      5  C4  <0> d   1      18.558   0.632  14.913  0.00  0.00     0.009 C 
BRANCH   5   6
ATOM      6  C5  <0> d   1      18.493   0.727  16.326  0.00  0.00    -0.048 C 
ATOM      7  C11 <0> d   1      18.334  -0.540  17.114  0.00  0.00    -0.020 C 
ATOM      8  C10 <0> d   1      18.712  -0.299  18.579  0.00  0.00     0.014 C 
ATOM      9  C12 <0> d   1      16.882  -1.017  17.037  0.00  0.00     0.020 C 
ATOM     10  C13 <0> d   1      19.250  -1.615  16.526  0.00  0.00     0.020 C 
ATOM     11  C9  <0> d   1      17.961   0.944  19.073  0.00  0.00     0.005 C 
ATOM     12  C8  <0> d   1      18.525   2.172  18.355  0.00  0.00     0.034 C 
ATOM     13  C6  <0> d   1      18.572   1.928  16.874  0.00  0.00    -0.077 C 
ATOM     14  C7  <0> d   1      18.715   3.119  15.962  0.00  0.00     0.044 C 
ENDBRANCH   5   6
ENDBRANCH   2   4
BRANCH   3  15
ATOM     15  C15 <0> d   1      17.486   1.427  10.741  0.00  0.00     0.001 C 
ATOM     16  C16 <0> d   1      18.218   2.388  10.079  0.00  0.00     0.007 C 
BRANCH  16  17
ATOM     17  C17 <0> d   1      19.039   3.264  10.800  0.00  0.00    -0.056 C 
ATOM     18  C18 <0> d   1      20.395   2.808  11.274  0.00  0.00     0.048 C 
ATOM     19  C19 <0> d   1      18.607   4.541  11.078  0.00  0.00     0.091 C 
BRANCH  19  20
ATOM     20  C20 <0> d   1      17.297   4.926  10.749  0.00  0.00     0.199 C 
ATOM     21  O21 <0> d   1      16.301   4.705  11.610  0.00  0.00    -0.644 OA
ATOM     22  O22 <0> d   1      17.048   5.514   9.578  0.00  0.00    -0.644 OA
ENDBRANCH  19  20
ENDBRANCH  16  17
ENDBRANCH   3  15
TORSDOF 5
ENDMDL
MODEL 2
REMARK VINA RESULT:      -7.4      3.058      4.042
REMARK  5 active torsions:
REMARK  status: ('A' for Active; 'I' for Inactive)
REMARK    1  A    between atoms: C2_2  and  C3_3 
REMARK    2  A    between atoms: C4_4  and  C5_5 
REMARK    3  A    between atoms: C14_14  and  C15_15 
REMARK    4  A    between atoms: C16_16  and  C17_17 
REMARK    5  A    between atoms: C19_19  and  C20_20 
ROOT
ATOM      1  C1  <0> d   1      17.755   2.202  11.745  0.00  0.00     0.048 C 
ATOM      2  C2  <0> d   1      17.453   0.920  12.477  0.00  0.00    -0.062 C 
ATOM      3  C14 <0> d   1      17.154  -0.213  11.777  0.00  0.00     0.007 C 
ENDROOT
BRANCH   2   4
ATOM      4  C3  <0> d   1      17.480   0.891  13.883  0.00  0.00     0.007 C 
ATOM      5  C4  <0> d   1      18.661   0.734  14.537  0.00  0.00     0.009 C 
BRANCH   5   6
ATOM      6  C5  <0> d   1      18.707   0.831  15.950  0.00  0.00    -0.048 C 
ATOM      7  C11 <0> d   1      18.478  -0.416  16.753  0.00  0.00    -0.020 C 
ATOM      8  C10 <0> d   1      18.982  -0.219  18.186  0.00  0.00     0.014 C 
ATOM      9  C12 <0> d   1      16.984  -0.744  16.782  0.00  0.00     0.020 C 
ATOM     10  C13 <0> d   1      19.236  -1.577  16.105  0.00  0.00     0.020 C 
ATOM     11  C9  <0> d   1      18.397   1.091  18.728  0.00  0.00     0.005 C 
ATOM     12  C8  <0> d   1      19.030   2.258  17.966  0.00  0.00     0.034 C 
ATOM     13  C6  <0> d   1      18.945   2.016  16.487  0.00  0.00    -0.077 C 
ATOM     14  C7  <0> d   1      19.142   3.189  15.562  0.00  0.00     0.044 C 
ENDBRANCH   5   6
ENDBRANCH   2   4
BRANCH   3  15
ATOM     15  C15 <0> d   1      17.126  -0.183  10.376  0.00  0.00     0.001 C 
ATOM     16  C16 <0> d   1      18.188  -0.683   9.656  0.00  0.00     0.007 C 
BRANCH  16  17
ATOM     17  C17 <0> d   1      19.239  -1.331  10.316  0.00  0.00    -0.056 C 
ATOM     18  C18 <0> d   1      20.436  -0.542  10.783  0.00  0.00     0.048 C 
ATOM     19  C19 <0> d   1      19.181  -2.688  10.538  0.00  0.00     0.091 C 
BRANCH  19  20
ATOM     20  C20 <0> d   1      18.129  -3.444   9.995  0.00  0.00     0.199 C 
ATOM     21  O21 <0> d   1      18.157  -3.795   8.708  0.00  0.00    -0.644 OA
ATOM     22  O22 <0> d   1      17.105  -3.812  10.765  0.00  0.00    -0.644 OA
ENDBRANCH  19  20
ENDBRANCH  16  17
ENDBRANCH   3  15
TORSDOF 5
ENDMDL
MODEL 3
REMARK VINA RESULT:      -7.4      2.811      3.290
REMARK  5 active torsions:
REMARK  status: ('A' for Active; 'I' for Inactive)
REMARK    1  A    between atoms: C2_2  and  C3_3 
REMARK    2  A    between atoms: C4_4  and  C5_5 
REMARK    3  A    between atoms: C14_14  and  C15_15 
REMARK    4  A    between atoms: C16_16  and  C17_17 
REMARK    5  A    between atoms: C19_19  and  C20_20 
ROOT
ATOM      1  C1  <0> d   1      17.504  -1.978  11.950  0.00  0.00     0.048 C 
ATOM      2  C2  <0> d   1      17.706  -0.531  12.318  0.00  0.00    -0.062 C 
ATOM      3  C14 <0> d   1      17.307   0.454  11.460  0.00  0.00     0.007 C 
ENDROOT
BRANCH   2   4
ATOM      4  C3  <0> d   1      18.305  -0.195  13.545  0.00  0.00     0.007 C 
ATOM      5  C4  <0> d   1      17.626   0.561  14.447  0.00  0.00     0.009 C 
BRANCH   5   6
ATOM      6  C5  <0> d   1      18.176   0.795  15.733  0.00  0.00    -0.048 C 
ATOM      7  C11 <0> d   1      18.076  -0.299  16.755  0.00  0.00    -0.020 C 
ATOM      8  C10 <0> d   1      19.072  -0.049  17.892  0.00  0.00     0.014 C 
ATOM      9  C12 <0> d   1      16.657  -0.344  17.325  0.00  0.00     0.020 C 
ATOM     10  C13 <0> d   1      18.394  -1.640  16.089  0.00  0.00     0.020 C 
ATOM     11  C9  <0> d   1      18.897   1.395  18.378  0.00  0.00     0.005 C 
ATOM     12  C8  <0> d   1      19.375   2.341  17.274  0.00  0.00     0.034 C 
ATOM     13  C6  <0> d   1      18.746   1.965  15.964  0.00  0.00    -0.077 C 
ATOM     14  C7  <0> d   1      18.764   2.980  14.850  0.00  0.00     0.044 C 
ENDBRANCH   5   6
ENDBRANCH   2   4
BRANCH   3  15
ATOM     15  C15 <0> d   1      16.711   0.119  10.237  0.00  0.00     0.001 C 
ATOM     16  C16 <0> d   1      17.371   0.379   9.057  0.00  0.00     0.007 C 
BRANCH  16  17
ATOM     17  C17 <0> d   1      18.684   0.864   9.080  0.00  0.00    -0.056 C 
ATOM     18  C18 <0> d   1      18.950   2.302   9.445  0.00  0.00     0.048 C 
ATOM     19  C19 <0> d   1      19.732   0.029   8.768  0.00  0.00     0.091 C 
BRANCH  19  20
ATOM     20  C20 <0> d   1      19.479  -1.273   8.305  0.00  0.00     0.199 C 
ATOM     21  O21 <0> d   1      19.351  -2.277   9.176  0.00  0.00    -0.644 OA
ATOM     22  O22 <0> d   1      19.366  -1.506   6.997  0.00  0.00    -0.644 OA
ENDBRANCH  19  20
ENDBRANCH  16  17
ENDBRANCH   3  15
TORSDOF 5
ENDMDL
MODEL 4
REMARK VINA RESULT:      -7.3      4.275      8.487
REMARK  5 active torsions:
REMARK  status: ('A' for Active; 'I' for Inactive)
REMARK    1  A    between atoms: C2_2  and  C3_3 
REMARK    2  A    between atoms: C4_4  and  C5_5 
REMARK    3  A    between atoms: C14_14  and  C15_15 
REMARK    4  A    between atoms: C16_16  and  C17_17 
REMARK    5  A    between atoms: C19_19  and  C20_20 
ROOT
ATOM      1  C1  <0> d   1      19.266  -3.916  10.862  0.00  0.00     0.048 C 
ATOM      2  C2  <0> d   1      18.733  -2.532  10.588  0.00  0.00    -0.062 C 
ATOM      3  C14 <0> d   1      18.577  -1.645  11.613  0.00  0.00     0.007 C 
ENDROOT
BRANCH   2   4
ATOM      4  C3  <0> d   1      18.399  -2.156   9.275  0.00  0.00     0.007 C 
ATOM      5  C4  <0> d   1      19.348  -1.634   8.454  0.00  0.00     0.009 C 
BRANCH   5   6
ATOM      6  C5  <0> d   1      19.044  -1.373   7.095  0.00  0.00    -0.048 C 
ATOM      7  C11 <0> d   1      18.434  -0.046   6.749  0.00  0.00    -0.020 C 
ATOM      8  C10 <0> d   1      18.578   0.223   5.247  0.00  0.00     0.014 C 
ATOM      9  C12 <0> d   1      16.951  -0.046   7.124  0.00  0.00     0.020 C 
ATOM     10  C13 <0> d   1      19.152   1.056   7.531  0.00  0.00     0.020 C 
ATOM     11  C9  <0> d   1      18.075  -1.010   4.486  0.00  0.00     0.005 C 
ATOM     12  C8  <0> d   1      19.048  -2.165   4.733  0.00  0.00     0.034 C 
ATOM     13  C6  <0> d   1      19.310  -2.313   6.204  0.00  0.00    -0.077 C 
ATOM     14  C7  <0> d   1      19.910  -3.606   6.693  0.00  0.00     0.044 C 
ENDBRANCH   5   6
ENDBRANCH   2   4
BRANCH   3  15
ATOM     15  C15 <0> d   1      18.910  -2.021  12.922  0.00  0.00     0.001 C 
ATOM     16  C16 <0> d   1      19.603  -1.150  13.732  0.00  0.00     0.007 C 
BRANCH  16  17
ATOM     17  C17 <0> d   1      19.869   0.153  13.294  0.00  0.00    -0.056 C 
ATOM     18  C18 <0> d   1      20.818   0.384  12.147  0.00  0.00     0.048 C 
ATOM     19  C19 <0> d   1      19.264   1.224  13.912  0.00  0.00     0.091 C 
BRANCH  19  20
ATOM     20  C20 <0> d   1      18.479   1.021  15.060  0.00  0.00     0.199 C 
ATOM     21  O21 <0> d   1      17.188   0.706  14.937  0.00  0.00    -0.644 OA
ATOM     22  O22 <0> d   1      19.024   1.143  16.271  0.00  0.00    -0.644 OA
ENDBRANCH  19  20
ENDBRANCH  16  17
ENDBRANCH   3  15
TORSDOF 5
ENDMDL
MODEL 5
REMARK VINA RESULT:      -7.3      2.394      3.089
REMARK  5 active torsions:
REMARK  status: ('A' for Active; 'I' for Inactive)
REMARK    1  A    between atoms: C2_2  and  C3_3 
REMARK    2  A    between atoms: C4_4  and  C5_5 
REMARK    3  A    between atoms: C14_14  and  C15_15 
REMARK    4  A    between atoms: C16_16  and  C17_17 
REMARK    5  A    between atoms: C19_19  and  C20_20 
ROOT
ATOM      1  C1  <0> d   1      18.598   4.225  12.658  0.00  0.00     0.048 C 
ATOM      2  C2  <0> d   1      18.077   2.821  12.827  0.00  0.00    -0.062 C 
ATOM      3  C14 <0> d   1      17.724   2.087  11.732  0.00  0.00     0.007 C 
ENDROOT
BRANCH   2   4
ATOM      4  C3  <0> d   1      17.955   2.267  14.114  0.00  0.00     0.007 C 
ATOM      5  C4  <0> d   1      19.032   1.692  14.711  0.00  0.00     0.009 C 
BRANCH   5   6
ATOM      6  C5  <0> d   1      18.944   1.247  16.054  0.00  0.00    -0.048 C 
ATOM      7  C11 <0> d   1      18.541  -0.177  16.304  0.00  0.00    -0.020 C 
ATOM      8  C10 <0> d   1      18.913  -0.586  17.732  0.00  0.00     0.014 C 
ATOM      9  C12 <0> d   1      17.030  -0.326  16.111  0.00  0.00     0.020 C 
ATOM     10  C13 <0> d   1      19.268  -1.085  15.311  0.00  0.00     0.020 C 
ATOM     11  C9  <0> d   1      18.380   0.482  18.695  0.00  0.00     0.005 C 
ATOM     12  C8  <0> d   1      19.173   1.772  18.479  0.00  0.00     0.034 C 
ATOM     13  C6  <0> d   1      19.218   2.112  17.017  0.00  0.00    -0.077 C 
ATOM     14  C7  <0> d   1      19.596   3.517  16.625  0.00  0.00     0.044 C 
ENDBRANCH   5   6
ENDBRANCH   2   4
BRANCH   3  15
ATOM     15  C15 <0> d   1      17.844   2.639  10.449  0.00  0.00     0.001 C 
ATOM     16  C16 <0> d   1      18.627   2.017   9.503  0.00  0.00     0.007 C 
BRANCH  16  17
ATOM     17  C17 <0> d   1      19.204   0.772   9.780  0.00  0.00    -0.056 C 
ATOM     18  C18 <0> d   1      20.082   0.600  10.993  0.00  0.00     0.048 C 
ATOM     19  C19 <0> d   1      18.970  -0.297   8.944  0.00  0.00     0.091 C 
BRANCH  19  20
ATOM     20  C20 <0> d   1      18.257  -0.110   7.748  0.00  0.00     0.199 C 
ATOM     21  O21 <0> d   1      16.932  -0.265   7.731  0.00  0.00    -0.644 OA
ATOM     22  O22 <0> d   1      18.905   0.224   6.631  0.00  0.00    -0.644 OA
ENDBRANCH  19  20
ENDBRANCH  16  17
ENDBRANCH   3  15
TORSDOF 5
ENDMDL
MODEL 6
REMARK VINA RESULT:      -7.3      3.847      8.019
REMARK  5 active torsions:
REMARK  status: ('A' for Active; 'I' for Inactive)
REMARK    1  A    between atoms: C2_2  and  C3_3 
REMARK    2  A    between atoms: C4_4  and  C5_5 
REMARK    3  A    between atoms: C14_14  and  C15_15 
REMARK    4  A    between atoms: C16_16  and  C17_17 
REMARK    5  A    between atoms: C19_19  and  C20_20 
ROOT
ATOM      1  C1  <0> d   1      17.699  -2.197  11.437  0.00  0.00     0.048 C 
ATOM      2  C2  <0> d   1      17.437  -0.998  10.562  0.00  0.00    -0.062 C 
ATOM      3  C14 <0> d   1      17.133   0.206  11.127  0.00  0.00     0.007 C 
ENDROOT
BRANCH   2   4
ATOM      4  C3  <0> d   1      17.507  -1.121   9.164  0.00  0.00     0.007 C 
ATOM      5  C4  <0> d   1      18.698  -0.968   8.527  0.00  0.00     0.009 C 
BRANCH   5   6
ATOM      6  C5  <0> d   1      18.794  -1.215   7.134  0.00  0.00    -0.048 C 
ATOM      7  C11 <0> d   1      18.482  -0.089   6.192  0.00  0.00    -0.020 C 
ATOM      8  C10 <0> d   1      19.044  -0.397   4.801  0.00  0.00     0.014 C 
ATOM      9  C12 <0> d   1      16.967   0.099   6.097  0.00  0.00     0.020 C 
ATOM     10  C13 <0> d   1      19.117   1.199   6.720  0.00  0.00     0.020 C 
ATOM     11  C9  <0> d   1      18.590  -1.806   4.398  0.00  0.00     0.005 C 
ATOM     12  C8  <0> d   1      19.299  -2.821   5.298  0.00  0.00     0.034 C 
ATOM     13  C6  <0> d   1      19.150  -2.426   6.739  0.00  0.00    -0.077 C 
ATOM     14  C7  <0> d   1      19.420  -3.467   7.793  0.00  0.00     0.044 C 
ENDBRANCH   5   6
ENDBRANCH   2   4
BRANCH   3  15
ATOM     15  C15 <0> d   1      17.062   0.328  12.522  0.00  0.00     0.001 C 
ATOM     16  C16 <0> d   1      18.094   0.921  13.214  0.00  0.00     0.007 C 
BRANCH  16  17
ATOM     17  C17 <0> d   1      19.157   1.510  12.518  0.00  0.00    -0.056 C 
ATOM     18  C18 <0> d   1      20.390   0.703  12.200  0.00  0.00     0.048 C 
ATOM     19  C19 <0> d   1      19.076   2.827  12.125  0.00  0.00     0.091 C 
BRANCH  19  20
ATOM     20  C20 <0> d   1      17.986   3.615  12.529  0.00  0.00     0.199 C 
ATOM     21  O21 <0> d   1      16.943   3.778  11.712  0.00  0.00    -0.644 OA
ATOM     22  O22 <0> d   1      17.993   4.200  13.727  0.00  0.00    -0.644 OA
ENDBRANCH  19  20
ENDBRANCH  16  17
ENDBRANCH   3  15
TORSDOF 5
ENDMDL
MODEL 7
REMARK VINA RESULT:      -7.0      3.858      7.735
REMARK  5 active torsions:
REMARK  status: ('A' for Active; 'I' for Inactive)
REMARK    1  A    between atoms: C2_2  and  C3_3 
REMARK    2  A    between atoms: C4_4  and  C5_5 
REMARK    3  A    between atoms: C14_14  and  C15_15 
REMARK    4  A    between atoms: C16_16  and  C17_17 
REMARK    5  A    between atoms: C19_19  and  C20_20 
ROOT
ATOM      1  C1  <0> d   1      17.015   0.451  11.952  0.00  0.00     0.048 C 
ATOM      2  C2  <0> d   1      17.883  -0.592  12.609  0.00  0.00    -0.062 C 
ATOM      3  C14 <0> d   1      18.139  -0.522  13.948  0.00  0.00     0.007 C 
ENDROOT
BRANCH   2   4
ATOM      4  C3  <0> d   1      18.428  -1.637  11.843  0.00  0.00     0.007 C 
ATOM      5  C4  <0> d   1      17.630  -2.355  11.009  0.00  0.00     0.009 C 
BRANCH   5   6
ATOM      6  C5  <0> d   1      18.199  -3.323  10.144  0.00  0.00    -0.048 C 
ATOM      7  C11 <0> d   1      18.619  -4.639  10.732  0.00  0.00    -0.020 C 
ATOM      8  C10 <0> d   1      18.794  -5.679   9.621  0.00  0.00     0.014 C 
ATOM      9  C12 <0> d   1      19.942  -4.470  11.482  0.00  0.00     0.020 C 
ATOM     10  C13 <0> d   1      17.544  -5.118  11.709  0.00  0.00     0.020 C 
ATOM     11  C9  <0> d   1      19.684  -5.074   8.529  0.00  0.00     0.005 C 
ATOM     12  C8  <0> d   1      18.911  -3.947   7.840  0.00  0.00     0.034 C 
ATOM     13  C6  <0> d   1      18.334  -3.015   8.865  0.00  0.00    -0.077 C 
ATOM     14  C7  <0> d   1      17.884  -1.650   8.412  0.00  0.00     0.044 C 
ENDBRANCH   5   6
ENDBRANCH   2   4
BRANCH   3  15
ATOM     15  C15 <0> d   1      17.596   0.521  14.712  0.00  0.00     0.001 C 
ATOM     16  C16 <0> d   1      17.576   0.428  16.085  0.00  0.00     0.007 C 
BRANCH  16  17
ATOM     17  C17 <0> d   1      18.205  -0.647  16.725  0.00  0.00    -0.056 C 
ATOM     18  C18 <0> d   1      18.117  -2.031  16.135  0.00  0.00     0.048 C 
ATOM     19  C19 <0> d   1      18.902  -0.440  17.893  0.00  0.00     0.091 C 
BRANCH  19  20
ATOM     20  C20 <0> d   1      18.880   0.821  18.511  0.00  0.00     0.199 C 
ATOM     21  O21 <0> d   1      20.002   1.536  18.607  0.00  0.00    -0.644 OA
ATOM     22  O22 <0> d   1      17.737   1.303  19.002  0.00  0.00    -0.644 OA
ENDBRANCH  19  20
ENDBRANCH  16  17
ENDBRANCH   3  15
TORSDOF 5
ENDMDL
MODEL 8
REMARK VINA RESULT:      -7.0      2.506      3.022
REMARK  5 active torsions:
REMARK  status: ('A' for Active; 'I' for Inactive)
REMARK    1  A    between atoms: C2_2  and  C3_3 
REMARK    2  A    between atoms: C4_4  and  C5_5 
REMARK    3  A    between atoms: C14_14  and  C15_15 
REMARK    4  A    between atoms: C16_16  and  C17_17 
REMARK    5  A    between atoms: C19_19  and  C20_20 
ROOT
ATOM      1  C1  <0> d   1      18.642  -2.766  12.651  0.00  0.00     0.048 C 
ATOM      2  C2  <0> d   1      19.308  -1.414  12.670  0.00  0.00    -0.062 C 
ATOM      3  C14 <0> d   1      19.708  -0.833  11.502  0.00  0.00     0.007 C 
ENDROOT
BRANCH   2   4
ATOM      4  C3  <0> d   1      19.516  -0.752  13.893  0.00  0.00     0.007 C 
ATOM      5  C4  <0> d   1      18.515  -0.018  14.448  0.00  0.00     0.009 C 
BRANCH   5   6
ATOM      6  C5  <0> d   1      18.680   0.545  15.738  0.00  0.00    -0.048 C 
ATOM      7  C11 <0> d   1      18.510  -0.352  16.929  0.00  0.00    -0.020 C 
ATOM      8  C10 <0> d   1      19.135   0.297  18.168  0.00  0.00     0.014 C 
ATOM      9  C12 <0> d   1      17.021  -0.597  17.182  0.00  0.00     0.020 C 
ATOM     10  C13 <0> d   1      19.202  -1.689  16.654  0.00  0.00     0.020 C 
ATOM     11  C9  <0> d   1      18.608   1.733  18.280  0.00  0.00     0.005 C 
ATOM     12  C8  <0> d   1      19.183   2.553  17.123  0.00  0.00     0.034 C 
ATOM     13  C6  <0> d   1      18.972   1.832  15.824  0.00  0.00    -0.077 C 
ATOM     14  C7  <0> d   1      19.100   2.619  14.545  0.00  0.00     0.044 C 
ENDBRANCH   5   6
ENDBRANCH   2   4
BRANCH   3  15
ATOM     15  C15 <0> d   1      19.501  -1.494  10.284  0.00  0.00     0.001 C 
ATOM     16  C16 <0> d   1      18.467  -1.111   9.460  0.00  0.00     0.007 C 
BRANCH  16  17
ATOM     17  C17 <0> d   1      17.697   0.014   9.779  0.00  0.00    -0.056 C 
ATOM     18  C18 <0> d   1      16.633  -0.077  10.844  0.00  0.00     0.048 C 
ATOM     19  C19 <0> d   1      17.910   1.204   9.121  0.00  0.00     0.091 C 
BRANCH  19  20
ATOM     20  C20 <0> d   1      18.811   1.259   8.044  0.00  0.00     0.199 C 
ATOM     21  O21 <0> d   1      20.066   1.664   8.245  0.00  0.00    -0.644 OA
ATOM     22  O22 <0> d   1      18.412   0.905   6.822  0.00  0.00    -0.644 OA
ENDBRANCH  19  20
ENDBRANCH  16  17
ENDBRANCH   3  15
TORSDOF 5
ENDMDL
MODEL 9
REMARK VINA RESULT:      -7.0      5.324      8.337
REMARK  5 active torsions:
REMARK  status: ('A' for Active; 'I' for Inactive)
REMARK    1  A    between atoms: C2_2  and  C3_3 
REMARK    2  A    between atoms: C4_4  and  C5_5 
REMARK    3  A    between atoms: C14_14  and  C15_15 
REMARK    4  A    between atoms: C16_16  and  C17_17 
REMARK    5  A    between atoms: C19_19  and  C20_20 
ROOT
ATOM      1  C1  <0> d   1      17.986  -4.114  11.957  0.00  0.00     0.048 C 
ATOM      2  C2  <0> d   1      18.414  -3.396  10.703  0.00  0.00    -0.062 C 
ATOM      3  C14 <0> d   1      18.928  -4.101   9.654  0.00  0.00     0.007 C 
ENDROOT
BRANCH   2   4
ATOM      4  C3  <0> d   1      18.282  -1.999  10.614  0.00  0.00     0.007 C 
ATOM      5  C4  <0> d   1      19.365  -1.232  10.319  0.00  0.00     0.009 C 
BRANCH   5   6
ATOM      6  C5  <0> d   1      19.210   0.161  10.104  0.00  0.00    -0.048 C 
ATOM      7  C11 <0> d   1      19.178   1.063  11.304  0.00  0.00    -0.020 C 
ATOM      8  C10 <0> d   1      19.439   2.511  10.879  0.00  0.00     0.014 C 
ATOM      9  C12 <0> d   1      17.809   0.972  11.981  0.00  0.00     0.020 C 
ATOM     10  C13 <0> d   1      20.260   0.622  12.292  0.00  0.00     0.020 C 
ATOM     11  C9  <0> d   1      18.502   2.849   9.712  0.00  0.00     0.005 C 
ATOM     12  C8  <0> d   1      18.937   2.038   8.489  0.00  0.00     0.034 C 
ATOM     13  C6  <0> d   1      19.097   0.591   8.859  0.00  0.00    -0.077 C 
ATOM     14  C7  <0> d   1      19.130  -0.427   7.749  0.00  0.00     0.044 C 
ENDBRANCH   5   6
ENDBRANCH   2   4
BRANCH   3  15
ATOM     15  C15 <0> d   1      19.060  -5.494   9.743  0.00  0.00     0.001 C 
ATOM     16  C16 <0> d   1      18.116  -6.312   9.165  0.00  0.00     0.007 C 
BRANCH  16  17
ATOM     17  C17 <0> d   1      17.093  -5.760   8.385  0.00  0.00    -0.056 C 
ATOM     18  C18 <0> d   1      15.779  -5.385   9.022  0.00  0.00     0.048 C 
ATOM     19  C19 <0> d   1      17.285  -5.561   7.037  0.00  0.00     0.091 C 
BRANCH  19  20
ATOM     20  C20 <0> d   1      18.458  -6.025   6.419  0.00  0.00     0.199 C 
ATOM     21  O21 <0> d   1      18.502  -7.259   5.916  0.00  0.00    -0.644 OA
ATOM     22  O22 <0> d   1      19.526  -5.231   6.334  0.00  0.00    -0.644 OA
ENDBRANCH  19  20
ENDBRANCH  16  17
ENDBRANCH   3  15
TORSDOF 5
ENDMDL
