MODEL 1
REMARK VINA RESULT:      -7.3      0.000      0.000
REMARK  4 active torsions:
REMARK  status: ('A' for Active; 'I' for Inactive)
REMARK    1  A    between atoms: C2_2  and  C4_3 
REMARK    2  A    between atoms: C2_2  and  C7_6 
REMARK    3  A    between atoms: C11_10  and  O12_11 
REMARK    4  A    between atoms: O12_11  and  C13_12 
ROOT
ATOM      1  C7  ZIN A   1      18.053   0.342   8.106  0.00  0.00    -0.042 A 
ATOM      2  C8  ZIN A   1      18.897   1.437   8.104  0.00  0.00     0.008 A 
ATOM      3  C9  ZIN A   1      19.015   2.223   9.237  0.00  0.00     0.003 A 
ATOM      4  C10 ZIN A   1      18.292   1.915  10.371  0.00  0.00     0.037 A 
ATOM      5  C11 ZIN A   1      17.444   0.815  10.376  0.00  0.00     0.076 A 
ATOM      6  C19 ZIN A   1      17.323   0.032   9.237  0.00  0.00     0.045 A 
ENDROOT
BRANCH   5   7
ATOM      7  O12 ZIN A   1      16.731   0.509  11.491  0.00  0.00    -0.311 OA
BRANCH   7   8
ATOM      8  C13 ZIN A   1      17.391  -0.059  12.534  0.00  0.00     0.076 A 
ATOM      9  C18 ZIN A   1      17.973  -1.310  12.390  0.00  0.00     0.037 A 
ATOM     10  C17 ZIN A   1      18.648  -1.883  13.450  0.00  0.00     0.003 A 
ATOM     11  C16 ZIN A   1      18.734  -1.216  14.658  0.00  0.00     0.000 A 
ATOM     12  C15 ZIN A   1      18.150   0.028  14.806  0.00  0.00     0.003 A 
ATOM     13  C14 ZIN A   1      17.478   0.608  13.748  0.00  0.00     0.037 A 
ENDBRANCH   7   8
ENDBRANCH   5   7
BRANCH   1  14
ATOM     14  C2  ZIN A   1      17.926  -0.512   6.870  0.00  0.00     0.115 C 
ATOM     15  C1  ZIN A   1      17.904   0.385   5.631  0.00  0.00     0.026 C 
BRANCH  14  16
ATOM     16  C4  ZIN A   1      19.100  -1.453   6.788  0.00  0.00     0.181 C 
ATOM     17  O5  ZIN A   1      19.691  -1.600   5.731  0.00  0.00    -0.647 OA
ATOM     18  O6  ZIN A   1      19.459  -2.069   7.777  0.00  0.00    -0.647 OA
ENDBRANCH  14  16
ENDBRANCH   1  14
TORSDOF 4
ENDMDL
MODEL 2
REMARK VINA RESULT:      -7.3      2.100      6.874
REMARK  4 active torsions:
REMARK  status: ('A' for Active; 'I' for Inactive)
REMARK    1  A    between atoms: C2_2  and  C4_3 
REMARK    2  A    between atoms: C2_2  and  C7_6 
REMARK    3  A    between atoms: C11_10  and  O12_11 
REMARK    4  A    between atoms: O12_11  and  C13_12 
ROOT
ATOM      1  C7  ZIN A   1      17.795  -0.271  14.428  0.00  0.00    -0.042 A 
ATOM      2  C8  ZIN A   1      18.634  -1.360  14.282  0.00  0.00     0.008 A 
ATOM      3  C9  ZIN A   1      18.832  -1.922  13.034  0.00  0.00     0.003 A 
ATOM      4  C10 ZIN A   1      18.192  -1.396  11.929  0.00  0.00     0.037 A 
ATOM      5  C11 ZIN A   1      17.349  -0.302  12.072  0.00  0.00     0.076 A 
ATOM      6  C19 ZIN A   1      17.149   0.256  13.326  0.00  0.00     0.045 A 
ENDROOT
BRANCH   5   7
ATOM      7  O12 ZIN A   1      16.718   0.218  10.987  0.00  0.00    -0.311 OA
BRANCH   7   8
ATOM      8  C13 ZIN A   1      17.484   0.684   9.967  0.00  0.00     0.076 A 
ATOM      9  C18 ZIN A   1      18.245   1.832  10.137  0.00  0.00     0.037 A 
ATOM     10  C17 ZIN A   1      19.027   2.300   9.100  0.00  0.00     0.003 A 
ATOM     11  C16 ZIN A   1      19.043   1.634   7.889  0.00  0.00     0.000 A 
ATOM     12  C15 ZIN A   1      18.281   0.494   7.714  0.00  0.00     0.003 A 
ATOM     13  C14 ZIN A   1      17.501   0.018   8.750  0.00  0.00     0.037 A 
ENDBRANCH   7   8
ENDBRANCH   5   7
BRANCH   1  14
ATOM     14  C2  ZIN A   1      17.582   0.339  15.789  0.00  0.00     0.115 C 
ATOM     15  C1  ZIN A   1      17.192  -0.758  16.783  0.00  0.00     0.026 C 
BRANCH  14  16
ATOM     16  C4  ZIN A   1      18.855   1.002  16.247  0.00  0.00     0.181 C 
ATOM     17  O5  ZIN A   1      19.357   1.887  15.575  0.00  0.00    -0.647 OA
ATOM     18  O6  ZIN A   1      19.385   0.652  17.288  0.00  0.00    -0.647 OA
ENDBRANCH  14  16
ENDBRANCH   1  14
TORSDOF 4
ENDMDL
MODEL 3
REMARK VINA RESULT:      -7.2      0.751      1.029
REMARK  4 active torsions:
REMARK  status: ('A' for Active; 'I' for Inactive)
REMARK    1  A    between atoms: C2_2  and  C4_3 
REMARK    2  A    between atoms: C2_2  and  C7_6 
REMARK    3  A    between atoms: C11_10  and  O12_11 
REMARK    4  A    between atoms: O12_11  and  C13_12 
ROOT
ATOM      1  C7  ZIN A   1      18.085   0.052   7.414  0.00  0.00    -0.042 A 
ATOM      2  C8  ZIN A   1      18.976   1.109   7.446  0.00  0.00     0.008 A 
ATOM      3  C9  ZIN A   1      19.094   1.883   8.586  0.00  0.00     0.003 A 
ATOM      4  C10 ZIN A   1      18.324   1.602   9.696  0.00  0.00     0.037 A 
ATOM      5  C11 ZIN A   1      17.429   0.540   9.668  0.00  0.00     0.076 A 
ATOM      6  C19 ZIN A   1      17.309  -0.231   8.522  0.00  0.00     0.045 A 
ENDROOT
BRANCH   5   7
ATOM      7  O12 ZIN A   1      16.669   0.261  10.759  0.00  0.00    -0.311 OA
BRANCH   7   8
ATOM      8  C13 ZIN A   1      17.287  -0.271  11.846  0.00  0.00     0.076 A 
ATOM      9  C18 ZIN A   1      17.858  -1.534  11.772  0.00  0.00     0.037 A 
ATOM     10  C17 ZIN A   1      18.490  -2.070  12.878  0.00  0.00     0.003 A 
ATOM     11  C16 ZIN A   1      18.543  -1.356  14.060  0.00  0.00     0.000 A 
ATOM     12  C15 ZIN A   1      17.969  -0.100  14.138  0.00  0.00     0.003 A 
ATOM     13  C14 ZIN A   1      17.341   0.444  13.034  0.00  0.00     0.037 A 
ENDBRANCH   7   8
ENDBRANCH   5   7
BRANCH   1  14
ATOM     14  C2  ZIN A   1      17.958  -0.790   6.171  0.00  0.00     0.115 C 
ATOM     15  C1  ZIN A   1      17.706   0.118   4.965  0.00  0.00     0.026 C 
BRANCH  14  16
ATOM     16  C4  ZIN A   1      19.233  -1.564   5.957  0.00  0.00     0.181 C 
ATOM     17  O5  ZIN A   1      19.619  -2.350   6.807  0.00  0.00    -0.647 OA
ATOM     18  O6  ZIN A   1      19.881  -1.404   4.936  0.00  0.00    -0.647 OA
ENDBRANCH  14  16
ENDBRANCH   1  14
TORSDOF 4
ENDMDL
MODEL 4
REMARK VINA RESULT:      -7.2      2.117      6.836
REMARK  4 active torsions:
REMARK  status: ('A' for Active; 'I' for Inactive)
REMARK    1  A    between atoms: C2_2  and  C4_3 
REMARK    2  A    between atoms: C2_2  and  C7_6 
REMARK    3  A    between atoms: C11_10  and  O12_11 
REMARK    4  A    between atoms: O12_11  and  C13_12 
ROOT
ATOM      1  C7  ZIN A   1      17.858  -0.334  14.451  0.00  0.00    -0.042 A 
ATOM      2  C8  ZIN A   1      18.776  -1.362  14.341  0.00  0.00     0.008 A 
ATOM      3  C9  ZIN A   1      19.032  -1.935  13.108  0.00  0.00     0.003 A 
ATOM      4  C10 ZIN A   1      18.371  -1.481  11.984  0.00  0.00     0.037 A 
ATOM      5  C11 ZIN A   1      17.450  -0.448  12.091  0.00  0.00     0.076 A 
ATOM      6  C19 ZIN A   1      17.192   0.121  13.329  0.00  0.00     0.045 A 
ENDROOT
BRANCH   5   7
ATOM      7  O12 ZIN A   1      16.798   0.000  10.986  0.00  0.00    -0.311 OA
BRANCH   7   8
ATOM      8  C13 ZIN A   1      17.536   0.568   9.997  0.00  0.00     0.076 A 
ATOM      9  C18 ZIN A   1      17.638  -0.054   8.761  0.00  0.00     0.037 A 
ATOM     10  C17 ZIN A   1      18.385   0.528   7.755  0.00  0.00     0.003 A 
ATOM     11  C16 ZIN A   1      19.041   1.723   7.984  0.00  0.00     0.000 A 
ATOM     12  C15 ZIN A   1      18.947   2.342   9.217  0.00  0.00     0.003 A 
ATOM     13  C14 ZIN A   1      18.196   1.767  10.224  0.00  0.00     0.037 A 
ENDBRANCH   7   8
ENDBRANCH   5   7
BRANCH   1  14
ATOM     14  C2  ZIN A   1      17.582   0.289  15.795  0.00  0.00     0.115 C 
ATOM     15  C1  ZIN A   1      17.186  -0.804  16.791  0.00  0.00     0.026 C 
BRANCH  14  16
ATOM     16  C4  ZIN A   1      18.822   0.991  16.287  0.00  0.00     0.181 C 
ATOM     17  O5  ZIN A   1      19.311   0.683  17.361  0.00  0.00    -0.647 OA
ATOM     18  O6  ZIN A   1      19.334   1.868  15.613  0.00  0.00    -0.647 OA
ENDBRANCH  14  16
ENDBRANCH   1  14
TORSDOF 4
ENDMDL
MODEL 5
REMARK VINA RESULT:      -7.2      3.415      7.455
REMARK  4 active torsions:
REMARK  status: ('A' for Active; 'I' for Inactive)
REMARK    1  A    between atoms: C2_2  and  C4_3 
REMARK    2  A    between atoms: C2_2  and  C7_6 
REMARK    3  A    between atoms: C11_10  and  O12_11 
REMARK    4  A    between atoms: O12_11  and  C13_12 
ROOT
ATOM      1  C7  ZIN A   1      18.644   0.095  15.365  0.00  0.00    -0.042 A 
ATOM      2  C8  ZIN A   1      18.467  -1.221  14.979  0.00  0.00     0.008 A 
ATOM      3  C9  ZIN A   1      18.932  -1.651  13.750  0.00  0.00     0.003 A 
ATOM      4  C10 ZIN A   1      19.574  -0.769  12.905  0.00  0.00     0.037 A 
ATOM      5  C11 ZIN A   1      19.754   0.553  13.291  0.00  0.00     0.076 A 
ATOM      6  C19 ZIN A   1      19.282   0.984  14.522  0.00  0.00     0.045 A 
ENDROOT
BRANCH   5   7
ATOM      7  O12 ZIN A   1      20.386   1.424  12.461  0.00  0.00    -0.311 OA
BRANCH   7   8
ATOM      8  C13 ZIN A   1      19.620   2.253  11.704  0.00  0.00     0.076 A 
ATOM      9  C18 ZIN A   1      19.236   1.870  10.427  0.00  0.00     0.037 A 
ATOM     10  C17 ZIN A   1      18.452   2.712   9.661  0.00  0.00     0.003 A 
ATOM     11  C16 ZIN A   1      18.061   3.939  10.162  0.00  0.00     0.000 A 
ATOM     12  C15 ZIN A   1      18.447   4.326  11.432  0.00  0.00     0.003 A 
ATOM     13  C14 ZIN A   1      19.226   3.486  12.204  0.00  0.00     0.037 A 
ENDBRANCH   7   8
ENDBRANCH   5   7
BRANCH   1  14
ATOM     14  C2  ZIN A   1      18.136   0.561  16.706  0.00  0.00     0.115 C 
ATOM     15  C1  ZIN A   1      16.924  -0.280  17.113  0.00  0.00     0.026 C 
BRANCH  14  16
ATOM     16  C4  ZIN A   1      19.225   0.405  17.737  0.00  0.00     0.181 C 
ATOM     17  O5  ZIN A   1      19.787   1.391  18.183  0.00  0.00    -0.647 OA
ATOM     18  O6  ZIN A   1      19.544  -0.707  18.122  0.00  0.00    -0.647 OA
ENDBRANCH  14  16
ENDBRANCH   1  14
TORSDOF 4
ENDMDL
MODEL 6
REMARK VINA RESULT:      -7.1      2.018      2.497
REMARK  4 active torsions:
REMARK  status: ('A' for Active; 'I' for Inactive)
REMARK    1  A    between atoms: C2_2  and  C4_3 
REMARK    2  A    between atoms: C2_2  and  C7_6 
REMARK    3  A    between atoms: C11_10  and  O12_11 
REMARK    4  A    between atoms: O12_11  and  C13_12 
ROOT
ATOM      1  C7  ZIN A   1      18.390  -0.155   7.366  0.00  0.00    -0.042 A 
ATOM      2  C8  ZIN A   1      18.980   1.093   7.294  0.00  0.00     0.008 A 
ATOM      3  C9  ZIN A   1      19.272   1.790   8.452  0.00  0.00     0.003 A 
ATOM      4  C10 ZIN A   1      18.975   1.242   9.683  0.00  0.00     0.037 A 
ATOM      5  C11 ZIN A   1      18.383  -0.012   9.759  0.00  0.00     0.076 A 
ATOM      6  C19 ZIN A   1      18.087  -0.707   8.596  0.00  0.00     0.045 A 
ENDROOT
BRANCH   5   7
ATOM      7  O12 ZIN A   1      18.090  -0.554  10.970  0.00  0.00    -0.311 OA
BRANCH   7   8
ATOM      8  C13 ZIN A   1      18.427  -1.852  11.186  0.00  0.00     0.076 A 
ATOM      9  C18 ZIN A   1      17.437  -2.812  11.340  0.00  0.00     0.037 A 
ATOM     10  C17 ZIN A   1      17.783  -4.132  11.553  0.00  0.00     0.003 A 
ATOM     11  C16 ZIN A   1      19.114  -4.495  11.626  0.00  0.00     0.000 A 
ATOM     12  C15 ZIN A   1      20.104  -3.540  11.479  0.00  0.00     0.003 A 
ATOM     13  C14 ZIN A   1      19.763  -2.220  11.259  0.00  0.00     0.037 A 
ENDBRANCH   7   8
ENDBRANCH   5   7
BRANCH   1  14
ATOM     14  C2  ZIN A   1      18.073  -0.913   6.103  0.00  0.00     0.115 C 
ATOM     15  C1  ZIN A   1      17.480   0.046   5.068  0.00  0.00     0.026 C 
BRANCH  14  16
ATOM     16  C4  ZIN A   1      19.337  -1.524   5.554  0.00  0.00     0.181 C 
ATOM     17  O5  ZIN A   1      19.779  -2.551   6.040  0.00  0.00    -0.647 OA
ATOM     18  O6  ZIN A   1      19.919  -0.989   4.625  0.00  0.00    -0.647 OA
ENDBRANCH  14  16
ENDBRANCH   1  14
TORSDOF 4
ENDMDL
MODEL 7
REMARK VINA RESULT:      -6.8      2.597      4.483
REMARK  4 active torsions:
REMARK  status: ('A' for Active; 'I' for Inactive)
REMARK    1  A    between atoms: C2_2  and  C4_3 
REMARK    2  A    between atoms: C2_2  and  C7_6 
REMARK    3  A    between atoms: C11_10  and  O12_11 
REMARK    4  A    between atoms: O12_11  and  C13_12 
ROOT
ATOM      1  C7  ZIN A   1      18.099   3.079  10.585  0.00  0.00    -0.042 A 
ATOM      2  C8  ZIN A   1      18.628   2.662   9.378  0.00  0.00     0.008 A 
ATOM      3  C9  ZIN A   1      18.601   1.322   9.035  0.00  0.00     0.003 A 
ATOM      4  C10 ZIN A   1      18.044   0.399   9.897  0.00  0.00     0.037 A 
ATOM      5  C11 ZIN A   1      17.511   0.815  11.110  0.00  0.00     0.076 A 
ATOM      6  C19 ZIN A   1      17.544   2.158  11.453  0.00  0.00     0.045 A 
ENDROOT
BRANCH   5   7
ATOM      7  O12 ZIN A   1      16.963  -0.092  11.960  0.00  0.00    -0.311 OA
BRANCH   7   8
ATOM      8  C13 ZIN A   1      17.664  -0.425  13.075  0.00  0.00     0.076 A 
ATOM      9  C18 ZIN A   1      18.717  -1.324  12.990  0.00  0.00     0.037 A 
ATOM     10  C17 ZIN A   1      19.432  -1.657  14.125  0.00  0.00     0.003 A 
ATOM     11  C16 ZIN A   1      19.091  -1.105  15.345  0.00  0.00     0.000 A 
ATOM     12  C15 ZIN A   1      18.038  -0.213  15.433  0.00  0.00     0.003 A 
ATOM     13  C14 ZIN A   1      17.323   0.128  14.301  0.00  0.00     0.037 A 
ENDBRANCH   7   8
ENDBRANCH   5   7
BRANCH   1  14
ATOM     14  C2  ZIN A   1      18.130   4.540  10.956  0.00  0.00     0.115 C 
ATOM     15  C1  ZIN A   1      16.698   5.056  11.113  0.00  0.00     0.026 C 
BRANCH  14  16
ATOM     16  C4  ZIN A   1      18.871   4.712  12.258  0.00  0.00     0.181 C 
ATOM     17  O5  ZIN A   1      20.067   4.481  12.313  0.00  0.00    -0.647 OA
ATOM     18  O6  ZIN A   1      18.274   5.079  13.255  0.00  0.00    -0.647 OA
ENDBRANCH  14  16
ENDBRANCH   1  14
TORSDOF 4
ENDMDL
MODEL 8
REMARK VINA RESULT:      -6.8      1.989      6.500
REMARK  4 active torsions:
REMARK  status: ('A' for Active; 'I' for Inactive)
REMARK    1  A    between atoms: C2_2  and  C4_3 
REMARK    2  A    between atoms: C2_2  and  C7_6 
REMARK    3  A    between atoms: C11_10  and  O12_11 
REMARK    4  A    between atoms: O12_11  and  C13_12 
ROOT
ATOM      1  C7  ZIN A   1      18.633  -1.270  13.169  0.00  0.00    -0.042 A 
ATOM      2  C8  ZIN A   1      18.746  -2.611  12.854  0.00  0.00     0.008 A 
ATOM      3  C9  ZIN A   1      18.239  -3.088  11.659  0.00  0.00     0.003 A 
ATOM      4  C10 ZIN A   1      17.619  -2.225  10.778  0.00  0.00     0.037 A 
ATOM      5  C11 ZIN A   1      17.505  -0.878  11.091  0.00  0.00     0.076 A 
ATOM      6  C19 ZIN A   1      18.010  -0.403  12.292  0.00  0.00     0.045 A 
ENDROOT
BRANCH   5   7
ATOM      7  O12 ZIN A   1      16.895  -0.027  10.225  0.00  0.00    -0.311 OA
BRANCH   7   8
ATOM      8  C13 ZIN A   1      17.559   0.312   9.090  0.00  0.00     0.076 A 
ATOM      9  C18 ZIN A   1      17.159  -0.209   7.868  0.00  0.00     0.037 A 
ATOM     10  C17 ZIN A   1      17.833   0.142   6.714  0.00  0.00     0.003 A 
ATOM     11  C16 ZIN A   1      18.913   1.001   6.778  0.00  0.00     0.000 A 
ATOM     12  C15 ZIN A   1      19.319   1.518   7.995  0.00  0.00     0.003 A 
ATOM     13  C14 ZIN A   1      18.644   1.175   9.151  0.00  0.00     0.037 A 
ENDBRANCH   7   8
ENDBRANCH   5   7
BRANCH   1  14
ATOM     14  C2  ZIN A   1      19.187  -0.753  14.472  0.00  0.00     0.115 C 
ATOM     15  C1  ZIN A   1      19.605   0.710  14.304  0.00  0.00     0.026 C 
BRANCH  14  16
ATOM     16  C4  ZIN A   1      18.131  -0.853  15.542  0.00  0.00     0.181 C 
ATOM     17  O5  ZIN A   1      18.116  -1.811  16.297  0.00  0.00    -0.647 OA
ATOM     18  O6  ZIN A   1      17.289   0.022  15.652  0.00  0.00    -0.647 OA
ENDBRANCH  14  16
ENDBRANCH   1  14
TORSDOF 4
ENDMDL
MODEL 9
REMARK VINA RESULT:      -6.7      1.968      5.200
REMARK  4 active torsions:
REMARK  status: ('A' for Active; 'I' for Inactive)
REMARK    1  A    between atoms: C2_2  and  C4_3 
REMARK    2  A    between atoms: C2_2  and  C7_6 
REMARK    3  A    between atoms: C11_10  and  O12_11 
REMARK    4  A    between atoms: O12_11  and  C13_12 
ROOT
ATOM      1  C7  ZIN A   1      18.105  -2.680  12.440  0.00  0.00    -0.042 A 
ATOM      2  C8  ZIN A   1      18.575  -2.230  13.660  0.00  0.00     0.008 A 
ATOM      3  C9  ZIN A   1      18.405  -0.906  14.022  0.00  0.00     0.003 A 
ATOM      4  C10 ZIN A   1      17.765  -0.031  13.167  0.00  0.00     0.037 A 
ATOM      5  C11 ZIN A   1      17.292  -0.481  11.941  0.00  0.00     0.076 A 
ATOM      6  C19 ZIN A   1      17.468  -1.808  11.578  0.00  0.00     0.045 A 
ENDROOT
BRANCH   5   7
ATOM      7  O12 ZIN A   1      16.663   0.378  11.098  0.00  0.00    -0.311 OA
BRANCH   7   8
ATOM      8  C13 ZIN A   1      17.422   1.063  10.202  0.00  0.00     0.076 A 
ATOM      9  C18 ZIN A   1      17.793   2.374  10.464  0.00  0.00     0.037 A 
ATOM     10  C17 ZIN A   1      18.570   3.065   9.554  0.00  0.00     0.003 A 
ATOM     11  C16 ZIN A   1      18.966   2.456   8.378  0.00  0.00     0.000 A 
ATOM     12  C15 ZIN A   1      18.592   1.151   8.112  0.00  0.00     0.003 A 
ATOM     13  C14 ZIN A   1      17.821   0.454   9.021  0.00  0.00     0.037 A 
ENDBRANCH   7   8
ENDBRANCH   5   7
BRANCH   1  14
ATOM     14  C2  ZIN A   1      18.292  -4.124  12.048  0.00  0.00     0.115 C 
ATOM     15  C1  ZIN A   1      17.023  -4.632  11.359  0.00  0.00     0.026 C 
BRANCH  14  16
ATOM     16  C4  ZIN A   1      19.458  -4.239  11.100  0.00  0.00     0.181 C 
ATOM     17  O5  ZIN A   1      19.275  -4.604   9.950  0.00  0.00    -0.647 OA
ATOM     18  O6  ZIN A   1      20.584  -3.972  11.483  0.00  0.00    -0.647 OA
ENDBRANCH  14  16
ENDBRANCH   1  14
TORSDOF 4
ENDMDL
