MODEL 1
REMARK VINA RESULT:      -7.4      0.000      0.000
REMARK  3 active torsions:
REMARK  status: ('A' for Active; 'I' for Inactive)
REMARK    1  A    between atoms: N2_2  and  C3_3 
REMARK    2  A    between atoms: C6_6  and  C7_7 
REMARK    3  A    between atoms: C12_12  and  O13_13 
ROOT
ATOM      1  C7  <0> d   1      18.868   1.687   9.327  0.00  0.00     0.109 A 
ATOM      2  N8  <0> d   1      18.924   1.966   8.068  0.00  0.00    -0.240 NA
ATOM      3  C9  <0> d   1      19.064   0.946   7.202  0.00  0.00     0.075 A 
ATOM      4  C10 <0> d   1      19.148   0.988   5.793  0.00  0.00     0.036 A 
ATOM      5  C11 <0> d   1      19.288  -0.157   5.072  0.00  0.00     0.039 A 
ATOM      6  C12 <0> d   1      19.351  -1.394   5.708  0.00  0.00     0.067 A 
ATOM      7  C14 <0> d   1      19.271  -1.465   7.085  0.00  0.00     0.057 A 
ATOM      8  C15 <0> d   1      19.127  -0.301   7.836  0.00  0.00     0.038 A 
ATOM      9  S16 <0> d   1      19.003  -0.048   9.575  0.00  0.00    -0.067 SA
ENDROOT
BRANCH   1  10
ATOM     10  C6  <0> d   1      18.717   2.685  10.406  0.00  0.00     0.003 A 
ATOM     11  C5  <0> d   1      19.784   2.956  11.262  0.00  0.00     0.017 A 
ATOM     12  C4  <0> d   1      19.641   3.887  12.269  0.00  0.00     0.033 A 
ATOM     13  C3  <0> d   1      18.434   4.557  12.431  0.00  0.00     0.066 A 
ATOM     14  C18 <0> d   1      17.364   4.286  11.581  0.00  0.00     0.143 A 
ATOM     15  C17 <0> d   1      17.504   3.359  10.570  0.00  0.00     0.059 A 
ATOM     16  F19 <0> d   1      16.192   4.939  11.742  0.00  0.00    -0.204 F 
BRANCH  13  17
ATOM     17  N2  <0> d   1      18.292   5.500  13.450  0.00  0.00    -0.392 N 
ATOM     18  C1  <0> d   1      17.714   5.104  14.737  0.00  0.00     0.146 C 
ATOM     19  H23 <0> d   1      18.577   6.416  13.307  0.00  0.00     0.159 HD
ENDBRANCH  13  17
ENDBRANCH   1  10
BRANCH   6  20
ATOM     20  O13 <0> d   1      19.491  -2.530   4.975  0.00  0.00    -0.361 OA
ATOM     21  H28 <0> d   1      18.653  -2.912   4.676  0.00  0.00     0.217 HD
ENDBRANCH   6  20
TORSDOF 3
ENDMDL
MODEL 2
REMARK VINA RESULT:      -7.3      5.835      8.839
REMARK  3 active torsions:
REMARK  status: ('A' for Active; 'I' for Inactive)
REMARK    1  A    between atoms: N2_2  and  C3_3 
REMARK    2  A    between atoms: C6_6  and  C7_7 
REMARK    3  A    between atoms: C12_12  and  O13_13 
ROOT
ATOM      1  C7  <0> d   1      18.557  -0.631  13.631  0.00  0.00     0.109 A 
ATOM      2  N8  <0> d   1      18.659  -1.269  14.748  0.00  0.00    -0.240 NA
ATOM      3  C9  <0> d   1      18.878  -0.552  15.865  0.00  0.00     0.075 A 
ATOM      4  C10 <0> d   1      19.025  -1.010  17.194  0.00  0.00     0.036 A 
ATOM      5  C11 <0> d   1      19.242  -0.131  18.209  0.00  0.00     0.039 A 
ATOM      6  C12 <0> d   1      19.324   1.237  17.961  0.00  0.00     0.067 A 
ATOM      7  C14 <0> d   1      19.184   1.712  16.672  0.00  0.00     0.057 A 
ATOM      8  C15 <0> d   1      18.961   0.824  15.622  0.00  0.00     0.038 A 
ATOM      9  S16 <0> d   1      18.749   1.097  13.894  0.00  0.00    -0.067 SA
ENDROOT
BRANCH   1  10
ATOM     10  C6  <0> d   1      18.318  -1.263  12.317  0.00  0.00     0.003 A 
ATOM     11  C5  <0> d   1      18.510  -2.635  12.156  0.00  0.00     0.017 A 
ATOM     12  C4  <0> d   1      18.287  -3.224  10.929  0.00  0.00     0.033 A 
ATOM     13  C3  <0> d   1      17.871  -2.450   9.852  0.00  0.00     0.066 A 
ATOM     14  C18 <0> d   1      17.683  -1.078  10.006  0.00  0.00     0.143 A 
ATOM     15  C17 <0> d   1      17.900  -0.487  11.233  0.00  0.00     0.059 A 
ATOM     16  F19 <0> d   1      17.279  -0.330   8.957  0.00  0.00    -0.204 F 
BRANCH  13  17
ATOM     17  N2  <0> d   1      17.646  -3.048   8.612  0.00  0.00    -0.392 N 
ATOM     18  C1  <0> d   1      18.717  -3.088   7.613  0.00  0.00     0.146 C 
ATOM     19  H23 <0> d   1      16.780  -3.438   8.411  0.00  0.00     0.159 HD
ENDBRANCH  13  17
ENDBRANCH   1  10
BRANCH   6  20
ATOM     20  O13 <0> d   1      19.541   2.103  18.986  0.00  0.00    -0.361 OA
ATOM     21  H28 <0> d   1      18.831   2.749  19.112  0.00  0.00     0.217 HD
ENDBRANCH   6  20
TORSDOF 3
ENDMDL
MODEL 3
REMARK VINA RESULT:      -7.3      3.984      7.616
REMARK  3 active torsions:
REMARK  status: ('A' for Active; 'I' for Inactive)
REMARK    1  A    between atoms: N2_2  and  C3_3 
REMARK    2  A    between atoms: C6_6  and  C7_7 
REMARK    3  A    between atoms: C12_12  and  O13_13 
ROOT
ATOM      1  C7  <0> d   1      18.261   2.624  10.441  0.00  0.00     0.109 A 
ATOM      2  N8  <0> d   1      17.270   3.387  10.762  0.00  0.00    -0.240 NA
ATOM      3  C9  <0> d   1      17.437   4.235  11.792  0.00  0.00     0.075 A 
ATOM      4  C10 <0> d   1      16.516   5.162  12.330  0.00  0.00     0.036 A 
ATOM      5  C11 <0> d   1      16.862   5.949  13.385  0.00  0.00     0.039 A 
ATOM      6  C12 <0> d   1      18.129   5.858  13.955  0.00  0.00     0.067 A 
ATOM      7  C14 <0> d   1      19.049   4.961  13.448  0.00  0.00     0.057 A 
ATOM      8  C15 <0> d   1      18.709   4.149  12.369  0.00  0.00     0.038 A 
ATOM      9  S16 <0> d   1      19.629   2.920  11.505  0.00  0.00    -0.067 SA
ENDROOT
BRANCH   1  10
ATOM     10  C6  <0> d   1      18.245   1.639   9.340  0.00  0.00     0.003 A 
ATOM     11  C5  <0> d   1      17.568   0.429   9.494  0.00  0.00     0.017 A 
ATOM     12  C4  <0> d   1      17.554  -0.489   8.466  0.00  0.00     0.033 A 
ATOM     13  C3  <0> d   1      18.214  -0.210   7.275  0.00  0.00     0.066 A 
ATOM     14  C18 <0> d   1      18.897   0.994   7.118  0.00  0.00     0.143 A 
ATOM     15  C17 <0> d   1      18.908   1.918   8.143  0.00  0.00     0.059 A 
ATOM     16  F19 <0> d   1      19.538   1.262   5.960  0.00  0.00    -0.204 F 
BRANCH  13  17
ATOM     17  N2  <0> d   1      18.199  -1.142   6.236  0.00  0.00    -0.392 N 
ATOM     18  C1  <0> d   1      19.215  -2.196   6.182  0.00  0.00     0.146 C 
ATOM     19  H23 <0> d   1      17.516  -1.091   5.548  0.00  0.00     0.159 HD
ENDBRANCH  13  17
ENDBRANCH   1  10
BRANCH   6  20
ATOM     20  O13 <0> d   1      18.460   6.651  15.008  0.00  0.00    -0.361 OA
ATOM     21  H28 <0> d   1      18.100   7.548  14.955  0.00  0.00     0.217 HD
ENDBRANCH   6  20
TORSDOF 3
ENDMDL
MODEL 4
REMARK VINA RESULT:      -7.2      2.892      3.037
REMARK  3 active torsions:
REMARK  status: ('A' for Active; 'I' for Inactive)
REMARK    1  A    between atoms: N2_2  and  C3_3 
REMARK    2  A    between atoms: C6_6  and  C7_7 
REMARK    3  A    between atoms: C12_12  and  O13_13 
ROOT
ATOM      1  C7  <0> d   1      18.518  -0.089   9.769  0.00  0.00     0.109 A 
ATOM      2  N8  <0> d   1      18.579   0.737   8.780  0.00  0.00    -0.240 NA
ATOM      3  C9  <0> d   1      18.817   0.237   7.554  0.00  0.00     0.075 A 
ATOM      4  C10 <0> d   1      18.928   0.926   6.325  0.00  0.00     0.036 A 
ATOM      5  C11 <0> d   1      19.173   0.248   5.171  0.00  0.00     0.039 A 
ATOM      6  C12 <0> d   1      19.318  -1.137   5.177  0.00  0.00     0.067 A 
ATOM      7  C14 <0> d   1      19.214  -1.835   6.364  0.00  0.00     0.057 A 
ATOM      8  C15 <0> d   1      18.964  -1.155   7.554  0.00  0.00     0.038 A 
ATOM      9  S16 <0> d   1      18.783  -1.735   9.207  0.00  0.00    -0.067 SA
ENDROOT
BRANCH   1  10
ATOM     10  C6  <0> d   1      18.266   0.293  11.174  0.00  0.00     0.003 A 
ATOM     11  C5  <0> d   1      18.052   1.630  11.507  0.00  0.00     0.017 A 
ATOM     12  C4  <0> d   1      17.817   1.985  12.818  0.00  0.00     0.033 A 
ATOM     13  C3  <0> d   1      17.793   1.011  13.809  0.00  0.00     0.066 A 
ATOM     14  C18 <0> d   1      18.012  -0.325  13.482  0.00  0.00     0.143 A 
ATOM     15  C17 <0> d   1      18.242  -0.685  12.171  0.00  0.00     0.059 A 
ATOM     16  F19 <0> d   1      17.989  -1.270  14.448  0.00  0.00    -0.204 F 
BRANCH  13  17
ATOM     17  N2  <0> d   1      17.555   1.373  15.136  0.00  0.00    -0.392 N 
ATOM     18  C1  <0> d   1      18.680   1.676  16.025  0.00  0.00     0.146 C 
ATOM     19  H23 <0> d   1      16.645   1.424  15.469  0.00  0.00     0.159 HD
ENDBRANCH  13  17
ENDBRANCH   1  10
BRANCH   6  20
ATOM     20  O13 <0> d   1      19.562  -1.801   4.016  0.00  0.00    -0.361 OA
ATOM     21  H28 <0> d   1      19.757  -1.222   3.265  0.00  0.00     0.217 HD
ENDBRANCH   6  20
TORSDOF 3
ENDMDL
MODEL 5
REMARK VINA RESULT:      -7.0      5.021      8.058
REMARK  3 active torsions:
REMARK  status: ('A' for Active; 'I' for Inactive)
REMARK    1  A    between atoms: N2_2  and  C3_3 
REMARK    2  A    between atoms: C6_6  and  C7_7 
REMARK    3  A    between atoms: C12_12  and  O13_13 
ROOT
ATOM      1  C7  <0> d   1      18.475   1.027  13.078  0.00  0.00     0.109 A 
ATOM      2  N8  <0> d   1      18.531   0.086  13.959  0.00  0.00    -0.240 NA
ATOM      3  C9  <0> d   1      18.765   0.433  15.237  0.00  0.00     0.075 A 
ATOM      4  C10 <0> d   1      18.871  -0.399  16.374  0.00  0.00     0.036 A 
ATOM      5  C11 <0> d   1      19.112   0.133  17.602  0.00  0.00     0.039 A 
ATOM      6  C12 <0> d   1      19.259   1.507  17.766  0.00  0.00     0.067 A 
ATOM      7  C14 <0> d   1      19.161   2.345  16.672  0.00  0.00     0.057 A 
ATOM      8  C15 <0> d   1      18.914   1.815  15.408  0.00  0.00     0.038 A 
ATOM      9  S16 <0> d   1      18.741   2.591  13.836  0.00  0.00    -0.067 SA
ENDROOT
BRANCH   1  10
ATOM     10  C6  <0> d   1      18.227   0.819  11.636  0.00  0.00     0.003 A 
ATOM     11  C5  <0> d   1      17.555  -0.323  11.200  0.00  0.00     0.017 A 
ATOM     12  C4  <0> d   1      17.325  -0.516   9.854  0.00  0.00     0.033 A 
ATOM     13  C3  <0> d   1      17.762   0.427   8.931  0.00  0.00     0.066 A 
ATOM     14  C18 <0> d   1      18.439   1.566   9.362  0.00  0.00     0.143 A 
ATOM     15  C17 <0> d   1      18.667   1.765  10.707  0.00  0.00     0.059 A 
ATOM     16  F19 <0> d   1      18.864   2.480   8.462  0.00  0.00    -0.204 F 
BRANCH  13  17
ATOM     17  N2  <0> d   1      17.529   0.230   7.570  0.00  0.00    -0.392 N 
ATOM     18  C1  <0> d   1      18.590  -0.309   6.715  0.00  0.00     0.146 C 
ATOM     19  H23 <0> d   1      16.663   0.449   7.189  0.00  0.00     0.159 HD
ENDBRANCH  13  17
ENDBRANCH   1  10
BRANCH   6  20
ATOM     20  O13 <0> d   1      19.500   2.025  19.000  0.00  0.00    -0.361 OA
ATOM     21  H28 <0> d   1      18.702   2.295  19.476  0.00  0.00     0.217 HD
ENDBRANCH   6  20
TORSDOF 3
ENDMDL
MODEL 6
REMARK VINA RESULT:      -6.9      2.160      2.747
REMARK  3 active torsions:
REMARK  status: ('A' for Active; 'I' for Inactive)
REMARK    1  A    between atoms: N2_2  and  C3_3 
REMARK    2  A    between atoms: C6_6  and  C7_7 
REMARK    3  A    between atoms: C12_12  and  O13_13 
ROOT
ATOM      1  C7  <0> d   1      18.590   2.447  11.307  0.00  0.00     0.109 A 
ATOM      2  N8  <0> d   1      19.125   2.637  10.148  0.00  0.00    -0.240 NA
ATOM      3  C9  <0> d   1      18.768   1.814   9.146  0.00  0.00     0.075 A 
ATOM      4  C10 <0> d   1      19.206   1.816   7.803  0.00  0.00     0.036 A 
ATOM      5  C11 <0> d   1      18.731   0.898   6.918  0.00  0.00     0.039 A 
ATOM      6  C12 <0> d   1      17.804  -0.061   7.317  0.00  0.00     0.067 A 
ATOM      7  C14 <0> d   1      17.359  -0.086   8.625  0.00  0.00     0.057 A 
ATOM      8  C15 <0> d   1      17.836   0.847   9.542  0.00  0.00     0.038 A 
ATOM      9  S16 <0> d   1      17.484   1.081  11.252  0.00  0.00    -0.067 SA
ENDROOT
BRANCH   1  10
ATOM     10  C6  <0> d   1      18.872   3.257  12.510  0.00  0.00     0.003 A 
ATOM     11  C5  <0> d   1      19.542   4.475  12.391  0.00  0.00     0.017 A 
ATOM     12  C4  <0> d   1      19.804   5.230  13.515  0.00  0.00     0.033 A 
ATOM     13  C3  <0> d   1      19.400   4.779  14.766  0.00  0.00     0.066 A 
ATOM     14  C18 <0> d   1      18.735   3.561  14.890  0.00  0.00     0.143 A 
ATOM     15  C17 <0> d   1      18.467   2.805  13.768  0.00  0.00     0.059 A 
ATOM     16  F19 <0> d   1      18.345   3.126  16.108  0.00  0.00    -0.204 F 
BRANCH  13  17
ATOM     17  N2  <0> d   1      19.667   5.545  15.902  0.00  0.00    -0.392 N 
ATOM     18  C1  <0> d   1      18.705   6.559  16.343  0.00  0.00     0.146 C 
ATOM     19  H23 <0> d   1      20.489   5.407  16.398  0.00  0.00     0.159 HD
ENDBRANCH  13  17
ENDBRANCH   1  10
BRANCH   6  20
ATOM     20  O13 <0> d   1      17.338  -0.972   6.422  0.00  0.00    -0.361 OA
ATOM     21  H28 <0> d   1      17.874  -1.045   5.620  0.00  0.00     0.217 HD
ENDBRANCH   6  20
TORSDOF 3
ENDMDL
MODEL 7
REMARK VINA RESULT:      -6.9      4.130      4.570
REMARK  3 active torsions:
REMARK  status: ('A' for Active; 'I' for Inactive)
REMARK    1  A    between atoms: N2_2  and  C3_3 
REMARK    2  A    between atoms: C6_6  and  C7_7 
REMARK    3  A    between atoms: C12_12  and  O13_13 
ROOT
ATOM      1  C7  <0> d   1      18.655   0.128  12.184  0.00  0.00     0.109 A 
ATOM      2  N8  <0> d   1      19.060   1.125  11.470  0.00  0.00    -0.240 NA
ATOM      3  C9  <0> d   1      18.876   1.063  10.140  0.00  0.00     0.075 A 
ATOM      4  C10 <0> d   1      19.226   2.013   9.154  0.00  0.00     0.036 A 
ATOM      5  C11 <0> d   1      18.959   1.780   7.841  0.00  0.00     0.039 A 
ATOM      6  C12 <0> d   1      18.335   0.601   7.440  0.00  0.00     0.067 A 
ATOM      7  C14 <0> d   1      17.982  -0.345   8.382  0.00  0.00     0.057 A 
ATOM      8  C15 <0> d   1      18.249  -0.120   9.731  0.00  0.00     0.038 A 
ATOM      9  S16 <0> d   1      17.939  -1.107  11.157  0.00  0.00    -0.067 SA
ENDROOT
BRANCH   1  10
ATOM     10  C6  <0> d   1      18.780   0.036  13.653  0.00  0.00     0.003 A 
ATOM     11  C5  <0> d   1      18.560  -1.181  14.298  0.00  0.00     0.017 A 
ATOM     12  C4  <0> d   1      18.677  -1.265  15.670  0.00  0.00     0.033 A 
ATOM     13  C3  <0> d   1      19.014  -0.138  16.410  0.00  0.00     0.066 A 
ATOM     14  C18 <0> d   1      19.229   1.081  15.770  0.00  0.00     0.143 A 
ATOM     15  C17 <0> d   1      19.119   1.168  14.398  0.00  0.00     0.059 A 
ATOM     16  F19 <0> d   1      19.556   2.175  16.493  0.00  0.00    -0.204 F 
BRANCH  13  17
ATOM     17  N2  <0> d   1      19.132  -0.226  17.797  0.00  0.00    -0.392 N 
ATOM     18  C1  <0> d   1      18.115   0.384  18.658  0.00  0.00     0.146 C 
ATOM     19  H23 <0> d   1      19.887  -0.691  18.192  0.00  0.00     0.159 HD
ENDBRANCH  13  17
ENDBRANCH   1  10
BRANCH   6  20
ATOM     20  O13 <0> d   1      18.075   0.382   6.124  0.00  0.00    -0.361 OA
ATOM     21  H28 <0> d   1      18.759   0.715   5.527  0.00  0.00     0.217 HD
ENDBRANCH   6  20
TORSDOF 3
ENDMDL
MODEL 8
REMARK VINA RESULT:      -6.8      4.765      7.659
REMARK  3 active torsions:
REMARK  status: ('A' for Active; 'I' for Inactive)
REMARK    1  A    between atoms: N2_2  and  C3_3 
REMARK    2  A    between atoms: C6_6  and  C7_7 
REMARK    3  A    between atoms: C12_12  and  O13_13 
ROOT
ATOM      1  C7  <0> d   1      18.479   0.136  10.824  0.00  0.00     0.109 A 
ATOM      2  N8  <0> d   1      18.807  -0.785  11.667  0.00  0.00    -0.240 NA
ATOM      3  C9  <0> d   1      18.518  -0.584  12.964  0.00  0.00     0.075 A 
ATOM      4  C10 <0> d   1      18.771  -1.430  14.067  0.00  0.00     0.036 A 
ATOM      5  C11 <0> d   1      18.403  -1.060  15.324  0.00  0.00     0.039 A 
ATOM      6  C12 <0> d   1      17.770   0.160  15.549  0.00  0.00     0.067 A 
ATOM      7  C14 <0> d   1      17.511   1.007  14.489  0.00  0.00     0.057 A 
ATOM      8  C15 <0> d   1      17.881   0.641  13.197  0.00  0.00     0.038 A 
ATOM      9  S16 <0> d   1      17.705   1.478  11.657  0.00  0.00    -0.067 SA
ENDROOT
BRANCH   1  10
ATOM     10  C6  <0> d   1      18.724   0.075   9.369  0.00  0.00     0.003 A 
ATOM     11  C5  <0> d   1      18.649   1.235   8.597  0.00  0.00     0.017 A 
ATOM     12  C4  <0> d   1      18.877   1.175   7.239  0.00  0.00     0.033 A 
ATOM     13  C3  <0> d   1      19.182  -0.040   6.637  0.00  0.00     0.066 A 
ATOM     14  C18 <0> d   1      19.252  -1.202   7.402  0.00  0.00     0.143 A 
ATOM     15  C17 <0> d   1      19.029  -1.146   8.762  0.00  0.00     0.059 A 
ATOM     16  F19 <0> d   1      19.548  -2.382   6.814  0.00  0.00    -0.204 F 
BRANCH  13  17
ATOM     17  N2  <0> d   1      19.412  -0.097   5.262  0.00  0.00    -0.392 N 
ATOM     18  C1  <0> d   1      18.337  -0.510   4.356  0.00  0.00     0.146 C 
ATOM     19  H23 <0> d   1      20.285   0.136   4.906  0.00  0.00     0.159 HD
ENDBRANCH  13  17
ENDBRANCH   1  10
BRANCH   6  20
ATOM     20  O13 <0> d   1      17.408   0.517  16.810  0.00  0.00    -0.361 OA
ATOM     21  H28 <0> d   1      16.635   1.097  16.848  0.00  0.00     0.217 HD
ENDBRANCH   6  20
TORSDOF 3
ENDMDL
MODEL 9
REMARK VINA RESULT:      -6.8      5.191      5.754
REMARK  3 active torsions:
REMARK  status: ('A' for Active; 'I' for Inactive)
REMARK    1  A    between atoms: N2_2  and  C3_3 
REMARK    2  A    between atoms: C6_6  and  C7_7 
REMARK    3  A    between atoms: C12_12  and  O13_13 
ROOT
ATOM      1  C7  <0> d   1      18.351  -2.577  12.241  0.00  0.00     0.109 A 
ATOM      2  N8  <0> d   1      17.407  -3.397  11.922  0.00  0.00    -0.240 NA
ATOM      3  C9  <0> d   1      17.674  -4.334  10.994  0.00  0.00     0.075 A 
ATOM      4  C10 <0> d   1      16.821  -5.336  10.479  0.00  0.00     0.036 A 
ATOM      5  C11 <0> d   1      17.268  -6.207   9.535  0.00  0.00     0.039 A 
ATOM      6  C12 <0> d   1      18.573  -6.131   9.056  0.00  0.00     0.067 A 
ATOM      7  C14 <0> d   1      19.428  -5.161   9.542  0.00  0.00     0.057 A 
ATOM      8  C15 <0> d   1      18.986  -4.262  10.509  0.00  0.00     0.038 A 
ATOM      9  S16 <0> d   1      19.805  -2.928  11.318  0.00  0.00    -0.067 SA
ENDROOT
BRANCH   1  10
ATOM     10  C6  <0> d   1      18.225  -1.493  13.238  0.00  0.00     0.003 A 
ATOM     11  C5  <0> d   1      17.584  -0.302  12.898  0.00  0.00     0.017 A 
ATOM     12  C4  <0> d   1      17.467   0.709  13.829  0.00  0.00     0.033 A 
ATOM     13  C3  <0> d   1      17.988   0.541  15.106  0.00  0.00     0.066 A 
ATOM     14  C18 <0> d   1      18.634  -0.645  15.449  0.00  0.00     0.143 A 
ATOM     15  C17 <0> d   1      18.748  -1.660  14.522  0.00  0.00     0.059 A 
ATOM     16  F19 <0> d   1      19.140  -0.804  16.691  0.00  0.00    -0.204 F 
BRANCH  13  17
ATOM     17  N2  <0> d   1      17.869   1.565  16.047  0.00  0.00    -0.392 N 
ATOM     18  C1  <0> d   1      18.822   2.678  16.042  0.00  0.00     0.146 C 
ATOM     19  H23 <0> d   1      17.155   1.540  16.704  0.00  0.00     0.159 HD
ENDBRANCH  13  17
ENDBRANCH   1  10
BRANCH   6  20
ATOM     20  O13 <0> d   1      19.005  -7.008   8.112  0.00  0.00    -0.361 OA
ATOM     21  H28 <0> d   1      19.930  -6.885   7.854  0.00  0.00     0.217 HD
ENDBRANCH   6  20
TORSDOF 3
ENDMDL
