MODEL 1
REMARK VINA RESULT:      -7.8      0.000      0.000
REMARK  5 active torsions:
REMARK  status: ('A' for Active; 'I' for Inactive)
REMARK    1  A    between atoms: C2_2  and  C3_3 
REMARK    2  A    between atoms: C13_11  and  C15_12 
REMARK    3  A    between atoms: C15_12  and  O17_13 
REMARK    4  A    between atoms: C15_12  and  C18_14 
REMARK    5  A    between atoms: C21_17  and  O22_18 
ROOT
ATOM      1  C15 ZIN A   1      20.044  -0.581  10.629  0.00  0.00     0.183 C 
ENDROOT
BRANCH   1   2
ATOM      2  C13 ZIN A   1      19.406   0.300  11.706  0.00  0.00     0.221 C 
ATOM      3  N6  ZIN A   1      18.097  -0.247  12.072  0.00  0.00    -0.063 N 
ATOM      4  C5  ZIN A   1      17.449   0.598  13.079  0.00  0.00     0.244 C 
ATOM      5  H7  ZIN A   1      17.516  -0.264  11.248  0.00  0.00     0.280 HD
ATOM      6  C8  ZIN A   1      18.242  -1.619  12.566  0.00  0.00     0.236 C 
ATOM      7  C3  ZIN A   1      18.307   0.655  14.345  0.00  0.00     0.037 C 
ATOM      8  C10 ZIN A   1      19.563  -0.199  14.135  0.00  0.00    -0.002 C 
ATOM      9  C9  ZIN A   1      19.125  -1.635  13.816  0.00  0.00     0.033 C 
ATOM     10  C12 ZIN A   1      20.322   0.355  12.922  0.00  0.00     0.041 C 
BRANCH   7  11
ATOM     11  C2  ZIN A   1      18.705   2.081  14.622  0.00  0.00    -0.030 C 
ATOM     12  C1  ZIN A   1      18.038   3.066  14.073  0.00  0.00     0.007 C 
ENDBRANCH   7  11
ENDBRANCH   1   2
BRANCH   1  13
ATOM     13  O17 ZIN A   1      21.466  -0.522  10.747  0.00  0.00    -0.389 OA
ATOM     14  H41 ZIN A   1      21.926  -1.268  10.339  0.00  0.00     0.210 HD
ENDBRANCH   1  13
BRANCH   1  15
ATOM     15  C18 ZIN A   1      19.632  -0.086   9.266  0.00  0.00    -0.014 A 
ATOM     16  C29 ZIN A   1      19.576   1.251   8.994  0.00  0.00     0.030 A 
ATOM     17  C28 ZIN A   1      19.196   1.686   7.725  0.00  0.00     0.118 A 
ATOM     18  N27 ZIN A   1      18.877   0.843   6.774  0.00  0.00    -0.260 NA
ATOM     19  C26 ZIN A   1      18.906  -0.477   6.977  0.00  0.00     0.067 A 
ATOM     20  C19 ZIN A   1      19.288  -0.988   8.242  0.00  0.00     0.004 A 
ATOM     21  C25 ZIN A   1      18.562  -1.375   5.950  0.00  0.00     0.035 A 
ATOM     22  C20 ZIN A   1      19.317  -2.376   8.451  0.00  0.00     0.051 A 
ATOM     23  C21 ZIN A   1      18.976  -3.218   7.432  0.00  0.00     0.069 A 
ATOM     24  C24 ZIN A   1      18.599  -2.714   6.183  0.00  0.00     0.039 A 
BRANCH  23  25
ATOM     25  O22 ZIN A   1      19.003  -4.562   7.634  0.00  0.00    -0.356 OA
ATOM     26  C23 ZIN A   1      20.065  -5.290   7.013  0.00  0.00     0.210 C 
ENDBRANCH  23  25
ENDBRANCH   1  15
TORSDOF 5
ENDMDL
MODEL 2
REMARK VINA RESULT:      -7.7      2.509      7.662
REMARK  5 active torsions:
REMARK  status: ('A' for Active; 'I' for Inactive)
REMARK    1  A    between atoms: C2_2  and  C3_3 
REMARK    2  A    between atoms: C13_11  and  C15_12 
REMARK    3  A    between atoms: C15_12  and  O17_13 
REMARK    4  A    between atoms: C15_12  and  C18_14 
REMARK    5  A    between atoms: C21_17  and  O22_18 
ROOT
ATOM      1  C15 ZIN A   1      20.049   0.893  12.574  0.00  0.00     0.183 C 
ENDROOT
BRANCH   1   2
ATOM      2  C13 ZIN A   1      19.186   0.259  11.481  0.00  0.00     0.221 C 
ATOM      3  N6  ZIN A   1      17.834   0.821  11.538  0.00  0.00    -0.063 N 
ATOM      4  C5  ZIN A   1      16.977   0.206  10.521  0.00  0.00     0.244 C 
ATOM      5  H7  ZIN A   1      17.444   0.623  12.446  0.00  0.00     0.280 HD
ATOM      6  C8  ZIN A   1      17.883   2.275  11.361  0.00  0.00     0.236 C 
ATOM      7  C3  ZIN A   1      17.542   0.480   9.125  0.00  0.00     0.037 C 
ATOM      8  C10 ZIN A   1      18.822   1.313   9.260  0.00  0.00    -0.002 C 
ATOM      9  C9  ZIN A   1      18.477   2.617   9.992  0.00  0.00     0.033 C 
ATOM     10  C12 ZIN A   1      19.819   0.525  10.120  0.00  0.00     0.041 C 
BRANCH   7  11
ATOM     11  C2  ZIN A   1      17.858  -0.827   8.443  0.00  0.00    -0.030 C 
ATOM     12  C1  ZIN A   1      17.989  -0.871   7.140  0.00  0.00     0.007 C 
ENDBRANCH   7  11
ENDBRANCH   1   2
BRANCH   1  13
ATOM     13  O17 ZIN A   1      21.423   0.587  12.334  0.00  0.00    -0.389 OA
ATOM     14  H41 ZIN A   1      21.759  -0.152  12.858  0.00  0.00     0.210 HD
ENDBRANCH   1  13
BRANCH   1  15
ATOM     15  C18 ZIN A   1      19.639   0.344  13.917  0.00  0.00    -0.014 A 
ATOM     16  C29 ZIN A   1      19.591  -1.003  14.139  0.00  0.00     0.030 A 
ATOM     17  C28 ZIN A   1      19.214  -1.487  15.390  0.00  0.00     0.118 A 
ATOM     18  N27 ZIN A   1      18.890  -0.683  16.373  0.00  0.00    -0.260 NA
ATOM     19  C26 ZIN A   1      18.911   0.644  16.220  0.00  0.00     0.067 A 
ATOM     20  C19 ZIN A   1      19.290   1.205  14.975  0.00  0.00     0.004 A 
ATOM     21  C25 ZIN A   1      18.562   1.501  17.279  0.00  0.00     0.035 A 
ATOM     22  C20 ZIN A   1      19.311   2.600  14.818  0.00  0.00     0.051 A 
ATOM     23  C21 ZIN A   1      18.966   3.401  15.868  0.00  0.00     0.069 A 
ATOM     24  C24 ZIN A   1      18.591   2.848  17.097  0.00  0.00     0.039 A 
BRANCH  23  25
ATOM     25  O22 ZIN A   1      18.985   4.752  15.717  0.00  0.00    -0.356 OA
ATOM     26  C23 ZIN A   1      20.225   5.415  15.974  0.00  0.00     0.210 C 
ENDBRANCH  23  25
ENDBRANCH   1  15
TORSDOF 5
ENDMDL
MODEL 3
REMARK VINA RESULT:      -7.5      2.663      7.072
REMARK  5 active torsions:
REMARK  status: ('A' for Active; 'I' for Inactive)
REMARK    1  A    between atoms: C2_2  and  C3_3 
REMARK    2  A    between atoms: C13_11  and  C15_12 
REMARK    3  A    between atoms: C15_12  and  O17_13 
REMARK    4  A    between atoms: C15_12  and  C18_14 
REMARK    5  A    between atoms: C21_17  and  O22_18 
ROOT
ATOM      1  C15 ZIN A   1      17.595   0.478  11.851  0.00  0.00     0.183 C 
ENDROOT
BRANCH   1   2
ATOM      2  C13 ZIN A   1      18.224   0.580  10.460  0.00  0.00     0.221 C 
ATOM      3  N6  ZIN A   1      19.410  -0.278  10.396  0.00  0.00    -0.063 N 
ATOM      4  C5  ZIN A   1      20.052  -0.174   9.084  0.00  0.00     0.244 C 
ATOM      5  H7  ZIN A   1      20.066   0.029  11.098  0.00  0.00     0.280 HD
ATOM      6  C8  ZIN A   1      19.043  -1.669  10.682  0.00  0.00     0.236 C 
ATOM      7  C3  ZIN A   1      19.083  -0.626   7.989  0.00  0.00     0.037 C 
ATOM      8  C10 ZIN A   1      17.758  -1.043   8.638  0.00  0.00    -0.002 C 
ATOM      9  C9  ZIN A   1      18.042  -2.170   9.639  0.00  0.00     0.033 C 
ATOM     10  C12 ZIN A   1      17.203   0.161   9.410  0.00  0.00     0.041 C 
BRANCH   7  11
ATOM     11  C2  ZIN A   1      18.841   0.509   7.027  0.00  0.00    -0.030 C 
ATOM     12  C1  ZIN A   1      18.335   0.268   5.843  0.00  0.00     0.007 C 
ENDBRANCH   7  11
ENDBRANCH   1   2
BRANCH   1  13
ATOM     13  O17 ZIN A   1      16.204   0.178  11.723  0.00  0.00    -0.389 OA
ATOM     14  H41 ZIN A   1      15.655   0.552  12.424  0.00  0.00     0.210 HD
ENDBRANCH   1  13
BRANCH   1  15
ATOM     15  C18 ZIN A   1      17.761   1.790  12.575  0.00  0.00    -0.014 A 
ATOM     16  C29 ZIN A   1      17.550   2.977  11.932  0.00  0.00     0.030 A 
ATOM     17  C28 ZIN A   1      17.705   4.177  12.623  0.00  0.00     0.118 A 
ATOM     18  N27 ZIN A   1      18.061   4.207  13.884  0.00  0.00    -0.260 NA
ATOM     19  C26 ZIN A   1      18.288   3.083  14.568  0.00  0.00     0.067 A 
ATOM     20  C19 ZIN A   1      18.144   1.826  13.929  0.00  0.00     0.004 A 
ATOM     21  C25 ZIN A   1      18.670   3.123  15.921  0.00  0.00     0.035 A 
ATOM     22  C20 ZIN A   1      18.383   0.647  14.652  0.00  0.00     0.051 A 
ATOM     23  C21 ZIN A   1      18.753   0.724  15.964  0.00  0.00     0.069 A 
ATOM     24  C24 ZIN A   1      18.896   1.963  16.595  0.00  0.00     0.039 A 
BRANCH  23  25
ATOM     25  O22 ZIN A   1      18.986  -0.418  16.664  0.00  0.00    -0.356 OA
ATOM     26  C23 ZIN A   1      19.331  -0.274  18.043  0.00  0.00     0.210 C 
ENDBRANCH  23  25
ENDBRANCH   1  15
TORSDOF 5
ENDMDL
MODEL 4
REMARK VINA RESULT:      -7.4      2.331      3.676
REMARK  5 active torsions:
REMARK  status: ('A' for Active; 'I' for Inactive)
REMARK    1  A    between atoms: C2_2  and  C3_3 
REMARK    2  A    between atoms: C13_11  and  C15_12 
REMARK    3  A    between atoms: C15_12  and  O17_13 
REMARK    4  A    between atoms: C15_12  and  C18_14 
REMARK    5  A    between atoms: C21_17  and  O22_18 
ROOT
ATOM      1  C15 ZIN A   1      17.548  -0.497  11.281  0.00  0.00     0.183 C 
ENDROOT
BRANCH   1   2
ATOM      2  C13 ZIN A   1      17.862  -0.682  12.768  0.00  0.00     0.221 C 
ATOM      3  N6  ZIN A   1      19.313  -0.660  12.967  0.00  0.00    -0.063 N 
ATOM      4  C5  ZIN A   1      19.642  -0.868  14.380  0.00  0.00     0.244 C 
ATOM      5  H7  ZIN A   1      19.721  -1.410  12.430  0.00  0.00     0.280 HD
ATOM      6  C8  ZIN A   1      19.870   0.609  12.489  0.00  0.00     0.236 C 
ATOM      7  C3  ZIN A   1      19.033   0.249  15.230  0.00  0.00     0.037 C 
ATOM      8  C10 ZIN A   1      18.280   1.220  14.311  0.00  0.00    -0.002 C 
ATOM      9  C9  ZIN A   1      19.269   1.775  13.278  0.00  0.00     0.033 C 
ATOM     10  C12 ZIN A   1      17.195   0.431  13.567  0.00  0.00     0.041 C 
BRANCH   7  11
ATOM     11  C2  ZIN A   1      18.077  -0.343  16.233  0.00  0.00    -0.030 C 
ATOM     12  C1  ZIN A   1      18.095  -1.631  16.474  0.00  0.00     0.007 C 
ENDBRANCH   7  11
ENDBRANCH   1   2
BRANCH   1  13
ATOM     13  O17 ZIN A   1      16.214  -0.010  11.133  0.00  0.00    -0.389 OA
ATOM     14  H41 ZIN A   1      15.657  -0.144  11.911  0.00  0.00     0.210 HD
ENDBRANCH   1  13
BRANCH   1  15
ATOM     15  C18 ZIN A   1      17.682  -1.821  10.572  0.00  0.00    -0.014 A 
ATOM     16  C29 ZIN A   1      17.404  -2.992  11.216  0.00  0.00     0.030 A 
ATOM     17  C28 ZIN A   1      17.530  -4.204  10.539  0.00  0.00     0.118 A 
ATOM     18  N27 ZIN A   1      17.921  -4.258   9.289  0.00  0.00    -0.260 NA
ATOM     19  C26 ZIN A   1      18.214  -3.149   8.604  0.00  0.00     0.067 A 
ATOM     20  C19 ZIN A   1      18.102  -1.883   9.230  0.00  0.00     0.004 A 
ATOM     21  C25 ZIN A   1      18.633  -3.216   7.263  0.00  0.00     0.035 A 
ATOM     22  C20 ZIN A   1      18.411  -0.720   8.506  0.00  0.00     0.051 A 
ATOM     23  C21 ZIN A   1      18.815  -0.823   7.206  0.00  0.00     0.069 A 
ATOM     24  C24 ZIN A   1      18.926  -2.073   6.588  0.00  0.00     0.039 A 
BRANCH  23  25
ATOM     25  O22 ZIN A   1      19.115   0.303   6.506  0.00  0.00    -0.356 OA
ATOM     26  C23 ZIN A   1      19.266   0.165   5.091  0.00  0.00     0.210 C 
ENDBRANCH  23  25
ENDBRANCH   1  15
TORSDOF 5
ENDMDL
MODEL 5
REMARK VINA RESULT:      -7.3      3.153      6.693
REMARK  5 active torsions:
REMARK  status: ('A' for Active; 'I' for Inactive)
REMARK    1  A    between atoms: C2_2  and  C3_3 
REMARK    2  A    between atoms: C13_11  and  C15_12 
REMARK    3  A    between atoms: C15_12  and  O17_13 
REMARK    4  A    between atoms: C15_12  and  C18_14 
REMARK    5  A    between atoms: C21_17  and  O22_18 
ROOT
ATOM      1  C15 ZIN A   1      17.198   0.346  12.003  0.00  0.00     0.183 C 
ENDROOT
BRANCH   1   2
ATOM      2  C13 ZIN A   1      18.056  -0.714  11.309  0.00  0.00     0.221 C 
ATOM      3  N6  ZIN A   1      19.435  -0.620  11.794  0.00  0.00    -0.063 N 
ATOM      4  C5  ZIN A   1      20.287  -1.604  11.120  0.00  0.00     0.244 C 
ATOM      5  H7  ZIN A   1      19.786   0.302  11.585  0.00  0.00     0.280 HD
ATOM      6  C8  ZIN A   1      19.474  -0.813  13.247  0.00  0.00     0.236 C 
ATOM      7  C3  ZIN A   1      19.781  -3.019  11.408  0.00  0.00     0.037 C 
ATOM      8  C10 ZIN A   1      18.547  -2.932  12.314  0.00  0.00    -0.002 C 
ATOM      9  C9  ZIN A   1      18.943  -2.203  13.605  0.00  0.00     0.033 C 
ATOM     10  C12 ZIN A   1      17.481  -2.096  11.594  0.00  0.00     0.041 C 
BRANCH   7  11
ATOM     11  C2  ZIN A   1      19.412  -3.697  10.114  0.00  0.00    -0.030 C 
ATOM     12  C1  ZIN A   1      19.363  -5.005  10.050  0.00  0.00     0.007 C 
ENDBRANCH   7  11
ENDBRANCH   1   2
BRANCH   1  13
ATOM     13  O17 ZIN A   1      15.834   0.186  11.611  0.00  0.00    -0.389 OA
ATOM     14  H41 ZIN A   1      15.691   0.229  10.656  0.00  0.00     0.210 HD
ENDBRANCH   1  13
BRANCH   1  15
ATOM     15  C18 ZIN A   1      17.677   1.719  11.606  0.00  0.00    -0.014 A 
ATOM     16  C29 ZIN A   1      17.723   2.093  10.293  0.00  0.00     0.030 A 
ATOM     17  C28 ZIN A   1      18.165   3.369   9.949  0.00  0.00     0.118 A 
ATOM     18  N27 ZIN A   1      18.554   4.232  10.856  0.00  0.00    -0.260 NA
ATOM     19  C26 ZIN A   1      18.538   3.927  12.156  0.00  0.00     0.067 A 
ATOM     20  C19 ZIN A   1      18.095   2.649  12.577  0.00  0.00     0.004 A 
ATOM     21  C25 ZIN A   1      18.956   4.860  13.123  0.00  0.00     0.035 A 
ATOM     22  C20 ZIN A   1      18.080   2.333  13.944  0.00  0.00     0.051 A 
ATOM     23  C21 ZIN A   1      18.494   3.262  14.855  0.00  0.00     0.069 A 
ATOM     24  C24 ZIN A   1      18.931   4.524  14.441  0.00  0.00     0.039 A 
BRANCH  23  25
ATOM     25  O22 ZIN A   1      18.480   2.957  16.179  0.00  0.00    -0.356 OA
ATOM     26  C23 ZIN A   1      18.769   4.017  17.093  0.00  0.00     0.210 C 
ENDBRANCH  23  25
ENDBRANCH   1  15
TORSDOF 5
ENDMDL
MODEL 6
REMARK VINA RESULT:      -7.3      2.526      5.680
REMARK  5 active torsions:
REMARK  status: ('A' for Active; 'I' for Inactive)
REMARK    1  A    between atoms: C2_2  and  C3_3 
REMARK    2  A    between atoms: C13_11  and  C15_12 
REMARK    3  A    between atoms: C15_12  and  O17_13 
REMARK    4  A    between atoms: C15_12  and  C18_14 
REMARK    5  A    between atoms: C21_17  and  O22_18 
ROOT
ATOM      1  C15 ZIN A   1      19.491  -3.777   6.585  0.00  0.00     0.183 C 
ENDROOT
BRANCH   1   2
ATOM      2  C13 ZIN A   1      18.783  -4.058   7.912  0.00  0.00     0.221 C 
ATOM      3  N6  ZIN A   1      17.412  -4.504   7.650  0.00  0.00    -0.063 N 
ATOM      4  C5  ZIN A   1      16.700  -4.747   8.907  0.00  0.00     0.244 C 
ATOM      5  H7  ZIN A   1      16.930  -3.775   7.146  0.00  0.00     0.280 HD
ATOM      6  C8  ZIN A   1      17.423  -5.712   6.820  0.00  0.00     0.236 C 
ATOM      7  C3  ZIN A   1      17.407  -5.845   9.705  0.00  0.00     0.037 C 
ATOM      8  C10 ZIN A   1      18.630  -6.326   8.915  0.00  0.00    -0.002 C 
ATOM      9  C9  ZIN A   1      18.154  -6.842   7.551  0.00  0.00     0.033 C 
ATOM     10  C12 ZIN A   1      19.554  -5.124   8.682  0.00  0.00     0.041 C 
BRANCH   7  11
ATOM     11  C2  ZIN A   1      17.849  -5.295  11.037  0.00  0.00    -0.030 C 
ATOM     12  C1  ZIN A   1      17.353  -4.165  11.477  0.00  0.00     0.007 C 
ENDBRANCH   7  11
ENDBRANCH   1   2
BRANCH   1  13
ATOM     13  O17 ZIN A   1      20.895  -3.987   6.741  0.00  0.00    -0.389 OA
ATOM     14  H41 ZIN A   1      21.379  -4.047   5.907  0.00  0.00     0.210 HD
ENDBRANCH   1  13
BRANCH   1  15
ATOM     15  C18 ZIN A   1      19.238  -2.349   6.173  0.00  0.00    -0.014 A 
ATOM     16  C29 ZIN A   1      19.035  -2.023   4.863  0.00  0.00     0.030 A 
ATOM     17  C28 ZIN A   1      18.799  -0.697   4.506  0.00  0.00     0.118 A 
ATOM     18  N27 ZIN A   1      18.774   0.264   5.397  0.00  0.00    -0.260 NA
ATOM     19  C26 ZIN A   1      18.970   0.012   6.694  0.00  0.00     0.067 A 
ATOM     20  C19 ZIN A   1      19.211  -1.315   7.128  0.00  0.00     0.004 A 
ATOM     21  C25 ZIN A   1      18.942   1.049   7.645  0.00  0.00     0.035 A 
ATOM     22  C20 ZIN A   1      19.417  -1.575   8.492  0.00  0.00     0.051 A 
ATOM     23  C21 ZIN A   1      19.383  -0.544   9.386  0.00  0.00     0.069 A 
ATOM     24  C24 ZIN A   1      19.145   0.767   8.959  0.00  0.00     0.039 A 
BRANCH  23  25
ATOM     25  O22 ZIN A   1      19.583  -0.794  10.707  0.00  0.00    -0.356 OA
ATOM     26  C23 ZIN A   1      20.436   0.107  11.417  0.00  0.00     0.210 C 
ENDBRANCH  23  25
ENDBRANCH   1  15
TORSDOF 5
ENDMDL
MODEL 7
REMARK VINA RESULT:      -7.3      2.408      4.059
REMARK  5 active torsions:
REMARK  status: ('A' for Active; 'I' for Inactive)
REMARK    1  A    between atoms: C2_2  and  C3_3 
REMARK    2  A    between atoms: C13_11  and  C15_12 
REMARK    3  A    between atoms: C15_12  and  O17_13 
REMARK    4  A    between atoms: C15_12  and  C18_14 
REMARK    5  A    between atoms: C21_17  and  O22_18 
ROOT
ATOM      1  C15 ZIN A   1      17.153   0.192  10.875  0.00  0.00     0.183 C 
ENDROOT
BRANCH   1   2
ATOM      2  C13 ZIN A   1      18.023   1.190  11.642  0.00  0.00     0.221 C 
ATOM      3  N6  ZIN A   1      19.324   1.313  10.980  0.00  0.00    -0.063 N 
ATOM      4  C5  ZIN A   1      20.191   2.238  11.714  0.00  0.00     0.244 C 
ATOM      5  H7  ZIN A   1      19.764   0.405  10.968  0.00  0.00     0.280 HD
ATOM      6  C8  ZIN A   1      19.147   1.761   9.596  0.00  0.00     0.236 C 
ATOM      7  C3  ZIN A   1      19.553   3.628  11.760  0.00  0.00     0.037 C 
ATOM      8  C10 ZIN A   1      18.213   3.586  11.015  0.00  0.00    -0.002 C 
ATOM      9  C9  ZIN A   1      18.475   3.136   9.572  0.00  0.00     0.033 C 
ATOM     10  C12 ZIN A   1      17.319   2.540  11.694  0.00  0.00     0.041 C 
BRANCH   7  11
ATOM     11  C2  ZIN A   1      19.322   4.031  13.194  0.00  0.00    -0.030 C 
ATOM     12  C1  ZIN A   1      19.649   5.234  13.598  0.00  0.00     0.007 C 
ENDBRANCH   7  11
ENDBRANCH   1   2
BRANCH   1  13
ATOM     13  O17 ZIN A   1      15.842   0.169  11.443  0.00  0.00    -0.389 OA
ATOM     14  H41 ZIN A   1      15.650  -0.627  11.957  0.00  0.00     0.210 HD
ENDBRANCH   1  13
BRANCH   1  15
ATOM     15  C18 ZIN A   1      17.765  -1.182  10.966  0.00  0.00    -0.014 A 
ATOM     16  C29 ZIN A   1      17.970  -1.779  12.177  0.00  0.00     0.030 A 
ATOM     17  C28 ZIN A   1      18.533  -3.053  12.238  0.00  0.00     0.118 A 
ATOM     18  N27 ZIN A   1      18.887  -3.703  11.155  0.00  0.00    -0.260 NA
ATOM     19  C26 ZIN A   1      18.718  -3.173   9.941  0.00  0.00     0.067 A 
ATOM     20  C19 ZIN A   1      18.146  -1.883   9.807  0.00  0.00     0.004 A 
ATOM     21  C25 ZIN A   1      19.100  -3.876   8.784  0.00  0.00     0.035 A 
ATOM     22  C20 ZIN A   1      17.970  -1.330   8.528  0.00  0.00     0.051 A 
ATOM     23  C21 ZIN A   1      18.353  -2.042   7.428  0.00  0.00     0.069 A 
ATOM     24  C24 ZIN A   1      18.918  -3.314   7.560  0.00  0.00     0.039 A 
BRANCH  23  25
ATOM     25  O22 ZIN A   1      18.184  -1.506   6.190  0.00  0.00    -0.356 OA
ATOM     26  C23 ZIN A   1      17.472  -0.270   6.110  0.00  0.00     0.210 C 
ENDBRANCH  23  25
ENDBRANCH   1  15
TORSDOF 5
ENDMDL
MODEL 8
REMARK VINA RESULT:      -7.1      2.832      7.779
REMARK  5 active torsions:
REMARK  status: ('A' for Active; 'I' for Inactive)
REMARK    1  A    between atoms: C2_2  and  C3_3 
REMARK    2  A    between atoms: C13_11  and  C15_12 
REMARK    3  A    between atoms: C15_12  and  O17_13 
REMARK    4  A    between atoms: C15_12  and  C18_14 
REMARK    5  A    between atoms: C21_17  and  O22_18 
ROOT
ATOM      1  C15 ZIN A   1      19.447  -0.022  13.168  0.00  0.00     0.183 C 
ENDROOT
BRANCH   1   2
ATOM      2  C13 ZIN A   1      19.154  -1.374  12.515  0.00  0.00     0.221 C 
ATOM      3  N6  ZIN A   1      17.751  -1.420  12.095  0.00  0.00    -0.063 N 
ATOM      4  C5  ZIN A   1      17.434  -2.719  11.496  0.00  0.00     0.244 C 
ATOM      5  H7  ZIN A   1      17.169  -1.294  12.910  0.00  0.00     0.280 HD
ATOM      6  C8  ZIN A   1      17.469  -0.334  11.152  0.00  0.00     0.236 C 
ATOM      7  C3  ZIN A   1      18.303  -2.950  10.258  0.00  0.00     0.037 C 
ATOM      8  C10 ZIN A   1      19.218  -1.736  10.057  0.00  0.00    -0.002 C 
ATOM      9  C9  ZIN A   1      18.339  -0.488   9.902  0.00  0.00     0.033 C 
ATOM     10  C12 ZIN A   1      20.076  -1.569  11.318  0.00  0.00     0.041 C 
BRANCH   7  11
ATOM     11  C2  ZIN A   1      19.141  -4.188  10.453  0.00  0.00    -0.030 C 
ATOM     12  C1  ZIN A   1      19.542  -4.878   9.414  0.00  0.00     0.007 C 
ENDBRANCH   7  11
ENDBRANCH   1   2
BRANCH   1  13
ATOM     13  O17 ZIN A   1      20.792   0.364  12.880  0.00  0.00    -0.389 OA
ATOM     14  H41 ZIN A   1      20.866   1.101  12.261  0.00  0.00     0.210 HD
ENDBRANCH   1  13
BRANCH   1  15
ATOM     15  C18 ZIN A   1      19.264  -0.135  14.660  0.00  0.00    -0.014 A 
ATOM     16  C29 ZIN A   1      19.260  -1.354  15.275  0.00  0.00     0.030 A 
ATOM     17  C28 ZIN A   1      19.094  -1.435  16.656  0.00  0.00     0.118 A 
ATOM     18  N27 ZIN A   1      18.930  -0.364  17.395  0.00  0.00    -0.260 NA
ATOM     19  C26 ZIN A   1      18.919   0.858  16.855  0.00  0.00     0.067 A 
ATOM     20  C19 ZIN A   1      19.088   1.012  15.456  0.00  0.00     0.004 A 
ATOM     21  C25 ZIN A   1      18.743   2.002  17.654  0.00  0.00     0.035 A 
ATOM     22  C20 ZIN A   1      19.076   2.298  14.892  0.00  0.00     0.051 A 
ATOM     23  C21 ZIN A   1      18.902   3.386  15.699  0.00  0.00     0.069 A 
ATOM     24  C24 ZIN A   1      18.735   3.234  17.079  0.00  0.00     0.039 A 
BRANCH  23  25
ATOM     25  O22 ZIN A   1      18.890   4.631  15.154  0.00  0.00    -0.356 OA
ATOM     26  C23 ZIN A   1      19.154   4.728  13.752  0.00  0.00     0.210 C 
ENDBRANCH  23  25
ENDBRANCH   1  15
TORSDOF 5
ENDMDL
MODEL 9
REMARK VINA RESULT:      -7.1      2.851      5.534
REMARK  5 active torsions:
REMARK  status: ('A' for Active; 'I' for Inactive)
REMARK    1  A    between atoms: C2_2  and  C3_3 
REMARK    2  A    between atoms: C13_11  and  C15_12 
REMARK    3  A    between atoms: C15_12  and  O17_13 
REMARK    4  A    between atoms: C15_12  and  C18_14 
REMARK    5  A    between atoms: C21_17  and  O22_18 
ROOT
ATOM      1  C15 ZIN A   1      19.128  -2.787   9.519  0.00  0.00     0.183 C 
ENDROOT
BRANCH   1   2
ATOM      2  C13 ZIN A   1      17.950  -3.652   9.064  0.00  0.00     0.221 C 
ATOM      3  N6  ZIN A   1      18.328  -4.398   7.862  0.00  0.00    -0.063 N 
ATOM      4  C5  ZIN A   1      17.205  -5.210   7.385  0.00  0.00     0.244 C 
ATOM      5  H7  ZIN A   1      18.574  -3.738   7.140  0.00  0.00     0.280 HD
ATOM      6  C8  ZIN A   1      19.495  -5.242   8.136  0.00  0.00     0.236 C 
ATOM      7  C3  ZIN A   1      16.797  -6.221   8.458  0.00  0.00     0.037 C 
ATOM      8  C10 ZIN A   1      17.709  -6.047   9.679  0.00  0.00    -0.002 C 
ATOM      9  C9  ZIN A   1      19.162  -6.256   9.233  0.00  0.00     0.033 C 
ATOM     10  C12 ZIN A   1      17.561  -4.606  10.186  0.00  0.00     0.041 C 
BRANCH   7  11
ATOM     11  C2  ZIN A   1      15.364  -5.983   8.859  0.00  0.00    -0.030 C 
ATOM     12  C1  ZIN A   1      14.404  -6.135   7.980  0.00  0.00     0.007 C 
ENDBRANCH   7  11
ENDBRANCH   1   2
BRANCH   1  13
ATOM     13  O17 ZIN A   1      19.400  -3.040  10.898  0.00  0.00    -0.389 OA
ATOM     14  H41 ZIN A   1      19.044  -2.372  11.499  0.00  0.00     0.210 HD
ENDBRANCH   1  13
BRANCH   1  15
ATOM     15  C18 ZIN A   1      18.784  -1.332   9.333  0.00  0.00    -0.014 A 
ATOM     16  C29 ZIN A   1      18.403  -0.560  10.394  0.00  0.00     0.030 A 
ATOM     17  C28 ZIN A   1      18.094   0.784  10.199  0.00  0.00     0.118 A 
ATOM     18  N27 ZIN A   1      18.148   1.340   9.013  0.00  0.00    -0.260 NA
ATOM     19  C26 ZIN A   1      18.508   0.640   7.934  0.00  0.00     0.067 A 
ATOM     20  C19 ZIN A   1      18.841  -0.732   8.061  0.00  0.00     0.004 A 
ATOM     21  C25 ZIN A   1      18.564   1.244   6.664  0.00  0.00     0.035 A 
ATOM     22  C20 ZIN A   1      19.219  -1.464   6.924  0.00  0.00     0.051 A 
ATOM     23  C21 ZIN A   1      19.261  -0.845   5.708  0.00  0.00     0.069 A 
ATOM     24  C24 ZIN A   1      18.933   0.508   5.582  0.00  0.00     0.039 A 
BRANCH  23  25
ATOM     25  O22 ZIN A   1      19.627  -1.554   4.607  0.00  0.00    -0.356 OA
ATOM     26  C23 ZIN A   1      18.901  -2.756   4.339  0.00  0.00     0.210 C 
ENDBRANCH  23  25
ENDBRANCH   1  15
TORSDOF 5
ENDMDL
