MODEL 1
REMARK VINA RESULT:      -8.6      0.000      0.000
REMARK  5 active torsions:
REMARK  status: ('A' for Active; 'I' for Inactive)
REMARK    1  A    between atoms: C2_2  and  C3_3 
REMARK    2  A    between atoms: C3_3  and  C5_4 
REMARK    3  A    between atoms: C3_3  and  N7_6 
REMARK    4  A    between atoms: C5_4  and  O6_5 
REMARK       I    between atoms: N7_6  and  C8_7 
REMARK    5  A    between atoms: C8_7  and  C10_9 
ROOT
ATOM      1  C10 ZIN A   1      18.480  -2.501  11.044  0.00  0.00     0.129 C 
ATOM      2  C12 ZIN A   1      18.730  -1.628   9.843  0.00  0.00    -0.001 C 
ATOM      3  C13 ZIN A   1      18.414  -2.021   8.622  0.00  0.00    -0.017 C 
ATOM      4  C14 ZIN A   1      18.673  -1.116   7.486  0.00  0.00    -0.015 A 
ATOM      5  C15 ZIN A   1      18.807  -1.771   6.244  0.00  0.00     0.009 A 
ATOM      6  C16 ZIN A   1      18.725  -3.211   6.031  0.00  0.00    -0.027 A 
ATOM      7  C17 ZIN A   1      18.897  -3.379   4.724  0.00  0.00     0.096 A 
ATOM      8  N18 ZIN A   1      19.086  -2.154   4.102  0.00  0.00    -0.365 N 
ATOM      9  C19 ZIN A   1      19.041  -1.145   5.016  0.00  0.00     0.043 A 
ATOM     10  C20 ZIN A   1      19.162   0.244   5.018  0.00  0.00     0.030 A 
ATOM     11  C21 ZIN A   1      19.039   0.896   6.239  0.00  0.00     0.003 A 
ATOM     12  C22 ZIN A   1      18.800   0.254   7.452  0.00  0.00     0.013 A 
ATOM     13  C23 ZIN A   1      18.502  -4.129   7.204  0.00  0.00     0.081 C 
ATOM     14  C24 ZIN A   1      17.790  -3.359   8.325  0.00  0.00     0.260 C 
ATOM     15  N26 ZIN A   1      17.676  -4.206   9.505  0.00  0.00     0.094 N 
ATOM     16  C27 ZIN A   1      16.730  -5.305   9.275  0.00  0.00     0.310 C 
ATOM     17  C28 ZIN A   1      17.328  -3.458  10.717  0.00  0.00     0.290 C 
ATOM     18  H40 ZIN A   1      19.231  -2.034   3.151  0.00  0.00     0.165 HD
ENDROOT
BRANCH   1  19
ATOM     19  C8  ZIN A   1      18.109  -1.645  12.226  0.00  0.00     0.227 C 
ATOM     20  N7  ZIN A   1      19.008  -1.418  13.204  0.00  0.00    -0.354 N 
ATOM     21  H37 ZIN A   1      19.895  -1.808  13.147  0.00  0.00     0.163 HD
ATOM     22  O9  ZIN A   1      17.001  -1.158  12.298  0.00  0.00    -0.273 OA
BRANCH  20  23
ATOM     23  C3  ZIN A   1      18.647  -0.586  14.354  0.00  0.00     0.107 C 
BRANCH  23  24
ATOM     24  C2  ZIN A   1      18.794  -1.400  15.640  0.00  0.00     0.023 C 
ATOM     25  C1  ZIN A   1      17.624  -1.089  16.577  0.00  0.00     0.007 C 
ENDBRANCH  23  24
BRANCH  23  26
ATOM     26  C5  ZIN A   1      19.573   0.631  14.412  0.00  0.00     0.189 C 
BRANCH  26  27
ATOM     27  O6  ZIN A   1      20.684   0.428  13.536  0.00  0.00    -0.399 OA
ATOM     28  H36 ZIN A   1      21.541   0.630  13.934  0.00  0.00     0.209 HD
ENDBRANCH  26  27
ENDBRANCH  23  26
ENDBRANCH  20  23
ENDBRANCH   1  19
TORSDOF 5
ENDMDL
MODEL 2
REMARK VINA RESULT:      -8.6      3.568      9.587
REMARK  5 active torsions:
REMARK  status: ('A' for Active; 'I' for Inactive)
REMARK    1  A    between atoms: C2_2  and  C3_3 
REMARK    2  A    between atoms: C3_3  and  C5_4 
REMARK    3  A    between atoms: C3_3  and  N7_6 
REMARK    4  A    between atoms: C5_4  and  O6_5 
REMARK       I    between atoms: N7_6  and  C8_7 
REMARK    5  A    between atoms: C8_7  and  C10_9 
ROOT
ATOM      1  C10 ZIN A   1      18.793   2.935  12.119  0.00  0.00     0.129 C 
ATOM      2  C12 ZIN A   1      18.945   1.934  13.232  0.00  0.00    -0.001 C 
ATOM      3  C13 ZIN A   1      18.607   2.224  14.476  0.00  0.00    -0.017 C 
ATOM      4  C14 ZIN A   1      18.769   1.197  15.523  0.00  0.00    -0.015 A 
ATOM      5  C15 ZIN A   1      18.895   1.717  16.828  0.00  0.00     0.009 A 
ATOM      6  C16 ZIN A   1      18.892   3.131  17.183  0.00  0.00    -0.027 A 
ATOM      7  C17 ZIN A   1      19.023   3.158  18.505  0.00  0.00     0.096 A 
ATOM      8  N18 ZIN A   1      19.116   1.868  19.006  0.00  0.00    -0.365 N 
ATOM      9  C19 ZIN A   1      19.045   0.959  17.993  0.00  0.00     0.043 A 
ATOM     10  C20 ZIN A   1      19.084  -0.428  17.855  0.00  0.00     0.030 A 
ATOM     11  C21 ZIN A   1      18.968  -0.948  16.572  0.00  0.00     0.003 A 
ATOM     12  C22 ZIN A   1      18.813  -0.175  15.422  0.00  0.00     0.013 A 
ATOM     13  C23 ZIN A   1      18.768   4.173  16.101  0.00  0.00     0.081 C 
ATOM     14  C24 ZIN A   1      18.054   3.563  14.887  0.00  0.00     0.260 C 
ATOM     15  N26 ZIN A   1      18.034   4.527  13.795  0.00  0.00     0.094 N 
ATOM     16  C27 ZIN A   1      17.148   5.656  14.105  0.00  0.00     0.310 C 
ATOM     17  C28 ZIN A   1      17.688   3.926  12.504  0.00  0.00     0.290 C 
ATOM     18  H40 ZIN A   1      19.218   1.646  19.944  0.00  0.00     0.165 HD
ENDROOT
BRANCH   1  19
ATOM     19  C8  ZIN A   1      18.416   2.224  10.844  0.00  0.00     0.227 C 
ATOM     20  N7  ZIN A   1      19.351   1.551  10.146  0.00  0.00    -0.354 N 
ATOM     21  H37 ZIN A   1      20.267   1.524  10.463  0.00  0.00     0.163 HD
ATOM     22  O9  ZIN A   1      17.271   2.258  10.448  0.00  0.00    -0.273 OA
BRANCH  20  23
ATOM     23  C3  ZIN A   1      18.984   0.860   8.908  0.00  0.00     0.107 C 
BRANCH  23  24
ATOM     24  C2  ZIN A   1      19.283   1.764   7.710  0.00  0.00     0.023 C 
ATOM     25  C1  ZIN A   1      18.924   1.032   6.416  0.00  0.00     0.007 C 
ENDBRANCH  23  24
BRANCH  23  26
ATOM     26  C5  ZIN A   1      19.796  -0.432   8.785  0.00  0.00     0.189 C 
BRANCH  26  27
ATOM     27  O6  ZIN A   1      20.885  -0.400   9.710  0.00  0.00    -0.399 OA
ATOM     28  H36 ZIN A   1      20.885  -1.131  10.343  0.00  0.00     0.209 HD
ENDBRANCH  26  27
ENDBRANCH  23  26
ENDBRANCH  20  23
ENDBRANCH   1  19
TORSDOF 5
ENDMDL
MODEL 3
REMARK VINA RESULT:      -8.4      3.223      7.312
REMARK  5 active torsions:
REMARK  status: ('A' for Active; 'I' for Inactive)
REMARK    1  A    between atoms: C2_2  and  C3_3 
REMARK    2  A    between atoms: C3_3  and  C5_4 
REMARK    3  A    between atoms: C3_3  and  N7_6 
REMARK    4  A    between atoms: C5_4  and  O6_5 
REMARK       I    between atoms: N7_6  and  C8_7 
REMARK    5  A    between atoms: C8_7  and  C10_9 
ROOT
ATOM      1  C10 ZIN A   1      18.022  -1.865   8.721  0.00  0.00     0.129 C 
ATOM      2  C12 ZIN A   1      17.943  -0.409   9.091  0.00  0.00    -0.001 C 
ATOM      3  C13 ZIN A   1      18.247   0.015  10.305  0.00  0.00    -0.017 C 
ATOM      4  C14 ZIN A   1      18.160   1.458  10.605  0.00  0.00    -0.015 A 
ATOM      5  C15 ZIN A   1      17.983   1.754  11.973  0.00  0.00     0.009 A 
ATOM      6  C16 ZIN A   1      17.870   0.773  13.046  0.00  0.00    -0.027 A 
ATOM      7  C17 ZIN A   1      17.727   1.489  14.157  0.00  0.00     0.096 A 
ATOM      8  N18 ZIN A   1      17.734   2.844  13.861  0.00  0.00    -0.365 N 
ATOM      9  C19 ZIN A   1      17.886   3.036  12.521  0.00  0.00     0.043 A 
ATOM     10  C20 ZIN A   1      17.960   4.115  11.641  0.00  0.00     0.030 A 
ATOM     11  C21 ZIN A   1      18.127   3.832  10.291  0.00  0.00     0.003 A 
ATOM     12  C22 ZIN A   1      18.228   2.546   9.765  0.00  0.00     0.013 A 
ATOM     13  C23 ZIN A   1      17.918  -0.698  12.723  0.00  0.00     0.081 C 
ATOM     14  C24 ZIN A   1      18.688  -0.906  11.411  0.00  0.00     0.260 C 
ATOM     15  N26 ZIN A   1      18.637  -2.312  11.032  0.00  0.00     0.094 N 
ATOM     16  C27 ZIN A   1      19.428  -3.135  11.955  0.00  0.00     0.310 C 
ATOM     17  C28 ZIN A   1      19.041  -2.546   9.642  0.00  0.00     0.290 C 
ATOM     18  H40 ZIN A   1      17.644   3.553  14.516  0.00  0.00     0.165 HD
ENDROOT
BRANCH   1  19
ATOM     19  C8  ZIN A   1      18.465  -2.001   7.287  0.00  0.00     0.227 C 
ATOM     20  N7  ZIN A   1      17.661  -1.581   6.290  0.00  0.00    -0.354 N 
ATOM     21  H37 ZIN A   1      16.797  -1.192   6.496  0.00  0.00     0.163 HD
ATOM     22  O9  ZIN A   1      19.545  -2.488   7.029  0.00  0.00    -0.273 OA
BRANCH  20  23
ATOM     23  C3  ZIN A   1      18.091  -1.713   4.896  0.00  0.00     0.107 C 
BRANCH  23  24
ATOM     24  C2  ZIN A   1      16.886  -2.060   4.020  0.00  0.00     0.023 C 
ATOM     25  C1  ZIN A   1      16.891  -3.560   3.717  0.00  0.00     0.007 C 
ENDBRANCH  23  24
BRANCH  23  26
ATOM     26  C5  ZIN A   1      18.701  -0.392   4.424  0.00  0.00     0.189 C 
BRANCH  26  27
ATOM     27  O6  ZIN A   1      20.115  -0.418   4.631  0.00  0.00    -0.399 OA
ATOM     28  H36 ZIN A   1      20.579   0.350   4.273  0.00  0.00     0.209 HD
ENDBRANCH  26  27
ENDBRANCH  23  26
ENDBRANCH  20  23
ENDBRANCH   1  19
TORSDOF 5
ENDMDL
MODEL 4
REMARK VINA RESULT:      -8.2      2.160      2.954
REMARK  5 active torsions:
REMARK  status: ('A' for Active; 'I' for Inactive)
REMARK    1  A    between atoms: C2_2  and  C3_3 
REMARK    2  A    between atoms: C3_3  and  C5_4 
REMARK    3  A    between atoms: C3_3  and  N7_6 
REMARK    4  A    between atoms: C5_4  and  O6_5 
REMARK       I    between atoms: N7_6  and  C8_7 
REMARK    5  A    between atoms: C8_7  and  C10_9 
ROOT
ATOM      1  C10 ZIN A   1      20.300  -0.770  10.719  0.00  0.00     0.129 C 
ATOM      2  C12 ZIN A   1      20.016  -0.436   9.280  0.00  0.00    -0.001 C 
ATOM      3  C13 ZIN A   1      19.336  -1.256   8.498  0.00  0.00    -0.017 C 
ATOM      4  C14 ZIN A   1      19.080  -0.867   7.098  0.00  0.00    -0.015 A 
ATOM      5  C15 ZIN A   1      18.840  -1.954   6.231  0.00  0.00     0.009 A 
ATOM      6  C16 ZIN A   1      18.846  -3.361   6.612  0.00  0.00    -0.027 A 
ATOM      7  C17 ZIN A   1      18.565  -4.025   5.496  0.00  0.00     0.096 A 
ATOM      8  N18 ZIN A   1      18.389  -3.141   4.442  0.00  0.00    -0.365 N 
ATOM      9  C19 ZIN A   1      18.558  -1.858   4.866  0.00  0.00     0.043 A 
ATOM     10  C20 ZIN A   1      18.519  -0.580   4.309  0.00  0.00     0.030 A 
ATOM     11  C21 ZIN A   1      18.762   0.496   5.154  0.00  0.00     0.003 A 
ATOM     12  C22 ZIN A   1      19.036   0.379   6.515  0.00  0.00     0.013 A 
ATOM     13  C23 ZIN A   1      19.151  -3.749   8.036  0.00  0.00     0.081 C 
ATOM     14  C24 ZIN A   1      18.798  -2.581   8.968  0.00  0.00     0.260 C 
ATOM     15  N26 ZIN A   1      19.199  -2.905  10.331  0.00  0.00     0.094 N 
ATOM     16  C27 ZIN A   1      18.359  -3.972  10.888  0.00  0.00     0.310 C 
ATOM     17  C28 ZIN A   1      19.219  -1.736  11.216  0.00  0.00     0.290 C 
ATOM     18  H40 ZIN A   1      18.177  -3.401   3.532  0.00  0.00     0.165 HD
ENDROOT
BRANCH   1  19
ATOM     19  C8  ZIN A   1      20.277   0.488  11.547  0.00  0.00     0.227 C 
ATOM     20  N7  ZIN A   1      19.309   1.406  11.352  0.00  0.00    -0.354 N 
ATOM     21  H37 ZIN A   1      18.628   1.256  10.678  0.00  0.00     0.163 HD
ATOM     22  O9  ZIN A   1      21.128   0.675  12.390  0.00  0.00    -0.273 OA
BRANCH  20  23
ATOM     23  C3  ZIN A   1      19.286   2.629  12.157  0.00  0.00     0.107 C 
BRANCH  23  24
ATOM     24  C2  ZIN A   1      18.616   3.752  11.362  0.00  0.00     0.023 C 
ATOM     25  C1  ZIN A   1      18.389   3.290   9.921  0.00  0.00     0.007 C 
ENDBRANCH  23  24
BRANCH  23  26
ATOM     26  C5  ZIN A   1      18.499   2.377  13.445  0.00  0.00     0.189 C 
BRANCH  26  27
ATOM     27  O6  ZIN A   1      19.408   2.154  14.524  0.00  0.00    -0.399 OA
ATOM     28  H36 ZIN A   1      19.082   1.536  15.192  0.00  0.00     0.209 HD
ENDBRANCH  26  27
ENDBRANCH  23  26
ENDBRANCH  20  23
ENDBRANCH   1  19
TORSDOF 5
ENDMDL
MODEL 5
REMARK VINA RESULT:      -8.1      3.068      8.936
REMARK  5 active torsions:
REMARK  status: ('A' for Active; 'I' for Inactive)
REMARK    1  A    between atoms: C2_2  and  C3_3 
REMARK    2  A    between atoms: C3_3  and  C5_4 
REMARK    3  A    between atoms: C3_3  and  N7_6 
REMARK    4  A    between atoms: C5_4  and  O6_5 
REMARK       I    between atoms: N7_6  and  C8_7 
REMARK    5  A    between atoms: C8_7  and  C10_9 
ROOT
ATOM      1  C10 ZIN A   1      18.666   1.847  10.819  0.00  0.00     0.129 C 
ATOM      2  C12 ZIN A   1      18.786   0.975  12.039  0.00  0.00    -0.001 C 
ATOM      3  C13 ZIN A   1      18.511   1.432  13.248  0.00  0.00    -0.017 C 
ATOM      4  C14 ZIN A   1      18.638   0.525  14.405  0.00  0.00    -0.015 A 
ATOM      5  C15 ZIN A   1      18.842   1.184  15.636  0.00  0.00     0.009 A 
ATOM      6  C16 ZIN A   1      18.945   2.626  15.819  0.00  0.00    -0.027 A 
ATOM      7  C17 ZIN A   1      19.122   2.799  17.125  0.00  0.00     0.096 A 
ATOM      8  N18 ZIN A   1      19.145   1.573  17.774  0.00  0.00    -0.365 N 
ATOM      9  C19 ZIN A   1      18.979   0.559  16.879  0.00  0.00     0.043 A 
ATOM     10  C20 ZIN A   1      18.919  -0.834  16.906  0.00  0.00     0.030 A 
ATOM     11  C21 ZIN A   1      18.726  -1.491  15.696  0.00  0.00     0.003 A 
ATOM     12  C22 ZIN A   1      18.586  -0.849  14.468  0.00  0.00     0.013 A 
ATOM     13  C23 ZIN A   1      18.856   3.541  14.625  0.00  0.00     0.081 C 
ATOM     14  C24 ZIN A   1      18.063   2.845  13.510  0.00  0.00     0.260 C 
ATOM     15  N26 ZIN A   1      18.072   3.674  12.312  0.00  0.00     0.094 N 
ATOM     16  C27 ZIN A   1      17.274   4.891  12.507  0.00  0.00     0.310 C 
ATOM     17  C28 ZIN A   1      17.644   2.951  11.110  0.00  0.00     0.290 C 
ATOM     18  H40 ZIN A   1      19.262   1.455  18.729  0.00  0.00     0.165 HD
ENDROOT
BRANCH   1  19
ATOM     19  C8  ZIN A   1      18.199   1.021   9.648  0.00  0.00     0.227 C 
ATOM     20  N7  ZIN A   1      18.951   0.949   8.532  0.00  0.00    -0.354 N 
ATOM     21  H37 ZIN A   1      19.791   1.430   8.481  0.00  0.00     0.163 HD
ATOM     22  O9  ZIN A   1      17.149   0.419   9.711  0.00  0.00    -0.273 OA
BRANCH  20  23
ATOM     23  C3  ZIN A   1      18.497   0.146   7.394  0.00  0.00     0.107 C 
BRANCH  23  24
ATOM     24  C2  ZIN A   1      18.892   0.840   6.089  0.00  0.00     0.023 C 
ATOM     25  C1  ZIN A   1      19.395  -0.204   5.089  0.00  0.00     0.007 C 
ENDBRANCH  23  24
BRANCH  23  26
ATOM     26  C5  ZIN A   1      19.151  -1.237   7.454  0.00  0.00     0.189 C 
BRANCH  26  27
ATOM     27  O6  ZIN A   1      18.299  -2.136   8.166  0.00  0.00    -0.399 OA
ATOM     28  H36 ZIN A   1      18.764  -2.881   8.571  0.00  0.00     0.209 HD
ENDBRANCH  26  27
ENDBRANCH  23  26
ENDBRANCH  20  23
ENDBRANCH   1  19
TORSDOF 5
ENDMDL
MODEL 6
REMARK VINA RESULT:      -8.0      3.709      9.115
REMARK  5 active torsions:
REMARK  status: ('A' for Active; 'I' for Inactive)
REMARK    1  A    between atoms: C2_2  and  C3_3 
REMARK    2  A    between atoms: C3_3  and  C5_4 
REMARK    3  A    between atoms: C3_3  and  N7_6 
REMARK    4  A    between atoms: C5_4  and  O6_5 
REMARK       I    between atoms: N7_6  and  C8_7 
REMARK    5  A    between atoms: C8_7  and  C10_9 
ROOT
ATOM      1  C10 ZIN A   1      19.951   1.060  12.237  0.00  0.00     0.129 C 
ATOM      2  C12 ZIN A   1      19.784   0.557  13.645  0.00  0.00    -0.001 C 
ATOM      3  C13 ZIN A   1      19.197   1.286  14.577  0.00  0.00    -0.017 C 
ATOM      4  C14 ZIN A   1      19.053   0.734  15.938  0.00  0.00    -0.015 A 
ATOM      5  C15 ZIN A   1      18.918   1.711  16.947  0.00  0.00     0.009 A 
ATOM      6  C16 ZIN A   1      18.928   3.154  16.738  0.00  0.00    -0.027 A 
ATOM      7  C17 ZIN A   1      18.763   3.681  17.946  0.00  0.00     0.096 A 
ATOM      8  N18 ZIN A   1      18.657   2.679  18.899  0.00  0.00    -0.365 N 
ATOM      9  C19 ZIN A   1      18.754   1.453  18.311  0.00  0.00     0.043 A 
ATOM     10  C20 ZIN A   1      18.731   0.118  18.712  0.00  0.00     0.030 A 
ATOM     11  C21 ZIN A   1      18.871  -0.850  17.725  0.00  0.00     0.003 A 
ATOM     12  C22 ZIN A   1      19.028  -0.573  16.369  0.00  0.00     0.013 A 
ATOM     13  C23 ZIN A   1      19.118   3.707  15.349  0.00  0.00     0.081 C 
ATOM     14  C24 ZIN A   1      18.655   2.667  14.319  0.00  0.00     0.260 C 
ATOM     15  N26 ZIN A   1      18.943   3.148  12.975  0.00  0.00     0.094 N 
ATOM     16  C27 ZIN A   1      18.086   4.288  12.628  0.00  0.00     0.310 C 
ATOM     17  C28 ZIN A   1      18.855   2.095  11.958  0.00  0.00     0.290 C 
ATOM     18  H40 ZIN A   1      18.532   2.829  19.848  0.00  0.00     0.165 HD
ENDROOT
BRANCH   1  19
ATOM     19  C8  ZIN A   1      19.822  -0.088  11.269  0.00  0.00     0.227 C 
ATOM     20  N7  ZIN A   1      19.455  -1.306  11.713  0.00  0.00    -0.354 N 
ATOM     21  H37 ZIN A   1      19.275  -1.445  12.656  0.00  0.00     0.163 HD
ATOM     22  O9  ZIN A   1      20.047   0.084  10.090  0.00  0.00    -0.273 OA
BRANCH  20  23
ATOM     23  C3  ZIN A   1      19.330  -2.422  10.772  0.00  0.00     0.107 C 
BRANCH  23  24
ATOM     24  C2  ZIN A   1      20.001  -3.665  11.362  0.00  0.00     0.023 C 
ATOM     25  C1  ZIN A   1      19.622  -4.892  10.529  0.00  0.00     0.007 C 
ENDBRANCH  23  24
BRANCH  23  26
ATOM     26  C5  ZIN A   1      17.849  -2.714  10.521  0.00  0.00     0.189 C 
BRANCH  26  27
ATOM     27  O6  ZIN A   1      17.076  -2.235  11.623  0.00  0.00    -0.399 OA
ATOM     28  H36 ZIN A   1      16.494  -2.901  12.014  0.00  0.00     0.209 HD
ENDBRANCH  26  27
ENDBRANCH  23  26
ENDBRANCH  20  23
ENDBRANCH   1  19
TORSDOF 5
ENDMDL
MODEL 7
REMARK VINA RESULT:      -8.0      2.981      3.777
REMARK  5 active torsions:
REMARK  status: ('A' for Active; 'I' for Inactive)
REMARK    1  A    between atoms: C2_2  and  C3_3 
REMARK    2  A    between atoms: C3_3  and  C5_4 
REMARK    3  A    between atoms: C3_3  and  N7_6 
REMARK    4  A    between atoms: C5_4  and  O6_5 
REMARK       I    between atoms: N7_6  and  C8_7 
REMARK    5  A    between atoms: C8_7  and  C10_9 
ROOT
ATOM      1  C10 ZIN A   1      19.213   1.278  10.761  0.00  0.00     0.129 C 
ATOM      2  C12 ZIN A   1      19.297   1.050   9.276  0.00  0.00    -0.001 C 
ATOM      3  C13 ZIN A   1      18.897  -0.081   8.724  0.00  0.00    -0.017 C 
ATOM      4  C14 ZIN A   1      18.995  -0.240   7.260  0.00  0.00    -0.015 A 
ATOM      5  C15 ZIN A   1      19.056  -1.582   6.828  0.00  0.00     0.009 A 
ATOM      6  C16 ZIN A   1      19.046  -2.754   7.694  0.00  0.00    -0.027 A 
ATOM      7  C17 ZIN A   1      19.108  -3.796   6.871  0.00  0.00     0.096 A 
ATOM      8  N18 ZIN A   1      19.163  -3.365   5.554  0.00  0.00    -0.365 N 
ATOM      9  C19 ZIN A   1      19.138  -2.004   5.498  0.00  0.00     0.043 A 
ATOM     10  C20 ZIN A   1      19.172  -1.017   4.514  0.00  0.00     0.030 A 
ATOM     11  C21 ZIN A   1      19.120   0.308   4.932  0.00  0.00     0.003 A 
ATOM     12  C22 ZIN A   1      19.033   0.708   6.263  0.00  0.00     0.013 A 
ATOM     13  C23 ZIN A   1      18.988  -2.578   9.190  0.00  0.00     0.081 C 
ATOM     14  C24 ZIN A   1      18.334  -1.229   9.518  0.00  0.00     0.260 C 
ATOM     15  N26 ZIN A   1      18.380  -1.000  10.956  0.00  0.00     0.094 N 
ATOM     16  C27 ZIN A   1      17.488  -1.925  11.666  0.00  0.00     0.310 C 
ATOM     17  C28 ZIN A   1      18.098   0.390  11.326  0.00  0.00     0.290 C 
ATOM     18  H40 ZIN A   1      19.214  -3.951   4.783  0.00  0.00     0.165 HD
ENDROOT
BRANCH   1  19
ATOM     19  C8  ZIN A   1      18.897   2.726  11.037  0.00  0.00     0.227 C 
ATOM     20  N7  ZIN A   1      19.099   3.237  12.267  0.00  0.00    -0.354 N 
ATOM     21  H37 ZIN A   1      19.447   2.674  12.975  0.00  0.00     0.163 HD
ATOM     22  O9  ZIN A   1      18.463   3.430  10.151  0.00  0.00    -0.273 OA
BRANCH  20  23
ATOM     23  C3  ZIN A   1      18.792   4.645  12.534  0.00  0.00     0.107 C 
BRANCH  23  24
ATOM     24  C2  ZIN A   1      17.442   4.747  13.246  0.00  0.00     0.023 C 
ATOM     25  C1  ZIN A   1      16.442   5.469  12.341  0.00  0.00     0.007 C 
ENDBRANCH  23  24
BRANCH  23  26
ATOM     26  C5  ZIN A   1      19.884   5.244  13.423  0.00  0.00     0.189 C 
BRANCH  26  27
ATOM     27  O6  ZIN A   1      19.899   4.567  14.682  0.00  0.00    -0.399 OA
ATOM     28  H36 ZIN A   1      19.148   4.782  15.252  0.00  0.00     0.209 HD
ENDBRANCH  26  27
ENDBRANCH  23  26
ENDBRANCH  20  23
ENDBRANCH   1  19
TORSDOF 5
ENDMDL
MODEL 8
REMARK VINA RESULT:      -7.9      1.849      2.822
REMARK  5 active torsions:
REMARK  status: ('A' for Active; 'I' for Inactive)
REMARK    1  A    between atoms: C2_2  and  C3_3 
REMARK    2  A    between atoms: C3_3  and  C5_4 
REMARK    3  A    between atoms: C3_3  and  N7_6 
REMARK    4  A    between atoms: C5_4  and  O6_5 
REMARK       I    between atoms: N7_6  and  C8_7 
REMARK    5  A    between atoms: C8_7  and  C10_9 
ROOT
ATOM      1  C10 ZIN A   1      19.528  -0.922  13.221  0.00  0.00     0.129 C 
ATOM      2  C12 ZIN A   1      19.514  -0.136  11.938  0.00  0.00    -0.001 C 
ATOM      3  C13 ZIN A   1      19.046  -0.650  10.815  0.00  0.00    -0.017 C 
ATOM      4  C14 ZIN A   1      19.049   0.174   9.591  0.00  0.00    -0.015 A 
ATOM      5  C15 ZIN A   1      19.042  -0.570   8.392  0.00  0.00     0.009 A 
ATOM      6  C16 ZIN A   1      19.049  -2.025   8.297  0.00  0.00    -0.027 A 
ATOM      7  C17 ZIN A   1      19.028  -2.288   6.994  0.00  0.00     0.096 A 
ATOM      8  N18 ZIN A   1      19.015  -1.108   6.265  0.00  0.00    -0.365 N 
ATOM      9  C19 ZIN A   1      19.029  -0.033   7.102  0.00  0.00     0.043 A 
ATOM     10  C20 ZIN A   1      19.033   1.357   6.987  0.00  0.00     0.030 A 
ATOM     11  C21 ZIN A   1      19.047   2.097   8.163  0.00  0.00     0.003 A 
ATOM     12  C22 ZIN A   1      19.054   1.542   9.441  0.00  0.00     0.013 A 
ATOM     13  C23 ZIN A   1      19.088  -2.857   9.553  0.00  0.00     0.081 C 
ATOM     14  C24 ZIN A   1      18.498  -2.049  10.717  0.00  0.00     0.260 C 
ATOM     15  N26 ZIN A   1      18.640  -2.802  11.956  0.00  0.00     0.094 N 
ATOM     16  C27 ZIN A   1      17.765  -3.980  11.960  0.00  0.00     0.310 C 
ATOM     17  C28 ZIN A   1      18.423  -1.982  13.153  0.00  0.00     0.290 C 
ATOM     18  H40 ZIN A   1      19.000  -1.057   5.297  0.00  0.00     0.165 HD
ENDROOT
BRANCH   1  19
ATOM     19  C8  ZIN A   1      19.275   0.001  14.385  0.00  0.00     0.227 C 
ATOM     20  N7  ZIN A   1      19.014  -0.509  15.605  0.00  0.00    -0.354 N 
ATOM     21  H37 ZIN A   1      18.987  -1.470  15.734  0.00  0.00     0.163 HD
ATOM     22  O9  ZIN A   1      19.308   1.202  14.224  0.00  0.00    -0.273 OA
BRANCH  20  23
ATOM     23  C3  ZIN A   1      18.768   0.388  16.736  0.00  0.00     0.107 C 
BRANCH  23  24
ATOM     24  C2  ZIN A   1      17.277   0.379  17.081  0.00  0.00     0.023 C 
ATOM     25  C1  ZIN A   1      16.726  -1.039  16.919  0.00  0.00     0.007 C 
ENDBRANCH  23  24
BRANCH  23  26
ATOM     26  C5  ZIN A   1      19.574  -0.086  17.948  0.00  0.00     0.189 C 
BRANCH  26  27
ATOM     27  O6  ZIN A   1      19.940  -1.456  17.769  0.00  0.00    -0.399 OA
ATOM     28  H36 ZIN A   1      19.721  -1.811  16.897  0.00  0.00     0.209 HD
ENDBRANCH  26  27
ENDBRANCH  23  26
ENDBRANCH  20  23
ENDBRANCH   1  19
TORSDOF 5
ENDMDL
MODEL 9
REMARK VINA RESULT:      -7.8      2.911      5.224
REMARK  5 active torsions:
REMARK  status: ('A' for Active; 'I' for Inactive)
REMARK    1  A    between atoms: C2_2  and  C3_3 
REMARK    2  A    between atoms: C3_3  and  C5_4 
REMARK    3  A    between atoms: C3_3  and  N7_6 
REMARK    4  A    between atoms: C5_4  and  O6_5 
REMARK       I    between atoms: N7_6  and  C8_7 
REMARK    5  A    between atoms: C8_7  and  C10_9 
ROOT
ATOM      1  C10 ZIN A   1      17.552   0.608  14.173  0.00  0.00     0.129 C 
ATOM      2  C12 ZIN A   1      17.960  -0.654  13.462  0.00  0.00    -0.001 C 
ATOM      3  C13 ZIN A   1      18.214  -0.668  12.166  0.00  0.00    -0.017 C 
ATOM      4  C14 ZIN A   1      18.620  -1.935  11.527  0.00  0.00    -0.015 A 
ATOM      5  C15 ZIN A   1      18.362  -1.993  10.142  0.00  0.00     0.009 A 
ATOM      6  C16 ZIN A   1      17.737  -0.939   9.350  0.00  0.00    -0.027 A 
ATOM      7  C17 ZIN A   1      17.703  -1.412   8.108  0.00  0.00     0.096 A 
ATOM      8  N18 ZIN A   1      18.253  -2.684   8.062  0.00  0.00    -0.365 N 
ATOM      9  C19 ZIN A   1      18.663  -3.069   9.303  0.00  0.00     0.043 A 
ATOM     10  C20 ZIN A   1      19.260  -4.187   9.885  0.00  0.00     0.030 A 
ATOM     11  C21 ZIN A   1      19.511  -4.141  11.251  0.00  0.00     0.003 A 
ATOM     12  C22 ZIN A   1      19.208  -3.055  12.070  0.00  0.00     0.013 A 
ATOM     13  C23 ZIN A   1      17.288   0.333  10.021  0.00  0.00     0.081 C 
ATOM     14  C24 ZIN A   1      18.114   0.556  11.295  0.00  0.00     0.260 C 
ATOM     15  N26 ZIN A   1      17.607   1.720  12.010  0.00  0.00     0.094 N 
ATOM     16  C27 ZIN A   1      17.891   2.956  11.271  0.00  0.00     0.310 C 
ATOM     17  C28 ZIN A   1      18.098   1.806  13.388  0.00  0.00     0.290 C 
ATOM     18  H40 ZIN A   1      18.333  -3.223   7.260  0.00  0.00     0.165 HD
ENDROOT
BRANCH   1  19
ATOM     19  C8  ZIN A   1      18.122   0.613  15.568  0.00  0.00     0.227 C 
ATOM     20  N7  ZIN A   1      17.930   1.677  16.372  0.00  0.00    -0.354 N 
ATOM     21  H37 ZIN A   1      17.425   2.441  16.052  0.00  0.00     0.163 HD
ATOM     22  O9  ZIN A   1      18.754  -0.342  15.968  0.00  0.00    -0.273 OA
BRANCH  20  23
ATOM     23  C3  ZIN A   1      18.484   1.681  17.728  0.00  0.00     0.107 C 
BRANCH  23  24
ATOM     24  C2  ZIN A   1      19.088   3.055  18.029  0.00  0.00     0.023 C 
ATOM     25  C1  ZIN A   1      19.550   3.705  16.723  0.00  0.00     0.007 C 
ENDBRANCH  23  24
BRANCH  23  26
ATOM     26  C5  ZIN A   1      17.371   1.382  18.734  0.00  0.00     0.189 C 
BRANCH  26  27
ATOM     27  O6  ZIN A   1      16.510   2.517  18.844  0.00  0.00    -0.399 OA
ATOM     28  H36 ZIN A   1      16.967   3.366  18.768  0.00  0.00     0.209 HD
ENDBRANCH  26  27
ENDBRANCH  23  26
ENDBRANCH  20  23
ENDBRANCH   1  19
TORSDOF 5
ENDMDL
