MODEL 1
REMARK VINA RESULT:      -7.1      0.000      0.000
REMARK  4 active torsions:
REMARK  status: ('A' for Active; 'I' for Inactive)
REMARK    1  A    between atoms: N1_1  and  C2_2 
REMARK    2  A    between atoms: C4_4  and  N5_5 
REMARK    3  A    between atoms: C8_8  and  C9_9 
REMARK    4  A    between atoms: C15_15  and  N16_16 
ROOT
ATOM      1  C2  ZIN A   1      19.053   3.626  12.916  0.00  0.00     0.724 A 
ATOM      2  N3  ZIN A   1      18.380   4.416  12.084  0.00  0.00    -0.043 NA
ATOM      3  C4  ZIN A   1      18.127   4.048  10.837  0.00  0.00     0.173 A 
ATOM      4  C6  ZIN A   1      18.592   2.781  10.398  0.00  0.00     0.152 A 
ATOM      5  N7  ZIN A   1      18.374   2.348   9.159  0.00  0.00    -0.236 NA
ATOM      6  C8  ZIN A   1      18.824   1.162   8.791  0.00  0.00     0.113 A 
ATOM      7  C15 ZIN A   1      19.535   0.352   9.709  0.00  0.00     0.153 A 
ATOM      8  N17 ZIN A   1      19.755   0.774  10.941  0.00  0.00    -0.207 NA
ATOM      9  C18 ZIN A   1      19.303   1.974  11.320  0.00  0.00     0.203 A 
ATOM     10  N19 ZIN A   1      19.511   2.440  12.559  0.00  0.00    -0.041 NA
ENDROOT
BRANCH   6  11
ATOM     11  C9  ZIN A   1      18.584   0.676   7.412  0.00  0.00    -0.004 A 
ATOM     12  C14 ZIN A   1      19.478   0.996   6.392  0.00  0.00     0.014 A 
ATOM     13  C13 ZIN A   1      19.252   0.537   5.111  0.00  0.00     0.001 A 
ATOM     14  C12 ZIN A   1      18.134  -0.231   4.835  0.00  0.00     0.000 A 
ATOM     15  C11 ZIN A   1      17.240  -0.545   5.842  0.00  0.00     0.001 A 
ATOM     16  C10 ZIN A   1      17.458  -0.097   7.129  0.00  0.00     0.014 A 
ENDBRANCH   6  11
BRANCH   7  17
ATOM     17  N16 ZIN A   1      20.003  -0.886   9.314  0.00  0.00    -0.382 N 
ATOM     18  H29 ZIN A   1      20.413  -0.995   8.440  0.00  0.00     0.157 HD
ATOM     19  H30 ZIN A   1      19.920  -1.649   9.908  0.00  0.00     0.157 HD
ENDBRANCH   7  17
BRANCH   3  20
ATOM     20  N5  ZIN A   1      17.429   4.878   9.984  0.00  0.00    -0.381 N 
ATOM     21  H22 ZIN A   1      16.832   5.551  10.344  0.00  0.00     0.157 HD
ATOM     22  H23 ZIN A   1      17.537   4.787   9.024  0.00  0.00     0.157 HD
ENDBRANCH   3  20
BRANCH   1  23
ATOM     23  N1  ZIN A   1      19.284   4.065  14.205  0.00  0.00    -0.231 N 
ATOM     24  H20 ZIN A   1      19.856   4.833  14.360  0.00  0.00     0.174 HD
ATOM     25  H21 ZIN A   1      18.870   3.609  14.954  0.00  0.00     0.174 HD
ENDBRANCH   1  23
TORSDOF 4
ENDMDL
MODEL 2
REMARK VINA RESULT:      -7.0      1.481      1.828
REMARK  4 active torsions:
REMARK  status: ('A' for Active; 'I' for Inactive)
REMARK    1  A    between atoms: N1_1  and  C2_2 
REMARK    2  A    between atoms: C4_4  and  N5_5 
REMARK    3  A    between atoms: C8_8  and  C9_9 
REMARK    4  A    between atoms: C15_15  and  N16_16 
ROOT
ATOM      1  C2  ZIN A   1      19.009   1.946  14.748  0.00  0.00     0.724 A 
ATOM      2  N3  ZIN A   1      18.278   2.908  14.194  0.00  0.00    -0.043 NA
ATOM      3  C4  ZIN A   1      17.992   2.897  12.900  0.00  0.00     0.173 A 
ATOM      4  C6  ZIN A   1      18.485   1.829  12.108  0.00  0.00     0.152 A 
ATOM      5  N7  ZIN A   1      18.236   1.754  10.802  0.00  0.00    -0.236 NA
ATOM      6  C8  ZIN A   1      18.715   0.742  10.101  0.00  0.00     0.113 A 
ATOM      7  C15 ZIN A   1      19.488  -0.260  10.732  0.00  0.00     0.153 A 
ATOM      8  N17 ZIN A   1      19.740  -0.195  12.027  0.00  0.00    -0.207 NA
ATOM      9  C18 ZIN A   1      19.259   0.827  12.744  0.00  0.00     0.203 A 
ATOM     10  N19 ZIN A   1      19.497   0.932  14.057  0.00  0.00    -0.041 NA
ENDROOT
BRANCH   6  11
ATOM     11  C9  ZIN A   1      18.440   0.656   8.648  0.00  0.00    -0.004 A 
ATOM     12  C14 ZIN A   1      19.262   1.322   7.740  0.00  0.00     0.014 A 
ATOM     13  C13 ZIN A   1      19.004   1.235   6.387  0.00  0.00     0.001 A 
ATOM     14  C12 ZIN A   1      17.927   0.497   5.931  0.00  0.00     0.000 A 
ATOM     15  C11 ZIN A   1      17.104  -0.161   6.828  0.00  0.00     0.001 A 
ATOM     16  C10 ZIN A   1      17.355  -0.086   8.183  0.00  0.00     0.014 A 
ENDBRANCH   6  11
BRANCH   7  17
ATOM     17  N16 ZIN A   1      19.986  -1.314   9.989  0.00  0.00    -0.382 N 
ATOM     18  H29 ZIN A   1      20.939  -1.383   9.821  0.00  0.00     0.157 HD
ATOM     19  H30 ZIN A   1      19.381  -1.986   9.633  0.00  0.00     0.157 HD
ENDBRANCH   7  17
BRANCH   3  20
ATOM     20  N5  ZIN A   1      17.233   3.901  12.337  0.00  0.00    -0.381 N 
ATOM     21  H22 ZIN A   1      17.492   4.828  12.454  0.00  0.00     0.157 HD
ATOM     22  H23 ZIN A   1      16.440   3.680  11.824  0.00  0.00     0.157 HD
ENDBRANCH   3  20
BRANCH   1  23
ATOM     23  N1  ZIN A   1      19.274   2.013  16.103  0.00  0.00    -0.231 N 
ATOM     24  H20 ZIN A   1      19.820   2.732  16.455  0.00  0.00     0.174 HD
ATOM     25  H21 ZIN A   1      18.908   1.343  16.702  0.00  0.00     0.174 HD
ENDBRANCH   1  23
TORSDOF 4
ENDMDL
MODEL 3
REMARK VINA RESULT:      -7.0      2.111      3.845
REMARK  4 active torsions:
REMARK  status: ('A' for Active; 'I' for Inactive)
REMARK    1  A    between atoms: N1_1  and  C2_2 
REMARK    2  A    between atoms: C4_4  and  N5_5 
REMARK    3  A    between atoms: C8_8  and  C9_9 
REMARK    4  A    between atoms: C15_15  and  N16_16 
ROOT
ATOM      1  C2  ZIN A   1      18.869   1.754  15.790  0.00  0.00     0.724 A 
ATOM      2  N3  ZIN A   1      19.345   0.562  15.441  0.00  0.00    -0.043 NA
ATOM      3  C4  ZIN A   1      19.355   0.168  14.176  0.00  0.00     0.173 A 
ATOM      4  C6  ZIN A   1      18.843   1.049  13.189  0.00  0.00     0.152 A 
ATOM      5  N7  ZIN A   1      18.822   0.718  11.900  0.00  0.00    -0.236 NA
ATOM      6  C8  ZIN A   1      18.337   1.569  11.013  0.00  0.00     0.113 A 
ATOM      7  C15 ZIN A   1      17.842   2.827  11.429  0.00  0.00     0.153 A 
ATOM      8  N17 ZIN A   1      17.859   3.165  12.706  0.00  0.00    -0.207 NA
ATOM      9  C18 ZIN A   1      18.348   2.309  13.609  0.00  0.00     0.203 A 
ATOM     10  N19 ZIN A   1      18.378   2.611  14.913  0.00  0.00    -0.041 NA
ENDROOT
BRANCH   6  11
ATOM     11  C9  ZIN A   1      18.312   1.204   9.578  0.00  0.00    -0.004 A 
ATOM     12  C14 ZIN A   1      17.423   0.234   9.118  0.00  0.00     0.014 A 
ATOM     13  C13 ZIN A   1      17.400  -0.099   7.779  0.00  0.00     0.001 A 
ATOM     14  C12 ZIN A   1      18.265   0.520   6.895  0.00  0.00     0.000 A 
ATOM     15  C11 ZIN A   1      19.154   1.479   7.346  0.00  0.00     0.001 A 
ATOM     16  C10 ZIN A   1      19.182   1.825   8.682  0.00  0.00     0.014 A 
ENDBRANCH   6  11
BRANCH   7  17
ATOM     17  N16 ZIN A   1      17.335   3.709  10.493  0.00  0.00    -0.382 N 
ATOM     18  H29 ZIN A   1      16.382   3.727  10.308  0.00  0.00     0.157 HD
ATOM     19  H30 ZIN A   1      17.932   4.311  10.019  0.00  0.00     0.157 HD
ENDBRANCH   7  17
BRANCH   3  20
ATOM     20  N5  ZIN A   1      19.850  -1.072  13.827  0.00  0.00    -0.381 N 
ATOM     21  H22 ZIN A   1      20.072  -1.262  12.903  0.00  0.00     0.157 HD
ATOM     22  H23 ZIN A   1      19.975  -1.752  14.507  0.00  0.00     0.157 HD
ENDBRANCH   3  20
BRANCH   1  23
ATOM     23  N1  ZIN A   1      18.887   2.108  17.126  0.00  0.00    -0.231 N 
ATOM     24  H20 ZIN A   1      19.713   2.057  17.630  0.00  0.00     0.174 HD
ATOM     25  H21 ZIN A   1      18.073   2.413  17.556  0.00  0.00     0.174 HD
ENDBRANCH   1  23
TORSDOF 4
ENDMDL
MODEL 4
REMARK VINA RESULT:      -6.8      2.675      3.494
REMARK  4 active torsions:
REMARK  status: ('A' for Active; 'I' for Inactive)
REMARK    1  A    between atoms: N1_1  and  C2_2 
REMARK    2  A    between atoms: C4_4  and  N5_5 
REMARK    3  A    between atoms: C8_8  and  C9_9 
REMARK    4  A    between atoms: C15_15  and  N16_16 
ROOT
ATOM      1  C2  ZIN A   1      19.372  -1.036  13.912  0.00  0.00     0.724 A 
ATOM      2  N3  ZIN A   1      20.094   0.019  13.545  0.00  0.00    -0.043 NA
ATOM      3  C4  ZIN A   1      20.208   0.366  12.271  0.00  0.00     0.173 A 
ATOM      4  C6  ZIN A   1      19.539  -0.417  11.295  0.00  0.00     0.152 A 
ATOM      5  N7  ZIN A   1      19.610  -0.126   9.998  0.00  0.00    -0.236 NA
ATOM      6  C8  ZIN A   1      18.972  -0.881   9.122  0.00  0.00     0.113 A 
ATOM      7  C15 ZIN A   1      18.215  -1.994   9.557  0.00  0.00     0.153 A 
ATOM      8  N17 ZIN A   1      18.138  -2.290  10.842  0.00  0.00    -0.207 NA
ATOM      9  C18 ZIN A   1      18.782  -1.531  11.735  0.00  0.00     0.203 A 
ATOM     10  N19 ZIN A   1      18.733  -1.801  13.045  0.00  0.00    -0.041 NA
ENDROOT
BRANCH   6  11
ATOM     11  C9  ZIN A   1      19.050  -0.561   7.677  0.00  0.00    -0.004 A 
ATOM     12  C14 ZIN A   1      19.334  -1.564   6.753  0.00  0.00     0.014 A 
ATOM     13  C13 ZIN A   1      19.400  -1.261   5.408  0.00  0.00     0.001 A 
ATOM     14  C12 ZIN A   1      19.195   0.038   4.978  0.00  0.00     0.000 A 
ATOM     15  C11 ZIN A   1      18.920   1.039   5.892  0.00  0.00     0.001 A 
ATOM     16  C10 ZIN A   1      18.845   0.747   7.239  0.00  0.00     0.014 A 
ENDBRANCH   6  11
BRANCH   7  17
ATOM     17  N16 ZIN A   1      17.552  -2.778   8.631  0.00  0.00    -0.382 N 
ATOM     18  H29 ZIN A   1      16.811  -3.339   8.912  0.00  0.00     0.157 HD
ATOM     19  H30 ZIN A   1      17.828  -2.769   7.701  0.00  0.00     0.157 HD
ENDBRANCH   7  17
BRANCH   3  20
ATOM     20  N5  ZIN A   1      20.960   1.461  11.903  0.00  0.00    -0.381 N 
ATOM     21  H22 ZIN A   1      21.003   1.730  10.973  0.00  0.00     0.157 HD
ATOM     22  H23 ZIN A   1      21.447   1.963  12.576  0.00  0.00     0.157 HD
ENDBRANCH   3  20
BRANCH   1  23
ATOM     23  N1  ZIN A   1      19.291  -1.347  15.256  0.00  0.00    -0.231 N 
ATOM     24  H20 ZIN A   1      19.907  -1.988  15.643  0.00  0.00     0.174 HD
ATOM     25  H21 ZIN A   1      18.621  -0.920  15.813  0.00  0.00     0.174 HD
ENDBRANCH   1  23
TORSDOF 4
ENDMDL
MODEL 5
REMARK VINA RESULT:      -6.7      4.055      6.294
REMARK  4 active torsions:
REMARK  status: ('A' for Active; 'I' for Inactive)
REMARK    1  A    between atoms: N1_1  and  C2_2 
REMARK    2  A    between atoms: C4_4  and  N5_5 
REMARK    3  A    between atoms: C8_8  and  C9_9 
REMARK    4  A    between atoms: C15_15  and  N16_16 
ROOT
ATOM      1  C2  ZIN A   1      18.923   2.779  18.485  0.00  0.00     0.724 A 
ATOM      2  N3  ZIN A   1      19.290   1.523  18.722  0.00  0.00    -0.043 NA
ATOM      3  C4  ZIN A   1      19.343   0.625  17.749  0.00  0.00     0.173 A 
ATOM      4  C6  ZIN A   1      18.998   1.032  16.435  0.00  0.00     0.152 A 
ATOM      5  N7  ZIN A   1      19.028   0.183  15.410  0.00  0.00    -0.236 NA
ATOM      6  C8  ZIN A   1      18.699   0.603  14.202  0.00  0.00     0.113 A 
ATOM      7  C15 ZIN A   1      18.316   1.949  13.994  0.00  0.00     0.153 A 
ATOM      8  N17 ZIN A   1      18.283   2.799  15.005  0.00  0.00    -0.207 NA
ATOM      9  C18 ZIN A   1      18.614   2.381  16.231  0.00  0.00     0.203 A 
ATOM     10  N19 ZIN A   1      18.588   3.210  17.282  0.00  0.00    -0.041 NA
ENDROOT
BRANCH   6  11
ATOM     11  C9  ZIN A   1      18.732  -0.339  13.059  0.00  0.00    -0.004 A 
ATOM     12  C14 ZIN A   1      17.619  -1.126  12.769  0.00  0.00     0.014 A 
ATOM     13  C13 ZIN A   1      17.653  -1.999  11.701  0.00  0.00     0.001 A 
ATOM     14  C12 ZIN A   1      18.793  -2.100  10.923  0.00  0.00     0.000 A 
ATOM     15  C11 ZIN A   1      19.903  -1.326  11.210  0.00  0.00     0.001 A 
ATOM     16  C10 ZIN A   1      19.879  -0.446  12.272  0.00  0.00     0.014 A 
ENDBRANCH   6  11
BRANCH   7  17
ATOM     17  N16 ZIN A   1      17.972   2.378  12.726  0.00  0.00    -0.382 N 
ATOM     18  H29 ZIN A   1      17.932   1.743  11.993  0.00  0.00     0.157 HD
ATOM     19  H30 ZIN A   1      17.771   3.314  12.567  0.00  0.00     0.157 HD
ENDBRANCH   7  17
BRANCH   3  20
ATOM     20  N5  ZIN A   1      19.724  -0.675  18.009  0.00  0.00    -0.381 N 
ATOM     21  H22 ZIN A   1      19.549  -1.370  17.356  0.00  0.00     0.157 HD
ATOM     22  H23 ZIN A   1      20.166  -0.892  18.844  0.00  0.00     0.157 HD
ENDBRANCH   3  20
BRANCH   1  23
ATOM     23  N1  ZIN A   1      18.888   3.669  19.542  0.00  0.00    -0.231 N 
ATOM     24  H20 ZIN A   1      19.146   4.594  19.405  0.00  0.00     0.174 HD
ATOM     25  H21 ZIN A   1      18.600   3.370  20.418  0.00  0.00     0.174 HD
ENDBRANCH   1  23
TORSDOF 4
ENDMDL
MODEL 6
REMARK VINA RESULT:      -6.7      3.802      7.631
REMARK  4 active torsions:
REMARK  status: ('A' for Active; 'I' for Inactive)
REMARK    1  A    between atoms: N1_1  and  C2_2 
REMARK    2  A    between atoms: C4_4  and  N5_5 
REMARK    3  A    between atoms: C8_8  and  C9_9 
REMARK    4  A    between atoms: C15_15  and  N16_16 
ROOT
ATOM      1  C2  ZIN A   1      19.208  -2.014   8.702  0.00  0.00     0.724 A 
ATOM      2  N3  ZIN A   1      18.477  -2.983   9.245  0.00  0.00    -0.043 NA
ATOM      3  C4  ZIN A   1      18.156  -2.966  10.530  0.00  0.00     0.173 A 
ATOM      4  C6  ZIN A   1      18.610  -1.883  11.326  0.00  0.00     0.152 A 
ATOM      5  N7  ZIN A   1      18.325  -1.802  12.624  0.00  0.00    -0.236 NA
ATOM      6  C8  ZIN A   1      18.768  -0.777  13.329  0.00  0.00     0.113 A 
ATOM      7  C15 ZIN A   1      19.542   0.234  12.710  0.00  0.00     0.153 A 
ATOM      8  N17 ZIN A   1      19.829   0.162  11.423  0.00  0.00    -0.207 NA
ATOM      9  C18 ZIN A   1      19.385  -0.874  10.703  0.00  0.00     0.203 A 
ATOM     10  N19 ZIN A   1      19.660  -0.986   9.397  0.00  0.00    -0.041 NA
ENDROOT
BRANCH   6  11
ATOM     11  C9  ZIN A   1      18.453  -0.683  14.773  0.00  0.00    -0.004 A 
ATOM     12  C14 ZIN A   1      17.369   0.080  15.206  0.00  0.00     0.014 A 
ATOM     13  C13 ZIN A   1      17.078   0.160  16.552  0.00  0.00     0.001 A 
ATOM     14  C12 ZIN A   1      17.865  -0.507  17.474  0.00  0.00     0.000 A 
ATOM     15  C11 ZIN A   1      18.946  -1.261  17.051  0.00  0.00     0.001 A 
ATOM     16  C10 ZIN A   1      19.244  -1.353  15.707  0.00  0.00     0.014 A 
ENDBRANCH   6  11
BRANCH   7  17
ATOM     17  N16 ZIN A   1      20.001   1.302  13.457  0.00  0.00    -0.382 N 
ATOM     18  H29 ZIN A   1      20.828   1.223  13.959  0.00  0.00     0.157 HD
ATOM     19  H30 ZIN A   1      19.496   2.130  13.482  0.00  0.00     0.157 HD
ENDBRANCH   7  17
BRANCH   3  20
ATOM     20  N5  ZIN A   1      17.399  -3.979  11.082  0.00  0.00    -0.381 N 
ATOM     21  H22 ZIN A   1      17.680  -4.901  10.986  0.00  0.00     0.157 HD
ATOM     22  H23 ZIN A   1      16.585  -3.766  11.565  0.00  0.00     0.157 HD
ENDBRANCH   3  20
BRANCH   1  23
ATOM     23  N1  ZIN A   1      19.510  -2.087   7.355  0.00  0.00    -0.231 N 
ATOM     24  H20 ZIN A   1      20.423  -1.959   7.056  0.00  0.00     0.174 HD
ATOM     25  H21 ZIN A   1      18.808  -2.273   6.711  0.00  0.00     0.174 HD
ENDBRANCH   1  23
TORSDOF 4
ENDMDL
MODEL 7
REMARK VINA RESULT:      -6.7      3.124      6.737
REMARK  4 active torsions:
REMARK  status: ('A' for Active; 'I' for Inactive)
REMARK    1  A    between atoms: N1_1  and  C2_2 
REMARK    2  A    between atoms: C4_4  and  N5_5 
REMARK    3  A    between atoms: C8_8  and  C9_9 
REMARK    4  A    between atoms: C15_15  and  N16_16 
ROOT
ATOM      1  C2  ZIN A   1      18.957   0.824   7.886  0.00  0.00     0.724 A 
ATOM      2  N3  ZIN A   1      18.503  -0.412   8.074  0.00  0.00    -0.043 NA
ATOM      3  C4  ZIN A   1      18.307  -0.896   9.292  0.00  0.00     0.173 A 
ATOM      4  C6  ZIN A   1      18.595  -0.064  10.405  0.00  0.00     0.152 A 
ATOM      5  N7  ZIN A   1      18.422  -0.486  11.656  0.00  0.00    -0.236 NA
ATOM      6  C8  ZIN A   1      18.702   0.321  12.663  0.00  0.00     0.113 A 
ATOM      7  C15 ZIN A   1      19.184   1.629  12.417  0.00  0.00     0.153 A 
ATOM      8  N17 ZIN A   1      19.358   2.056  11.179  0.00  0.00    -0.207 NA
ATOM      9  C18 ZIN A   1      19.077   1.245  10.154  0.00  0.00     0.203 A 
ATOM     10  N19 ZIN A   1      19.245   1.638   8.885  0.00  0.00    -0.041 NA
ENDROOT
BRANCH   6  11
ATOM     11  C9  ZIN A   1      18.512  -0.144  14.056  0.00  0.00    -0.004 A 
ATOM     12  C14 ZIN A   1      17.470   0.366  14.829  0.00  0.00     0.014 A 
ATOM     13  C13 ZIN A   1      17.295  -0.075  16.124  0.00  0.00     0.001 A 
ATOM     14  C12 ZIN A   1      18.158  -1.014  16.661  0.00  0.00     0.000 A 
ATOM     15  C11 ZIN A   1      19.198  -1.519  15.902  0.00  0.00     0.001 A 
ATOM     16  C10 ZIN A   1      19.380  -1.090  14.603  0.00  0.00     0.014 A 
ENDBRANCH   6  11
BRANCH   7  17
ATOM     17  N16 ZIN A   1      19.475   2.465  13.479  0.00  0.00    -0.382 N 
ATOM     18  H29 ZIN A   1      18.791   2.671  14.136  0.00  0.00     0.157 HD
ATOM     19  H30 ZIN A   1      20.363   2.847  13.567  0.00  0.00     0.157 HD
ENDBRANCH   7  17
BRANCH   3  20
ATOM     20  N5  ZIN A   1      17.837  -2.180   9.474  0.00  0.00    -0.381 N 
ATOM     21  H22 ZIN A   1      18.048  -2.869   8.826  0.00  0.00     0.157 HD
ATOM     22  H23 ZIN A   1      17.294  -2.391  10.250  0.00  0.00     0.157 HD
ENDBRANCH   3  20
BRANCH   1  23
ATOM     23  N1  ZIN A   1      19.140   1.272   6.592  0.00  0.00    -0.231 N 
ATOM     24  H20 ZIN A   1      19.034   2.214   6.386  0.00  0.00     0.174 HD
ATOM     25  H21 ZIN A   1      19.379   0.645   5.891  0.00  0.00     0.174 HD
ENDBRANCH   1  23
TORSDOF 4
ENDMDL
MODEL 8
REMARK VINA RESULT:      -6.7      3.323      6.757
REMARK  4 active torsions:
REMARK  status: ('A' for Active; 'I' for Inactive)
REMARK    1  A    between atoms: N1_1  and  C2_2 
REMARK    2  A    between atoms: C4_4  and  N5_5 
REMARK    3  A    between atoms: C8_8  and  C9_9 
REMARK    4  A    between atoms: C15_15  and  N16_16 
ROOT
ATOM      1  C2  ZIN A   1      18.818  -2.845   4.612  0.00  0.00     0.724 A 
ATOM      2  N3  ZIN A   1      19.260  -1.628   4.309  0.00  0.00    -0.043 NA
ATOM      3  C4  ZIN A   1      19.358  -0.682   5.231  0.00  0.00     0.173 A 
ATOM      4  C6  ZIN A   1      18.979  -0.993   6.562  0.00  0.00     0.152 A 
ATOM      5  N7  ZIN A   1      19.051  -0.090   7.538  0.00  0.00    -0.236 NA
ATOM      6  C8  ZIN A   1      18.689  -0.422   8.764  0.00  0.00     0.113 A 
ATOM      7  C15 ZIN A   1      18.225  -1.730   9.042  0.00  0.00     0.153 A 
ATOM      8  N17 ZIN A   1      18.150  -2.631   8.080  0.00  0.00    -0.207 NA
ATOM      9  C18 ZIN A   1      18.515  -2.303   6.836  0.00  0.00     0.203 A 
ATOM     10  N19 ZIN A   1      18.449  -3.187   5.833  0.00  0.00    -0.041 NA
ENDROOT
BRANCH   6  11
ATOM     11  C9  ZIN A   1      18.767   0.580   9.853  0.00  0.00    -0.004 A 
ATOM     12  C14 ZIN A   1      17.785   1.561   9.974  0.00  0.00     0.014 A 
ATOM     13  C13 ZIN A   1      17.861   2.488  10.992  0.00  0.00     0.001 A 
ATOM     14  C12 ZIN A   1      18.915   2.452  11.887  0.00  0.00     0.000 A 
ATOM     15  C11 ZIN A   1      19.897   1.485  11.769  0.00  0.00     0.001 A 
ATOM     16  C10 ZIN A   1      19.829   0.548  10.757  0.00  0.00     0.014 A 
ENDBRANCH   6  11
BRANCH   7  17
ATOM     17  N16 ZIN A   1      17.847  -2.065  10.329  0.00  0.00    -0.382 N 
ATOM     18  H29 ZIN A   1      17.898  -2.988  10.625  0.00  0.00     0.157 HD
ATOM     19  H30 ZIN A   1      17.528  -1.378  10.936  0.00  0.00     0.157 HD
ENDBRANCH   7  17
BRANCH   3  20
ATOM     20  N5  ZIN A   1      19.816   0.577   4.903  0.00  0.00    -0.381 N 
ATOM     21  H22 ZIN A   1      19.483   1.023   4.109  0.00  0.00     0.157 HD
ATOM     22  H23 ZIN A   1      20.471   1.016   5.468  0.00  0.00     0.157 HD
ENDBRANCH   3  20
BRANCH   1  23
ATOM     23  N1  ZIN A   1      18.739  -3.790   3.606  0.00  0.00    -0.231 N 
ATOM     24  H20 ZIN A   1      19.001  -3.559   2.702  0.00  0.00     0.174 HD
ATOM     25  H21 ZIN A   1      18.426  -4.687   3.808  0.00  0.00     0.174 HD
ENDBRANCH   1  23
TORSDOF 4
ENDMDL
MODEL 9
REMARK VINA RESULT:      -6.6      4.112      6.931
REMARK  4 active torsions:
REMARK  status: ('A' for Active; 'I' for Inactive)
REMARK    1  A    between atoms: N1_1  and  C2_2 
REMARK    2  A    between atoms: C4_4  and  N5_5 
REMARK    3  A    between atoms: C8_8  and  C9_9 
REMARK    4  A    between atoms: C15_15  and  N16_16 
ROOT
ATOM      1  C2  ZIN A   1      17.757   4.757  10.641  0.00  0.00     0.724 A 
ATOM      2  N3  ZIN A   1      17.037   5.286  11.626  0.00  0.00    -0.043 NA
ATOM      3  C4  ZIN A   1      17.001   4.730  12.828  0.00  0.00     0.173 A 
ATOM      4  C6  ZIN A   1      17.753   3.547  13.048  0.00  0.00     0.152 A 
ATOM      5  N7  ZIN A   1      17.763   2.936  14.231  0.00  0.00    -0.236 NA
ATOM      6  C8  ZIN A   1      18.477   1.837  14.394  0.00  0.00     0.113 A 
ATOM      7  C15 ZIN A   1      19.229   1.309  13.318  0.00  0.00     0.153 A 
ATOM      8  N17 ZIN A   1      19.226   1.909  12.141  0.00  0.00    -0.207 NA
ATOM      9  C18 ZIN A   1      18.505   3.022  11.969  0.00  0.00     0.203 A 
ATOM     10  N19 ZIN A   1      18.471   3.656  10.790  0.00  0.00    -0.041 NA
ENDROOT
BRANCH   6  11
ATOM     11  C9  ZIN A   1      18.490   1.154  15.708  0.00  0.00    -0.004 A 
ATOM     12  C14 ZIN A   1      17.739  -0.004  15.903  0.00  0.00     0.014 A 
ATOM     13  C13 ZIN A   1      17.758  -0.639  17.127  0.00  0.00     0.001 A 
ATOM     14  C12 ZIN A   1      18.513  -0.123  18.165  0.00  0.00     0.000 A 
ATOM     15  C11 ZIN A   1      19.256   1.029  17.980  0.00  0.00     0.001 A 
ATOM     16  C10 ZIN A   1      19.249   1.670  16.758  0.00  0.00     0.014 A 
ENDBRANCH   6  11
BRANCH   7  17
ATOM     17  N16 ZIN A   1      19.972   0.157  13.499  0.00  0.00    -0.382 N 
ATOM     18  H29 ZIN A   1      20.937   0.180  13.396  0.00  0.00     0.157 HD
ATOM     19  H30 ZIN A   1      19.529  -0.676  13.728  0.00  0.00     0.157 HD
ENDBRANCH   7  17
BRANCH   3  20
ATOM     20  N5  ZIN A   1      16.249   5.288  13.841  0.00  0.00    -0.381 N 
ATOM     21  H22 ZIN A   1      16.129   6.249  13.882  0.00  0.00     0.157 HD
ATOM     22  H23 ZIN A   1      15.841   4.717  14.512  0.00  0.00     0.157 HD
ENDBRANCH   3  20
BRANCH   1  23
ATOM     23  N1  ZIN A   1      17.754   5.384   9.409  0.00  0.00    -0.231 N 
ATOM     24  H20 ZIN A   1      16.958   5.362   8.856  0.00  0.00     0.174 HD
ATOM     25  H21 ZIN A   1      18.548   5.849   9.100  0.00  0.00     0.174 HD
ENDBRANCH   1  23
TORSDOF 4
ENDMDL
