MODEL 1
REMARK VINA RESULT:      -9.1      0.000      0.000
REMARK  4 active torsions:
REMARK  status: ('A' for Active; 'I' for Inactive)
REMARK    1  A    between atoms: N1_1  and  S2_2 
REMARK    2  A    between atoms: S2_2  and  C5_5 
REMARK    3  A    between atoms: C7_7  and  C8_8 
REMARK    4  A    between atoms: C8_8  and  O9_9 
ROOT
ATOM      1  C5  ZIN A   1      19.111   0.659  15.664  0.00  0.00     0.101 A 
ATOM      2  C6  ZIN A   1      19.780   0.940  14.487  0.00  0.00     0.039 A 
ATOM      3  C7  ZIN A   1      19.689   0.070  13.417  0.00  0.00     0.003 A 
ATOM      4  C19 ZIN A   1      18.930  -1.081  13.522  0.00  0.00     0.014 A 
ATOM      5  C20 ZIN A   1      18.260  -1.363  14.698  0.00  0.00     0.026 A 
ATOM      6  C21 ZIN A   1      18.355  -0.495  15.771  0.00  0.00     0.057 A 
ATOM      7 Cl22 ZIN A   1      17.515  -0.847  17.249  0.00  0.00    -0.083 Cl
ENDROOT
BRANCH   3   8
ATOM      8  C8  ZIN A   1      20.419   0.375  12.134  0.00  0.00     0.193 A 
ATOM      9  C18 ZIN A   1      19.724   1.494  11.397  0.00  0.00     0.017 A 
ATOM     10  C13 ZIN A   1      19.327   0.967  10.165  0.00  0.00     0.043 A 
ATOM     11  C17 ZIN A   1      19.453   2.804  11.712  0.00  0.00     0.013 A 
ATOM     12  C11 ZIN A   1      19.751  -0.445  10.107  0.00  0.00     0.255 A 
ATOM     13  C14 ZIN A   1      18.652   1.784   9.256  0.00  0.00     0.018 A 
ATOM     14  N10 ZIN A   1      20.382  -0.789  11.242  0.00  0.00    -0.317 N 
ATOM     15  O12 ZIN A   1      19.557  -1.191   9.166  0.00  0.00    -0.268 OA
ATOM     16  H27 ZIN A   1      20.751  -1.663  11.441  0.00  0.00     0.166 HD
ATOM     17  C15 ZIN A   1      18.383   3.098   9.584  0.00  0.00     0.001 A 
ATOM     18  C16 ZIN A   1      18.782   3.608  10.806  0.00  0.00     0.001 A 
BRANCH   8  19
ATOM     19  O9  ZIN A   1      21.773   0.738  12.413  0.00  0.00    -0.363 OA
ATOM     20  H26 ZIN A   1      22.103   1.469  11.873  0.00  0.00     0.213 HD
ENDBRANCH   8  19
ENDBRANCH   3   8
BRANCH   1  21
ATOM     21  S2  ZIN A   1      19.227   1.768  17.028  0.00  0.00     0.258 S 
ATOM     22  O3  ZIN A   1      19.835   2.953  16.532  0.00  0.00    -0.201 OA
ATOM     23  O4  ZIN A   1      19.757   1.016  18.112  0.00  0.00    -0.201 OA
BRANCH  21  24
ATOM     24  N1  ZIN A   1      17.681   2.180  17.457  0.00  0.00    -0.324 N 
ATOM     25  H23 ZIN A   1      16.955   2.063  16.825  0.00  0.00     0.169 HD
ATOM     26  H24 ZIN A   1      17.502   2.537  18.341  0.00  0.00     0.169 HD
ENDBRANCH  21  24
ENDBRANCH   1  21
TORSDOF 4
ENDMDL
MODEL 2
REMARK VINA RESULT:      -8.5      3.823      6.095
REMARK  4 active torsions:
REMARK  status: ('A' for Active; 'I' for Inactive)
REMARK    1  A    between atoms: N1_1  and  S2_2 
REMARK    2  A    between atoms: S2_2  and  C5_5 
REMARK    3  A    between atoms: C7_7  and  C8_8 
REMARK    4  A    between atoms: C8_8  and  O9_9 
ROOT
ATOM      1  C5  ZIN A   1      19.415   0.802  10.517  0.00  0.00     0.101 A 
ATOM      2  C6  ZIN A   1      18.962  -0.062   9.538  0.00  0.00     0.039 A 
ATOM      3  C7  ZIN A   1      18.525   0.437   8.325  0.00  0.00     0.003 A 
ATOM      4  C19 ZIN A   1      18.541   1.798   8.090  0.00  0.00     0.014 A 
ATOM      5  C20 ZIN A   1      18.995   2.664   9.068  0.00  0.00     0.026 A 
ATOM      6  C21 ZIN A   1      19.427   2.166  10.285  0.00  0.00     0.057 A 
ATOM      7 Cl22 ZIN A   1      19.996   3.251  11.515  0.00  0.00    -0.083 Cl
ENDROOT
BRANCH   3   8
ATOM      8  C8  ZIN A   1      18.031  -0.505   7.258  0.00  0.00     0.193 A 
ATOM      9  C18 ZIN A   1      18.475  -1.914   7.563  0.00  0.00     0.017 A 
ATOM     10  C13 ZIN A   1      19.274  -2.317   6.490  0.00  0.00     0.043 A 
ATOM     11  C17 ZIN A   1      18.242  -2.769   8.614  0.00  0.00     0.013 A 
ATOM     12  C11 ZIN A   1      19.344  -1.205   5.522  0.00  0.00     0.255 A 
ATOM     13  C14 ZIN A   1      19.834  -3.596   6.495  0.00  0.00     0.018 A 
ATOM     14  N10 ZIN A   1      18.626  -0.158   5.963  0.00  0.00    -0.317 N 
ATOM     15  O12 ZIN A   1      19.962  -1.233   4.475  0.00  0.00    -0.268 OA
ATOM     16  H27 ZIN A   1      18.520   0.688   5.501  0.00  0.00     0.166 HD
ATOM     17  C15 ZIN A   1      19.595  -4.445   7.556  0.00  0.00     0.001 A 
ATOM     18  C16 ZIN A   1      18.802  -4.036   8.612  0.00  0.00     0.001 A 
BRANCH   8  19
ATOM     19  O9  ZIN A   1      16.604  -0.448   7.174  0.00  0.00    -0.363 OA
ATOM     20  H26 ZIN A   1      16.191  -1.288   6.935  0.00  0.00     0.213 HD
ENDBRANCH   8  19
ENDBRANCH   3   8
BRANCH   1  21
ATOM     21  S2  ZIN A   1      19.972   0.166  12.063  0.00  0.00     0.258 S 
ATOM     22  O3  ZIN A   1      19.903  -1.250  11.963  0.00  0.00    -0.201 OA
ATOM     23  O4  ZIN A   1      19.295   0.908  13.069  0.00  0.00    -0.201 OA
BRANCH  21  24
ATOM     24  N1  ZIN A   1      21.577   0.548  12.201  0.00  0.00    -0.324 N 
ATOM     25  H23 ZIN A   1      22.244  -0.156  12.208  0.00  0.00     0.169 HD
ATOM     26  H24 ZIN A   1      21.850   1.476  12.271  0.00  0.00     0.169 HD
ENDBRANCH  21  24
ENDBRANCH   1  21
TORSDOF 4
ENDMDL
MODEL 3
REMARK VINA RESULT:      -8.3      2.298      2.914
REMARK  4 active torsions:
REMARK  status: ('A' for Active; 'I' for Inactive)
REMARK    1  A    between atoms: N1_1  and  S2_2 
REMARK    2  A    between atoms: S2_2  and  C5_5 
REMARK    3  A    between atoms: C7_7  and  C8_8 
REMARK    4  A    between atoms: C8_8  and  O9_9 
ROOT
ATOM      1  C5  ZIN A   1      18.474   1.509  16.509  0.00  0.00     0.101 A 
ATOM      2  C6  ZIN A   1      18.943   2.476  15.640  0.00  0.00     0.039 A 
ATOM      3  C7  ZIN A   1      18.750   2.334  14.279  0.00  0.00     0.003 A 
ATOM      4  C19 ZIN A   1      18.088   1.226  13.785  0.00  0.00     0.014 A 
ATOM      5  C20 ZIN A   1      17.617   0.258  14.653  0.00  0.00     0.026 A 
ATOM      6  C21 ZIN A   1      17.815   0.397  16.015  0.00  0.00     0.057 A 
ATOM      7 Cl22 ZIN A   1      17.226  -0.818  17.107  0.00  0.00    -0.083 Cl
ENDROOT
BRANCH   3   8
ATOM      8  C8  ZIN A   1      19.262   3.389  13.331  0.00  0.00     0.193 A 
ATOM      9  C18 ZIN A   1      18.105   4.129  12.706  0.00  0.00     0.017 A 
ATOM     10  C13 ZIN A   1      18.200   3.916  11.329  0.00  0.00     0.043 A 
ATOM     11  C17 ZIN A   1      17.088   4.895  13.222  0.00  0.00     0.013 A 
ATOM     12  C11 ZIN A   1      19.379   3.067  11.071  0.00  0.00     0.255 A 
ATOM     13  C14 ZIN A   1      17.251   4.490  10.480  0.00  0.00     0.018 A 
ATOM     14  N10 ZIN A   1      19.994   2.761  12.226  0.00  0.00    -0.317 N 
ATOM     15  O12 ZIN A   1      19.742   2.697   9.971  0.00  0.00    -0.268 OA
ATOM     16  H27 ZIN A   1      20.790   2.215  12.315  0.00  0.00     0.166 HD
ATOM     17  C15 ZIN A   1      16.233   5.256  11.009  0.00  0.00     0.001 A 
ATOM     18  C16 ZIN A   1      16.149   5.460  12.375  0.00  0.00     0.001 A 
BRANCH   8  19
ATOM     19  O9  ZIN A   1      20.111   4.304  14.028  0.00  0.00    -0.363 OA
ATOM     20  H26 ZIN A   1      21.038   4.031  14.061  0.00  0.00     0.213 HD
ENDBRANCH   8  19
ENDBRANCH   3   8
BRANCH   1  21
ATOM     21  S2  ZIN A   1      18.720   1.690  18.244  0.00  0.00     0.258 S 
ATOM     22  O3  ZIN A   1      19.852   0.897  18.574  0.00  0.00    -0.201 OA
ATOM     23  O4  ZIN A   1      17.446   1.517  18.850  0.00  0.00    -0.201 OA
BRANCH  21  24
ATOM     24  N1  ZIN A   1      19.157   3.264  18.516  0.00  0.00    -0.324 N 
ATOM     25  H23 ZIN A   1      19.972   3.464  19.002  0.00  0.00     0.169 HD
ATOM     26  H24 ZIN A   1      18.599   3.986  18.185  0.00  0.00     0.169 HD
ENDBRANCH  21  24
ENDBRANCH   1  21
TORSDOF 4
ENDMDL
MODEL 4
REMARK VINA RESULT:      -8.3      3.677      6.597
REMARK  4 active torsions:
REMARK  status: ('A' for Active; 'I' for Inactive)
REMARK    1  A    between atoms: N1_1  and  S2_2 
REMARK    2  A    between atoms: S2_2  and  C5_5 
REMARK    3  A    between atoms: C7_7  and  C8_8 
REMARK    4  A    between atoms: C8_8  and  O9_9 
ROOT
ATOM      1  C5  ZIN A   1      18.983  -1.057   9.135  0.00  0.00     0.101 A 
ATOM      2  C6  ZIN A   1      19.543  -0.727  10.355  0.00  0.00     0.039 A 
ATOM      3  C7  ZIN A   1      19.598   0.595  10.755  0.00  0.00     0.003 A 
ATOM      4  C19 ZIN A   1      19.094   1.588   9.936  0.00  0.00     0.014 A 
ATOM      5  C20 ZIN A   1      18.533   1.259   8.715  0.00  0.00     0.026 A 
ATOM      6  C21 ZIN A   1      18.482  -0.063   8.312  0.00  0.00     0.057 A 
ATOM      7 Cl22 ZIN A   1      17.778  -0.478   6.780  0.00  0.00    -0.083 Cl
ENDROOT
BRANCH   3   8
ATOM      8  C8  ZIN A   1      20.209   0.955  12.084  0.00  0.00     0.193 A 
ATOM      9  C18 ZIN A   1      19.501   0.221  13.196  0.00  0.00     0.017 A 
ATOM     10  C13 ZIN A   1      18.956   1.201  14.030  0.00  0.00     0.043 A 
ATOM     11  C17 ZIN A   1      19.327  -1.111  13.484  0.00  0.00     0.013 A 
ATOM     12  C11 ZIN A   1      19.302   2.525  13.477  0.00  0.00     0.255 A 
ATOM     13  C14 ZIN A   1      18.234   0.814  15.161  0.00  0.00     0.018 A 
ATOM     14  N10 ZIN A   1      20.026   2.385  12.354  0.00  0.00    -0.317 N 
ATOM     15  O12 ZIN A   1      18.978   3.589  13.968  0.00  0.00    -0.268 OA
ATOM     16  H27 ZIN A   1      20.369   3.111  11.810  0.00  0.00     0.166 HD
ATOM     17  C15 ZIN A   1      18.065  -0.527  15.441  0.00  0.00     0.001 A 
ATOM     18  C16 ZIN A   1      18.609  -1.488  14.607  0.00  0.00     0.001 A 
BRANCH   8  19
ATOM     19  O9  ZIN A   1      21.601   0.628  12.090  0.00  0.00    -0.363 OA
ATOM     20  H26 ZIN A   1      22.112   1.098  12.762  0.00  0.00     0.213 HD
ENDBRANCH   8  19
ENDBRANCH   3   8
BRANCH   1  21
ATOM     21  S2  ZIN A   1      18.911  -2.742   8.626  0.00  0.00     0.258 S 
ATOM     22  O3  ZIN A   1      19.631  -2.823   7.403  0.00  0.00    -0.201 OA
ATOM     23  O4  ZIN A   1      17.554  -3.144   8.758  0.00  0.00    -0.201 OA
BRANCH  21  24
ATOM     24  N1  ZIN A   1      19.770  -3.626   9.733  0.00  0.00    -0.324 N 
ATOM     25  H23 ZIN A   1      20.324  -4.365   9.438  0.00  0.00     0.169 HD
ATOM     26  H24 ZIN A   1      19.722  -3.400  10.675  0.00  0.00     0.169 HD
ENDBRANCH  21  24
ENDBRANCH   1  21
TORSDOF 4
ENDMDL
MODEL 5
REMARK VINA RESULT:      -8.3      4.404      5.775
REMARK  4 active torsions:
REMARK  status: ('A' for Active; 'I' for Inactive)
REMARK    1  A    between atoms: N1_1  and  S2_2 
REMARK    2  A    between atoms: S2_2  and  C5_5 
REMARK    3  A    between atoms: C7_7  and  C8_8 
REMARK    4  A    between atoms: C8_8  and  O9_9 
ROOT
ATOM      1  C5  ZIN A   1      18.257  -3.780  10.246  0.00  0.00     0.101 A 
ATOM      2  C6  ZIN A   1      18.895  -2.625   9.837  0.00  0.00     0.039 A 
ATOM      3  C7  ZIN A   1      19.443  -1.769  10.774  0.00  0.00     0.003 A 
ATOM      4  C19 ZIN A   1      19.353  -2.067  12.120  0.00  0.00     0.014 A 
ATOM      5  C20 ZIN A   1      18.715  -3.223  12.532  0.00  0.00     0.026 A 
ATOM      6  C21 ZIN A   1      18.162  -4.077  11.595  0.00  0.00     0.057 A 
ATOM      7 Cl22 ZIN A   1      17.359  -5.528  12.109  0.00  0.00    -0.083 Cl
ENDROOT
BRANCH   3   8
ATOM      8  C8  ZIN A   1      20.139  -0.509  10.328  0.00  0.00     0.193 A 
ATOM      9  C18 ZIN A   1      19.394   0.702  10.833  0.00  0.00     0.017 A 
ATOM     10  C13 ZIN A   1      18.994   1.419   9.703  0.00  0.00     0.043 A 
ATOM     11  C17 ZIN A   1      19.083   1.159  12.092  0.00  0.00     0.013 A 
ATOM     12  C11 ZIN A   1      19.465   0.696   8.505  0.00  0.00     0.255 A 
ATOM     13  C14 ZIN A   1      18.275   2.605   9.863  0.00  0.00     0.018 A 
ATOM     14  N10 ZIN A   1      20.126  -0.417   8.863  0.00  0.00    -0.317 N 
ATOM     15  O12 ZIN A   1      19.280   1.057   7.359  0.00  0.00    -0.268 OA
ATOM     16  H27 ZIN A   1      20.529  -1.055   8.255  0.00  0.00     0.166 HD
ATOM     17  C15 ZIN A   1      17.967   3.054  11.131  0.00  0.00     0.001 A 
ATOM     18  C16 ZIN A   1      18.369   2.336  12.243  0.00  0.00     0.001 A 
BRANCH   8  19
ATOM     19  O9  ZIN A   1      21.485  -0.494  10.810  0.00  0.00    -0.363 OA
ATOM     20  H26 ZIN A   1      22.151  -0.443  10.112  0.00  0.00     0.213 HD
ENDBRANCH   8  19
ENDBRANCH   3   8
BRANCH   1  21
ATOM     21  S2  ZIN A   1      17.559  -4.871   9.052  0.00  0.00     0.258 S 
ATOM     22  O3  ZIN A   1      16.174  -4.966   9.355  0.00  0.00    -0.201 OA
ATOM     23  O4  ZIN A   1      18.420  -6.000   8.988  0.00  0.00    -0.201 OA
BRANCH  21  24
ATOM     24  N1  ZIN A   1      17.664  -4.119   7.580  0.00  0.00    -0.324 N 
ATOM     25  H23 ZIN A   1      17.986  -3.206   7.524  0.00  0.00     0.169 HD
ATOM     26  H24 ZIN A   1      17.406  -4.593   6.774  0.00  0.00     0.169 HD
ENDBRANCH  21  24
ENDBRANCH   1  21
TORSDOF 4
ENDMDL
MODEL 6
REMARK VINA RESULT:      -8.3      3.364      5.165
REMARK  4 active torsions:
REMARK  status: ('A' for Active; 'I' for Inactive)
REMARK    1  A    between atoms: N1_1  and  S2_2 
REMARK    2  A    between atoms: S2_2  and  C5_5 
REMARK    3  A    between atoms: C7_7  and  C8_8 
REMARK    4  A    between atoms: C8_8  and  O9_9 
ROOT
ATOM      1  C5  ZIN A   1      18.549   3.026  11.471  0.00  0.00     0.101 A 
ATOM      2  C6  ZIN A   1      19.102   1.827  11.880  0.00  0.00     0.039 A 
ATOM      3  C7  ZIN A   1      19.575   0.929  10.941  0.00  0.00     0.003 A 
ATOM      4  C19 ZIN A   1      19.496   1.228   9.594  0.00  0.00     0.014 A 
ATOM      5  C20 ZIN A   1      18.943   2.428   9.184  0.00  0.00     0.026 A 
ATOM      6  C21 ZIN A   1      18.465   3.325  10.122  0.00  0.00     0.057 A 
ATOM      7 Cl22 ZIN A   1      17.770   4.830   9.608  0.00  0.00    -0.083 Cl
ENDROOT
BRANCH   3   8
ATOM      8  C8  ZIN A   1      20.178  -0.378  11.387  0.00  0.00     0.193 A 
ATOM      9  C18 ZIN A   1      19.260  -1.521  11.029  0.00  0.00     0.017 A 
ATOM     10  C13 ZIN A   1      18.909  -2.136  12.233  0.00  0.00     0.043 A 
ATOM     11  C17 ZIN A   1      18.771  -1.999   9.837  0.00  0.00     0.013 A 
ATOM     12  C11 ZIN A   1      19.577  -1.416  13.334  0.00  0.00     0.255 A 
ATOM     13  C14 ZIN A   1      18.056  -3.241  12.215  0.00  0.00     0.018 A 
ATOM     14  N10 ZIN A   1      20.311  -0.401  12.848  0.00  0.00    -0.317 N 
ATOM     15  O12 ZIN A   1      19.478  -1.700  14.512  0.00  0.00    -0.268 OA
ATOM     16  H27 ZIN A   1      20.841   0.217  13.375  0.00  0.00     0.166 HD
ATOM     17  C15 ZIN A   1      17.569  -3.712  11.012  0.00  0.00     0.001 A 
ATOM     18  C16 ZIN A   1      17.925  -3.095   9.826  0.00  0.00     0.001 A 
BRANCH   8  19
ATOM     19  O9  ZIN A   1      21.456  -0.565  10.774  0.00  0.00    -0.363 OA
ATOM     20  H26 ZIN A   1      21.563  -1.424  10.344  0.00  0.00     0.213 HD
ENDBRANCH   8  19
ENDBRANCH   3   8
BRANCH   1  21
ATOM     21  S2  ZIN A   1      17.947   4.171  12.666  0.00  0.00     0.258 S 
ATOM     22  O3  ZIN A   1      16.607   4.470  12.297  0.00  0.00    -0.201 OA
ATOM     23  O4  ZIN A   1      18.953   5.164  12.814  0.00  0.00    -0.201 OA
BRANCH  21  24
ATOM     24  N1  ZIN A   1      17.865   3.371  14.114  0.00  0.00    -0.324 N 
ATOM     25  H23 ZIN A   1      17.743   3.868  14.937  0.00  0.00     0.169 HD
ATOM     26  H24 ZIN A   1      17.935   2.403  14.137  0.00  0.00     0.169 HD
ENDBRANCH  21  24
ENDBRANCH   1  21
TORSDOF 4
ENDMDL
MODEL 7
REMARK VINA RESULT:      -8.2      5.253      7.955
REMARK  4 active torsions:
REMARK  status: ('A' for Active; 'I' for Inactive)
REMARK    1  A    between atoms: N1_1  and  S2_2 
REMARK    2  A    between atoms: S2_2  and  C5_5 
REMARK    3  A    between atoms: C7_7  and  C8_8 
REMARK    4  A    between atoms: C8_8  and  O9_9 
ROOT
ATOM      1  C5  ZIN A   1      18.737  -0.976   6.634  0.00  0.00     0.101 A 
ATOM      2  C6  ZIN A   1      18.678  -0.866   8.010  0.00  0.00     0.039 A 
ATOM      3  C7  ZIN A   1      18.818   0.372   8.611  0.00  0.00     0.003 A 
ATOM      4  C19 ZIN A   1      19.018   1.499   7.836  0.00  0.00     0.014 A 
ATOM      5  C20 ZIN A   1      19.077   1.390   6.459  0.00  0.00     0.026 A 
ATOM      6  C21 ZIN A   1      18.942   0.151   5.858  0.00  0.00     0.057 A 
ATOM      7 Cl22 ZIN A   1      19.017   0.012   4.129  0.00  0.00    -0.083 Cl
ENDROOT
BRANCH   3   8
ATOM      8  C8  ZIN A   1      18.753   0.492  10.112  0.00  0.00     0.193 A 
ATOM      9  C18 ZIN A   1      18.965  -0.859  10.750  0.00  0.00     0.017 A 
ATOM     10  C13 ZIN A   1      17.804  -1.139  11.475  0.00  0.00     0.043 A 
ATOM     11  C17 ZIN A   1      20.006  -1.757  10.731  0.00  0.00     0.013 A 
ATOM     12  C11 ZIN A   1      16.872  -0.007  11.312  0.00  0.00     0.255 A 
ATOM     13  C14 ZIN A   1      17.711  -2.339  12.182  0.00  0.00     0.018 A 
ATOM     14  N10 ZIN A   1      17.418   0.936  10.526  0.00  0.00    -0.317 N 
ATOM     15  O12 ZIN A   1      15.768   0.063  11.817  0.00  0.00    -0.268 OA
ATOM     16  H27 ZIN A   1      16.998   1.773  10.273  0.00  0.00     0.166 HD
ATOM     17  C15 ZIN A   1      18.761  -3.234  12.156  0.00  0.00     0.001 A 
ATOM     18  C16 ZIN A   1      19.906  -2.946  11.435  0.00  0.00     0.001 A 
BRANCH   8  19
ATOM     19  O9  ZIN A   1      19.744   1.413  10.574  0.00  0.00    -0.363 OA
ATOM     20  H26 ZIN A   1      19.457   1.956  11.321  0.00  0.00     0.213 HD
ENDBRANCH   8  19
ENDBRANCH   3   8
BRANCH   1  21
ATOM     21  S2  ZIN A   1      18.558  -2.553   5.868  0.00  0.00     0.258 S 
ATOM     22  O3  ZIN A   1      19.871  -2.998   5.555  0.00  0.00    -0.201 OA
ATOM     23  O4  ZIN A   1      17.531  -2.412   4.896  0.00  0.00    -0.201 OA
BRANCH  21  24
ATOM     24  N1  ZIN A   1      17.974  -3.592   7.018  0.00  0.00    -0.324 N 
ATOM     25  H23 ZIN A   1      17.251  -3.314   7.601  0.00  0.00     0.169 HD
ATOM     26  H24 ZIN A   1      18.354  -4.481   7.105  0.00  0.00     0.169 HD
ENDBRANCH  21  24
ENDBRANCH   1  21
TORSDOF 4
ENDMDL
MODEL 8
REMARK VINA RESULT:      -8.1      4.439      6.956
REMARK  4 active torsions:
REMARK  status: ('A' for Active; 'I' for Inactive)
REMARK    1  A    between atoms: N1_1  and  S2_2 
REMARK    2  A    between atoms: S2_2  and  C5_5 
REMARK    3  A    between atoms: C7_7  and  C8_8 
REMARK    4  A    between atoms: C8_8  and  O9_9 
ROOT
ATOM      1  C5  ZIN A   1      18.664  -4.346   9.549  0.00  0.00     0.101 A 
ATOM      2  C6  ZIN A   1      19.122  -3.109   9.959  0.00  0.00     0.039 A 
ATOM      3  C7  ZIN A   1      18.606  -2.525  11.101  0.00  0.00     0.003 A 
ATOM      4  C19 ZIN A   1      17.633  -3.178  11.833  0.00  0.00     0.014 A 
ATOM      5  C20 ZIN A   1      17.174  -4.417  11.424  0.00  0.00     0.026 A 
ATOM      6  C21 ZIN A   1      17.686  -4.999  10.279  0.00  0.00     0.057 A 
ATOM      7 Cl22 ZIN A   1      17.111  -6.554   9.763  0.00  0.00    -0.083 Cl
ENDROOT
BRANCH   3   8
ATOM      8  C8  ZIN A   1      19.105  -1.175  11.548  0.00  0.00     0.193 A 
ATOM      9  C18 ZIN A   1      18.818  -0.976  13.016  0.00  0.00     0.017 A 
ATOM     10  C13 ZIN A   1      17.982   0.139  13.106  0.00  0.00     0.043 A 
ATOM     11  C17 ZIN A   1      19.207  -1.646  14.151  0.00  0.00     0.013 A 
ATOM     12  C11 ZIN A   1      17.737   0.646  11.742  0.00  0.00     0.255 A 
ATOM     13  C14 ZIN A   1      17.546   0.569  14.361  0.00  0.00     0.018 A 
ATOM     14  N10 ZIN A   1      18.385  -0.111  10.841  0.00  0.00    -0.317 N 
ATOM     15  O12 ZIN A   1      17.047   1.611  11.472  0.00  0.00    -0.268 OA
ATOM     16  H27 ZIN A   1      18.377   0.023   9.880  0.00  0.00     0.166 HD
ATOM     17  C15 ZIN A   1      17.942  -0.112  15.494  0.00  0.00     0.001 A 
ATOM     18  C16 ZIN A   1      18.770  -1.215  15.393  0.00  0.00     0.001 A 
BRANCH   8  19
ATOM     19  O9  ZIN A   1      20.510  -1.065  11.304  0.00  0.00    -0.363 OA
ATOM     20  H26 ZIN A   1      20.800  -0.170  11.084  0.00  0.00     0.213 HD
ENDBRANCH   8  19
ENDBRANCH   3   8
BRANCH   1  21
ATOM     21  S2  ZIN A   1      19.322  -5.091   8.093  0.00  0.00     0.258 S 
ATOM     22  O3  ZIN A   1      18.234  -5.241   7.192  0.00  0.00    -0.201 OA
ATOM     23  O4  ZIN A   1      20.128  -6.178   8.528  0.00  0.00    -0.201 OA
BRANCH  21  24
ATOM     24  N1  ZIN A   1      20.352  -3.992   7.404  0.00  0.00    -0.324 N 
ATOM     25  H23 ZIN A   1      21.197  -3.785   7.831  0.00  0.00     0.169 HD
ATOM     26  H24 ZIN A   1      20.110  -3.558   6.570  0.00  0.00     0.169 HD
ENDBRANCH  21  24
ENDBRANCH   1  21
TORSDOF 4
ENDMDL
MODEL 9
REMARK VINA RESULT:      -8.1      4.677      7.332
REMARK  4 active torsions:
REMARK  status: ('A' for Active; 'I' for Inactive)
REMARK    1  A    between atoms: N1_1  and  S2_2 
REMARK    2  A    between atoms: S2_2  and  C5_5 
REMARK    3  A    between atoms: C7_7  and  C8_8 
REMARK    4  A    between atoms: C8_8  and  O9_9 
ROOT
ATOM      1  C5  ZIN A   1      18.677  -0.963   7.077  0.00  0.00     0.101 A 
ATOM      2  C6  ZIN A   1      18.416  -0.783   8.422  0.00  0.00     0.039 A 
ATOM      3  C7  ZIN A   1      18.445   0.488   8.967  0.00  0.00     0.003 A 
ATOM      4  C19 ZIN A   1      18.735   1.577   8.168  0.00  0.00     0.014 A 
ATOM      5  C20 ZIN A   1      18.995   1.399   6.822  0.00  0.00     0.026 A 
ATOM      6  C21 ZIN A   1      18.971   0.128   6.277  0.00  0.00     0.057 A 
ATOM      7 Cl22 ZIN A   1      19.298  -0.099   4.587  0.00  0.00    -0.083 Cl
ENDROOT
BRANCH   3   8
ATOM      8  C8  ZIN A   1      18.162   0.684  10.434  0.00  0.00     0.193 A 
ATOM      9  C18 ZIN A   1      18.278   2.145  10.794  0.00  0.00     0.017 A 
ATOM     10  C13 ZIN A   1      19.294   2.237  11.747  0.00  0.00     0.043 A 
ATOM     11  C17 ZIN A   1      17.613   3.273  10.376  0.00  0.00     0.013 A 
ATOM     12  C11 ZIN A   1      19.819   0.880  11.997  0.00  0.00     0.255 A 
ATOM     13  C14 ZIN A   1      19.629   3.486  12.273  0.00  0.00     0.018 A 
ATOM     14  N10 ZIN A   1      19.167  -0.018  11.241  0.00  0.00    -0.317 N 
ATOM     15  O12 ZIN A   1      20.714   0.614  12.777  0.00  0.00    -0.268 OA
ATOM     16  H27 ZIN A   1      19.332  -0.973  11.229  0.00  0.00     0.166 HD
ATOM     17  C15 ZIN A   1      18.956   4.613  11.847  0.00  0.00     0.001 A 
ATOM     18  C16 ZIN A   1      17.951   4.509  10.902  0.00  0.00     0.001 A 
BRANCH   8  19
ATOM     19  O9  ZIN A   1      16.853   0.203  10.751  0.00  0.00    -0.363 OA
ATOM     20  H26 ZIN A   1      16.159   0.545  10.171  0.00  0.00     0.213 HD
ENDBRANCH   8  19
ENDBRANCH   3   8
BRANCH   1  21
ATOM     21  S2  ZIN A   1      18.639  -2.582   6.382  0.00  0.00     0.258 S 
ATOM     22  O3  ZIN A   1      19.992  -3.003   6.273  0.00  0.00    -0.201 OA
ATOM     23  O4  ZIN A   1      17.752  -2.522   5.273  0.00  0.00    -0.201 OA
BRANCH  21  24
ATOM     24  N1  ZIN A   1      17.927  -3.578   7.497  0.00  0.00    -0.324 N 
ATOM     25  H23 ZIN A   1      17.486  -3.199   8.273  0.00  0.00     0.169 HD
ATOM     26  H24 ZIN A   1      17.950  -4.539   7.372  0.00  0.00     0.169 HD
ENDBRANCH  21  24
ENDBRANCH   1  21
TORSDOF 4
ENDMDL
