MODEL 1
REMARK VINA RESULT:      -7.8      0.000      0.000
REMARK  5 active torsions:
REMARK  status: ('A' for Active; 'I' for Inactive)
REMARK    1  A    between atoms: N2_2  and  S3_3 
REMARK    2  A    between atoms: S3_3  and  C6_6 
REMARK    3  A    between atoms: C6_6  and  C7_7 
REMARK    4  A    between atoms: C7_7  and  C8_8 
REMARK    5  A    between atoms: C14_14  and  C15_15 
ROOT
ATOM      1  C8  ZIN A   1      19.009   0.116   8.501  0.00  0.00    -0.056 A 
ATOM      2  C9  ZIN A   1      19.090   1.340   7.851  0.00  0.00     0.009 A 
ATOM      3  C10 ZIN A   1      18.940   2.518   8.551  0.00  0.00     0.031 A 
ATOM      4  C11 ZIN A   1      18.705   2.482   9.921  0.00  0.00     0.043 A 
ATOM      5  N12 ZIN A   1      18.516   3.456  10.876  0.00  0.00    -0.365 N 
ATOM      6  C13 ZIN A   1      18.320   2.876  12.100  0.00  0.00     0.096 A 
ATOM      7  C14 ZIN A   1      18.373   1.539  11.986  0.00  0.00    -0.026 A 
ATOM      8  C23 ZIN A   1      18.624   1.239  10.575  0.00  0.00    -0.001 A 
ATOM      9  C24 ZIN A   1      18.774   0.058   9.846  0.00  0.00     0.021 A 
ATOM     10  H35 ZIN A   1      18.521   4.411  10.706  0.00  0.00     0.165 HD
ENDROOT
BRANCH   1  11
ATOM     11  C7  ZIN A   1      19.178  -1.159   7.715  0.00  0.00     0.055 C 
BRANCH  11  12
ATOM     12  C6  ZIN A   1      18.212  -1.157   6.528  0.00  0.00     0.167 C 
BRANCH  12  13
ATOM     13  S3  ZIN A   1      19.085  -1.712   5.038  0.00  0.00     0.226 S 
ATOM     14  O4  ZIN A   1      19.529  -3.053   5.190  0.00  0.00    -0.206 OA
ATOM     15  O5  ZIN A   1      19.963  -0.699   4.567  0.00  0.00    -0.206 OA
BRANCH  13  16
ATOM     16  N2  ZIN A   1      17.906  -1.802   3.878  0.00  0.00    -0.324 N 
ATOM     17  C1  ZIN A   1      16.955  -2.917   3.885  0.00  0.00     0.159 C 
ATOM     18  H28 ZIN A   1      17.845  -1.117   3.194  0.00  0.00     0.171 HD
ENDBRANCH  13  16
ENDBRANCH  12  13
ENDBRANCH  11  12
ENDBRANCH   1  11
BRANCH   7  19
ATOM     19  C15 ZIN A   1      18.206   0.538  13.099  0.00  0.00     0.024 C 
ATOM     20  C22 ZIN A   1      17.758   1.258  14.374  0.00  0.00     0.037 C 
ATOM     21  C21 ZIN A   1      17.669   0.248  15.519  0.00  0.00     0.235 C 
ATOM     22  N18 ZIN A   1      18.983  -0.367  15.740  0.00  0.00    -0.075 N 
ATOM     23  C17 ZIN A   1      19.387  -1.119  14.546  0.00  0.00     0.235 C 
ATOM     24  H19 ZIN A   1      19.663   0.355  15.928  0.00  0.00     0.279 HD
ATOM     25  C20 ZIN A   1      18.909  -1.278  16.890  0.00  0.00     0.269 C 
ATOM     26  C16 ZIN A   1      19.543  -0.162  13.363  0.00  0.00     0.037 C 
ENDBRANCH   7  19
TORSDOF 5
ENDMDL
MODEL 2
REMARK VINA RESULT:      -7.7      2.787      3.644
REMARK  5 active torsions:
REMARK  status: ('A' for Active; 'I' for Inactive)
REMARK    1  A    between atoms: N2_2  and  S3_3 
REMARK    2  A    between atoms: S3_3  and  C6_6 
REMARK    3  A    between atoms: C6_6  and  C7_7 
REMARK    4  A    between atoms: C7_7  and  C8_8 
REMARK    5  A    between atoms: C14_14  and  C15_15 
ROOT
ATOM      1  C8  ZIN A   1      18.707   0.754   8.118  0.00  0.00    -0.056 A 
ATOM      2  C9  ZIN A   1      19.042   2.031   8.544  0.00  0.00     0.009 A 
ATOM      3  C10 ZIN A   1      19.368   2.270   9.862  0.00  0.00     0.031 A 
ATOM      4  C11 ZIN A   1      19.362   1.221  10.775  0.00  0.00     0.043 A 
ATOM      5  N12 ZIN A   1      19.632   1.136  12.122  0.00  0.00    -0.365 N 
ATOM      6  C13 ZIN A   1      19.476  -0.155  12.548  0.00  0.00     0.096 A 
ATOM      7  C14 ZIN A   1      19.108  -0.935  11.519  0.00  0.00    -0.026 A 
ATOM      8  C23 ZIN A   1      19.021  -0.072  10.338  0.00  0.00    -0.001 A 
ATOM      9  C24 ZIN A   1      18.690  -0.290   9.000  0.00  0.00     0.021 A 
ATOM     10  H35 ZIN A   1      19.895   1.881  12.686  0.00  0.00     0.165 HD
ENDROOT
BRANCH   1  11
ATOM     11  C7  ZIN A   1      18.355   0.517   6.671  0.00  0.00     0.055 C 
BRANCH  11  12
ATOM     12  C6  ZIN A   1      18.024  -0.962   6.463  0.00  0.00     0.167 C 
BRANCH  12  13
ATOM     13  S3  ZIN A   1      19.193  -1.681   5.277  0.00  0.00     0.226 S 
ATOM     14  O4  ZIN A   1      19.839  -2.816   5.838  0.00  0.00    -0.206 OA
ATOM     15  O5  ZIN A   1      19.939  -0.660   4.629  0.00  0.00    -0.206 OA
BRANCH  13  16
ATOM     16  N2  ZIN A   1      18.235  -2.307   4.080  0.00  0.00    -0.324 N 
ATOM     17  C1  ZIN A   1      17.762  -3.692   4.169  0.00  0.00     0.159 C 
ATOM     18  H28 ZIN A   1      17.986  -1.758   3.321  0.00  0.00     0.171 HD
ENDBRANCH  13  16
ENDBRANCH  12  13
ENDBRANCH  11  12
ENDBRANCH   1  11
BRANCH   7  19
ATOM     19  C15 ZIN A   1      18.835  -2.415  11.569  0.00  0.00     0.024 C 
ATOM     20  C22 ZIN A   1      19.600  -3.116  10.443  0.00  0.00     0.037 C 
ATOM     21  C21 ZIN A   1      19.255  -4.607  10.451  0.00  0.00     0.235 C 
ATOM     22  N18 ZIN A   1      17.811  -4.781  10.246  0.00  0.00    -0.075 N 
ATOM     23  C17 ZIN A   1      17.074  -4.172  11.360  0.00  0.00     0.235 C 
ATOM     24  H19 ZIN A   1      17.540  -4.337   9.382  0.00  0.00     0.279 HD
ATOM     25  C20 ZIN A   1      17.498  -6.214  10.178  0.00  0.00     0.269 C 
ATOM     26  C16 ZIN A   1      17.335  -2.665  11.387  0.00  0.00     0.037 C 
ENDBRANCH   7  19
TORSDOF 5
ENDMDL
MODEL 3
REMARK VINA RESULT:      -7.7      2.757      3.771
REMARK  5 active torsions:
REMARK  status: ('A' for Active; 'I' for Inactive)
REMARK    1  A    between atoms: N2_2  and  S3_3 
REMARK    2  A    between atoms: S3_3  and  C6_6 
REMARK    3  A    between atoms: C6_6  and  C7_7 
REMARK    4  A    between atoms: C7_7  and  C8_8 
REMARK    5  A    between atoms: C14_14  and  C15_15 
ROOT
ATOM      1  C8  ZIN A   1      18.548   2.973  10.074  0.00  0.00    -0.056 A 
ATOM      2  C9  ZIN A   1      17.907   4.138   9.678  0.00  0.00     0.009 A 
ATOM      3  C10 ZIN A   1      17.383   5.004  10.613  0.00  0.00     0.031 A 
ATOM      4  C11 ZIN A   1      17.498   4.710  11.967  0.00  0.00     0.043 A 
ATOM      5  N12 ZIN A   1      17.091   5.354  13.114  0.00  0.00    -0.365 N 
ATOM      6  C13 ZIN A   1      17.460   4.626  14.212  0.00  0.00     0.096 A 
ATOM      7  C14 ZIN A   1      18.102   3.511  13.827  0.00  0.00    -0.026 A 
ATOM      8  C23 ZIN A   1      18.148   3.528  12.364  0.00  0.00    -0.001 A 
ATOM      9  C24 ZIN A   1      18.667   2.662  11.399  0.00  0.00     0.021 A 
ATOM     10  H35 ZIN A   1      16.614   6.199  13.140  0.00  0.00     0.165 HD
ENDROOT
BRANCH   1  11
ATOM     11  C7  ZIN A   1      19.114   2.040   9.033  0.00  0.00     0.055 C 
BRANCH  11  12
ATOM     12  C6  ZIN A   1      18.171   0.850   8.848  0.00  0.00     0.167 C 
BRANCH  12  13
ATOM     13  S3  ZIN A   1      19.129  -0.689   8.870  0.00  0.00     0.226 S 
ATOM     14  O4  ZIN A   1      19.503  -1.063   7.551  0.00  0.00    -0.206 OA
ATOM     15  O5  ZIN A   1      18.543  -1.630   9.760  0.00  0.00    -0.206 OA
BRANCH  13  16
ATOM     16  N2  ZIN A   1      20.558  -0.276   9.598  0.00  0.00    -0.324 N 
ATOM     17  C1  ZIN A   1      20.751  -0.523  11.029  0.00  0.00     0.159 C 
ATOM     18  H28 ZIN A   1      21.268   0.130   9.076  0.00  0.00     0.171 HD
ENDBRANCH  13  16
ENDBRANCH  12  13
ENDBRANCH  11  12
ENDBRANCH   1  11
BRANCH   7  19
ATOM     19  C15 ZIN A   1      18.667   2.446  14.730  0.00  0.00     0.024 C 
ATOM     20  C22 ZIN A   1      17.750   1.220  14.713  0.00  0.00     0.037 C 
ATOM     21  C21 ZIN A   1      18.287   0.175  15.693  0.00  0.00     0.235 C 
ATOM     22  N18 ZIN A   1      18.326   0.740  17.047  0.00  0.00    -0.075 N 
ATOM     23  C17 ZIN A   1      19.259   1.872  17.087  0.00  0.00     0.235 C 
ATOM     24  H19 ZIN A   1      17.403   1.057  17.304  0.00  0.00     0.279 HD
ATOM     25  C20 ZIN A   1      18.769  -0.292  17.994  0.00  0.00     0.269 C 
ATOM     26  C16 ZIN A   1      18.760   2.983  16.161  0.00  0.00     0.037 C 
ENDBRANCH   7  19
TORSDOF 5
ENDMDL
MODEL 4
REMARK VINA RESULT:      -7.6      5.548      8.978
REMARK  5 active torsions:
REMARK  status: ('A' for Active; 'I' for Inactive)
REMARK    1  A    between atoms: N2_2  and  S3_3 
REMARK    2  A    between atoms: S3_3  and  C6_6 
REMARK    3  A    between atoms: C6_6  and  C7_7 
REMARK    4  A    between atoms: C7_7  and  C8_8 
REMARK    5  A    between atoms: C14_14  and  C15_15 
ROOT
ATOM      1  C8  ZIN A   1      18.472   2.933  14.334  0.00  0.00    -0.056 A 
ATOM      2  C9  ZIN A   1      18.011   4.219  14.575  0.00  0.00     0.009 A 
ATOM      3  C10 ZIN A   1      17.656   5.045  13.530  0.00  0.00     0.031 A 
ATOM      4  C11 ZIN A   1      17.759   4.587  12.221  0.00  0.00     0.043 A 
ATOM      5  N12 ZIN A   1      17.491   5.152  10.995  0.00  0.00    -0.365 N 
ATOM      6  C13 ZIN A   1      17.772   4.257   9.998  0.00  0.00     0.096 A 
ATOM      7  C14 ZIN A   1      18.220   3.108  10.528  0.00  0.00    -0.026 A 
ATOM      8  C23 ZIN A   1      18.228   3.282  11.982  0.00  0.00    -0.001 A 
ATOM      9  C24 ZIN A   1      18.587   2.464  13.055  0.00  0.00     0.021 A 
ATOM     10  H35 ZIN A   1      17.154   6.052  10.858  0.00  0.00     0.165 HD
ENDROOT
BRANCH   1  11
ATOM     11  C7  ZIN A   1      18.854   2.047  15.493  0.00  0.00     0.055 C 
BRANCH  11  12
ATOM     12  C6  ZIN A   1      19.306   2.914  16.669  0.00  0.00     0.167 C 
BRANCH  12  13
ATOM     13  S3  ZIN A   1      18.887   2.084  18.227  0.00  0.00     0.226 S 
ATOM     14  O4  ZIN A   1      19.943   1.224  18.633  0.00  0.00    -0.206 OA
ATOM     15  O5  ZIN A   1      17.540   1.632  18.206  0.00  0.00    -0.206 OA
BRANCH  13  16
ATOM     16  N2  ZIN A   1      18.893   3.297  19.355  0.00  0.00    -0.324 N 
ATOM     17  C1  ZIN A   1      17.742   4.197  19.469  0.00  0.00     0.159 C 
ATOM     18  H28 ZIN A   1      19.657   3.411  19.941  0.00  0.00     0.171 HD
ENDBRANCH  13  16
ENDBRANCH  12  13
ENDBRANCH  11  12
ENDBRANCH   1  11
BRANCH   7  19
ATOM     19  C15 ZIN A   1      18.637   1.875   9.771  0.00  0.00     0.024 C 
ATOM     20  C22 ZIN A   1      18.890   2.235   8.304  0.00  0.00     0.037 C 
ATOM     21  C21 ZIN A   1      19.235   0.964   7.525  0.00  0.00     0.235 C 
ATOM     22  N18 ZIN A   1      18.119   0.014   7.612  0.00  0.00    -0.075 N 
ATOM     23  C17 ZIN A   1      17.917  -0.391   9.008  0.00  0.00     0.235 C 
ATOM     24  H19 ZIN A   1      17.279   0.452   7.264  0.00  0.00     0.279 HD
ATOM     25  C20 ZIN A   1      18.424  -1.171   6.799  0.00  0.00     0.269 C 
ATOM     26  C16 ZIN A   1      17.522   0.827   9.844  0.00  0.00     0.037 C 
ENDBRANCH   7  19
TORSDOF 5
ENDMDL
MODEL 5
REMARK VINA RESULT:      -7.5      3.999      7.861
REMARK  5 active torsions:
REMARK  status: ('A' for Active; 'I' for Inactive)
REMARK    1  A    between atoms: N2_2  and  S3_3 
REMARK    2  A    between atoms: S3_3  and  C6_6 
REMARK    3  A    between atoms: C6_6  and  C7_7 
REMARK    4  A    between atoms: C7_7  and  C8_8 
REMARK    5  A    between atoms: C14_14  and  C15_15 
ROOT
ATOM      1  C8  ZIN A   1      17.971   0.377   9.186  0.00  0.00    -0.056 A 
ATOM      2  C9  ZIN A   1      18.633   1.578   8.975  0.00  0.00     0.009 A 
ATOM      3  C10 ZIN A   1      19.181   1.873   7.745  0.00  0.00     0.031 A 
ATOM      4  C11 ZIN A   1      19.069   0.958   6.703  0.00  0.00     0.043 A 
ATOM      5  N12 ZIN A   1      19.496   0.957   5.394  0.00  0.00    -0.365 N 
ATOM      6  C13 ZIN A   1      19.120  -0.209   4.783  0.00  0.00     0.096 A 
ATOM      7  C14 ZIN A   1      18.453  -0.986   5.652  0.00  0.00    -0.026 A 
ATOM      8  C23 ZIN A   1      18.398  -0.258   6.922  0.00  0.00    -0.001 A 
ATOM      9  C24 ZIN A   1      17.855  -0.538   8.177  0.00  0.00     0.021 A 
ATOM     10  H35 ZIN A   1      19.990   1.675   4.968  0.00  0.00     0.165 HD
ENDROOT
BRANCH   1  11
ATOM     11  C7  ZIN A   1      17.380   0.077  10.540  0.00  0.00     0.055 C 
BRANCH  11  12
ATOM     12  C6  ZIN A   1      17.761  -1.344  10.959  0.00  0.00     0.167 C 
BRANCH  12  13
ATOM     13  S3  ZIN A   1      19.220  -1.287  12.034  0.00  0.00     0.226 S 
ATOM     14  O4  ZIN A   1      18.941  -1.895  13.288  0.00  0.00    -0.206 OA
ATOM     15  O5  ZIN A   1      19.845  -0.013  11.961  0.00  0.00    -0.206 OA
BRANCH  13  16
ATOM     16  N2  ZIN A   1      20.303  -2.314  11.315  0.00  0.00    -0.324 N 
ATOM     17  C1  ZIN A   1      20.146  -3.763  11.461  0.00  0.00     0.159 C 
ATOM     18  H28 ZIN A   1      21.041  -1.955  10.798  0.00  0.00     0.171 HD
ENDBRANCH  13  16
ENDBRANCH  12  13
ENDBRANCH  11  12
ENDBRANCH   1  11
BRANCH   7  19
ATOM     19  C15 ZIN A   1      17.872  -2.347   5.373  0.00  0.00     0.024 C 
ATOM     20  C22 ZIN A   1      18.957  -3.413   5.550  0.00  0.00     0.037 C 
ATOM     21  C21 ZIN A   1      18.382  -4.784   5.187  0.00  0.00     0.235 C 
ATOM     22  N18 ZIN A   1      17.926  -4.775   3.792  0.00  0.00    -0.075 N 
ATOM     23  C17 ZIN A   1      16.836  -3.805   3.631  0.00  0.00     0.235 C 
ATOM     24  H19 ZIN A   1      18.694  -4.518   3.190  0.00  0.00     0.279 HD
ATOM     25  C20 ZIN A   1      17.446  -6.114   3.427  0.00  0.00     0.269 C 
ATOM     26  C16 ZIN A   1      17.351  -2.397   3.933  0.00  0.00     0.037 C 
ENDBRANCH   7  19
TORSDOF 5
ENDMDL
MODEL 6
REMARK VINA RESULT:      -7.4      5.491      8.611
REMARK  5 active torsions:
REMARK  status: ('A' for Active; 'I' for Inactive)
REMARK    1  A    between atoms: N2_2  and  S3_3 
REMARK    2  A    between atoms: S3_3  and  C6_6 
REMARK    3  A    between atoms: C6_6  and  C7_7 
REMARK    4  A    between atoms: C7_7  and  C8_8 
REMARK    5  A    between atoms: C14_14  and  C15_15 
ROOT
ATOM      1  C8  ZIN A   1      18.947   2.822  17.187  0.00  0.00    -0.056 A 
ATOM      2  C9  ZIN A   1      19.032   2.143  18.394  0.00  0.00     0.009 A 
ATOM      3  C10 ZIN A   1      19.080   0.766  18.425  0.00  0.00     0.031 A 
ATOM      4  C11 ZIN A   1      19.043   0.048  17.235  0.00  0.00     0.043 A 
ATOM      5  N12 ZIN A   1      19.073  -1.297  16.938  0.00  0.00    -0.365 N 
ATOM      6  C13 ZIN A   1      19.009  -1.476  15.583  0.00  0.00     0.096 A 
ATOM      7  C14 ZIN A   1      18.937  -0.285  14.967  0.00  0.00    -0.026 A 
ATOM      8  C23 ZIN A   1      18.956   0.740  16.013  0.00  0.00    -0.001 A 
ATOM      9  C24 ZIN A   1      18.903   2.135  16.006  0.00  0.00     0.021 A 
ATOM     10  H35 ZIN A   1      19.131  -2.011  17.593  0.00  0.00     0.165 HD
ENDROOT
BRANCH   1  11
ATOM     11  C7  ZIN A   1      18.896   4.328  17.178  0.00  0.00     0.055 C 
BRANCH  11  12
ATOM     12  C6  ZIN A   1      18.511   4.817  15.781  0.00  0.00     0.167 C 
BRANCH  12  13
ATOM     13  S3  ZIN A   1      19.855   5.829  15.103  0.00  0.00     0.226 S 
ATOM     14  O4  ZIN A   1      21.048   5.640  15.852  0.00  0.00    -0.206 OA
ATOM     15  O5  ZIN A   1      19.389   7.133  14.786  0.00  0.00    -0.206 OA
BRANCH  13  16
ATOM     16  N2  ZIN A   1      20.186   5.144  13.631  0.00  0.00    -0.324 N 
ATOM     17  C1  ZIN A   1      19.171   4.331  12.957  0.00  0.00     0.159 C 
ATOM     18  H28 ZIN A   1      21.051   5.282  13.216  0.00  0.00     0.171 HD
ENDBRANCH  13  16
ENDBRANCH  12  13
ENDBRANCH  11  12
ENDBRANCH   1  11
BRANCH   7  19
ATOM     19  C15 ZIN A   1      18.851  -0.048  13.482  0.00  0.00     0.024 C 
ATOM     20  C22 ZIN A   1      18.510  -1.361  12.773  0.00  0.00     0.037 C 
ATOM     21  C21 ZIN A   1      18.504  -1.130  11.260  0.00  0.00     0.235 C 
ATOM     22  N18 ZIN A   1      19.827  -0.668  10.826  0.00  0.00    -0.075 N 
ATOM     23  C17 ZIN A   1      20.131   0.626  11.447  0.00  0.00     0.235 C 
ATOM     24  H19 ZIN A   1      20.525  -1.344  11.100  0.00  0.00     0.279 HD
ATOM     25  C20 ZIN A   1      19.837  -0.522   9.364  0.00  0.00     0.269 C 
ATOM     26  C16 ZIN A   1      20.200   0.464  12.967  0.00  0.00     0.037 C 
ENDBRANCH   7  19
TORSDOF 5
ENDMDL
MODEL 7
REMARK VINA RESULT:      -7.3      2.812      3.412
REMARK  5 active torsions:
REMARK  status: ('A' for Active; 'I' for Inactive)
REMARK    1  A    between atoms: N2_2  and  S3_3 
REMARK    2  A    between atoms: S3_3  and  C6_6 
REMARK    3  A    between atoms: C6_6  and  C7_7 
REMARK    4  A    between atoms: C7_7  and  C8_8 
REMARK    5  A    between atoms: C14_14  and  C15_15 
ROOT
ATOM      1  C8  ZIN A   1      19.404   0.836   9.854  0.00  0.00    -0.056 A 
ATOM      2  C9  ZIN A   1      19.055   1.877   9.006  0.00  0.00     0.009 A 
ATOM      3  C10 ZIN A   1      18.590   3.072   9.513  0.00  0.00     0.031 A 
ATOM      4  C11 ZIN A   1      18.469   3.237  10.888  0.00  0.00     0.043 A 
ATOM      5  N12 ZIN A   1      18.047   4.279  11.684  0.00  0.00    -0.365 N 
ATOM      6  C13 ZIN A   1      18.123   3.918  13.002  0.00  0.00     0.096 A 
ATOM      7  C14 ZIN A   1      18.585   2.661  13.106  0.00  0.00    -0.026 A 
ATOM      8  C23 ZIN A   1      18.823   2.178  11.744  0.00  0.00    -0.001 A 
ATOM      9  C24 ZIN A   1      19.287   0.976  11.209  0.00  0.00     0.021 A 
ATOM     10  H35 ZIN A   1      17.742   5.140  11.359  0.00  0.00     0.165 HD
ENDROOT
BRANCH   1  11
ATOM     11  C7  ZIN A   1      19.911  -0.460   9.276  0.00  0.00     0.055 C 
BRANCH  11  12
ATOM     12  C6  ZIN A   1      18.764  -1.187   8.571  0.00  0.00     0.167 C 
BRANCH  12  13
ATOM     13  S3  ZIN A   1      18.251  -2.614   9.567  0.00  0.00     0.226 S 
ATOM     14  O4  ZIN A   1      17.658  -3.609   8.744  0.00  0.00    -0.206 OA
ATOM     15  O5  ZIN A   1      17.621  -2.185  10.767  0.00  0.00    -0.206 OA
BRANCH  13  16
ATOM     16  N2  ZIN A   1      19.672  -3.297  10.073  0.00  0.00    -0.324 N 
ATOM     17  C1  ZIN A   1      19.917  -3.503  11.503  0.00  0.00     0.159 C 
ATOM     18  H28 ZIN A   1      20.342  -3.561   9.423  0.00  0.00     0.171 HD
ENDBRANCH  13  16
ENDBRANCH  12  13
ENDBRANCH  11  12
ENDBRANCH   1  11
BRANCH   7  19
ATOM     19  C15 ZIN A   1      18.814   1.894  14.382  0.00  0.00     0.024 C 
ATOM     20  C22 ZIN A   1      17.624   0.966  14.642  0.00  0.00     0.037 C 
ATOM     21  C21 ZIN A   1      17.825   0.250  15.979  0.00  0.00     0.235 C 
ATOM     22  N18 ZIN A   1      17.921   1.239  17.060  0.00  0.00    -0.075 N 
ATOM     23  C17 ZIN A   1      19.101   2.087  16.855  0.00  0.00     0.235 C 
ATOM     24  H19 ZIN A   1      17.091   1.813  17.062  0.00  0.00     0.279 HD
ATOM     25  C20 ZIN A   1      18.037   0.544  18.348  0.00  0.00     0.269 C 
ATOM     26  C16 ZIN A   1      18.949   2.874  15.551  0.00  0.00     0.037 C 
ENDBRANCH   7  19
TORSDOF 5
ENDMDL
MODEL 8
REMARK VINA RESULT:      -7.2      2.804      4.174
REMARK  5 active torsions:
REMARK  status: ('A' for Active; 'I' for Inactive)
REMARK    1  A    between atoms: N2_2  and  S3_3 
REMARK    2  A    between atoms: S3_3  and  C6_6 
REMARK    3  A    between atoms: C6_6  and  C7_7 
REMARK    4  A    between atoms: C7_7  and  C8_8 
REMARK    5  A    between atoms: C14_14  and  C15_15 
ROOT
ATOM      1  C8  ZIN A   1      18.584   1.953  10.411  0.00  0.00    -0.056 A 
ATOM      2  C9  ZIN A   1      18.337   3.021  11.262  0.00  0.00     0.009 A 
ATOM      3  C10 ZIN A   1      18.067   2.808  12.597  0.00  0.00     0.031 A 
ATOM      4  C11 ZIN A   1      18.043   1.511  13.098  0.00  0.00     0.043 A 
ATOM      5  N12 ZIN A   1      17.810   0.982  14.348  0.00  0.00    -0.365 N 
ATOM      6  C13 ZIN A   1      17.906  -0.383  14.301  0.00  0.00     0.096 A 
ATOM      7  C14 ZIN A   1      18.196  -0.778  13.050  0.00  0.00    -0.026 A 
ATOM      8  C23 ZIN A   1      18.293   0.432  12.231  0.00  0.00    -0.001 A 
ATOM      9  C24 ZIN A   1      18.559   0.670  10.882  0.00  0.00     0.021 A 
ATOM     10  H35 ZIN A   1      17.609   1.499  15.143  0.00  0.00     0.165 HD
ENDROOT
BRANCH   1  11
ATOM     11  C7  ZIN A   1      18.877   2.211   8.955  0.00  0.00     0.055 C 
BRANCH  11  12
ATOM     12  C6  ZIN A   1      19.604   1.003   8.360  0.00  0.00     0.167 C 
BRANCH  12  13
ATOM     13  S3  ZIN A   1      18.551   0.221   7.108  0.00  0.00     0.226 S 
ATOM     14  O4  ZIN A   1      18.668   0.898   5.864  0.00  0.00    -0.206 OA
ATOM     15  O5  ZIN A   1      17.277  -0.095   7.653  0.00  0.00    -0.206 OA
BRANCH  13  16
ATOM     16  N2  ZIN A   1      19.256  -1.253   6.837  0.00  0.00    -0.324 N 
ATOM     17  C1  ZIN A   1      18.540  -2.483   7.186  0.00  0.00     0.159 C 
ATOM     18  H28 ZIN A   1      20.143  -1.302   6.449  0.00  0.00     0.171 HD
ENDBRANCH  13  16
ENDBRANCH  12  13
ENDBRANCH  11  12
ENDBRANCH   1  11
BRANCH   7  19
ATOM     19  C15 ZIN A   1      18.384  -2.197  12.580  0.00  0.00     0.024 C 
ATOM     20  C22 ZIN A   1      19.803  -2.372  12.034  0.00  0.00     0.037 C 
ATOM     21  C21 ZIN A   1      19.960  -3.792  11.486  0.00  0.00     0.235 C 
ATOM     22  N18 ZIN A   1      18.989  -4.016  10.408  0.00  0.00    -0.075 N 
ATOM     23  C17 ZIN A   1      17.625  -3.919  10.940  0.00  0.00     0.235 C 
ATOM     24  H19 ZIN A   1      19.119  -3.319   9.690  0.00  0.00     0.279 HD
ATOM     25  C20 ZIN A   1      19.197  -5.352   9.834  0.00  0.00     0.269 C 
ATOM     26  C16 ZIN A   1      17.377  -2.505  11.468  0.00  0.00     0.037 C 
ENDBRANCH   7  19
TORSDOF 5
ENDMDL
MODEL 9
REMARK VINA RESULT:      -7.2      5.481      9.144
REMARK  5 active torsions:
REMARK  status: ('A' for Active; 'I' for Inactive)
REMARK    1  A    between atoms: N2_2  and  S3_3 
REMARK    2  A    between atoms: S3_3  and  C6_6 
REMARK    3  A    between atoms: C6_6  and  C7_7 
REMARK    4  A    between atoms: C7_7  and  C8_8 
REMARK    5  A    between atoms: C14_14  and  C15_15 
ROOT
ATOM      1  C8  ZIN A   1      18.505   0.639  14.720  0.00  0.00    -0.056 A 
ATOM      2  C9  ZIN A   1      18.945  -0.451  15.457  0.00  0.00     0.009 A 
ATOM      3  C10 ZIN A   1      19.309  -1.624  14.830  0.00  0.00     0.031 A 
ATOM      4  C11 ZIN A   1      19.235  -1.717  13.445  0.00  0.00     0.043 A 
ATOM      5  N12 ZIN A   1      19.518  -2.721  12.546  0.00  0.00    -0.365 N 
ATOM      6  C13 ZIN A   1      19.268  -2.289  11.272  0.00  0.00     0.096 A 
ATOM      7  C14 ZIN A   1      18.825  -1.022  11.297  0.00  0.00    -0.026 A 
ATOM      8  C23 ZIN A   1      18.788  -0.609  12.701  0.00  0.00    -0.001 A 
ATOM      9  C24 ZIN A   1      18.420   0.566  13.358  0.00  0.00     0.021 A 
ATOM     10  H35 ZIN A   1      19.847  -3.603  12.781  0.00  0.00     0.165 HD
ENDROOT
BRANCH   1  11
ATOM     11  C7  ZIN A   1      18.113   1.910  15.428  0.00  0.00     0.055 C 
BRANCH  11  12
ATOM     12  C6  ZIN A   1      19.254   2.356  16.344  0.00  0.00     0.167 C 
BRANCH  12  13
ATOM     13  S3  ZIN A   1      18.890   1.858  18.049  0.00  0.00     0.226 S 
ATOM     14  O4  ZIN A   1      19.981   1.132  18.601  0.00  0.00    -0.206 OA
ATOM     15  O5  ZIN A   1      17.559   1.371  18.154  0.00  0.00    -0.206 OA
BRANCH  13  16
ATOM     16  N2  ZIN A   1      18.874   3.278  18.901  0.00  0.00    -0.324 N 
ATOM     17  C1  ZIN A   1      17.753   4.210  18.750  0.00  0.00     0.159 C 
ATOM     18  H28 ZIN A   1      19.606   3.493  19.499  0.00  0.00     0.171 HD
ENDBRANCH  13  16
ENDBRANCH  12  13
ENDBRANCH  11  12
ENDBRANCH   1  11
BRANCH   7  19
ATOM     19  C15 ZIN A   1      18.438  -0.185  10.106  0.00  0.00     0.024 C 
ATOM     20  C22 ZIN A   1      18.025  -1.098   8.949  0.00  0.00     0.037 C 
ATOM     21  C21 ZIN A   1      17.711  -0.244   7.719  0.00  0.00     0.235 C 
ATOM     22  N18 ZIN A   1      18.900   0.526   7.335  0.00  0.00    -0.075 N 
ATOM     23  C17 ZIN A   1      19.260   1.455   8.412  0.00  0.00     0.235 C 
ATOM     24  H19 ZIN A   1      19.668  -0.107   7.168  0.00  0.00     0.279 HD
ATOM     25  C20 ZIN A   1      18.616   1.284   6.110  0.00  0.00     0.269 C 
ATOM     26  C16 ZIN A   1      19.634   0.667   9.669  0.00  0.00     0.037 C 
ENDBRANCH   7  19
TORSDOF 5
ENDMDL
