MODEL 1
REMARK VINA RESULT:      -9.3      0.000      0.000
REMARK  2 active torsions:
REMARK  status: ('A' for Active; 'I' for Inactive)
REMARK    1  A    between atoms: C2_2  and  O3_3 
REMARK    2  A    between atoms: O3_3  and  C4_4 
REMARK       I    between atoms: C4_4  and  N6_6 
ROOT
ATOM      1  C4  <0> d   1      19.283   0.451  17.913  0.00  0.00     0.362 C 
ATOM      2  O5  <0> d   1      19.437  -0.520  18.627  0.00  0.00    -0.238 OA
ATOM      3  N6  <0> d   1      18.887   0.291  16.634  0.00  0.00    -0.327 N 
ATOM      4  C7  <0> d   1      18.704   1.458  15.762  0.00  0.00     0.132 C 
ATOM      5  C8  <0> d   1      19.605   1.300  14.532  0.00  0.00     0.055 C 
ATOM      6  C9  <0> d   1      19.392  -0.081  13.955  0.00  0.00    -0.063 C 
ATOM      7  C10 <0> d   1      19.085  -0.246  12.663  0.00  0.00     0.006 C 
ATOM      8  C11 <0> d   1      18.878  -1.614  12.136  0.00  0.00    -0.017 A 
ATOM      9  C12 <0> d   1      19.900  -2.557  12.146  0.00  0.00     0.014 A 
ATOM     10  C13 <0> d   1      19.649  -3.823  11.650  0.00  0.00     0.024 A 
ATOM     11  C14 <0> d   1      18.394  -4.136  11.157  0.00  0.00     0.034 A 
ATOM     12 Cl15 <0> d   1      18.083  -5.729  10.541  0.00  0.00    -0.084 Cl
ATOM     13  C16 <0> d   1      17.383  -3.188  11.148  0.00  0.00     0.031 A 
ATOM     14  C17 <0> d   1      17.634  -1.918  11.640  0.00  0.00    -0.045 A 
ATOM     15  C18 <0> d   1      16.557  -0.878  11.614  0.00  0.00     0.044 C 
ATOM     16  C19 <0> d   1      16.792   0.191  10.582  0.00  0.00     0.045 C 
ATOM     17  C20 <0> d   1      17.957   1.103  10.858  0.00  0.00    -0.028 A 
ATOM     18  C21 <0> d   1      17.995   2.249  10.053  0.00  0.00     0.011 A 
ATOM     19  C22 <0> d   1      19.004   3.176  10.222  0.00  0.00     0.020 A 
ATOM     20  C23 <0> d   1      19.963   2.957  11.194  0.00  0.00     0.117 A 
ATOM     21  N24 <0> d   1      19.913   1.874  11.934  0.00  0.00    -0.260 NA
ATOM     22  C25 <0> d   1      18.956   0.943  11.793  0.00  0.00     0.074 A 
ATOM     23  C26 <0> d   1      19.533  -1.274  14.876  0.00  0.00     0.055 C 
ATOM     24  C27 <0> d   1      18.639  -1.053  16.096  0.00  0.00     0.132 C 
ENDROOT
BRANCH   1  25
ATOM     25  O3  <0> d   1      19.508   1.687  18.398  0.00  0.00    -0.304 OA
BRANCH  25  26
ATOM     26  C2  <0> d   1      18.385   2.366  19.020  0.00  0.00     0.176 C 
ATOM     27  C1  <0> d   1      18.306   3.802  18.499  0.00  0.00     0.034 C 
ENDBRANCH  25  26
ENDBRANCH   1  25
TORSDOF 2
ENDMDL
MODEL 2
REMARK VINA RESULT:      -8.7      4.003      6.323
REMARK  2 active torsions:
REMARK  status: ('A' for Active; 'I' for Inactive)
REMARK    1  A    between atoms: C2_2  and  O3_3 
REMARK    2  A    between atoms: O3_3  and  C4_4 
REMARK       I    between atoms: C4_4  and  N6_6 
ROOT
ATOM      1  C4  <0> d   1      19.728  -0.765  13.554  0.00  0.00     0.362 C 
ATOM      2  O5  <0> d   1      19.985   0.420  13.633  0.00  0.00    -0.238 OA
ATOM      3  N6  <0> d   1      19.622  -1.351  12.345  0.00  0.00    -0.327 N 
ATOM      4  C7  <0> d   1      19.305  -2.781  12.238  0.00  0.00     0.132 C 
ATOM      5  C8  <0> d   1      18.030  -2.943  11.402  0.00  0.00     0.055 C 
ATOM      6  C9  <0> d   1      18.184  -2.134  10.133  0.00  0.00    -0.063 C 
ATOM      7  C10 <0> d   1      17.991  -2.695   8.934  0.00  0.00     0.006 C 
ATOM      8  C11 <0> d   1      18.156  -1.872   7.714  0.00  0.00    -0.017 A 
ATOM      9  C12 <0> d   1      17.346  -0.768   7.470  0.00  0.00     0.014 A 
ATOM     10  C13 <0> d   1      17.550  -0.028   6.319  0.00  0.00     0.024 A 
ATOM     11  C14 <0> d   1      18.550  -0.391   5.433  0.00  0.00     0.034 A 
ATOM     12 Cl15 <0> d   1      18.805   0.544   3.993  0.00  0.00    -0.084 Cl
ATOM     13  C16 <0> d   1      19.349  -1.495   5.684  0.00  0.00     0.031 A 
ATOM     14  C17 <0> d   1      19.143  -2.239   6.833  0.00  0.00    -0.045 A 
ATOM     15  C18 <0> d   1      19.985  -3.449   7.104  0.00  0.00     0.044 C 
ATOM     16  C19 <0> d   1      19.236  -4.742   6.924  0.00  0.00     0.045 C 
ATOM     17  C20 <0> d   1      18.158  -5.005   7.940  0.00  0.00    -0.028 A 
ATOM     18  C21 <0> d   1      17.667  -6.316   7.932  0.00  0.00     0.011 A 
ATOM     19  C22 <0> d   1      16.689  -6.691   8.832  0.00  0.00     0.020 A 
ATOM     20  C23 <0> d   1      16.212  -5.758   9.734  0.00  0.00     0.117 A 
ATOM     21  N24 <0> d   1      16.681  -4.532   9.720  0.00  0.00    -0.260 NA
ATOM     22  C25 <0> d   1      17.623  -4.125   8.856  0.00  0.00     0.074 A 
ATOM     23  C26 <0> d   1      18.561  -0.673  10.253  0.00  0.00     0.055 C 
ATOM     24  C27 <0> d   1      19.817  -0.567  11.119  0.00  0.00     0.132 C 
ENDROOT
BRANCH   1  25
ATOM     25  O3  <0> d   1      19.547  -1.492  14.673  0.00  0.00    -0.304 OA
BRANCH  25  26
ATOM     26  C2  <0> d   1      18.413  -1.141  15.510  0.00  0.00     0.176 C 
ATOM     27  C1  <0> d   1      18.892  -0.905  16.944  0.00  0.00     0.034 C 
ENDBRANCH  25  26
ENDBRANCH   1  25
TORSDOF 2
ENDMDL
MODEL 3
REMARK VINA RESULT:      -8.3      4.248      7.023
REMARK  2 active torsions:
REMARK  status: ('A' for Active; 'I' for Inactive)
REMARK    1  A    between atoms: C2_2  and  O3_3 
REMARK    2  A    between atoms: O3_3  and  C4_4 
REMARK       I    between atoms: C4_4  and  N6_6 
ROOT
ATOM      1  C4  <0> d   1      19.724   0.654   9.256  0.00  0.00     0.362 C 
ATOM      2  O5  <0> d   1      19.959  -0.536   9.202  0.00  0.00    -0.238 OA
ATOM      3  N6  <0> d   1      19.621   1.267  10.453  0.00  0.00    -0.327 N 
ATOM      4  C7  <0> d   1      19.329   2.704  10.528  0.00  0.00     0.132 C 
ATOM      5  C8  <0> d   1      18.052   2.907  11.352  0.00  0.00     0.055 C 
ATOM      6  C9  <0> d   1      18.183   2.121  12.638  0.00  0.00    -0.063 C 
ATOM      7  C10 <0> d   1      17.993   2.709  13.824  0.00  0.00     0.006 C 
ATOM      8  C11 <0> d   1      18.135   1.909  15.061  0.00  0.00    -0.017 A 
ATOM      9  C12 <0> d   1      17.303   0.825  15.323  0.00  0.00     0.014 A 
ATOM     10  C13 <0> d   1      17.486   0.106  16.489  0.00  0.00     0.024 A 
ATOM     11  C14 <0> d   1      18.486   0.468  17.375  0.00  0.00     0.034 A 
ATOM     12 Cl15 <0> d   1      18.714  -0.443  18.835  0.00  0.00    -0.084 Cl
ATOM     13  C16 <0> d   1      19.307   1.551  17.107  0.00  0.00     0.031 A 
ATOM     14  C17 <0> d   1      19.123   2.276  15.942  0.00  0.00    -0.045 A 
ATOM     15  C18 <0> d   1      19.988   3.464  15.652  0.00  0.00     0.044 C 
ATOM     16  C19 <0> d   1      19.263   4.774  15.801  0.00  0.00     0.045 C 
ATOM     17  C20 <0> d   1      18.197   5.036  14.772  0.00  0.00    -0.028 A 
ATOM     18  C21 <0> d   1      17.730   6.356  14.750  0.00  0.00     0.011 A 
ATOM     19  C22 <0> d   1      16.765   6.731  13.837  0.00  0.00     0.020 A 
ATOM     20  C23 <0> d   1      16.276   5.788  12.950  0.00  0.00     0.117 A 
ATOM     21  N24 <0> d   1      16.722   4.554  12.992  0.00  0.00    -0.260 NA
ATOM     22  C25 <0> d   1      17.651   4.148  13.871  0.00  0.00     0.074 A 
ATOM     23  C26 <0> d   1      18.533   0.651  12.550  0.00  0.00     0.055 C 
ATOM     24  C27 <0> d   1      19.793   0.504  11.695  0.00  0.00     0.132 C 
ENDROOT
BRANCH   1  25
ATOM     25  O3  <0> d   1      19.564   1.362   8.122  0.00  0.00    -0.304 OA
BRANCH  25  26
ATOM     26  C2  <0> d   1      18.545   0.899   7.195  0.00  0.00     0.176 C 
ATOM     27  C1  <0> d   1      19.166   0.705   5.811  0.00  0.00     0.034 C 
ENDBRANCH  25  26
ENDBRANCH   1  25
TORSDOF 2
ENDMDL
MODEL 4
REMARK VINA RESULT:      -8.0      5.440      8.571
REMARK  2 active torsions:
REMARK  status: ('A' for Active; 'I' for Inactive)
REMARK    1  A    between atoms: C2_2  and  O3_3 
REMARK    2  A    between atoms: O3_3  and  C4_4 
REMARK       I    between atoms: C4_4  and  N6_6 
ROOT
ATOM      1  C4  <0> d   1      19.249  -0.332   4.989  0.00  0.00     0.362 C 
ATOM      2  O5  <0> d   1      19.394   0.686   4.341  0.00  0.00    -0.238 OA
ATOM      3  N6  <0> d   1      18.884  -0.259   6.284  0.00  0.00    -0.327 N 
ATOM      4  C7  <0> d   1      18.714  -1.484   7.077  0.00  0.00     0.132 C 
ATOM      5  C8  <0> d   1      19.644  -1.418   8.294  0.00  0.00     0.055 C 
ATOM      6  C9  <0> d   1      19.453  -0.079   8.971  0.00  0.00    -0.063 C 
ATOM      7  C10 <0> d   1      19.178  -0.003  10.278  0.00  0.00     0.006 C 
ATOM      8  C11 <0> d   1      18.992   1.325  10.904  0.00  0.00    -0.017 A 
ATOM      9  C12 <0> d   1      20.021   2.262  10.936  0.00  0.00     0.014 A 
ATOM     10  C13 <0> d   1      19.790   3.491  11.525  0.00  0.00     0.024 A 
ATOM     11  C14 <0> d   1      18.548   3.775  12.069  0.00  0.00     0.034 A 
ATOM     12 Cl15 <0> d   1      18.263   5.322  12.802  0.00  0.00    -0.084 Cl
ATOM     13  C16 <0> d   1      17.532   2.834  12.035  0.00  0.00     0.031 A 
ATOM     14  C17 <0> d   1      17.762   1.600  11.450  0.00  0.00    -0.045 A 
ATOM     15  C18 <0> d   1      16.679   0.567  11.428  0.00  0.00     0.044 C 
ATOM     16  C19 <0> d   1      16.930  -0.574  12.377  0.00  0.00     0.045 C 
ATOM     17  C20 <0> d   1      18.083  -1.470  12.010  0.00  0.00    -0.028 A 
ATOM     18  C21 <0> d   1      18.132  -2.669  12.732  0.00  0.00     0.011 A 
ATOM     19  C22 <0> d   1      19.130  -3.588  12.475  0.00  0.00     0.020 A 
ATOM     20  C23 <0> d   1      20.067  -3.306  11.498  0.00  0.00     0.117 A 
ATOM     21  N24 <0> d   1      20.008  -2.173  10.838  0.00  0.00    -0.260 NA
ATOM     22  C25 <0> d   1      19.061  -1.250  11.065  0.00  0.00     0.074 A 
ATOM     23  C26 <0> d   1      19.581   1.175   8.133  0.00  0.00     0.055 C 
ATOM     24  C27 <0> d   1      18.658   1.044   6.921  0.00  0.00     0.132 C 
ENDROOT
BRANCH   1  25
ATOM     25  O3  <0> d   1      19.455  -1.532   4.413  0.00  0.00    -0.304 OA
BRANCH  25  26
ATOM     26  C2  <0> d   1      18.283  -2.242   3.933  0.00  0.00     0.176 C 
ATOM     27  C1  <0> d   1      18.425  -3.732   4.249  0.00  0.00     0.034 C 
ENDBRANCH  25  26
ENDBRANCH   1  25
TORSDOF 2
ENDMDL
MODEL 5
REMARK VINA RESULT:      -7.6      4.451      7.185
REMARK  2 active torsions:
REMARK  status: ('A' for Active; 'I' for Inactive)
REMARK    1  A    between atoms: C2_2  and  O3_3 
REMARK    2  A    between atoms: O3_3  and  C4_4 
REMARK       I    between atoms: C4_4  and  N6_6 
ROOT
ATOM      1  C4  <0> d   1      17.627  -6.258  10.004  0.00  0.00     0.362 C 
ATOM      2  O5  <0> d   1      17.362  -6.908  10.995  0.00  0.00    -0.238 OA
ATOM      3  N6  <0> d   1      18.087  -4.997  10.129  0.00  0.00    -0.327 N 
ATOM      4  C7  <0> d   1      18.403  -4.201   8.936  0.00  0.00     0.132 C 
ATOM      5  C8  <0> d   1      17.568  -2.915   8.965  0.00  0.00     0.055 C 
ATOM      6  C9  <0> d   1      17.718  -2.277  10.328  0.00  0.00    -0.063 C 
ATOM      7  C10 <0> d   1      18.089  -0.997  10.450  0.00  0.00     0.006 C 
ATOM      8  C11 <0> d   1      18.230  -0.409  11.801  0.00  0.00    -0.017 A 
ATOM      9  C12 <0> d   1      17.145  -0.310  12.665  0.00  0.00     0.014 A 
ATOM     10  C13 <0> d   1      17.335   0.239  13.920  0.00  0.00     0.024 A 
ATOM     11  C14 <0> d   1      18.593   0.677  14.299  0.00  0.00     0.034 A 
ATOM     12 Cl15 <0> d   1      18.827   1.361  15.878  0.00  0.00    -0.084 Cl
ATOM     13  C16 <0> d   1      19.667   0.578  13.429  0.00  0.00     0.031 A 
ATOM     14  C17 <0> d   1      19.477   0.033  12.170  0.00  0.00    -0.045 A 
ATOM     15  C18 <0> d   1      20.625  -0.059  11.213  0.00  0.00     0.044 C 
ATOM     16  C19 <0> d   1      20.528   0.925  10.078  0.00  0.00     0.045 C 
ATOM     17  C20 <0> d   1      19.416   0.666   9.098  0.00  0.00    -0.028 A 
ATOM     18  C21 <0> d   1      19.507   1.408   7.914  0.00  0.00     0.011 A 
ATOM     19  C22 <0> d   1      18.558   1.246   6.924  0.00  0.00     0.020 A 
ATOM     20  C23 <0> d   1      17.530   0.342   7.121  0.00  0.00     0.117 A 
ATOM     21  N24 <0> d   1      17.458  -0.339   8.241  0.00  0.00    -0.260 NA
ATOM     22  C25 <0> d   1      18.354  -0.202   9.231  0.00  0.00     0.074 A 
ATOM     23  C26 <0> d   1      17.438  -3.122  11.552  0.00  0.00     0.055 C 
ATOM     24  C27 <0> d   1      18.271  -4.401  11.458  0.00  0.00     0.132 C 
ENDROOT
BRANCH   1  25
ATOM     25  O3  <0> d   1      17.460  -6.796   8.781  0.00  0.00    -0.304 OA
BRANCH  25  26
ATOM     26  C2  <0> d   1      16.119  -7.225   8.427  0.00  0.00     0.176 C 
ATOM     27  C1  <0> d   1      15.246  -5.997   8.155  0.00  0.00     0.034 C 
ENDBRANCH  25  26
ENDBRANCH   1  25
TORSDOF 2
ENDMDL
MODEL 6
REMARK VINA RESULT:      -7.1      4.601      7.242
REMARK  2 active torsions:
REMARK  status: ('A' for Active; 'I' for Inactive)
REMARK    1  A    between atoms: C2_2  and  O3_3 
REMARK    2  A    between atoms: O3_3  and  C4_4 
REMARK       I    between atoms: C4_4  and  N6_6 
ROOT
ATOM      1  C4  <0> d   1      19.248  -1.081   6.854  0.00  0.00     0.362 C 
ATOM      2  O5  <0> d   1      19.357  -2.291   6.845  0.00  0.00    -0.238 OA
ATOM      3  N6  <0> d   1      19.317  -0.408   8.020  0.00  0.00    -0.327 N 
ATOM      4  C7  <0> d   1      19.180   1.054   8.042  0.00  0.00     0.132 C 
ATOM      5  C8  <0> d   1      18.010   1.426   8.960  0.00  0.00     0.055 C 
ATOM      6  C9  <0> d   1      18.177   0.690  10.271  0.00  0.00    -0.063 C 
ATOM      7  C10 <0> d   1      18.155   1.348  11.436  0.00  0.00     0.006 C 
ATOM      8  C11 <0> d   1      18.328   0.593  12.698  0.00  0.00    -0.017 A 
ATOM      9  C12 <0> d   1      17.418  -0.384  13.088  0.00  0.00     0.014 A 
ATOM     10  C13 <0> d   1      17.632  -1.066  14.271  0.00  0.00     0.024 A 
ATOM     11  C14 <0> d   1      18.741  -0.772  15.047  0.00  0.00     0.034 A 
ATOM     12 Cl15 <0> d   1      19.007  -1.635  16.530  0.00  0.00    -0.084 Cl
ATOM     13  C16 <0> d   1      19.639   0.206  14.652  0.00  0.00     0.031 A 
ATOM     14  C17 <0> d   1      19.423   0.893  13.469  0.00  0.00    -0.045 A 
ATOM     15  C18 <0> d   1      20.375   1.969  13.043  0.00  0.00     0.044 C 
ATOM     16  C19 <0> d   1      19.802   3.354  13.182  0.00  0.00     0.045 C 
ATOM     17  C20 <0> d   1      18.678   3.680  12.236  0.00  0.00    -0.028 A 
ATOM     18  C21 <0> d   1      18.347   5.040  12.182  0.00  0.00     0.011 A 
ATOM     19  C22 <0> d   1      17.346   5.472  11.336  0.00  0.00     0.020 A 
ATOM     20  C23 <0> d   1      16.686   4.547  10.547  0.00  0.00     0.117 A 
ATOM     21  N24 <0> d   1      17.007   3.277  10.617  0.00  0.00    -0.260 NA
ATOM     22  C25 <0> d   1      17.966   2.815  11.434  0.00  0.00     0.074 A 
ATOM     23  C26 <0> d   1      18.368  -0.811  10.233  0.00  0.00     0.055 C 
ATOM     24  C27 <0> d   1      19.523  -1.128   9.283  0.00  0.00     0.132 C 
ENDROOT
BRANCH   1  25
ATOM     25  O3  <0> d   1      19.058  -0.413   5.701  0.00  0.00    -0.304 OA
BRANCH  25  26
ATOM     26  C2  <0> d   1      18.867  -1.209   4.502  0.00  0.00     0.176 C 
ATOM     27  C1  <0> d   1      17.386  -1.563   4.355  0.00  0.00     0.034 C 
ENDBRANCH  25  26
ENDBRANCH   1  25
TORSDOF 2
ENDMDL
MODEL 7
REMARK VINA RESULT:      -6.8      3.967      6.701
REMARK  2 active torsions:
REMARK  status: ('A' for Active; 'I' for Inactive)
REMARK    1  A    between atoms: C2_2  and  O3_3 
REMARK    2  A    between atoms: O3_3  and  C4_4 
REMARK       I    between atoms: C4_4  and  N6_6 
ROOT
ATOM      1  C4  <0> d   1      19.263  -2.510   9.910  0.00  0.00     0.362 C 
ATOM      2  O5  <0> d   1      19.278  -3.661  10.297  0.00  0.00    -0.238 OA
ATOM      3  N6  <0> d   1      19.267  -1.499  10.801  0.00  0.00    -0.327 N 
ATOM      4  C7  <0> d   1      19.241  -0.104  10.343  0.00  0.00     0.132 C 
ATOM      5  C8  <0> d   1      18.018   0.593  10.950  0.00  0.00     0.055 C 
ATOM      6  C9  <0> d   1      17.998   0.314  12.437  0.00  0.00    -0.063 C 
ATOM      7  C10 <0> d   1      17.912   1.313  13.322  0.00  0.00     0.006 C 
ATOM      8  C11 <0> d   1      17.900   1.002  14.769  0.00  0.00    -0.017 A 
ATOM      9  C12 <0> d   1      16.884   0.241  15.338  0.00  0.00     0.014 A 
ATOM     10  C13 <0> d   1      16.927  -0.029  16.693  0.00  0.00     0.024 A 
ATOM     11  C14 <0> d   1      17.973   0.454  17.461  0.00  0.00     0.034 A 
ATOM     12 Cl15 <0> d   1      18.024   0.107  19.162  0.00  0.00    -0.084 Cl
ATOM     13  C16 <0> d   1      18.978   1.214  16.886  0.00  0.00     0.031 A 
ATOM     14  C17 <0> d   1      18.934   1.490  15.529  0.00  0.00    -0.045 A 
ATOM     15  C18 <0> d   1      20.002   2.330  14.900  0.00  0.00     0.044 C 
ATOM     16  C19 <0> d   1      19.527   3.707  14.525  0.00  0.00     0.045 C 
ATOM     17  C20 <0> d   1      18.531   3.756  13.398  0.00  0.00    -0.028 A 
ATOM     18  C21 <0> d   1      18.312   5.038  12.877  0.00  0.00     0.011 A 
ATOM     19  C22 <0> d   1      17.435   5.213  11.825  0.00  0.00     0.020 A 
ATOM     20  C23 <0> d   1      16.788   4.111  11.298  0.00  0.00     0.117 A 
ATOM     21  N24 <0> d   1      17.002   2.919  11.804  0.00  0.00    -0.260 NA
ATOM     22  C25 <0> d   1      17.837   2.708  12.833  0.00  0.00     0.074 A 
ATOM     23  C26 <0> d   1      18.076  -1.125  12.900  0.00  0.00     0.055 C 
ATOM     24  C27 <0> d   1      19.292  -1.780  12.243  0.00  0.00     0.132 C 
ENDROOT
BRANCH   1  25
ATOM     25  O3  <0> d   1      19.239  -2.243   8.590  0.00  0.00    -0.304 OA
BRANCH  25  26
ATOM     26  C2  <0> d   1      18.652  -3.251   7.725  0.00  0.00     0.176 C 
ATOM     27  C1  <0> d   1      19.631  -3.589   6.598  0.00  0.00     0.034 C 
ENDBRANCH  25  26
ENDBRANCH   1  25
TORSDOF 2
ENDMDL
MODEL 8
REMARK VINA RESULT:      -6.7      4.053      6.751
REMARK  2 active torsions:
REMARK  status: ('A' for Active; 'I' for Inactive)
REMARK    1  A    between atoms: C2_2  and  O3_3 
REMARK    2  A    between atoms: O3_3  and  C4_4 
REMARK       I    between atoms: C4_4  and  N6_6 
ROOT
ATOM      1  C4  <0> d   1      18.024  -5.684  10.797  0.00  0.00     0.362 C 
ATOM      2  O5  <0> d   1      17.754  -6.388  11.749  0.00  0.00    -0.238 OA
ATOM      3  N6  <0> d   1      18.419  -4.410  10.991  0.00  0.00    -0.327 N 
ATOM      4  C7  <0> d   1      18.740  -3.550   9.845  0.00  0.00     0.132 C 
ATOM      5  C8  <0> d   1      17.845  -2.306   9.896  0.00  0.00     0.055 C 
ATOM      6  C9  <0> d   1      17.916  -1.721  11.289  0.00  0.00    -0.063 C 
ATOM      7  C10 <0> d   1      18.222  -0.433  11.478  0.00  0.00     0.006 C 
ATOM      8  C11 <0> d   1      18.288   0.102  12.857  0.00  0.00    -0.017 A 
ATOM      9  C12 <0> d   1      17.169   0.114  13.683  0.00  0.00     0.014 A 
ATOM     10  C13 <0> d   1      17.288   0.616  14.966  0.00  0.00     0.024 A 
ATOM     11  C14 <0> d   1      18.510   1.095  15.410  0.00  0.00     0.034 A 
ATOM     12 Cl15 <0> d   1      18.655   1.719  17.024  0.00  0.00    -0.084 Cl
ATOM     13  C16 <0> d   1      19.617   1.082  14.578  0.00  0.00     0.031 A 
ATOM     14  C17 <0> d   1      19.498   0.584  13.291  0.00  0.00    -0.045 A 
ATOM     15  C18 <0> d   1      20.683   0.586  12.374  0.00  0.00     0.044 C 
ATOM     16  C19 <0> d   1      20.580   1.613  11.279  0.00  0.00     0.045 C 
ATOM     17  C20 <0> d   1      19.517   1.346  10.248  0.00  0.00    -0.028 A 
ATOM     18  C21 <0> d   1      19.615   2.143   9.100  0.00  0.00     0.011 A 
ATOM     19  C22 <0> d   1      18.711   1.980   8.069  0.00  0.00     0.020 A 
ATOM     20  C23 <0> d   1      17.719   1.023   8.189  0.00  0.00     0.117 A 
ATOM     21  N24 <0> d   1      17.640   0.292   9.276  0.00  0.00    -0.260 NA
ATOM     22  C25 <0> d   1      18.493   0.426  10.304  0.00  0.00     0.074 A 
ATOM     23  C26 <0> d   1      17.633  -2.630  12.465  0.00  0.00     0.055 C 
ATOM     24  C27 <0> d   1      18.528  -3.865  12.350  0.00  0.00     0.132 C 
ENDROOT
BRANCH   1  25
ATOM     25  O3  <0> d   1      17.926  -6.176   9.547  0.00  0.00    -0.304 OA
BRANCH  25  26
ATOM     26  C2  <0> d   1      16.669  -6.804   9.182  0.00  0.00     0.176 C 
ATOM     27  C1  <0> d   1      15.766  -5.776   8.497  0.00  0.00     0.034 C 
ENDBRANCH  25  26
ENDBRANCH   1  25
TORSDOF 2
ENDMDL
MODEL 9
REMARK VINA RESULT:      -6.7      3.982      6.374
REMARK  2 active torsions:
REMARK  status: ('A' for Active; 'I' for Inactive)
REMARK    1  A    between atoms: C2_2  and  O3_3 
REMARK    2  A    between atoms: O3_3  and  C4_4 
REMARK       I    between atoms: C4_4  and  N6_6 
ROOT
ATOM      1  C4  <0> d   1      19.183  -0.244  17.599  0.00  0.00     0.362 C 
ATOM      2  O5  <0> d   1      19.046   0.030  18.774  0.00  0.00    -0.238 OA
ATOM      3  N6  <0> d   1      19.234   0.740  16.679  0.00  0.00    -0.327 N 
ATOM      4  C7  <0> d   1      19.392   0.418  15.255  0.00  0.00     0.132 C 
ATOM      5  C8  <0> d   1      18.212   1.016  14.480  0.00  0.00     0.055 C 
ATOM      6  C9  <0> d   1      18.057   2.465  14.887  0.00  0.00    -0.063 C 
ATOM      7  C10 <0> d   1      18.019   3.436  13.967  0.00  0.00     0.006 C 
ATOM      8  C11 <0> d   1      17.873   4.843  14.404  0.00  0.00    -0.017 A 
ATOM      9  C12 <0> d   1      16.743   5.274  15.092  0.00  0.00     0.014 A 
ATOM     10  C13 <0> d   1      16.662   6.597  15.485  0.00  0.00     0.024 A 
ATOM     11  C14 <0> d   1      17.698   7.469  15.195  0.00  0.00     0.034 A 
ATOM     12 Cl15 <0> d   1      17.592   9.128  15.696  0.00  0.00    -0.084 Cl
ATOM     13  C16 <0> d   1      18.817   7.030  14.507  0.00  0.00     0.031 A 
ATOM     14  C17 <0> d   1      18.898   5.707  14.108  0.00  0.00    -0.045 A 
ATOM     15  C18 <0> d   1      20.092   5.226  13.342  0.00  0.00     0.044 C 
ATOM     16  C19 <0> d   1      19.796   4.958  11.891  0.00  0.00     0.045 C 
ATOM     17  C20 <0> d   1      18.892   3.784  11.629  0.00  0.00    -0.028 A 
ATOM     18  C21 <0> d   1      18.850   3.378  10.289  0.00  0.00     0.011 A 
ATOM     19  C22 <0> d   1      18.074   2.297   9.920  0.00  0.00     0.020 A 
ATOM     20  C23 <0> d   1      17.349   1.629  10.890  0.00  0.00     0.117 A 
ATOM     21  N24 <0> d   1      17.396   2.029  12.139  0.00  0.00    -0.260 NA
ATOM     22  C25 <0> d   1      18.130   3.080  12.536  0.00  0.00     0.074 A 
ATOM     23  C26 <0> d   1      17.947   2.790  16.361  0.00  0.00     0.055 C 
ATOM     24  C27 <0> d   1      19.128   2.146  17.089  0.00  0.00     0.132 C 
ENDROOT
BRANCH   1  25
ATOM     25  O3  <0> d   1      19.280  -1.531  17.214  0.00  0.00    -0.304 OA
BRANCH  25  26
ATOM     26  C2  <0> d   1      18.185  -2.068  16.425  0.00  0.00     0.176 C 
ATOM     27  C1  <0> d   1      16.857  -1.536  16.970  0.00  0.00     0.034 C 
ENDBRANCH  25  26
ENDBRANCH   1  25
TORSDOF 2
ENDMDL
