MODEL 1
REMARK VINA RESULT:      -7.8      0.000      0.000
REMARK  6 active torsions:
REMARK  status: ('A' for Active; 'I' for Inactive)
REMARK    1  A    between atoms: C5_5  and  C6_6 
REMARK    2  A    between atoms: C6_6  and  O7_7 
REMARK    3  A    between atoms: O7_7  and  N8_8 
REMARK    4  A    between atoms: C9_9  and  C10_10 
REMARK    5  A    between atoms: C9_9  and  C17_17 
REMARK    6  A    between atoms: C10_10  and  N11_11 
ROOT
ATOM      1  N8  ZIN A   1      19.181   1.070  13.816  0.00  0.00    -0.136 NA
ATOM      2  C9  ZIN A   1      18.409   0.052  14.018  0.00  0.00     0.091 C 
ENDROOT
BRANCH   2   3
ATOM      3  C10 ZIN A   1      17.503   0.020  15.223  0.00  0.00     0.191 C 
BRANCH   3   4
ATOM      4  N11 ZIN A   1      18.314   0.062  16.443  0.00  0.00    -0.346 N 
ATOM      5  C16 ZIN A   1      19.015  -0.962  16.974  0.00  0.00     0.182 A 
ATOM      6  N14 ZIN A   1      19.610  -0.545  18.058  0.00  0.00    -0.361 N 
ATOM      7  C13 ZIN A   1      19.306   0.745  18.260  0.00  0.00     0.106 A 
ATOM      8  H15 ZIN A   1      20.181  -1.084  18.628  0.00  0.00     0.166 HD
ATOM      9  C12 ZIN A   1      18.495   1.143  17.261  0.00  0.00     0.109 A 
ENDBRANCH   3   4
ENDBRANCH   2   3
BRANCH   2  10
ATOM     10  C17 ZIN A   1      18.415  -1.079  13.070  0.00  0.00     0.014 A 
ATOM     11  C23 ZIN A   1      17.490  -1.123  12.023  0.00  0.00     0.048 A 
ATOM     12  C22 ZIN A   1      17.506  -2.182  11.138  0.00  0.00     0.048 A 
ATOM     13 Cl24 ZIN A   1      16.334   0.157  11.828  0.00  0.00    -0.083 Cl
ATOM     14  C20 ZIN A   1      18.427  -3.205  11.293  0.00  0.00     0.035 A 
ATOM     15  C19 ZIN A   1      19.342  -3.169  12.333  0.00  0.00     0.025 A 
ATOM     16 Cl21 ZIN A   1      18.436  -4.536  10.180  0.00  0.00    -0.084 Cl
ATOM     17  C18 ZIN A   1      19.340  -2.114  13.221  0.00  0.00     0.017 A 
ENDBRANCH   2  10
BRANCH   1  18
ATOM     18  O7  ZIN A   1      20.114   1.050  12.750  0.00  0.00    -0.252 OA
BRANCH  18  19
ATOM     19  C6  ZIN A   1      19.887   2.057  11.762  0.00  0.00     0.244 C 
BRANCH  19  20
ATOM     20  C5  ZIN A   1      19.616   1.402  10.432  0.00  0.00    -0.010 A 
ATOM     21  C4  ZIN A   1      20.125   0.146  10.164  0.00  0.00     0.013 A 
ATOM     22  C3  ZIN A   1      19.879  -0.456   8.943  0.00  0.00     0.024 A 
ATOM     23  C2  ZIN A   1      19.121   0.201   7.990  0.00  0.00     0.035 A 
ATOM     24 Cl1  ZIN A   1      18.810  -0.555   6.458  0.00  0.00    -0.084 Cl
ATOM     25  C27 ZIN A   1      18.616   1.461   8.256  0.00  0.00     0.048 A 
ATOM     26  C25 ZIN A   1      18.858   2.059   9.478  0.00  0.00     0.044 A 
ATOM     27 Cl26 ZIN A   1      18.219   3.638   9.815  0.00  0.00    -0.084 Cl
ENDBRANCH  19  20
ENDBRANCH  18  19
ENDBRANCH   1  18
TORSDOF 6
ENDMDL
MODEL 2
REMARK VINA RESULT:      -7.8      3.012      6.433
REMARK  6 active torsions:
REMARK  status: ('A' for Active; 'I' for Inactive)
REMARK    1  A    between atoms: C5_5  and  C6_6 
REMARK    2  A    between atoms: C6_6  and  O7_7 
REMARK    3  A    between atoms: O7_7  and  N8_8 
REMARK    4  A    between atoms: C9_9  and  C10_10 
REMARK    5  A    between atoms: C9_9  and  C17_17 
REMARK    6  A    between atoms: C10_10  and  N11_11 
ROOT
ATOM      1  N8  ZIN A   1      19.776   0.291   9.995  0.00  0.00    -0.136 NA
ATOM      2  C9  ZIN A   1      18.752  -0.380   9.579  0.00  0.00     0.091 C 
ENDROOT
BRANCH   2   3
ATOM      3  C10 ZIN A   1      17.855   0.198   8.514  0.00  0.00     0.191 C 
BRANCH   3   4
ATOM      4  N11 ZIN A   1      18.517   0.094   7.210  0.00  0.00    -0.346 N 
ATOM      5  C16 ZIN A   1      19.003   1.117   6.475  0.00  0.00     0.182 A 
ATOM      6  N14 ZIN A   1      19.521   0.634   5.378  0.00  0.00    -0.361 N 
ATOM      7  C13 ZIN A   1      19.377  -0.699   5.370  0.00  0.00     0.106 A 
ATOM      8  H15 ZIN A   1      19.941   1.159   4.679  0.00  0.00     0.166 HD
ATOM      9  C12 ZIN A   1      18.750  -1.056   6.507  0.00  0.00     0.109 A 
ENDBRANCH   3   4
ENDBRANCH   2   3
BRANCH   2  10
ATOM     10  C17 ZIN A   1      18.459  -1.710  10.147  0.00  0.00     0.014 A 
ATOM     11  C23 ZIN A   1      17.530  -1.842  11.182  0.00  0.00     0.048 A 
ATOM     12  C22 ZIN A   1      17.257  -3.091  11.705  0.00  0.00     0.048 A 
ATOM     13 Cl24 ZIN A   1      16.709  -0.442  11.800  0.00  0.00    -0.083 Cl
ATOM     14  C20 ZIN A   1      17.911  -4.208  11.214  0.00  0.00     0.035 A 
ATOM     15  C19 ZIN A   1      18.838  -4.081  10.192  0.00  0.00     0.025 A 
ATOM     16 Cl21 ZIN A   1      17.568  -5.773  11.881  0.00  0.00    -0.084 Cl
ATOM     17  C18 ZIN A   1      19.116  -2.841   9.658  0.00  0.00     0.017 A 
ENDBRANCH   2  10
BRANCH   1  18
ATOM     18  O7  ZIN A   1      20.552  -0.199  11.075  0.00  0.00    -0.252 OA
BRANCH  18  19
ATOM     19  C6  ZIN A   1      20.718   0.737  12.141  0.00  0.00     0.244 C 
BRANCH  19  20
ATOM     20  C5  ZIN A   1      19.809   0.362  13.283  0.00  0.00    -0.010 A 
ATOM     21  C4  ZIN A   1      19.801  -0.933  13.764  0.00  0.00     0.013 A 
ATOM     22  C3  ZIN A   1      18.966  -1.279  14.811  0.00  0.00     0.024 A 
ATOM     23  C2  ZIN A   1      18.139  -0.326  15.379  0.00  0.00     0.035 A 
ATOM     24 Cl1  ZIN A   1      17.092  -0.759  16.694  0.00  0.00    -0.084 Cl
ATOM     25  C27 ZIN A   1      18.143   0.970  14.894  0.00  0.00     0.048 A 
ATOM     26  C25 ZIN A   1      18.981   1.315  13.851  0.00  0.00     0.044 A 
ATOM     27 Cl26 ZIN A   1      18.991   2.943  13.246  0.00  0.00    -0.084 Cl
ENDBRANCH  19  20
ENDBRANCH  18  19
ENDBRANCH   1  18
TORSDOF 6
ENDMDL
MODEL 3
REMARK VINA RESULT:      -7.7      3.287      7.482
REMARK  6 active torsions:
REMARK  status: ('A' for Active; 'I' for Inactive)
REMARK    1  A    between atoms: C5_5  and  C6_6 
REMARK    2  A    between atoms: C6_6  and  O7_7 
REMARK    3  A    between atoms: O7_7  and  N8_8 
REMARK    4  A    between atoms: C9_9  and  C10_10 
REMARK    5  A    between atoms: C9_9  and  C17_17 
REMARK    6  A    between atoms: C10_10  and  N11_11 
ROOT
ATOM      1  N8  ZIN A   1      19.331  -0.702   9.036  0.00  0.00    -0.136 NA
ATOM      2  C9  ZIN A   1      18.381   0.143   8.801  0.00  0.00     0.091 C 
ENDROOT
BRANCH   2   3
ATOM      3  C10 ZIN A   1      17.435  -0.087   7.650  0.00  0.00     0.191 C 
BRANCH   3   4
ATOM      4  N11 ZIN A   1      18.202  -0.210   6.407  0.00  0.00    -0.346 N 
ATOM      5  C16 ZIN A   1      18.977   0.742   5.847  0.00  0.00     0.182 A 
ATOM      6  N14 ZIN A   1      19.499   0.265   4.749  0.00  0.00    -0.361 N 
ATOM      7  C13 ZIN A   1      19.072  -0.993   4.568  0.00  0.00     0.106 A 
ATOM      8  H15 ZIN A   1      20.098   0.746   4.158  0.00  0.00     0.166 HD
ATOM      9  C12 ZIN A   1      18.259  -1.309   5.594  0.00  0.00     0.109 A 
ENDBRANCH   3   4
ENDBRANCH   2   3
BRANCH   2  10
ATOM     10  C17 ZIN A   1      18.222   1.334   9.658  0.00  0.00     0.014 A 
ATOM     11  C23 ZIN A   1      17.398   1.283  10.786  0.00  0.00     0.048 A 
ATOM     12  C22 ZIN A   1      17.259   2.400  11.586  0.00  0.00     0.048 A 
ATOM     13 Cl24 ZIN A   1      16.562  -0.184  11.188  0.00  0.00    -0.083 Cl
ATOM     14  C20 ZIN A   1      17.925   3.572  11.266  0.00  0.00     0.035 A 
ATOM     15  C19 ZIN A   1      18.738   3.629  10.146  0.00  0.00     0.025 A 
ATOM     16 Cl21 ZIN A   1      17.740   4.973  12.273  0.00  0.00    -0.084 Cl
ATOM     17  C18 ZIN A   1      18.890   2.519   9.342  0.00  0.00     0.017 A 
ENDBRANCH   2  10
BRANCH   1  18
ATOM     18  O7  ZIN A   1      20.289  -0.428  10.044  0.00  0.00    -0.252 OA
BRANCH  18  19
ATOM     19  C6  ZIN A   1      20.380  -1.440  11.048  0.00  0.00     0.244 C 
BRANCH  19  20
ATOM     20  C5  ZIN A   1      19.794  -0.923  12.337  0.00  0.00    -0.010 A 
ATOM     21  C4  ZIN A   1      20.193   0.302  12.835  0.00  0.00     0.013 A 
ATOM     22  C3  ZIN A   1      19.658   0.777  14.018  0.00  0.00     0.024 A 
ATOM     23  C2  ZIN A   1      18.719   0.024  14.702  0.00  0.00     0.035 A 
ATOM     24 Cl1  ZIN A   1      18.046   0.621  16.187  0.00  0.00    -0.084 Cl
ATOM     25  C27 ZIN A   1      18.324  -1.205  14.207  0.00  0.00     0.048 A 
ATOM     26  C25 ZIN A   1      18.857  -1.676  13.022  0.00  0.00     0.044 A 
ATOM     27 Cl26 ZIN A   1      18.355  -3.217  12.396  0.00  0.00    -0.084 Cl
ENDBRANCH  19  20
ENDBRANCH  18  19
ENDBRANCH   1  18
TORSDOF 6
ENDMDL
MODEL 4
REMARK VINA RESULT:      -7.7      3.133      5.150
REMARK  6 active torsions:
REMARK  status: ('A' for Active; 'I' for Inactive)
REMARK    1  A    between atoms: C5_5  and  C6_6 
REMARK    2  A    between atoms: C6_6  and  O7_7 
REMARK    3  A    between atoms: O7_7  and  N8_8 
REMARK    4  A    between atoms: C9_9  and  C10_10 
REMARK    5  A    between atoms: C9_9  and  C17_17 
REMARK    6  A    between atoms: C10_10  and  N11_11 
ROOT
ATOM      1  N8  ZIN A   1      17.011   1.593  11.415  0.00  0.00    -0.136 NA
ATOM      2  C9  ZIN A   1      17.763   1.889  10.406  0.00  0.00     0.091 C 
ENDROOT
BRANCH   2   3
ATOM      3  C10 ZIN A   1      18.183   3.318  10.173  0.00  0.00     0.191 C 
BRANCH   3   4
ATOM      4  N11 ZIN A   1      18.616   3.913  11.441  0.00  0.00    -0.346 N 
ATOM      5  C16 ZIN A   1      19.835   3.790  12.008  0.00  0.00     0.182 A 
ATOM      6  N14 ZIN A   1      19.845   4.459  13.129  0.00  0.00    -0.361 N 
ATOM      7  C13 ZIN A   1      18.642   5.019  13.319  0.00  0.00     0.106 A 
ATOM      8  H15 ZIN A   1      20.602   4.536  13.730  0.00  0.00     0.166 HD
ATOM      9  C12 ZIN A   1      17.858   4.688  12.275  0.00  0.00     0.109 A 
ENDBRANCH   3   4
ENDBRANCH   2   3
BRANCH   2  10
ATOM     10  C17 ZIN A   1      18.211   0.830   9.481  0.00  0.00     0.014 A 
ATOM     11  C23 ZIN A   1      19.439   0.195   9.682  0.00  0.00     0.048 A 
ATOM     12  C22 ZIN A   1      19.848  -0.799   8.815  0.00  0.00     0.048 A 
ATOM     13 Cl24 ZIN A   1      20.443   0.645  11.025  0.00  0.00    -0.083 Cl
ATOM     14  C20 ZIN A   1      19.049  -1.159   7.743  0.00  0.00     0.035 A 
ATOM     15  C19 ZIN A   1      17.833  -0.528   7.536  0.00  0.00     0.025 A 
ATOM     16 Cl21 ZIN A   1      19.573  -2.404   6.655  0.00  0.00    -0.084 Cl
ATOM     17  C18 ZIN A   1      17.411   0.463   8.397  0.00  0.00     0.017 A 
ENDBRANCH   2  10
BRANCH   1  18
ATOM     18  O7  ZIN A   1      16.522   0.272  11.569  0.00  0.00    -0.252 OA
BRANCH  18  19
ATOM     19  C6  ZIN A   1      17.153  -0.461  12.620  0.00  0.00     0.244 C 
BRANCH  19  20
ATOM     20  C5  ZIN A   1      17.843  -1.671  12.045  0.00  0.00    -0.010 A 
ATOM     21  C4  ZIN A   1      17.292  -2.329  10.961  0.00  0.00     0.013 A 
ATOM     22  C3  ZIN A   1      17.923  -3.441  10.433  0.00  0.00     0.024 A 
ATOM     23  C2  ZIN A   1      19.107  -3.892  10.988  0.00  0.00     0.035 A 
ATOM     24 Cl1  ZIN A   1      19.900  -5.287  10.324  0.00  0.00    -0.084 Cl
ATOM     25  C27 ZIN A   1      19.655  -3.237  12.076  0.00  0.00     0.048 A 
ATOM     26  C25 ZIN A   1      19.026  -2.123  12.601  0.00  0.00     0.044 A 
ATOM     27 Cl26 ZIN A   1      19.717  -1.296  13.963  0.00  0.00    -0.084 Cl
ENDBRANCH  19  20
ENDBRANCH  18  19
ENDBRANCH   1  18
TORSDOF 6
ENDMDL
MODEL 5
REMARK VINA RESULT:      -7.7      2.070      2.625
REMARK  6 active torsions:
REMARK  status: ('A' for Active; 'I' for Inactive)
REMARK    1  A    between atoms: C5_5  and  C6_6 
REMARK    2  A    between atoms: C6_6  and  O7_7 
REMARK    3  A    between atoms: O7_7  and  N8_8 
REMARK    4  A    between atoms: C9_9  and  C10_10 
REMARK    5  A    between atoms: C9_9  and  C17_17 
REMARK    6  A    between atoms: C10_10  and  N11_11 
ROOT
ATOM      1  N8  ZIN A   1      17.299  -0.664  12.489  0.00  0.00    -0.136 NA
ATOM      2  C9  ZIN A   1      18.093  -1.612  12.866  0.00  0.00     0.091 C 
ENDROOT
BRANCH   2   3
ATOM      3  C10 ZIN A   1      18.686  -1.593  14.252  0.00  0.00     0.191 C 
BRANCH   3   4
ATOM      4  N11 ZIN A   1      18.886  -0.205  14.678  0.00  0.00    -0.346 N 
ATOM      5  C16 ZIN A   1      19.710   0.697  14.104  0.00  0.00     0.182 A 
ATOM      6  N14 ZIN A   1      19.618   1.823  14.759  0.00  0.00    -0.361 N 
ATOM      7  C13 ZIN A   1      18.746   1.678  15.767  0.00  0.00     0.106 A 
ATOM      8  H15 ZIN A   1      20.104   2.635  14.549  0.00  0.00     0.166 HD
ATOM      9  C12 ZIN A   1      18.278   0.415  15.734  0.00  0.00     0.109 A 
ENDBRANCH   3   4
ENDBRANCH   2   3
BRANCH   2  10
ATOM     10  C17 ZIN A   1      18.421  -2.713  11.939  0.00  0.00     0.014 A 
ATOM     11  C23 ZIN A   1      19.468  -2.572  11.024  0.00  0.00     0.048 A 
ATOM     12  C22 ZIN A   1      19.772  -3.609  10.164  0.00  0.00     0.048 A 
ATOM     13 Cl24 ZIN A   1      20.392  -1.103  10.977  0.00  0.00    -0.083 Cl
ATOM     14  C20 ZIN A   1      19.035  -4.781  10.199  0.00  0.00     0.035 A 
ATOM     15  C19 ZIN A   1      17.993  -4.923  11.101  0.00  0.00     0.025 A 
ATOM     16 Cl21 ZIN A   1      19.420  -6.076   9.111  0.00  0.00    -0.084 Cl
ATOM     17  C18 ZIN A   1      17.682  -3.898  11.969  0.00  0.00     0.017 A 
ENDBRANCH   2  10
BRANCH   1  18
ATOM     18  O7  ZIN A   1      16.834  -0.619  11.151  0.00  0.00    -0.252 OA
BRANCH  18  19
ATOM     19  C6  ZIN A   1      17.058   0.633  10.500  0.00  0.00     0.244 C 
BRANCH  19  20
ATOM     20  C5  ZIN A   1      17.679   0.391   9.149  0.00  0.00    -0.010 A 
ATOM     21  C4  ZIN A   1      17.448  -0.798   8.484  0.00  0.00     0.013 A 
ATOM     22  C3  ZIN A   1      18.019  -1.021   7.244  0.00  0.00     0.024 A 
ATOM     23  C2  ZIN A   1      18.820  -0.052   6.668  0.00  0.00     0.035 A 
ATOM     24 Cl1  ZIN A   1      19.535  -0.331   5.111  0.00  0.00    -0.084 Cl
ATOM     25  C27 ZIN A   1      19.057   1.136   7.336  0.00  0.00     0.048 A 
ATOM     26  C25 ZIN A   1      18.482   1.360   8.573  0.00  0.00     0.044 A 
ATOM     27 Cl26 ZIN A   1      18.773   2.855   9.409  0.00  0.00    -0.084 Cl
ENDBRANCH  19  20
ENDBRANCH  18  19
ENDBRANCH   1  18
TORSDOF 6
ENDMDL
MODEL 6
REMARK VINA RESULT:      -7.6      3.334      7.558
REMARK  6 active torsions:
REMARK  status: ('A' for Active; 'I' for Inactive)
REMARK    1  A    between atoms: C5_5  and  C6_6 
REMARK    2  A    between atoms: C6_6  and  O7_7 
REMARK    3  A    between atoms: O7_7  and  N8_8 
REMARK    4  A    between atoms: C9_9  and  C10_10 
REMARK    5  A    between atoms: C9_9  and  C17_17 
REMARK    6  A    between atoms: C10_10  and  N11_11 
ROOT
ATOM      1  N8  ZIN A   1      17.373   0.184   9.266  0.00  0.00    -0.136 NA
ATOM      2  C9  ZIN A   1      18.257   1.093   9.012  0.00  0.00     0.091 C 
ENDROOT
BRANCH   2   3
ATOM      3  C10 ZIN A   1      18.911   1.151   7.655  0.00  0.00     0.191 C 
BRANCH   3   4
ATOM      4  N11 ZIN A   1      18.516  -0.024   6.873  0.00  0.00    -0.346 N 
ATOM      5  C16 ZIN A   1      17.460  -0.110   6.037  0.00  0.00     0.182 A 
ATOM      6  N14 ZIN A   1      17.432  -1.309   5.520  0.00  0.00    -0.361 N 
ATOM      7  C13 ZIN A   1      18.455  -2.024   6.009  0.00  0.00     0.106 A 
ATOM      8  H15 ZIN A   1      16.774  -1.631   4.884  0.00  0.00     0.166 HD
ATOM      9  C12 ZIN A   1      19.145  -1.238   6.858  0.00  0.00     0.109 A 
ENDBRANCH   3   4
ENDBRANCH   2   3
BRANCH   2  10
ATOM     10  C17 ZIN A   1      18.628   2.073  10.052  0.00  0.00     0.014 A 
ATOM     11  C23 ZIN A   1      19.664   1.791  10.946  0.00  0.00     0.048 A 
ATOM     12  C22 ZIN A   1      20.008   2.715  11.912  0.00  0.00     0.048 A 
ATOM     13 Cl24 ZIN A   1      20.525   0.287  10.834  0.00  0.00    -0.083 Cl
ATOM     14  C20 ZIN A   1      19.322   3.915  12.003  0.00  0.00     0.035 A 
ATOM     15  C19 ZIN A   1      18.290   4.197  11.122  0.00  0.00     0.025 A 
ATOM     16 Cl21 ZIN A   1      19.756   5.068  13.223  0.00  0.00    -0.084 Cl
ATOM     17  C18 ZIN A   1      17.940   3.284  10.150  0.00  0.00     0.017 A 
ENDBRANCH   2  10
BRANCH   1  18
ATOM     18  O7  ZIN A   1      16.843   0.056  10.573  0.00  0.00    -0.252 OA
BRANCH  18  19
ATOM     19  C6  ZIN A   1      17.251  -1.133  11.252  0.00  0.00     0.244 C 
BRANCH  19  20
ATOM     20  C5  ZIN A   1      17.721  -0.782  12.640  0.00  0.00    -0.010 A 
ATOM     21  C4  ZIN A   1      17.186   0.310  13.296  0.00  0.00     0.013 A 
ATOM     22  C3  ZIN A   1      17.618   0.633  14.569  0.00  0.00     0.024 A 
ATOM     23  C2  ZIN A   1      18.585  -0.139  15.188  0.00  0.00     0.035 A 
ATOM     24 Cl1  ZIN A   1      19.126   0.266  16.787  0.00  0.00    -0.084 Cl
ATOM     25  C27 ZIN A   1      19.126  -1.229  14.529  0.00  0.00     0.048 A 
ATOM     26  C25 ZIN A   1      18.690  -1.554  13.258  0.00  0.00     0.044 A 
ATOM     27 Cl26 ZIN A   1      19.363  -2.926  12.433  0.00  0.00    -0.084 Cl
ENDBRANCH  19  20
ENDBRANCH  18  19
ENDBRANCH   1  18
TORSDOF 6
ENDMDL
MODEL 7
REMARK VINA RESULT:      -7.5      2.946      5.073
REMARK  6 active torsions:
REMARK  status: ('A' for Active; 'I' for Inactive)
REMARK    1  A    between atoms: C5_5  and  C6_6 
REMARK    2  A    between atoms: C6_6  and  O7_7 
REMARK    3  A    between atoms: O7_7  and  N8_8 
REMARK    4  A    between atoms: C9_9  and  C10_10 
REMARK    5  A    between atoms: C9_9  and  C17_17 
REMARK    6  A    between atoms: C10_10  and  N11_11 
ROOT
ATOM      1  N8  ZIN A   1      19.843   1.623  11.182  0.00  0.00    -0.136 NA
ATOM      2  C9  ZIN A   1      18.952   2.133  10.396  0.00  0.00     0.091 C 
ENDROOT
BRANCH   2   3
ATOM      3  C10 ZIN A   1      18.298   3.445  10.748  0.00  0.00     0.191 C 
BRANCH   3   4
ATOM      4  N11 ZIN A   1      18.667   3.822  12.116  0.00  0.00    -0.346 N 
ATOM      5  C16 ZIN A   1      19.721   4.582  12.480  0.00  0.00     0.182 A 
ATOM      6  N14 ZIN A   1      19.722   4.701  13.780  0.00  0.00    -0.361 N 
ATOM      7  C13 ZIN A   1      18.683   4.021  14.287  0.00  0.00     0.106 A 
ATOM      8  H15 ZIN A   1      20.372   5.201  14.298  0.00  0.00     0.166 HD
ATOM      9  C12 ZIN A   1      18.011   3.463  13.261  0.00  0.00     0.109 A 
ENDBRANCH   3   4
ENDBRANCH   2   3
BRANCH   2  10
ATOM     10  C17 ZIN A   1      18.574   1.432   9.153  0.00  0.00     0.014 A 
ATOM     11  C23 ZIN A   1      17.547   0.484   9.166  0.00  0.00     0.048 A 
ATOM     12  C22 ZIN A   1      17.196  -0.163   7.999  0.00  0.00     0.048 A 
ATOM     13 Cl24 ZIN A   1      16.706   0.132  10.644  0.00  0.00    -0.083 Cl
ATOM     14  C20 ZIN A   1      17.866   0.116   6.820  0.00  0.00     0.035 A 
ATOM     15  C19 ZIN A   1      18.889   1.050   6.803  0.00  0.00     0.025 A 
ATOM     16 Cl21 ZIN A   1      17.423  -0.708   5.358  0.00  0.00    -0.084 Cl
ATOM     17  C18 ZIN A   1      19.246   1.708   7.961  0.00  0.00     0.017 A 
ENDBRANCH   2  10
BRANCH   1  18
ATOM     18  O7  ZIN A   1      20.373   0.337  10.911  0.00  0.00    -0.252 OA
BRANCH  18  19
ATOM     19  C6  ZIN A   1      20.276  -0.573  12.007  0.00  0.00     0.244 C 
BRANCH  19  20
ATOM     20  C5  ZIN A   1      19.417  -1.746  11.611  0.00  0.00    -0.010 A 
ATOM     21  C4  ZIN A   1      19.477  -2.243  10.323  0.00  0.00     0.013 A 
ATOM     22  C3  ZIN A   1      18.688  -3.318   9.957  0.00  0.00     0.024 A 
ATOM     23  C2  ZIN A   1      17.839  -3.898  10.883  0.00  0.00     0.035 A 
ATOM     24 Cl1  ZIN A   1      16.849  -5.249  10.425  0.00  0.00    -0.084 Cl
ATOM     25  C27 ZIN A   1      17.774  -3.398  12.171  0.00  0.00     0.048 A 
ATOM     26  C25 ZIN A   1      18.567  -2.326  12.536  0.00  0.00     0.044 A 
ATOM     27 Cl26 ZIN A   1      18.491  -1.701  14.155  0.00  0.00    -0.084 Cl
ENDBRANCH  19  20
ENDBRANCH  18  19
ENDBRANCH   1  18
TORSDOF 6
ENDMDL
MODEL 8
REMARK VINA RESULT:      -7.3      2.160      4.214
REMARK  6 active torsions:
REMARK  status: ('A' for Active; 'I' for Inactive)
REMARK    1  A    between atoms: C5_5  and  C6_6 
REMARK    2  A    between atoms: C6_6  and  O7_7 
REMARK    3  A    between atoms: O7_7  and  N8_8 
REMARK    4  A    between atoms: C9_9  and  C10_10 
REMARK    5  A    between atoms: C9_9  and  C17_17 
REMARK    6  A    between atoms: C10_10  and  N11_11 
ROOT
ATOM      1  N8  ZIN A   1      18.212  -2.105  12.455  0.00  0.00    -0.136 NA
ATOM      2  C9  ZIN A   1      18.753  -1.001  12.855  0.00  0.00     0.091 C 
ENDROOT
BRANCH   2   3
ATOM      3  C10 ZIN A   1      19.540  -0.969  14.140  0.00  0.00     0.191 C 
BRANCH   3   4
ATOM      4  N11 ZIN A   1      18.680  -0.492  15.227  0.00  0.00    -0.346 N 
ATOM      5  C16 ZIN A   1      18.641   0.762  15.725  0.00  0.00     0.182 A 
ATOM      6  N14 ZIN A   1      17.753   0.806  16.680  0.00  0.00    -0.361 N 
ATOM      7  C13 ZIN A   1      17.205  -0.409  16.830  0.00  0.00     0.106 A 
ATOM      8  H15 ZIN A   1      17.526   1.592  17.201  0.00  0.00     0.166 HD
ATOM      9  C12 ZIN A   1      17.773  -1.235  15.930  0.00  0.00     0.109 A 
ENDBRANCH   3   4
ENDBRANCH   2   3
BRANCH   2  10
ATOM     10  C17 ZIN A   1      18.599   0.229  12.054  0.00  0.00     0.014 A 
ATOM     11  C23 ZIN A   1      19.537   0.548  11.068  0.00  0.00     0.048 A 
ATOM     12  C22 ZIN A   1      19.383   1.697  10.320  0.00  0.00     0.048 A 
ATOM     13 Cl24 ZIN A   1      20.885  -0.507  10.775  0.00  0.00    -0.083 Cl
ATOM     14  C20 ZIN A   1      18.309   2.540  10.553  0.00  0.00     0.035 A 
ATOM     15  C19 ZIN A   1      17.380   2.232  11.533  0.00  0.00     0.025 A 
ATOM     16 Cl21 ZIN A   1      18.126   3.987   9.613  0.00  0.00    -0.084 Cl
ATOM     17  C18 ZIN A   1      17.519   1.084  12.284  0.00  0.00     0.017 A 
ENDBRANCH   2  10
BRANCH   1  18
ATOM     18  O7  ZIN A   1      17.378  -2.111  11.310  0.00  0.00    -0.252 OA
BRANCH  18  19
ATOM     19  C6  ZIN A   1      17.769  -3.056  10.313  0.00  0.00     0.244 C 
BRANCH  19  20
ATOM     20  C5  ZIN A   1      18.110  -2.328   9.038  0.00  0.00    -0.010 A 
ATOM     21  C4  ZIN A   1      17.587  -1.072   8.799  0.00  0.00     0.013 A 
ATOM     22  C3  ZIN A   1      17.898  -0.403   7.629  0.00  0.00     0.024 A 
ATOM     23  C2  ZIN A   1      18.735  -0.992   6.698  0.00  0.00     0.035 A 
ATOM     24 Cl1  ZIN A   1      19.127  -0.152   5.230  0.00  0.00    -0.084 Cl
ATOM     25  C27 ZIN A   1      19.254  -2.253   6.934  0.00  0.00     0.048 A 
ATOM     26  C25 ZIN A   1      18.946  -2.918   8.106  0.00  0.00     0.044 A 
ATOM     27 Cl26 ZIN A   1      19.602  -4.498   8.406  0.00  0.00    -0.084 Cl
ENDBRANCH  19  20
ENDBRANCH  18  19
ENDBRANCH   1  18
TORSDOF 6
ENDMDL
MODEL 9
REMARK VINA RESULT:      -7.3      2.888      4.868
REMARK  6 active torsions:
REMARK  status: ('A' for Active; 'I' for Inactive)
REMARK    1  A    between atoms: C5_5  and  C6_6 
REMARK    2  A    between atoms: C6_6  and  O7_7 
REMARK    3  A    between atoms: O7_7  and  N8_8 
REMARK    4  A    between atoms: C9_9  and  C10_10 
REMARK    5  A    between atoms: C9_9  and  C17_17 
REMARK    6  A    between atoms: C10_10  and  N11_11 
ROOT
ATOM      1  N8  ZIN A   1      17.833   2.542  11.173  0.00  0.00    -0.136 NA
ATOM      2  C9  ZIN A   1      18.650   2.648  12.170  0.00  0.00     0.091 C 
ENDROOT
BRANCH   2   3
ATOM      3  C10 ZIN A   1      19.556   3.848  12.277  0.00  0.00     0.191 C 
BRANCH   3   4
ATOM      4  N11 ZIN A   1      19.008   4.788  13.260  0.00  0.00    -0.346 N 
ATOM      5  C16 ZIN A   1      17.735   5.234  13.317  0.00  0.00     0.182 A 
ATOM      6  N14 ZIN A   1      17.625   6.054  14.327  0.00  0.00    -0.361 N 
ATOM      7  C13 ZIN A   1      18.813   6.165  14.938  0.00  0.00     0.106 A 
ATOM      8  H15 ZIN A   1      16.812   6.512  14.591  0.00  0.00     0.166 HD
ATOM      9  C12 ZIN A   1      19.692   5.381  14.285  0.00  0.00     0.109 A 
ENDBRANCH   3   4
ENDBRANCH   2   3
BRANCH   2  10
ATOM     10  C17 ZIN A   1      18.697   1.595  13.202  0.00  0.00     0.014 A 
ATOM     11  C23 ZIN A   1      19.677   0.600  13.147  0.00  0.00     0.048 A 
ATOM     12  C22 ZIN A   1      19.718  -0.379  14.119  0.00  0.00     0.048 A 
ATOM     13 Cl24 ZIN A   1      20.849   0.603  11.865  0.00  0.00    -0.083 Cl
ATOM     14  C20 ZIN A   1      18.784  -0.383  15.141  0.00  0.00     0.035 A 
ATOM     15  C19 ZIN A   1      17.807   0.597  15.198  0.00  0.00     0.025 A 
ATOM     16 Cl21 ZIN A   1      18.838  -1.621  16.356  0.00  0.00    -0.084 Cl
ATOM     17  C18 ZIN A   1      17.758   1.584  14.236  0.00  0.00     0.017 A 
ENDBRANCH   2  10
BRANCH   1  18
ATOM     18  O7  ZIN A   1      17.064   1.363  11.011  0.00  0.00    -0.252 OA
BRANCH  18  19
ATOM     19  C6  ZIN A   1      17.403   0.606   9.848  0.00  0.00     0.244 C 
BRANCH  19  20
ATOM     20  C5  ZIN A   1      17.828  -0.781  10.258  0.00  0.00    -0.010 A 
ATOM     21  C4  ZIN A   1      17.374  -1.319  11.447  0.00  0.00     0.013 A 
ATOM     22  C3  ZIN A   1      17.765  -2.591  11.825  0.00  0.00     0.024 A 
ATOM     23  C2  ZIN A   1      18.609  -3.325  11.011  0.00  0.00     0.035 A 
ATOM     24 Cl1  ZIN A   1      19.098  -4.922  11.486  0.00  0.00    -0.084 Cl
ATOM     25  C27 ZIN A   1      19.068  -2.784   9.824  0.00  0.00     0.048 A 
ATOM     26  C25 ZIN A   1      18.673  -1.515   9.445  0.00  0.00     0.044 A 
ATOM     27 Cl26 ZIN A   1      19.244  -0.838   7.951  0.00  0.00    -0.084 Cl
ENDBRANCH  19  20
ENDBRANCH  18  19
ENDBRANCH   1  18
TORSDOF 6
ENDMDL
