MODEL 1
REMARK VINA RESULT:      -8.5      0.000      0.000
REMARK  7 active torsions:
REMARK  status: ('A' for Active; 'I' for Inactive)
REMARK    1  A    between atoms: C2_2  and  C3_3 
REMARK    2  A    between atoms: C3_3  and  C4_4 
REMARK    3  A    between atoms: C4_4  and  C5_5 
REMARK    4  A    between atoms: N14_14  and  C15_15 
REMARK    5  A    between atoms: C15_15  and  C16_16 
REMARK    6  A    between atoms: C19_19  and  C20_20 
REMARK    7  A    between atoms: C25_25  and  C26_26 
ROOT
ATOM      1  C16 ZIN A   1      19.281   4.328  12.127  0.00  0.00    -0.040 A 
ATOM      2  C17 ZIN A   1      20.163   3.292  11.875  0.00  0.00     0.010 A 
ATOM      3  C18 ZIN A   1      19.926   2.416  10.836  0.00  0.00     0.013 A 
ATOM      4  C19 ZIN A   1      18.787   2.570  10.045  0.00  0.00    -0.025 A 
ATOM      5  C31 ZIN A   1      17.901   3.614  10.304  0.00  0.00     0.013 A 
ATOM      6  C32 ZIN A   1      18.152   4.488  11.342  0.00  0.00     0.010 A 
ENDROOT
BRANCH   1   7
ATOM      7  C15 ZIN A   1      19.549   5.284  13.260  0.00  0.00     0.172 C 
BRANCH   7   8
ATOM      8  N14 ZIN A   1      18.364   5.369  14.117  0.00  0.00    -0.299 N 
ATOM      9  C5  ZIN A   1      18.034   4.457  15.084  0.00  0.00     0.105 A 
ATOM     10  N6  ZIN A   1      16.943   4.752  15.705  0.00  0.00    -0.256 NA
ATOM     11  C7  ZIN A   1      16.439   5.999  15.129  0.00  0.00     0.136 A 
ATOM     12  C11 ZIN A   1      15.042   5.817  14.532  0.00  0.00     0.043 C 
ATOM     13  C8  ZIN A   1      16.345   7.104  16.191  0.00  0.00     0.043 C 
ATOM     14  C12 ZIN A   1      17.448   6.363  14.068  0.00  0.00     0.256 A 
ATOM     15  C10 ZIN A   1      14.124   6.823  15.259  0.00  0.00     0.003 C 
ATOM     16  C9  ZIN A   1      15.093   7.918  15.773  0.00  0.00     0.003 C 
ATOM     17  O13 ZIN A   1      17.438   7.328  13.335  0.00  0.00    -0.270 OA
BRANCH   9  18
ATOM     18  C4  ZIN A   1      18.859   3.235  15.390  0.00  0.00     0.078 C 
BRANCH  18  19
ATOM     19  C3  ZIN A   1      18.172   1.996  14.811  0.00  0.00     0.007 C 
BRANCH  19  20
ATOM     20  C2  ZIN A   1      18.664   0.749  15.547  0.00  0.00    -0.004 C 
ATOM     21  C1  ZIN A   1      17.464  -0.022  16.103  0.00  0.00     0.005 C 
ENDBRANCH  19  20
ENDBRANCH  18  19
ENDBRANCH   9  18
ENDBRANCH   7   8
ENDBRANCH   1   7
BRANCH   4  22
ATOM     22  C20 ZIN A   1      18.523   1.629   8.931  0.00  0.00    -0.012 A 
ATOM     23  C25 ZIN A   1      17.858   0.415   9.174  0.00  0.00     0.026 A 
ATOM     24  C24 ZIN A   1      17.611  -0.457   8.115  0.00  0.00     0.016 A 
ATOM     25  C23 ZIN A   1      18.029  -0.133   6.841  0.00  0.00     0.001 A 
ATOM     26  C22 ZIN A   1      18.690   1.060   6.604  0.00  0.00     0.001 A 
ATOM     27  C21 ZIN A   1      18.938   1.940   7.639  0.00  0.00     0.013 A 
BRANCH  23  28
ATOM     28  C26 ZIN A   1      17.418   0.069  10.542  0.00  0.00     0.207 A 
ATOM     29  N30 ZIN A   1      16.247   0.375  11.104  0.00  0.00    -0.106 NA
ATOM     30  N29 ZIN A   1      16.255  -0.106  12.301  0.00  0.00    -0.021 NA
ATOM     31  N28 ZIN A   1      17.376  -0.701  12.512  0.00  0.00    -0.021 NA
ATOM     32  N27 ZIN A   1      18.109  -0.616  11.454  0.00  0.00    -0.106 NA
ENDBRANCH  23  28
ENDBRANCH   4  22
TORSDOF 7
ENDMDL
MODEL 2
REMARK VINA RESULT:      -8.3      4.437      6.999
REMARK  7 active torsions:
REMARK  status: ('A' for Active; 'I' for Inactive)
REMARK    1  A    between atoms: C2_2  and  C3_3 
REMARK    2  A    between atoms: C3_3  and  C4_4 
REMARK    3  A    between atoms: C4_4  and  C5_5 
REMARK    4  A    between atoms: N14_14  and  C15_15 
REMARK    5  A    between atoms: C15_15  and  C16_16 
REMARK    6  A    between atoms: C19_19  and  C20_20 
REMARK    7  A    between atoms: C25_25  and  C26_26 
ROOT
ATOM      1  C16 ZIN A   1      19.149  -1.937  10.740  0.00  0.00    -0.040 A 
ATOM      2  C17 ZIN A   1      18.790  -3.031  11.507  0.00  0.00     0.010 A 
ATOM      3  C18 ZIN A   1      18.122  -4.092  10.931  0.00  0.00     0.013 A 
ATOM      4  C19 ZIN A   1      17.801  -4.056   9.575  0.00  0.00    -0.025 A 
ATOM      5  C31 ZIN A   1      18.165  -2.951   8.806  0.00  0.00     0.013 A 
ATOM      6  C32 ZIN A   1      18.837  -1.898   9.392  0.00  0.00     0.010 A 
ENDROOT
BRANCH   1   7
ATOM      7  C15 ZIN A   1      19.882  -0.783  11.374  0.00  0.00     0.172 C 
BRANCH   7   8
ATOM      8  N14 ZIN A   1      19.107  -0.278  12.510  0.00  0.00    -0.299 N 
ATOM      9  C5  ZIN A   1      18.007   0.530  12.406  0.00  0.00     0.105 A 
ATOM     10  N6  ZIN A   1      17.498   0.842  13.549  0.00  0.00    -0.256 NA
ATOM     11  C7  ZIN A   1      18.312   0.192  14.578  0.00  0.00     0.136 A 
ATOM     12  C11 ZIN A   1      18.927   1.215  15.535  0.00  0.00     0.043 C 
ATOM     13  C8  ZIN A   1      17.472  -0.779  15.419  0.00  0.00     0.043 C 
ATOM     14  C12 ZIN A   1      19.375  -0.551  13.808  0.00  0.00     0.256 A 
ATOM     15  C10 ZIN A   1      18.435   0.838  16.949  0.00  0.00     0.003 C 
ATOM     16  C9  ZIN A   1      18.085  -0.668  16.840  0.00  0.00     0.003 C 
ATOM     17  O13 ZIN A   1      20.271  -1.236  14.253  0.00  0.00    -0.270 OA
BRANCH   9  18
ATOM     18  C4  ZIN A   1      17.449   1.009  11.091  0.00  0.00     0.078 C 
BRANCH  18  19
ATOM     19  C3  ZIN A   1      17.762   2.496  10.914  0.00  0.00     0.007 C 
BRANCH  19  20
ATOM     20  C2  ZIN A   1      19.105   2.653  10.200  0.00  0.00    -0.004 C 
ATOM     21  C1  ZIN A   1      19.040   1.968   8.834  0.00  0.00     0.005 C 
ENDBRANCH  19  20
ENDBRANCH  18  19
ENDBRANCH   9  18
ENDBRANCH   7   8
ENDBRANCH   1   7
BRANCH   4  22
ATOM     22  C20 ZIN A   1      17.080  -5.191   8.951  0.00  0.00    -0.012 A 
ATOM     23  C25 ZIN A   1      17.787  -6.162   8.222  0.00  0.00     0.026 A 
ATOM     24  C24 ZIN A   1      17.097  -7.228   7.647  0.00  0.00     0.016 A 
ATOM     25  C23 ZIN A   1      15.727  -7.317   7.783  0.00  0.00     0.001 A 
ATOM     26  C22 ZIN A   1      15.030  -6.356   8.495  0.00  0.00     0.001 A 
ATOM     27  C21 ZIN A   1      15.698  -5.297   9.078  0.00  0.00     0.013 A 
BRANCH  23  28
ATOM     28  C26 ZIN A   1      19.254  -6.059   8.074  0.00  0.00     0.207 A 
ATOM     29  N30 ZIN A   1      20.175  -6.430   8.966  0.00  0.00    -0.106 NA
ATOM     30  N29 ZIN A   1      21.332  -6.176   8.457  0.00  0.00    -0.021 NA
ATOM     31  N28 ZIN A   1      21.178  -5.664   7.286  0.00  0.00    -0.021 NA
ATOM     32  N27 ZIN A   1      19.919  -5.583   7.019  0.00  0.00    -0.106 NA
ENDBRANCH  23  28
ENDBRANCH   4  22
TORSDOF 7
ENDMDL
MODEL 3
REMARK VINA RESULT:      -8.3      3.795      8.516
REMARK  7 active torsions:
REMARK  status: ('A' for Active; 'I' for Inactive)
REMARK    1  A    between atoms: C2_2  and  C3_3 
REMARK    2  A    between atoms: C3_3  and  C4_4 
REMARK    3  A    between atoms: C4_4  and  C5_5 
REMARK    4  A    between atoms: N14_14  and  C15_15 
REMARK    5  A    between atoms: C15_15  and  C16_16 
REMARK    6  A    between atoms: C19_19  and  C20_20 
REMARK    7  A    between atoms: C25_25  and  C26_26 
ROOT
ATOM      1  C16 ZIN A   1      19.372  -0.993  11.390  0.00  0.00    -0.040 A 
ATOM      2  C17 ZIN A   1      20.224   0.096  11.421  0.00  0.00     0.010 A 
ATOM      3  C18 ZIN A   1      19.716   1.370  11.579  0.00  0.00     0.013 A 
ATOM      4  C19 ZIN A   1      18.340   1.558  11.695  0.00  0.00    -0.025 A 
ATOM      5  C31 ZIN A   1      17.485   0.457  11.661  0.00  0.00     0.013 A 
ATOM      6  C32 ZIN A   1      18.005  -0.812  11.510  0.00  0.00     0.010 A 
ENDROOT
BRANCH   1   7
ATOM      7  C15 ZIN A   1      19.933  -2.381  11.223  0.00  0.00     0.172 C 
BRANCH   7   8
ATOM      8  N14 ZIN A   1      19.152  -3.106  10.218  0.00  0.00    -0.299 N 
ATOM      9  C5  ZIN A   1      18.960  -2.688   8.929  0.00  0.00     0.105 A 
ATOM     10  N6  ZIN A   1      18.234  -3.499   8.237  0.00  0.00    -0.256 NA
ATOM     11  C7  ZIN A   1      17.868  -4.611   9.116  0.00  0.00     0.136 A 
ATOM     12  C11 ZIN A   1      16.350  -4.732   9.263  0.00  0.00     0.043 C 
ATOM     13  C8  ZIN A   1      18.386  -5.947   8.566  0.00  0.00     0.043 C 
ATOM     14  C12 ZIN A   1      18.524  -4.285  10.434  0.00  0.00     0.256 A 
ATOM     15  C10 ZIN A   1      15.980  -6.155   8.787  0.00  0.00     0.003 C 
ATOM     16  C9  ZIN A   1      17.288  -6.966   8.967  0.00  0.00     0.003 C 
ATOM     17  O13 ZIN A   1      18.494  -4.933  11.458  0.00  0.00    -0.270 OA
BRANCH   9  18
ATOM     18  C4  ZIN A   1      19.537  -1.411   8.374  0.00  0.00     0.078 C 
BRANCH  18  19
ATOM     19  C3  ZIN A   1      18.518  -0.753   7.442  0.00  0.00     0.007 C 
BRANCH  19  20
ATOM     20  C2  ZIN A   1      18.042   0.565   8.055  0.00  0.00    -0.004 C 
ATOM     21  C1  ZIN A   1      19.171   1.596   7.987  0.00  0.00     0.005 C 
ENDBRANCH  19  20
ENDBRANCH  18  19
ENDBRANCH   9  18
ENDBRANCH   7   8
ENDBRANCH   1   7
BRANCH   4  22
ATOM     22  C20 ZIN A   1      17.788   2.924  11.859  0.00  0.00    -0.012 A 
ATOM     23  C25 ZIN A   1      17.714   3.508  13.135  0.00  0.00     0.026 A 
ATOM     24  C24 ZIN A   1      17.199   4.796  13.274  0.00  0.00     0.016 A 
ATOM     25  C23 ZIN A   1      16.753   5.484  12.164  0.00  0.00     0.001 A 
ATOM     26  C22 ZIN A   1      16.820   4.905  10.908  0.00  0.00     0.001 A 
ATOM     27  C21 ZIN A   1      17.334   3.634  10.751  0.00  0.00     0.013 A 
BRANCH  23  28
ATOM     28  C26 ZIN A   1      18.187   2.764  14.322  0.00  0.00     0.207 A 
ATOM     29  N30 ZIN A   1      17.686   1.623  14.801  0.00  0.00    -0.106 NA
ATOM     30  N29 ZIN A   1      18.377   1.304  15.841  0.00  0.00    -0.021 NA
ATOM     31  N28 ZIN A   1      19.289   2.191  16.034  0.00  0.00    -0.021 NA
ATOM     32  N27 ZIN A   1      19.203   3.096  15.120  0.00  0.00    -0.106 NA
ENDBRANCH  23  28
ENDBRANCH   4  22
TORSDOF 7
ENDMDL
MODEL 4
REMARK VINA RESULT:      -8.3      4.237      8.996
REMARK  7 active torsions:
REMARK  status: ('A' for Active; 'I' for Inactive)
REMARK    1  A    between atoms: C2_2  and  C3_3 
REMARK    2  A    between atoms: C3_3  and  C4_4 
REMARK    3  A    between atoms: C4_4  and  C5_5 
REMARK    4  A    between atoms: N14_14  and  C15_15 
REMARK    5  A    between atoms: C15_15  and  C16_16 
REMARK    6  A    between atoms: C19_19  and  C20_20 
REMARK    7  A    between atoms: C25_25  and  C26_26 
ROOT
ATOM      1  C16 ZIN A   1      19.113  -2.123  10.976  0.00  0.00    -0.040 A 
ATOM      2  C17 ZIN A   1      20.072  -1.127  10.939  0.00  0.00     0.010 A 
ATOM      3  C18 ZIN A   1      19.711   0.191  11.132  0.00  0.00     0.013 A 
ATOM      4  C19 ZIN A   1      18.374   0.518  11.354  0.00  0.00    -0.025 A 
ATOM      5  C31 ZIN A   1      17.411  -0.489  11.390  0.00  0.00     0.013 A 
ATOM      6  C32 ZIN A   1      17.785  -1.804  11.201  0.00  0.00     0.010 A 
ENDROOT
BRANCH   1   7
ATOM      7  C15 ZIN A   1      19.515  -3.560  10.770  0.00  0.00     0.172 C 
BRANCH   7   8
ATOM      8  N14 ZIN A   1      18.686  -4.152   9.717  0.00  0.00    -0.299 N 
ATOM      9  C5  ZIN A   1      18.584  -3.668   8.440  0.00  0.00     0.105 A 
ATOM     10  N6  ZIN A   1      17.791  -4.363   7.698  0.00  0.00    -0.256 NA
ATOM     11  C7  ZIN A   1      17.273  -5.456   8.521  0.00  0.00     0.136 A 
ATOM     12  C11 ZIN A   1      15.747  -5.406   8.623  0.00  0.00     0.043 C 
ATOM     13  C8  ZIN A   1      17.650  -6.822   7.932  0.00  0.00     0.043 C 
ATOM     14  C12 ZIN A   1      17.921  -5.258   9.868  0.00  0.00     0.256 A 
ATOM     15  C10 ZIN A   1      15.231  -6.758   8.082  0.00  0.00     0.003 C 
ATOM     16  C9  ZIN A   1      16.431  -7.722   8.263  0.00  0.00     0.003 C 
ATOM     17  O13 ZIN A   1      17.785  -5.936  10.865  0.00  0.00    -0.270 OA
BRANCH   9  18
ATOM     18  C4  ZIN A   1      19.320  -2.447   7.953  0.00  0.00     0.078 C 
BRANCH  18  19
ATOM     19  C3  ZIN A   1      18.420  -1.652   7.005  0.00  0.00     0.007 C 
BRANCH  19  20
ATOM     20  C2  ZIN A   1      17.895  -0.408   7.724  0.00  0.00    -0.004 C 
ATOM     21  C1  ZIN A   1      18.888   0.742   7.544  0.00  0.00     0.005 C 
ENDBRANCH  19  20
ENDBRANCH  18  19
ENDBRANCH   9  18
ENDBRANCH   7   8
ENDBRANCH   1   7
BRANCH   4  22
ATOM     22  C20 ZIN A   1      17.979   1.933  11.557  0.00  0.00    -0.012 A 
ATOM     23  C25 ZIN A   1      17.880   2.459  12.856  0.00  0.00     0.026 A 
ATOM     24  C24 ZIN A   1      17.514   3.792  13.032  0.00  0.00     0.016 A 
ATOM     25  C23 ZIN A   1      17.238   4.583  11.935  0.00  0.00     0.001 A 
ATOM     26  C22 ZIN A   1      17.329   4.062  10.656  0.00  0.00     0.001 A 
ATOM     27  C21 ZIN A   1      17.698   2.745  10.463  0.00  0.00     0.013 A 
BRANCH  23  28
ATOM     28  C26 ZIN A   1      18.170   1.606  14.028  0.00  0.00     0.207 A 
ATOM     29  N30 ZIN A   1      17.304   0.835  14.689  0.00  0.00    -0.106 NA
ATOM     30  N29 ZIN A   1      17.949   0.255  15.642  0.00  0.00    -0.021 NA
ATOM     31  N28 ZIN A   1      19.181   0.627  15.608  0.00  0.00    -0.021 NA
ATOM     32  N27 ZIN A   1      19.351   1.450  14.630  0.00  0.00    -0.106 NA
ENDBRANCH  23  28
ENDBRANCH   4  22
TORSDOF 7
ENDMDL
MODEL 5
REMARK VINA RESULT:      -8.2      2.991      8.093
REMARK  7 active torsions:
REMARK  status: ('A' for Active; 'I' for Inactive)
REMARK    1  A    between atoms: C2_2  and  C3_3 
REMARK    2  A    between atoms: C3_3  and  C4_4 
REMARK    3  A    between atoms: C4_4  and  C5_5 
REMARK    4  A    between atoms: N14_14  and  C15_15 
REMARK    5  A    between atoms: C15_15  and  C16_16 
REMARK    6  A    between atoms: C19_19  and  C20_20 
REMARK    7  A    between atoms: C25_25  and  C26_26 
ROOT
ATOM      1  C16 ZIN A   1      19.303   1.306  10.007  0.00  0.00    -0.040 A 
ATOM      2  C17 ZIN A   1      17.942   1.555  10.012  0.00  0.00     0.010 A 
ATOM      3  C18 ZIN A   1      17.411   2.487  10.880  0.00  0.00     0.013 A 
ATOM      4  C19 ZIN A   1      18.248   3.171  11.761  0.00  0.00    -0.025 A 
ATOM      5  C31 ZIN A   1      19.619   2.915  11.752  0.00  0.00     0.013 A 
ATOM      6  C32 ZIN A   1      20.139   1.985  10.876  0.00  0.00     0.010 A 
ENDROOT
BRANCH   1   7
ATOM      7  C15 ZIN A   1      19.877   0.290   9.053  0.00  0.00     0.172 C 
BRANCH   7   8
ATOM      8  N14 ZIN A   1      19.214  -1.000   9.258  0.00  0.00    -0.299 N 
ATOM      9  C5  ZIN A   1      18.354  -1.585   8.368  0.00  0.00     0.105 A 
ATOM     10  N6  ZIN A   1      17.899  -2.721   8.775  0.00  0.00    -0.256 NA
ATOM     11  C7  ZIN A   1      18.493  -2.980  10.088  0.00  0.00     0.136 A 
ATOM     12  C11 ZIN A   1      17.420  -3.131  11.168  0.00  0.00     0.043 C 
ATOM     13  C8  ZIN A   1      19.322  -4.272  10.078  0.00  0.00     0.043 C 
ATOM     14  C12 ZIN A   1      19.373  -1.783  10.350  0.00  0.00     0.256 A 
ATOM     15  C10 ZIN A   1      17.624  -4.530  11.790  0.00  0.00     0.003 C 
ATOM     16  C9  ZIN A   1      19.108  -4.863  11.496  0.00  0.00     0.003 C 
ATOM     17  O13 ZIN A   1      20.065  -1.569  11.323  0.00  0.00    -0.270 OA
BRANCH   9  18
ATOM     18  C4  ZIN A   1      17.974  -0.965   7.048  0.00  0.00     0.078 C 
BRANCH  18  19
ATOM     19  C3  ZIN A   1      18.827  -1.574   5.933  0.00  0.00     0.007 C 
BRANCH  19  20
ATOM     20  C2  ZIN A   1      19.372  -0.459   5.041  0.00  0.00    -0.004 C 
ATOM     21  C1  ZIN A   1      19.028   0.900   5.655  0.00  0.00     0.005 C 
ENDBRANCH  19  20
ENDBRANCH  18  19
ENDBRANCH   9  18
ENDBRANCH   7   8
ENDBRANCH   1   7
BRANCH   4  22
ATOM     22  C20 ZIN A   1      17.684   4.170  12.699  0.00  0.00    -0.012 A 
ATOM     23  C25 ZIN A   1      17.625   3.892  14.075  0.00  0.00     0.026 A 
ATOM     24  C24 ZIN A   1      17.098   4.843  14.947  0.00  0.00     0.016 A 
ATOM     25  C23 ZIN A   1      16.626   6.043  14.456  0.00  0.00     0.001 A 
ATOM     26  C22 ZIN A   1      16.678   6.313  13.100  0.00  0.00     0.001 A 
ATOM     27  C21 ZIN A   1      17.203   5.386  12.222  0.00  0.00     0.013 A 
BRANCH  23  28
ATOM     28  C26 ZIN A   1      18.127   2.602  14.595  0.00  0.00     0.207 A 
ATOM     29  N30 ZIN A   1      19.204   2.415  15.361  0.00  0.00    -0.106 NA
ATOM     30  N29 ZIN A   1      19.296   1.151  15.598  0.00  0.00    -0.021 NA
ATOM     31  N28 ZIN A   1      18.325   0.538  15.016  0.00  0.00    -0.021 NA
ATOM     32  N27 ZIN A   1      17.588   1.398  14.398  0.00  0.00    -0.106 NA
ENDBRANCH  23  28
ENDBRANCH   4  22
TORSDOF 7
ENDMDL
MODEL 6
REMARK VINA RESULT:      -8.2      4.219      6.418
REMARK  7 active torsions:
REMARK  status: ('A' for Active; 'I' for Inactive)
REMARK    1  A    between atoms: C2_2  and  C3_3 
REMARK    2  A    between atoms: C3_3  and  C4_4 
REMARK    3  A    between atoms: C4_4  and  C5_5 
REMARK    4  A    between atoms: N14_14  and  C15_15 
REMARK    5  A    between atoms: C15_15  and  C16_16 
REMARK    6  A    between atoms: C19_19  and  C20_20 
REMARK    7  A    between atoms: C25_25  and  C26_26 
ROOT
ATOM      1  C16 ZIN A   1      19.126  -2.859  12.116  0.00  0.00    -0.040 A 
ATOM      2  C17 ZIN A   1      20.029  -3.648  11.425  0.00  0.00     0.010 A 
ATOM      3  C18 ZIN A   1      19.588  -4.505  10.438  0.00  0.00     0.013 A 
ATOM      4  C19 ZIN A   1      18.228  -4.582  10.143  0.00  0.00    -0.025 A 
ATOM      5  C31 ZIN A   1      17.322  -3.786  10.842  0.00  0.00     0.013 A 
ATOM      6  C32 ZIN A   1      17.775  -2.928  11.824  0.00  0.00     0.010 A 
ENDROOT
BRANCH   1   7
ATOM      7  C15 ZIN A   1      19.615  -1.922  13.189  0.00  0.00     0.172 C 
BRANCH   7   8
ATOM      8  N14 ZIN A   1      19.050  -0.589  12.968  0.00  0.00    -0.299 N 
ATOM      9  C5  ZIN A   1      18.196   0.049  13.827  0.00  0.00     0.105 A 
ATOM     10  N6  ZIN A   1      17.836   1.215  13.411  0.00  0.00    -0.256 NA
ATOM     11  C7  ZIN A   1      18.497   1.439  12.124  0.00  0.00     0.136 A 
ATOM     12  C11 ZIN A   1      17.481   1.667  11.003  0.00  0.00     0.043 C 
ATOM     13  C8  ZIN A   1      19.410   2.672  12.176  0.00  0.00     0.043 C 
ATOM     14  C12 ZIN A   1      19.304   0.186  11.888  0.00  0.00     0.256 A 
ATOM     15  C10 ZIN A   1      17.803   3.051  10.400  0.00  0.00     0.003 C 
ATOM     16  C9  ZIN A   1      19.294   3.282  10.755  0.00  0.00     0.003 C 
ATOM     17  O13 ZIN A   1      20.018  -0.070  10.942  0.00  0.00    -0.270 OA
BRANCH   9  18
ATOM     18  C4  ZIN A   1      17.723  -0.550  15.127  0.00  0.00     0.078 C 
BRANCH  18  19
ATOM     19  C3  ZIN A   1      17.971   0.441  16.266  0.00  0.00     0.007 C 
BRANCH  19  20
ATOM     20  C2  ZIN A   1      18.781  -0.243  17.369  0.00  0.00    -0.004 C 
ATOM     21  C1  ZIN A   1      19.235  -1.623  16.887  0.00  0.00     0.005 C 
ENDBRANCH  19  20
ENDBRANCH  18  19
ENDBRANCH   9  18
ENDBRANCH   7   8
ENDBRANCH   1   7
BRANCH   4  22
ATOM     22  C20 ZIN A   1      17.747  -5.505   9.087  0.00  0.00    -0.012 A 
ATOM     23  C25 ZIN A   1      17.923  -5.179   7.732  0.00  0.00     0.026 A 
ATOM     24  C24 ZIN A   1      17.472  -6.059   6.749  0.00  0.00     0.016 A 
ATOM     25  C23 ZIN A   1      16.845  -7.234   7.110  0.00  0.00     0.001 A 
ATOM     26  C22 ZIN A   1      16.666  -7.551   8.445  0.00  0.00     0.001 A 
ATOM     27  C21 ZIN A   1      17.113  -6.695   9.432  0.00  0.00     0.013 A 
BRANCH  23  28
ATOM     28  C26 ZIN A   1      18.589  -3.916   7.351  0.00  0.00     0.207 A 
ATOM     29  N30 ZIN A   1      18.137  -2.679   7.565  0.00  0.00    -0.106 NA
ATOM     30  N29 ZIN A   1      19.009  -1.859   7.085  0.00  0.00    -0.021 NA
ATOM     31  N28 ZIN A   1      19.987  -2.526   6.581  0.00  0.00    -0.021 NA
ATOM     32  N27 ZIN A   1      19.763  -3.787   6.731  0.00  0.00    -0.106 NA
ENDBRANCH  23  28
ENDBRANCH   4  22
TORSDOF 7
ENDMDL
MODEL 7
REMARK VINA RESULT:      -8.1      3.694      6.004
REMARK  7 active torsions:
REMARK  status: ('A' for Active; 'I' for Inactive)
REMARK    1  A    between atoms: C2_2  and  C3_3 
REMARK    2  A    between atoms: C3_3  and  C4_4 
REMARK    3  A    between atoms: C4_4  and  C5_5 
REMARK    4  A    between atoms: N14_14  and  C15_15 
REMARK    5  A    between atoms: C15_15  and  C16_16 
REMARK    6  A    between atoms: C19_19  and  C20_20 
REMARK    7  A    between atoms: C25_25  and  C26_26 
ROOT
ATOM      1  C16 ZIN A   1      19.610  -0.707  11.682  0.00  0.00    -0.040 A 
ATOM      2  C17 ZIN A   1      20.396  -1.804  11.376  0.00  0.00     0.010 A 
ATOM      3  C18 ZIN A   1      19.836  -2.910  10.769  0.00  0.00     0.013 A 
ATOM      4  C19 ZIN A   1      18.474  -2.924  10.474  0.00  0.00    -0.025 A 
ATOM      5  C31 ZIN A   1      17.686  -1.817  10.786  0.00  0.00     0.013 A 
ATOM      6  C32 ZIN A   1      18.258  -0.714  11.388  0.00  0.00     0.010 A 
ENDROOT
BRANCH   1   7
ATOM      7  C15 ZIN A   1      20.229   0.499  12.340  0.00  0.00     0.172 C 
BRANCH   7   8
ATOM      8  N14 ZIN A   1      19.463   0.846  13.540  0.00  0.00    -0.299 N 
ATOM      9  C5  ZIN A   1      18.811   2.035  13.732  0.00  0.00     0.105 A 
ATOM     10  N6  ZIN A   1      18.208   2.103  14.869  0.00  0.00    -0.256 NA
ATOM     11  C7  ZIN A   1      18.448   0.838  15.564  0.00  0.00     0.136 A 
ATOM     12  C11 ZIN A   1      19.166   1.058  16.898  0.00  0.00     0.043 C 
ATOM     13  C8  ZIN A   1      17.131   0.110  15.865  0.00  0.00     0.043 C 
ATOM     14  C12 ZIN A   1      19.296   0.035  14.609  0.00  0.00     0.256 A 
ATOM     15  C10 ZIN A   1      18.251   0.456  17.987  0.00  0.00     0.003 C 
ATOM     16  C9  ZIN A   1      17.390  -0.584  17.227  0.00  0.00     0.003 C 
ATOM     17  O13 ZIN A   1      19.732  -1.086  14.766  0.00  0.00    -0.270 OA
BRANCH   9  18
ATOM     18  C4  ZIN A   1      18.802   3.151  12.719  0.00  0.00     0.078 C 
BRANCH  18  19
ATOM     19  C3  ZIN A   1      17.665   2.924  11.720  0.00  0.00     0.007 C 
BRANCH  19  20
ATOM     20  C2  ZIN A   1      18.034   3.553  10.376  0.00  0.00    -0.004 C 
ATOM     21  C1  ZIN A   1      18.732   2.511   9.499  0.00  0.00     0.005 C 
ENDBRANCH  19  20
ENDBRANCH  18  19
ENDBRANCH   9  18
ENDBRANCH   7   8
ENDBRANCH   1   7
BRANCH   4  22
ATOM     22  C20 ZIN A   1      17.865  -4.111   9.827  0.00  0.00    -0.012 A 
ATOM     23  C25 ZIN A   1      17.879  -4.237   8.427  0.00  0.00     0.026 A 
ATOM     24  C24 ZIN A   1      17.309  -5.361   7.832  0.00  0.00     0.016 A 
ATOM     25  C23 ZIN A   1      16.725  -6.336   8.616  0.00  0.00     0.001 A 
ATOM     26  C22 ZIN A   1      16.706  -6.207   9.994  0.00  0.00     0.001 A 
ATOM     27  C21 ZIN A   1      17.272  -5.104  10.601  0.00  0.00     0.013 A 
BRANCH  23  28
ATOM     28  C26 ZIN A   1      18.501  -3.187   7.592  0.00  0.00     0.207 A 
ATOM     29  N30 ZIN A   1      19.630  -3.291   6.889  0.00  0.00    -0.106 NA
ATOM     30  N29 ZIN A   1      19.826  -2.161   6.301  0.00  0.00    -0.021 NA
ATOM     31  N28 ZIN A   1      18.870  -1.354   6.602  0.00  0.00    -0.021 NA
ATOM     32  N27 ZIN A   1      18.039  -1.952   7.387  0.00  0.00    -0.106 NA
ENDBRANCH  23  28
ENDBRANCH   4  22
TORSDOF 7
ENDMDL
MODEL 8
REMARK VINA RESULT:      -8.1      3.259      8.227
REMARK  7 active torsions:
REMARK  status: ('A' for Active; 'I' for Inactive)
REMARK    1  A    between atoms: C2_2  and  C3_3 
REMARK    2  A    between atoms: C3_3  and  C4_4 
REMARK    3  A    between atoms: C4_4  and  C5_5 
REMARK    4  A    between atoms: N14_14  and  C15_15 
REMARK    5  A    between atoms: C15_15  and  C16_16 
REMARK    6  A    between atoms: C19_19  and  C20_20 
REMARK    7  A    between atoms: C25_25  and  C26_26 
ROOT
ATOM      1  C16 ZIN A   1      19.490  -1.127  12.212  0.00  0.00    -0.040 A 
ATOM      2  C17 ZIN A   1      20.489  -0.204  12.466  0.00  0.00     0.010 A 
ATOM      3  C18 ZIN A   1      20.242   0.879  13.284  0.00  0.00     0.013 A 
ATOM      4  C19 ZIN A   1      18.979   1.048  13.848  0.00  0.00    -0.025 A 
ATOM      5  C31 ZIN A   1      17.974   0.117  13.589  0.00  0.00     0.013 A 
ATOM      6  C32 ZIN A   1      18.235  -0.966  12.773  0.00  0.00     0.010 A 
ENDROOT
BRANCH   1   7
ATOM      7  C15 ZIN A   1      19.768  -2.309  11.322  0.00  0.00     0.172 C 
BRANCH   7   8
ATOM      8  N14 ZIN A   1      19.106  -2.114  10.030  0.00  0.00    -0.299 N 
ATOM      9  C5  ZIN A   1      18.051  -2.858   9.573  0.00  0.00     0.105 A 
ATOM     10  N6  ZIN A   1      17.643  -2.494   8.406  0.00  0.00    -0.256 NA
ATOM     11  C7  ZIN A   1      18.486  -1.376   7.981  0.00  0.00     0.136 A 
ATOM     12  C11 ZIN A   1      19.227  -1.695   6.680  0.00  0.00     0.043 C 
ATOM     13  C8  ZIN A   1      17.651  -0.111   7.736  0.00  0.00     0.043 C 
ATOM     14  C12 ZIN A   1      19.447  -1.168   9.124  0.00  0.00     0.256 A 
ATOM     15  C10 ZIN A   1      18.813  -0.607   5.666  0.00  0.00     0.003 C 
ATOM     16  C9  ZIN A   1      18.367   0.586   6.550  0.00  0.00     0.003 C 
ATOM     17  O13 ZIN A   1      20.329  -0.341   9.212  0.00  0.00    -0.270 OA
BRANCH   9  18
ATOM     18  C4  ZIN A   1      17.432  -3.989  10.354  0.00  0.00     0.078 C 
BRANCH  18  19
ATOM     19  C3  ZIN A   1      18.030  -5.318   9.889  0.00  0.00     0.007 C 
BRANCH  19  20
ATOM     20  C2  ZIN A   1      16.908  -6.334   9.671  0.00  0.00    -0.004 C 
ATOM     21  C1  ZIN A   1      15.795  -5.693   8.839  0.00  0.00     0.005 C 
ENDBRANCH  19  20
ENDBRANCH  18  19
ENDBRANCH   9  18
ENDBRANCH   7   8
ENDBRANCH   1   7
BRANCH   4  22
ATOM     22  C20 ZIN A   1      18.705   2.212  14.724  0.00  0.00    -0.012 A 
ATOM     23  C25 ZIN A   1      18.286   3.432  14.167  0.00  0.00     0.026 A 
ATOM     24  C24 ZIN A   1      18.025   4.517  15.003  0.00  0.00     0.016 A 
ATOM     25  C23 ZIN A   1      18.193   4.392  16.367  0.00  0.00     0.001 A 
ATOM     26  C22 ZIN A   1      18.613   3.193  16.914  0.00  0.00     0.001 A 
ATOM     27  C21 ZIN A   1      18.868   2.105  16.102  0.00  0.00     0.013 A 
BRANCH  23  28
ATOM     28  C26 ZIN A   1      18.114   3.562  12.705  0.00  0.00     0.207 A 
ATOM     29  N30 ZIN A   1      17.031   3.236  11.996  0.00  0.00    -0.106 NA
ATOM     30  N29 ZIN A   1      17.282   3.502  10.760  0.00  0.00    -0.021 NA
ATOM     31  N28 ZIN A   1      18.473   3.980  10.662  0.00  0.00    -0.021 NA
ATOM     32  N27 ZIN A   1      19.007   4.034  11.834  0.00  0.00    -0.106 NA
ENDBRANCH  23  28
ENDBRANCH   4  22
TORSDOF 7
ENDMDL
MODEL 9
REMARK VINA RESULT:      -8.1      2.272      7.579
REMARK  7 active torsions:
REMARK  status: ('A' for Active; 'I' for Inactive)
REMARK    1  A    between atoms: C2_2  and  C3_3 
REMARK    2  A    between atoms: C3_3  and  C4_4 
REMARK    3  A    between atoms: C4_4  and  C5_5 
REMARK    4  A    between atoms: N14_14  and  C15_15 
REMARK    5  A    between atoms: C15_15  and  C16_16 
REMARK    6  A    between atoms: C19_19  and  C20_20 
REMARK    7  A    between atoms: C25_25  and  C26_26 
ROOT
ATOM      1  C16 ZIN A   1      19.782   2.209  12.336  0.00  0.00    -0.040 A 
ATOM      2  C17 ZIN A   1      19.148   2.013  13.550  0.00  0.00     0.010 A 
ATOM      3  C18 ZIN A   1      18.370   3.013  14.096  0.00  0.00     0.013 A 
ATOM      4  C19 ZIN A   1      18.232   4.228  13.426  0.00  0.00    -0.025 A 
ATOM      5  C31 ZIN A   1      18.874   4.422  12.204  0.00  0.00     0.013 A 
ATOM      6  C32 ZIN A   1      19.645   3.412  11.665  0.00  0.00     0.010 A 
ENDROOT
BRANCH   1   7
ATOM      7  C15 ZIN A   1      20.626   1.111  11.743  0.00  0.00     0.172 C 
BRANCH   7   8
ATOM      8  N14 ZIN A   1      19.791   0.256  10.897  0.00  0.00    -0.299 N 
ATOM      9  C5  ZIN A   1      19.235  -0.930  11.294  0.00  0.00     0.105 A 
ATOM     10  N6  ZIN A   1      18.540  -1.499  10.369  0.00  0.00    -0.256 NA
ATOM     11  C7  ZIN A   1      18.602  -0.635   9.188  0.00  0.00     0.136 A 
ATOM     12  C11 ZIN A   1      19.213  -1.365   7.991  0.00  0.00     0.043 C 
ATOM     13  C8  ZIN A   1      17.202  -0.161   8.773  0.00  0.00     0.043 C 
ATOM     14  C12 ZIN A   1      19.455   0.532   9.616  0.00  0.00     0.256 A 
ATOM     15  C10 ZIN A   1      18.154  -1.320   6.868  0.00  0.00     0.003 C 
ATOM     16  C9  ZIN A   1      17.274  -0.096   7.225  0.00  0.00     0.003 C 
ATOM     17  O13 ZIN A   1      19.773   1.500   8.957  0.00  0.00    -0.270 OA
BRANCH   9  18
ATOM     18  C4  ZIN A   1      19.417  -1.513  12.672  0.00  0.00     0.078 C 
BRANCH  18  19
ATOM     19  C3  ZIN A   1      18.152  -1.273  13.500  0.00  0.00     0.007 C 
BRANCH  19  20
ATOM     20  C2  ZIN A   1      18.486  -1.392  14.987  0.00  0.00    -0.004 C 
ATOM     21  C1  ZIN A   1      17.603  -0.432  15.787  0.00  0.00     0.005 C 
ENDBRANCH  19  20
ENDBRANCH  18  19
ENDBRANCH   9  18
ENDBRANCH   7   8
ENDBRANCH   1   7
BRANCH   4  22
ATOM     22  C20 ZIN A   1      17.401   5.309  14.010  0.00  0.00    -0.012 A 
ATOM     23  C25 ZIN A   1      17.992   6.296  14.816  0.00  0.00     0.026 A 
ATOM     24  C24 ZIN A   1      17.200   7.311  15.352  0.00  0.00     0.016 A 
ATOM     25  C23 ZIN A   1      15.844   7.333  15.101  0.00  0.00     0.001 A 
ATOM     26  C22 ZIN A   1      15.262   6.355  14.313  0.00  0.00     0.001 A 
ATOM     27  C21 ZIN A   1      16.031   5.347  13.767  0.00  0.00     0.013 A 
BRANCH  23  28
ATOM     28  C26 ZIN A   1      19.445   6.264  15.086  0.00  0.00     0.207 A 
ATOM     29  N30 ZIN A   1      20.398   6.906  14.407  0.00  0.00    -0.106 NA
ATOM     30  N29 ZIN A   1      21.527   6.618  14.959  0.00  0.00    -0.021 NA
ATOM     31  N28 ZIN A   1      21.325   5.827  15.954  0.00  0.00    -0.021 NA
ATOM     32  N27 ZIN A   1      20.061   5.595  16.062  0.00  0.00    -0.106 NA
ENDBRANCH  23  28
ENDBRANCH   4  22
TORSDOF 7
ENDMDL
