MODEL 1
REMARK VINA RESULT:      -8.1      0.000      0.000
REMARK  2 active torsions:
REMARK  status: ('A' for Active; 'I' for Inactive)
REMARK    1  A    between atoms: N2_2  and  C3_3 
REMARK    2  A    between atoms: C12_12  and  C13_13 
ROOT
ATOM      1  C3  ZIN A   1      19.935  -1.248  10.835  0.00  0.00     0.120 C 
ATOM      2  N4  ZIN A   1      20.154  -0.044  11.121  0.00  0.00    -0.234 NA
ATOM      3  C5  ZIN A   1      19.511   1.135  11.127  0.00  0.00     0.067 A 
ATOM      4  C6  ZIN A   1      20.230   2.207  11.700  0.00  0.00     0.034 A 
ATOM      5  C7  ZIN A   1      19.681   3.461  11.807  0.00  0.00     0.026 A 
ATOM      6  C8  ZIN A   1      18.395   3.690  11.348  0.00  0.00     0.034 A 
ATOM      7 Cl9  ZIN A   1      17.681   5.266  11.497  0.00  0.00    -0.084 Cl
ATOM      8  C10 ZIN A   1      17.687   2.657  10.769  0.00  0.00     0.035 A 
ATOM      9  C11 ZIN A   1      18.237   1.388  10.638  0.00  0.00     0.002 A 
ATOM     10  C12 ZIN A   1      17.397   0.375   9.917  0.00  0.00     0.180 C 
ATOM     11  N19 ZIN A   1      17.574  -0.976  10.375  0.00  0.00    -0.240 N 
ATOM     12  O20 ZIN A   1      16.692  -1.483  11.045  0.00  0.00    -0.090 OA
ATOM     13  C21 ZIN A   1      18.758  -1.767  10.074  0.00  0.00     0.232 C 
ENDROOT
BRANCH  10  14
ATOM     14  C13 ZIN A   1      17.734   0.431   8.449  0.00  0.00    -0.029 A 
ATOM     15  C18 ZIN A   1      18.790   1.208   8.012  0.00  0.00     0.009 A 
ATOM     16  C17 ZIN A   1      19.102   1.256   6.667  0.00  0.00     0.001 A 
ATOM     17  C16 ZIN A   1      18.351   0.535   5.756  0.00  0.00     0.000 A 
ATOM     18  C15 ZIN A   1      17.291  -0.237   6.193  0.00  0.00     0.001 A 
ATOM     19  C14 ZIN A   1      16.982  -0.289   7.539  0.00  0.00     0.009 A 
ENDBRANCH  10  14
BRANCH   1  20
ATOM     20  N2  ZIN A   1      20.859  -2.165  11.253  0.00  0.00    -0.381 N 
ATOM     21  C1  ZIN A   1      20.439  -3.526  11.595  0.00  0.00     0.147 C 
ATOM     22  H25 ZIN A   1      21.794  -1.914  11.323  0.00  0.00     0.160 HD
ENDBRANCH   1  20
TORSDOF 2
ENDMDL
MODEL 2
REMARK VINA RESULT:      -7.9      4.092      6.656
REMARK  2 active torsions:
REMARK  status: ('A' for Active; 'I' for Inactive)
REMARK    1  A    between atoms: N2_2  and  C3_3 
REMARK    2  A    between atoms: C12_12  and  C13_13 
ROOT
ATOM      1  C3  ZIN A   1      19.953   1.163  12.208  0.00  0.00     0.120 C 
ATOM      2  N4  ZIN A   1      20.198  -0.032  11.906  0.00  0.00    -0.234 NA
ATOM      3  C5  ZIN A   1      19.589  -1.229  11.908  0.00  0.00     0.067 A 
ATOM      4  C6  ZIN A   1      20.321  -2.275  11.307  0.00  0.00     0.034 A 
ATOM      5  C7  ZIN A   1      19.804  -3.543  11.205  0.00  0.00     0.026 A 
ATOM      6  C8  ZIN A   1      18.539  -3.812  11.697  0.00  0.00     0.034 A 
ATOM      7 Cl9  ZIN A   1      17.865  -5.406  11.555  0.00  0.00    -0.084 Cl
ATOM      8  C10 ZIN A   1      17.818  -2.804  12.303  0.00  0.00     0.035 A 
ATOM      9  C11 ZIN A   1      18.336  -1.520  12.430  0.00  0.00     0.002 A 
ATOM     10  C12 ZIN A   1      17.488  -0.537  13.182  0.00  0.00     0.180 C 
ATOM     11  N19 ZIN A   1      17.614   0.822  12.730  0.00  0.00    -0.240 N 
ATOM     12  O20 ZIN A   1      16.700   1.308  12.089  0.00  0.00    -0.090 OA
ATOM     13  C21 ZIN A   1      18.784   1.643  13.005  0.00  0.00     0.232 C 
ENDROOT
BRANCH  10  14
ATOM     14  C13 ZIN A   1      17.866  -0.595  14.639  0.00  0.00    -0.029 A 
ATOM     15  C18 ZIN A   1      17.178   0.170  15.562  0.00  0.00     0.009 A 
ATOM     16  C17 ZIN A   1      17.522   0.115  16.899  0.00  0.00     0.001 A 
ATOM     17  C16 ZIN A   1      18.560  -0.699  17.313  0.00  0.00     0.000 A 
ATOM     18  C15 ZIN A   1      19.252  -1.460  16.390  0.00  0.00     0.001 A 
ATOM     19  C14 ZIN A   1      18.905  -1.408  15.053  0.00  0.00     0.009 A 
ENDBRANCH  10  14
BRANCH   1  20
ATOM     20  N2  ZIN A   1      20.840   2.110  11.772  0.00  0.00    -0.381 N 
ATOM     21  C1  ZIN A   1      20.435   3.515  11.701  0.00  0.00     0.147 C 
ATOM     22  H25 ZIN A   1      21.737   1.849  11.511  0.00  0.00     0.160 HD
ENDBRANCH   1  20
TORSDOF 2
ENDMDL
MODEL 3
REMARK VINA RESULT:      -7.8      2.425      4.683
REMARK  2 active torsions:
REMARK  status: ('A' for Active; 'I' for Inactive)
REMARK    1  A    between atoms: N2_2  and  C3_3 
REMARK    2  A    between atoms: C12_12  and  C13_13 
ROOT
ATOM      1  C3  ZIN A   1      18.950   1.109  12.149  0.00  0.00     0.120 C 
ATOM      2  N4  ZIN A   1      19.252   1.239  10.937  0.00  0.00    -0.234 NA
ATOM      3  C5  ZIN A   1      18.846   0.803   9.733  0.00  0.00     0.067 A 
ATOM      4  C6  ZIN A   1      19.493   1.401   8.629  0.00  0.00     0.034 A 
ATOM      5  C7  ZIN A   1      19.151   1.079   7.340  0.00  0.00     0.026 A 
ATOM      6  C8  ZIN A   1      18.151   0.151   7.103  0.00  0.00     0.034 A 
ATOM      7 Cl9  ZIN A   1      17.694  -0.248   5.477  0.00  0.00    -0.084 Cl
ATOM      8  C10 ZIN A   1      17.521  -0.454   8.171  0.00  0.00     0.035 A 
ATOM      9  C11 ZIN A   1      17.870  -0.151   9.483  0.00  0.00     0.002 A 
ATOM     10  C12 ZIN A   1      17.170  -0.938  10.550  0.00  0.00     0.180 C 
ATOM     11  N19 ZIN A   1      16.960  -0.218  11.777  0.00  0.00    -0.240 N 
ATOM     12  O20 ZIN A   1      15.833   0.163  12.042  0.00  0.00    -0.090 OA
ATOM     13  C21 ZIN A   1      18.031   0.076  12.717  0.00  0.00     0.232 C 
ENDROOT
BRANCH  10  14
ATOM     14  C13 ZIN A   1      17.986  -2.169  10.852  0.00  0.00    -0.029 A 
ATOM     15  C18 ZIN A   1      19.334  -2.195  10.547  0.00  0.00     0.009 A 
ATOM     16  C17 ZIN A   1      20.083  -3.322  10.827  0.00  0.00     0.001 A 
ATOM     17  C16 ZIN A   1      19.484  -4.426  11.403  0.00  0.00     0.000 A 
ATOM     18  C15 ZIN A   1      18.135  -4.401  11.703  0.00  0.00     0.001 A 
ATOM     19  C14 ZIN A   1      17.386  -3.273  11.427  0.00  0.00     0.009 A 
ENDBRANCH  10  14
BRANCH   1  20
ATOM     20  N2  ZIN A   1      19.517   1.988  13.030  0.00  0.00    -0.381 N 
ATOM     21  C1  ZIN A   1      18.687   2.990  13.703  0.00  0.00     0.147 C 
ATOM     22  H25 ZIN A   1      20.470   1.948  13.209  0.00  0.00     0.160 HD
ENDBRANCH   1  20
TORSDOF 2
ENDMDL
MODEL 4
REMARK VINA RESULT:      -7.7      3.379      5.292
REMARK  2 active torsions:
REMARK  status: ('A' for Active; 'I' for Inactive)
REMARK    1  A    between atoms: N2_2  and  C3_3 
REMARK    2  A    between atoms: C12_12  and  C13_13 
ROOT
ATOM      1  C3  ZIN A   1      18.268   0.406  10.521  0.00  0.00     0.120 C 
ATOM      2  N4  ZIN A   1      17.899   0.446  11.721  0.00  0.00    -0.234 NA
ATOM      3  C5  ZIN A   1      18.232  -0.088  12.908  0.00  0.00     0.067 A 
ATOM      4  C6  ZIN A   1      17.530   0.432  14.017  0.00  0.00     0.034 A 
ATOM      5  C7  ZIN A   1      17.795   0.005  15.295  0.00  0.00     0.026 A 
ATOM      6  C8  ZIN A   1      18.769  -0.954  15.513  0.00  0.00     0.034 A 
ATOM      7 Cl9  ZIN A   1      19.128  -1.486  17.126  0.00  0.00    -0.084 Cl
ATOM      8  C10 ZIN A   1      19.451  -1.484  14.437  0.00  0.00     0.035 A 
ATOM      9  C11 ZIN A   1      19.181  -1.075  13.137  0.00  0.00     0.002 A 
ATOM     10  C12 ZIN A   1      19.931  -1.787  12.051  0.00  0.00     0.180 C 
ATOM     11  N19 ZIN A   1      20.219  -0.977  10.898  0.00  0.00    -0.240 N 
ATOM     12  O20 ZIN A   1      21.362  -0.594  10.727  0.00  0.00    -0.090 OA
ATOM     13  C21 ZIN A   1      19.205  -0.594   9.926  0.00  0.00     0.232 C 
ENDROOT
BRANCH  10  14
ATOM     14  C13 ZIN A   1      19.120  -2.978  11.609  0.00  0.00    -0.029 A 
ATOM     15  C18 ZIN A   1      19.719  -3.993  10.888  0.00  0.00     0.009 A 
ATOM     16  C17 ZIN A   1      18.976  -5.087  10.486  0.00  0.00     0.001 A 
ATOM     17  C16 ZIN A   1      17.631  -5.161  10.797  0.00  0.00     0.000 A 
ATOM     18  C15 ZIN A   1      17.031  -4.143  11.514  0.00  0.00     0.001 A 
ATOM     19  C14 ZIN A   1      17.775  -3.051  11.919  0.00  0.00     0.009 A 
ENDBRANCH  10  14
BRANCH   1  20
ATOM     20  N2  ZIN A   1      17.761   1.360   9.682  0.00  0.00    -0.381 N 
ATOM     21  C1  ZIN A   1      18.492   2.611   9.469  0.00  0.00     0.147 C 
ATOM     22  H25 ZIN A   1      16.918   1.207   9.227  0.00  0.00     0.160 HD
ENDBRANCH   1  20
TORSDOF 2
ENDMDL
MODEL 5
REMARK VINA RESULT:      -7.5      2.565      4.768
REMARK  2 active torsions:
REMARK  status: ('A' for Active; 'I' for Inactive)
REMARK    1  A    between atoms: N2_2  and  C3_3 
REMARK    2  A    between atoms: C12_12  and  C13_13 
ROOT
ATOM      1  C3  ZIN A   1      18.205  -0.262  12.517  0.00  0.00     0.120 C 
ATOM      2  N4  ZIN A   1      17.831  -0.405  11.326  0.00  0.00    -0.234 NA
ATOM      3  C5  ZIN A   1      18.145   0.042  10.099  0.00  0.00     0.067 A 
ATOM      4  C6  ZIN A   1      17.451  -0.581   9.038  0.00  0.00     0.034 A 
ATOM      5  C7  ZIN A   1      17.699  -0.249   7.730  0.00  0.00     0.026 A 
ATOM      6  C8  ZIN A   1      18.649   0.712   7.431  0.00  0.00     0.034 A 
ATOM      7 Cl9  ZIN A   1      18.988   1.125   5.779  0.00  0.00    -0.084 Cl
ATOM      8  C10 ZIN A   1      19.323   1.342   8.457  0.00  0.00     0.035 A 
ATOM      9  C11 ZIN A   1      19.069   1.030   9.788  0.00  0.00     0.002 A 
ATOM     10  C12 ZIN A   1      19.807   1.843  10.809  0.00  0.00     0.180 C 
ATOM     11  N19 ZIN A   1      20.119   1.133  12.020  0.00  0.00    -0.240 N 
ATOM     12  O20 ZIN A   1      21.273   0.792  12.213  0.00  0.00    -0.090 OA
ATOM     13  C21 ZIN A   1      19.120   0.803  13.026  0.00  0.00     0.232 C 
ENDROOT
BRANCH  10  14
ATOM     14  C13 ZIN A   1      18.969   3.045  11.162  0.00  0.00    -0.029 A 
ATOM     15  C18 ZIN A   1      19.386   3.910  12.156  0.00  0.00     0.009 A 
ATOM     16  C17 ZIN A   1      18.620   5.015  12.476  0.00  0.00     0.001 A 
ATOM     17  C16 ZIN A   1      17.431   5.249  11.810  0.00  0.00     0.000 A 
ATOM     18  C15 ZIN A   1      17.011   4.380  10.820  0.00  0.00     0.001 A 
ATOM     19  C14 ZIN A   1      17.780   3.278  10.496  0.00  0.00     0.009 A 
ENDBRANCH  10  14
BRANCH   1  20
ATOM     20  N2  ZIN A   1      17.725  -1.160  13.432  0.00  0.00    -0.381 N 
ATOM     21  C1  ZIN A   1      18.050  -1.004  14.851  0.00  0.00     0.147 C 
ATOM     22  H25 ZIN A   1      17.169  -1.899  13.140  0.00  0.00     0.160 HD
ENDBRANCH   1  20
TORSDOF 2
ENDMDL
MODEL 6
REMARK VINA RESULT:      -7.4      3.668      6.305
REMARK  2 active torsions:
REMARK  status: ('A' for Active; 'I' for Inactive)
REMARK    1  A    between atoms: N2_2  and  C3_3 
REMARK    2  A    between atoms: C12_12  and  C13_13 
ROOT
ATOM      1  C3  ZIN A   1      19.276   0.067  10.175  0.00  0.00     0.120 C 
ATOM      2  N4  ZIN A   1      19.498  -1.170  10.173  0.00  0.00    -0.234 NA
ATOM      3  C5  ZIN A   1      18.956  -2.303  10.648  0.00  0.00     0.067 A 
ATOM      4  C6  ZIN A   1      19.580  -3.493  10.215  0.00  0.00     0.034 A 
ATOM      5  C7  ZIN A   1      19.108  -4.726  10.593  0.00  0.00     0.026 A 
ATOM      6  C8  ZIN A   1      17.997  -4.816  11.413  0.00  0.00     0.034 A 
ATOM      7 Cl9  ZIN A   1      17.377  -6.370  11.879  0.00  0.00    -0.084 Cl
ATOM      8  C10 ZIN A   1      17.387  -3.662  11.858  0.00  0.00     0.035 A 
ATOM      9  C11 ZIN A   1      17.865  -2.407  11.499  0.00  0.00     0.002 A 
ATOM     10  C12 ZIN A   1      17.165  -1.233  12.116  0.00  0.00     0.180 C 
ATOM     11  N19 ZIN A   1      17.129  -0.059  11.285  0.00  0.00    -0.240 N 
ATOM     12  O20 ZIN A   1      16.075   0.246  10.757  0.00  0.00    -0.090 OA
ATOM     13  C21 ZIN A   1      18.294   0.779  11.048  0.00  0.00     0.232 C 
ENDROOT
BRANCH  10  14
ATOM     14  C13 ZIN A   1      17.860  -0.884  13.407  0.00  0.00    -0.029 A 
ATOM     15  C18 ZIN A   1      18.979  -1.594  13.803  0.00  0.00     0.009 A 
ATOM     16  C17 ZIN A   1      19.619  -1.272  14.984  0.00  0.00     0.001 A 
ATOM     17  C16 ZIN A   1      19.137  -0.245  15.775  0.00  0.00     0.000 A 
ATOM     18  C15 ZIN A   1      18.015   0.461  15.382  0.00  0.00     0.001 A 
ATOM     19  C14 ZIN A   1      17.377   0.141  14.198  0.00  0.00     0.009 A 
ENDBRANCH  10  14
BRANCH   1  20
ATOM     20  N2  ZIN A   1      20.002   0.831   9.303  0.00  0.00    -0.381 N 
ATOM     21  C1  ZIN A   1      19.318   1.740   8.380  0.00  0.00     0.147 C 
ATOM     22  H25 ZIN A   1      20.970   0.771   9.296  0.00  0.00     0.160 HD
ENDBRANCH   1  20
TORSDOF 2
ENDMDL
MODEL 7
REMARK VINA RESULT:      -7.3      3.008      4.643
REMARK  2 active torsions:
REMARK  status: ('A' for Active; 'I' for Inactive)
REMARK    1  A    between atoms: N2_2  and  C3_3 
REMARK    2  A    between atoms: C12_12  and  C13_13 
ROOT
ATOM      1  C3  ZIN A   1      19.083  -0.898  10.813  0.00  0.00     0.120 C 
ATOM      2  N4  ZIN A   1      19.361  -1.094  12.022  0.00  0.00    -0.234 NA
ATOM      3  C5  ZIN A   1      18.908  -0.754  13.240  0.00  0.00     0.067 A 
ATOM      4  C6  ZIN A   1      19.553  -1.395  14.320  0.00  0.00     0.034 A 
ATOM      5  C7  ZIN A   1      19.168  -1.170  15.619  0.00  0.00     0.026 A 
ATOM      6  C8  ZIN A   1      18.125  -0.300  15.886  0.00  0.00     0.034 A 
ATOM      7 Cl9  ZIN A   1      17.614  -0.024  17.522  0.00  0.00    -0.084 Cl
ATOM      8  C10 ZIN A   1      17.497   0.347  14.843  0.00  0.00     0.035 A 
ATOM      9  C11 ZIN A   1      17.889   0.144  13.525  0.00  0.00     0.002 A 
ATOM     10  C12 ZIN A   1      17.182   0.969  12.491  0.00  0.00     0.180 C 
ATOM     11  N19 ZIN A   1      17.031   0.321  11.216  0.00  0.00    -0.240 N 
ATOM     12  O20 ZIN A   1      15.928  -0.086  10.898  0.00  0.00    -0.090 OA
ATOM     13  C21 ZIN A   1      18.136   0.132  10.288  0.00  0.00     0.232 C 
ENDROOT
BRANCH  10  14
ATOM     14  C13 ZIN A   1      17.954   2.248  12.289  0.00  0.00    -0.029 A 
ATOM     15  C18 ZIN A   1      19.245   2.358  12.770  0.00  0.00     0.009 A 
ATOM     16  C17 ZIN A   1      19.955   3.529  12.582  0.00  0.00     0.001 A 
ATOM     17  C16 ZIN A   1      19.370   4.594  11.921  0.00  0.00     0.000 A 
ATOM     18  C15 ZIN A   1      18.077   4.485  11.446  0.00  0.00     0.001 A 
ATOM     19  C14 ZIN A   1      17.369   3.313  11.630  0.00  0.00     0.009 A 
ENDBRANCH  10  14
BRANCH   1  20
ATOM     20  N2  ZIN A   1      19.707  -1.696   9.894  0.00  0.00    -0.381 N 
ATOM     21  C1  ZIN A   1      19.020  -2.060   8.652  0.00  0.00     0.147 C 
ATOM     22  H25 ZIN A   1      20.605  -2.022  10.064  0.00  0.00     0.160 HD
ENDBRANCH   1  20
TORSDOF 2
ENDMDL
MODEL 8
REMARK VINA RESULT:      -7.1      2.894      5.288
REMARK  2 active torsions:
REMARK  status: ('A' for Active; 'I' for Inactive)
REMARK    1  A    between atoms: N2_2  and  C3_3 
REMARK    2  A    between atoms: C12_12  and  C13_13 
ROOT
ATOM      1  C3  ZIN A   1      17.657   0.182  10.682  0.00  0.00     0.120 C 
ATOM      2  N4  ZIN A   1      17.442   1.378  11.002  0.00  0.00    -0.234 NA
ATOM      3  C5  ZIN A   1      17.991   2.346  11.754  0.00  0.00     0.067 A 
ATOM      4  C6  ZIN A   1      17.374   3.612  11.646  0.00  0.00     0.034 A 
ATOM      5  C7  ZIN A   1      17.854   4.702  12.330  0.00  0.00     0.026 A 
ATOM      6  C8  ZIN A   1      18.966   4.569  13.143  0.00  0.00     0.034 A 
ATOM      7 Cl9  ZIN A   1      19.596   5.945  13.996  0.00  0.00    -0.084 Cl
ATOM      8  C10 ZIN A   1      19.569   3.335  13.272  0.00  0.00     0.035 A 
ATOM      9  C11 ZIN A   1      19.083   2.219  12.601  0.00  0.00     0.002 A 
ATOM     10  C12 ZIN A   1      19.777   0.921  12.891  0.00  0.00     0.180 C 
ATOM     11  N19 ZIN A   1      19.805   0.004  11.783  0.00  0.00    -0.240 N 
ATOM     12  O20 ZIN A   1      20.856  -0.161  11.192  0.00  0.00    -0.090 OA
ATOM     13  C21 ZIN A   1      18.634  -0.738  11.339  0.00  0.00     0.232 C 
ENDROOT
BRANCH  10  14
ATOM     14  C13 ZIN A   1      19.079   0.253  14.048  0.00  0.00    -0.029 A 
ATOM     15  C18 ZIN A   1      17.979   0.854  14.631  0.00  0.00     0.009 A 
ATOM     16  C17 ZIN A   1      17.337   0.240  15.689  0.00  0.00     0.001 A 
ATOM     17  C16 ZIN A   1      17.800  -0.971  16.171  0.00  0.00     0.000 A 
ATOM     18  C15 ZIN A   1      18.903  -1.568  15.591  0.00  0.00     0.001 A 
ATOM     19  C14 ZIN A   1      19.543  -0.956  14.530  0.00  0.00     0.009 A 
ENDBRANCH  10  14
BRANCH   1  20
ATOM     20  N2  ZIN A   1      16.925  -0.325   9.643  0.00  0.00    -0.381 N 
ATOM     21  C1  ZIN A   1      17.385  -0.141   8.265  0.00  0.00     0.147 C 
ATOM     22  H25 ZIN A   1      16.102  -0.806   9.820  0.00  0.00     0.160 HD
ENDBRANCH   1  20
TORSDOF 2
ENDMDL
MODEL 9
REMARK VINA RESULT:      -7.1      3.372      5.076
REMARK  2 active torsions:
REMARK  status: ('A' for Active; 'I' for Inactive)
REMARK    1  A    between atoms: N2_2  and  C3_3 
REMARK    2  A    between atoms: C12_12  and  C13_13 
ROOT
ATOM      1  C3  ZIN A   1      17.658  -0.354  12.107  0.00  0.00     0.120 C 
ATOM      2  N4  ZIN A   1      17.350  -1.542  11.835  0.00  0.00    -0.234 NA
ATOM      3  C5  ZIN A   1      17.804  -2.568  11.098  0.00  0.00     0.067 A 
ATOM      4  C6  ZIN A   1      17.106  -3.784  11.270  0.00  0.00     0.034 A 
ATOM      5  C7  ZIN A   1      17.484  -4.925  10.607  0.00  0.00     0.026 A 
ATOM      6  C8  ZIN A   1      18.572  -4.896   9.752  0.00  0.00     0.034 A 
ATOM      7 Cl9  ZIN A   1      19.074  -6.338   8.925  0.00  0.00    -0.084 Cl
ATOM      8  C10 ZIN A   1      19.254  -3.712   9.560  0.00  0.00     0.035 A 
ATOM      9  C11 ZIN A   1      18.870  -2.544  10.210  0.00  0.00     0.002 A 
ATOM     10  C12 ZIN A   1      19.640  -1.307   9.853  0.00  0.00     0.180 C 
ATOM     11  N19 ZIN A   1      19.771  -0.360  10.927  0.00  0.00    -0.240 N 
ATOM     12  O20 ZIN A   1      20.853  -0.251  11.476  0.00  0.00    -0.090 OA
ATOM     13  C21 ZIN A   1      18.671   0.475  11.387  0.00  0.00     0.232 C 
ENDROOT
BRANCH  10  14
ATOM     14  C13 ZIN A   1      18.948  -0.629   8.699  0.00  0.00    -0.029 A 
ATOM     15  C18 ZIN A   1      19.513   0.490   8.115  0.00  0.00     0.009 A 
ATOM     16  C17 ZIN A   1      18.881   1.109   7.054  0.00  0.00     0.001 A 
ATOM     17  C16 ZIN A   1      17.678   0.617   6.582  0.00  0.00     0.000 A 
ATOM     18  C15 ZIN A   1      17.111  -0.498   7.169  0.00  0.00     0.001 A 
ATOM     19  C14 ZIN A   1      17.745  -1.121   8.228  0.00  0.00     0.009 A 
ENDBRANCH  10  14
BRANCH   1  20
ATOM     20  N2  ZIN A   1      17.002   0.235  13.154  0.00  0.00    -0.381 N 
ATOM     21  C1  ZIN A   1      17.752   0.691  14.326  0.00  0.00     0.147 C 
ATOM     22  H25 ZIN A   1      16.039   0.351  13.119  0.00  0.00     0.160 HD
ENDBRANCH   1  20
TORSDOF 2
ENDMDL
