MODEL 1
REMARK VINA RESULT:     -10.0      0.000      0.000
REMARK  7 active torsions:
REMARK  status: ('A' for Active; 'I' for Inactive)
REMARK    1  A    between atoms: C2_2  and  C3_3 
REMARK    2  A    between atoms: C3_3  and  S4_4 
REMARK    3  A    between atoms: S4_4  and  N7_7 
REMARK    4  A    between atoms: N7_7  and  C8_8 
REMARK    5  A    between atoms: C13_13  and  C14_14 
REMARK    6  A    between atoms: C14_14  and  C16_16 
REMARK    7  A    between atoms: C22_22  and  C23_23 
ROOT
ATOM      1  C14 ZIN A   1      19.167   2.664  15.992  0.00  0.00     0.200 C 
ATOM      2  O15 ZIN A   1      20.138   3.028  16.630  0.00  0.00    -0.286 OA
ENDROOT
BRANCH   1   3
ATOM      3  C13 ZIN A   1      18.828   1.229  15.923  0.00  0.00     0.094 A 
ATOM      4  C11 ZIN A   1      17.941   0.669  16.849  0.00  0.00     0.133 A 
ATOM      5  C10 ZIN A   1      17.627  -0.674  16.780  0.00  0.00     0.046 A 
ATOM      6  F12 ZIN A   1      17.393   1.444  17.812  0.00  0.00    -0.205 F 
ATOM      7  C9  ZIN A   1      18.185  -1.470  15.797  0.00  0.00     0.036 A 
ATOM      8  C8  ZIN A   1      19.066  -0.927  14.872  0.00  0.00     0.082 A 
ATOM      9  C32 ZIN A   1      19.395   0.421  14.933  0.00  0.00     0.160 A 
ATOM     10  F33 ZIN A   1      20.252   0.950  14.033  0.00  0.00    -0.203 F 
BRANCH   8  11
ATOM     11  N7  ZIN A   1      19.626  -1.740  13.879  0.00  0.00    -0.281 N 
ATOM     12  H41 ZIN A   1      20.391  -2.300  14.085  0.00  0.00     0.178 HD
BRANCH  11  13
ATOM     13  S4  ZIN A   1      18.985  -1.745  12.353  0.00  0.00     0.231 S 
ATOM     14  O5  ZIN A   1      19.904  -0.981  11.584  0.00  0.00    -0.206 OA
ATOM     15  O6  ZIN A   1      17.644  -1.312  12.533  0.00  0.00    -0.206 OA
BRANCH  13  16
ATOM     16  C3  ZIN A   1      19.029  -3.487  11.849  0.00  0.00     0.163 C 
BRANCH  16  17
ATOM     17  C2  ZIN A   1      17.604  -3.978  11.586  0.00  0.00     0.012 C 
ATOM     18  C1  ZIN A   1      17.485  -5.446  12.003  0.00  0.00     0.006 C 
ENDBRANCH  16  17
ENDBRANCH  13  16
ENDBRANCH  11  13
ENDBRANCH   8  11
ENDBRANCH   1   3
BRANCH   1  19
ATOM     19  C16 ZIN A   1      18.335   3.650  15.293  0.00  0.00     0.044 A 
ATOM     20  C31 ZIN A   1      17.985   3.654  13.860  0.00  0.00     0.026 A 
ATOM     21  C19 ZIN A   1      17.173   4.785  13.662  0.00  0.00     0.138 A 
ATOM     22  C30 ZIN A   1      18.274   2.816  12.789  0.00  0.00     0.030 A 
ATOM     23  N18 ZIN A   1      17.049   5.419  14.879  0.00  0.00    -0.349 N 
ATOM     24  N20 ZIN A   1      16.694   5.053  12.454  0.00  0.00    -0.242 NA
ATOM     25  C17 ZIN A   1      17.734   4.748  15.838  0.00  0.00     0.106 A 
ATOM     26  H45 ZIN A   1      16.542   6.231  15.029  0.00  0.00     0.167 HD
ATOM     27  C21 ZIN A   1      16.953   4.286  11.419  0.00  0.00     0.131 A 
ATOM     28  C22 ZIN A   1      17.746   3.143  11.541  0.00  0.00    -0.007 A 
BRANCH  28  29
ATOM     29  C23 ZIN A   1      18.025   2.290  10.358  0.00  0.00    -0.024 A 
ATOM     30  C29 ZIN A   1      18.938   2.711   9.392  0.00  0.00     0.014 A 
ATOM     31  C28 ZIN A   1      19.196   1.913   8.298  0.00  0.00     0.024 A 
ATOM     32  C26 ZIN A   1      18.543   0.701   8.151  0.00  0.00     0.034 A 
ATOM     33  C25 ZIN A   1      17.631   0.281   9.105  0.00  0.00     0.024 A 
ATOM     34 Cl27 ZIN A   1      18.868  -0.296   6.768  0.00  0.00    -0.084 Cl
ATOM     35  C24 ZIN A   1      17.370   1.070  10.207  0.00  0.00     0.014 A 
ENDBRANCH  28  29
ENDBRANCH   1  19
TORSDOF 7
ENDMDL
MODEL 2
REMARK VINA RESULT:      -9.5      3.954      7.678
REMARK  7 active torsions:
REMARK  status: ('A' for Active; 'I' for Inactive)
REMARK    1  A    between atoms: C2_2  and  C3_3 
REMARK    2  A    between atoms: C3_3  and  S4_4 
REMARK    3  A    between atoms: S4_4  and  N7_7 
REMARK    4  A    between atoms: N7_7  and  C8_8 
REMARK    5  A    between atoms: C13_13  and  C14_14 
REMARK    6  A    between atoms: C14_14  and  C16_16 
REMARK    7  A    between atoms: C22_22  and  C23_23 
ROOT
ATOM      1  C14 ZIN A   1      19.692  -5.381   8.517  0.00  0.00     0.200 C 
ATOM      2  O15 ZIN A   1      20.717  -6.036   8.554  0.00  0.00    -0.286 OA
ENDROOT
BRANCH   1   3
ATOM      3  C13 ZIN A   1      18.883  -5.210   9.740  0.00  0.00     0.094 A 
ATOM      4  C11 ZIN A   1      17.768  -6.026   9.966  0.00  0.00     0.133 A 
ATOM      5  C10 ZIN A   1      17.014  -5.862  11.111  0.00  0.00     0.046 A 
ATOM      6  F12 ZIN A   1      17.430  -6.973   9.063  0.00  0.00    -0.205 F 
ATOM      7  C9  ZIN A   1      17.356  -4.895  12.039  0.00  0.00     0.036 A 
ATOM      8  C8  ZIN A   1      18.459  -4.080  11.826  0.00  0.00     0.082 A 
ATOM      9  C32 ZIN A   1      19.223  -4.229  10.676  0.00  0.00     0.160 A 
ATOM     10  F33 ZIN A   1      20.297  -3.437  10.468  0.00  0.00    -0.203 F 
BRANCH   8  11
ATOM     11  N7  ZIN A   1      18.799  -3.102  12.769  0.00  0.00    -0.281 N 
ATOM     12  H41 ZIN A   1      19.332  -3.340  13.544  0.00  0.00     0.178 HD
BRANCH  11  13
ATOM     13  S4  ZIN A   1      18.292  -1.540  12.564  0.00  0.00     0.231 S 
ATOM     14  O5  ZIN A   1      17.038  -1.662  11.905  0.00  0.00    -0.206 OA
ATOM     15  O6  ZIN A   1      19.389  -0.894  11.933  0.00  0.00    -0.206 OA
BRANCH  13  16
ATOM     16  C3  ZIN A   1      18.066  -0.911  14.250  0.00  0.00     0.163 C 
BRANCH  16  17
ATOM     17  C2  ZIN A   1      19.271  -1.305  15.107  0.00  0.00     0.012 C 
ATOM     18  C1  ZIN A   1      18.865  -1.320  16.582  0.00  0.00     0.006 C 
ENDBRANCH  16  17
ENDBRANCH  13  16
ENDBRANCH  11  13
ENDBRANCH   8  11
ENDBRANCH   1   3
BRANCH   1  19
ATOM     19  C16 ZIN A   1      19.260  -4.763   7.259  0.00  0.00     0.044 A 
ATOM     20  C31 ZIN A   1      18.908  -3.346   7.045  0.00  0.00     0.026 A 
ATOM     21  C19 ZIN A   1      18.562  -3.232   5.687  0.00  0.00     0.138 A 
ATOM     22  C30 ZIN A   1      18.877  -2.221   7.861  0.00  0.00     0.030 A 
ATOM     23  N18 ZIN A   1      18.687  -4.485   5.126  0.00  0.00    -0.349 N 
ATOM     24  N20 ZIN A   1      18.198  -2.056   5.192  0.00  0.00    -0.242 NA
ATOM     25  C17 ZIN A   1      19.098  -5.384   6.054  0.00  0.00     0.106 A 
ATOM     26  H45 ZIN A   1      18.506  -4.694   4.197  0.00  0.00     0.167 HD
ATOM     27  C21 ZIN A   1      18.153  -0.974   5.936  0.00  0.00     0.131 A 
ATOM     28  C22 ZIN A   1      18.488  -1.009   7.292  0.00  0.00    -0.007 A 
BRANCH  28  29
ATOM     29  C23 ZIN A   1      18.430   0.226   8.114  0.00  0.00    -0.024 A 
ATOM     30  C29 ZIN A   1      17.605   0.280   9.235  0.00  0.00     0.014 A 
ATOM     31  C28 ZIN A   1      17.558   1.428   9.998  0.00  0.00     0.024 A 
ATOM     32  C26 ZIN A   1      18.321   2.529   9.645  0.00  0.00     0.034 A 
ATOM     33  C25 ZIN A   1      19.138   2.482   8.529  0.00  0.00     0.024 A 
ATOM     34 Cl27 ZIN A   1      18.253   3.973  10.606  0.00  0.00    -0.084 Cl
ATOM     35  C24 ZIN A   1      19.196   1.335   7.762  0.00  0.00     0.014 A 
ENDBRANCH  28  29
ENDBRANCH   1  19
TORSDOF 7
ENDMDL
MODEL 3
REMARK VINA RESULT:      -9.4      4.068      8.738
REMARK  7 active torsions:
REMARK  status: ('A' for Active; 'I' for Inactive)
REMARK    1  A    between atoms: C2_2  and  C3_3 
REMARK    2  A    between atoms: C3_3  and  S4_4 
REMARK    3  A    between atoms: S4_4  and  N7_7 
REMARK    4  A    between atoms: N7_7  and  C8_8 
REMARK    5  A    between atoms: C13_13  and  C14_14 
REMARK    6  A    between atoms: C14_14  and  C16_16 
REMARK    7  A    between atoms: C22_22  and  C23_23 
ROOT
ATOM      1  C14 ZIN A   1      19.280  -3.130   6.840  0.00  0.00     0.200 C 
ATOM      2  O15 ZIN A   1      20.300  -3.580   6.352  0.00  0.00    -0.286 OA
ENDROOT
BRANCH   1   3
ATOM      3  C13 ZIN A   1      18.916  -1.717   6.615  0.00  0.00     0.094 A 
ATOM      4  C11 ZIN A   1      18.155  -1.356   5.498  0.00  0.00     0.133 A 
ATOM      5  C10 ZIN A   1      17.817  -0.033   5.291  0.00  0.00     0.046 A 
ATOM      6  F12 ZIN A   1      17.751  -2.302   4.621  0.00  0.00    -0.205 F 
ATOM      7  C9  ZIN A   1      18.228   0.939   6.186  0.00  0.00     0.036 A 
ATOM      8  C8  ZIN A   1      18.984   0.593   7.297  0.00  0.00     0.082 A 
ATOM      9  C32 ZIN A   1      19.335  -0.733   7.515  0.00  0.00     0.160 A 
ATOM     10  F33 ZIN A   1      20.070  -1.070   8.597  0.00  0.00    -0.203 F 
BRANCH   8  11
ATOM     11  N7  ZIN A   1      19.395   1.583   8.198  0.00  0.00    -0.281 N 
ATOM     12  H41 ZIN A   1      20.109   2.194   7.955  0.00  0.00     0.178 HD
BRANCH  11  13
ATOM     13  S4  ZIN A   1      18.665   1.712   9.679  0.00  0.00     0.231 S 
ATOM     14  O5  ZIN A   1      19.660   1.282  10.599  0.00  0.00    -0.206 OA
ATOM     15  O6  ZIN A   1      17.447   0.996   9.532  0.00  0.00    -0.206 OA
BRANCH  13  16
ATOM     16  C3  ZIN A   1      18.344   3.486   9.872  0.00  0.00     0.163 C 
BRANCH  16  17
ATOM     17  C2  ZIN A   1      17.476   3.715  11.112  0.00  0.00     0.012 C 
ATOM     18  C1  ZIN A   1      16.748   5.055  10.984  0.00  0.00     0.006 C 
ENDBRANCH  16  17
ENDBRANCH  13  16
ENDBRANCH  11  13
ENDBRANCH   8  11
ENDBRANCH   1   3
BRANCH   1  19
ATOM     19  C16 ZIN A   1      18.412  -3.991   7.652  0.00  0.00     0.044 A 
ATOM     20  C31 ZIN A   1      18.052  -3.798   9.070  0.00  0.00     0.026 A 
ATOM     21  C19 ZIN A   1      17.203  -4.868   9.404  0.00  0.00     0.138 A 
ATOM     22  C30 ZIN A   1      18.360  -2.836  10.026  0.00  0.00     0.030 A 
ATOM     23  N18 ZIN A   1      17.069  -5.651   8.278  0.00  0.00    -0.349 N 
ATOM     24  N20 ZIN A   1      16.708  -4.962  10.631  0.00  0.00    -0.242 NA
ATOM     25  C17 ZIN A   1      17.781  -5.132   7.248  0.00  0.00     0.106 A 
ATOM     26  H45 ZIN A   1      16.537  -6.461   8.230  0.00  0.00     0.167 HD
ATOM     27  C21 ZIN A   1      16.983  -4.075  11.561  0.00  0.00     0.131 A 
ATOM     28  C22 ZIN A   1      17.813  -2.982  11.300  0.00  0.00    -0.007 A 
BRANCH  28  29
ATOM     29  C23 ZIN A   1      18.109  -1.991  12.365  0.00  0.00    -0.024 A 
ATOM     30  C29 ZIN A   1      17.342  -0.833  12.476  0.00  0.00     0.014 A 
ATOM     31  C28 ZIN A   1      17.619   0.082  13.469  0.00  0.00     0.024 A 
ATOM     32  C26 ZIN A   1      18.664  -0.143  14.350  0.00  0.00     0.034 A 
ATOM     33  C25 ZIN A   1      19.432  -1.289  14.241  0.00  0.00     0.024 A 
ATOM     34 Cl27 ZIN A   1      19.011   1.016  15.595  0.00  0.00    -0.084 Cl
ATOM     35  C24 ZIN A   1      19.160  -2.214  13.253  0.00  0.00     0.014 A 
ENDBRANCH  28  29
ENDBRANCH   1  19
TORSDOF 7
ENDMDL
MODEL 4
REMARK VINA RESULT:      -9.4      2.903      5.435
REMARK  7 active torsions:
REMARK  status: ('A' for Active; 'I' for Inactive)
REMARK    1  A    between atoms: C2_2  and  C3_3 
REMARK    2  A    between atoms: C3_3  and  S4_4 
REMARK    3  A    between atoms: S4_4  and  N7_7 
REMARK    4  A    between atoms: N7_7  and  C8_8 
REMARK    5  A    between atoms: C13_13  and  C14_14 
REMARK    6  A    between atoms: C14_14  and  C16_16 
REMARK    7  A    between atoms: C22_22  and  C23_23 
ROOT
ATOM      1  C14 ZIN A   1      17.115   0.281  12.141  0.00  0.00     0.200 C 
ATOM      2  O15 ZIN A   1      15.989  -0.111  11.899  0.00  0.00    -0.286 OA
ENDROOT
BRANCH   1   3
ATOM      3  C13 ZIN A   1      17.841  -0.245  13.314  0.00  0.00     0.094 A 
ATOM      4  C11 ZIN A   1      18.851  -1.200  13.148  0.00  0.00     0.133 A 
ATOM      5  C10 ZIN A   1      19.528  -1.688  14.247  0.00  0.00     0.046 A 
ATOM      6  F12 ZIN A   1      19.162  -1.643  11.909  0.00  0.00    -0.205 F 
ATOM      7  C9  ZIN A   1      19.213  -1.237  15.516  0.00  0.00     0.036 A 
ATOM      8  C8  ZIN A   1      18.214  -0.290  15.695  0.00  0.00     0.082 A 
ATOM      9  C32 ZIN A   1      17.521   0.206  14.598  0.00  0.00     0.160 A 
ATOM     10  F33 ZIN A   1      16.549   1.128  14.771  0.00  0.00    -0.203 F 
BRANCH   8  11
ATOM     11  N7  ZIN A   1      17.901   0.162  16.983  0.00  0.00    -0.281 N 
ATOM     12  H41 ZIN A   1      17.142  -0.213  17.458  0.00  0.00     0.178 HD
BRANCH  11  13
ATOM     13  S4  ZIN A   1      18.825   1.337  17.696  0.00  0.00     0.231 S 
ATOM     14  O5  ZIN A   1      19.922   0.627  18.257  0.00  0.00    -0.206 OA
ATOM     15  O6  ZIN A   1      17.913   2.047  18.523  0.00  0.00    -0.206 OA
BRANCH  13  16
ATOM     16  C3  ZIN A   1      19.378   2.377  16.317  0.00  0.00     0.163 C 
BRANCH  16  17
ATOM     17  C2  ZIN A   1      18.549   3.663  16.284  0.00  0.00     0.012 C 
ATOM     18  C1  ZIN A   1      18.356   4.108  14.832  0.00  0.00     0.006 C 
ENDBRANCH  16  17
ENDBRANCH  13  16
ENDBRANCH  11  13
ENDBRANCH   8  11
ENDBRANCH   1   3
BRANCH   1  19
ATOM     19  C16 ZIN A   1      17.751   1.275  11.269  0.00  0.00     0.044 A 
ATOM     20  C31 ZIN A   1      18.130   1.097   9.855  0.00  0.00     0.026 A 
ATOM     21  C19 ZIN A   1      18.699   2.318   9.449  0.00  0.00     0.138 A 
ATOM     22  C30 ZIN A   1      18.020   0.051   8.946  0.00  0.00     0.030 A 
ATOM     23  N18 ZIN A   1      18.673   3.163  10.536  0.00  0.00    -0.349 N 
ATOM     24  N20 ZIN A   1      19.137   2.463   8.205  0.00  0.00    -0.242 NA
ATOM     25  C17 ZIN A   1      18.115   2.547  11.607  0.00  0.00     0.106 A 
ATOM     26  H45 ZIN A   1      19.008   4.073  10.536  0.00  0.00     0.167 HD
ATOM     27  C21 ZIN A   1      19.054   1.493   7.322  0.00  0.00     0.131 A 
ATOM     28  C22 ZIN A   1      18.495   0.256   7.651  0.00  0.00    -0.007 A 
BRANCH  28  29
ATOM     29  C23 ZIN A   1      18.411  -0.826   6.638  0.00  0.00    -0.024 A 
ATOM     30  C29 ZIN A   1      19.126  -2.009   6.817  0.00  0.00     0.014 A 
ATOM     31  C28 ZIN A   1      19.041  -3.012   5.875  0.00  0.00     0.024 A 
ATOM     32  C26 ZIN A   1      18.255  -2.841   4.747  0.00  0.00     0.034 A 
ATOM     33  C25 ZIN A   1      17.548  -1.666   4.562  0.00  0.00     0.024 A 
ATOM     34 Cl27 ZIN A   1      18.157  -4.106   3.561  0.00  0.00    -0.084 Cl
ATOM     35  C24 ZIN A   1      17.622  -0.658   5.502  0.00  0.00     0.014 A 
ENDBRANCH  28  29
ENDBRANCH   1  19
TORSDOF 7
ENDMDL
MODEL 5
REMARK VINA RESULT:      -9.3      2.637      5.274
REMARK  7 active torsions:
REMARK  status: ('A' for Active; 'I' for Inactive)
REMARK    1  A    between atoms: C2_2  and  C3_3 
REMARK    2  A    between atoms: C3_3  and  S4_4 
REMARK    3  A    between atoms: S4_4  and  N7_7 
REMARK    4  A    between atoms: N7_7  and  C8_8 
REMARK    5  A    between atoms: C13_13  and  C14_14 
REMARK    6  A    between atoms: C14_14  and  C16_16 
REMARK    7  A    between atoms: C22_22  and  C23_23 
ROOT
ATOM      1  C14 ZIN A   1      19.620   3.805  16.431  0.00  0.00     0.200 C 
ATOM      2  O15 ZIN A   1      20.738   4.252  16.607  0.00  0.00    -0.286 OA
ENDROOT
BRANCH   1   3
ATOM      3  C13 ZIN A   1      18.680   4.505  15.533  0.00  0.00     0.094 A 
ATOM      4  C11 ZIN A   1      17.605   5.227  16.063  0.00  0.00     0.133 A 
ATOM      5  C10 ZIN A   1      16.728   5.880  15.220  0.00  0.00     0.046 A 
ATOM      6  F12 ZIN A   1      17.427   5.286  17.402  0.00  0.00    -0.205 F 
ATOM      7  C9  ZIN A   1      16.908   5.823  13.849  0.00  0.00     0.036 A 
ATOM      8  C8  ZIN A   1      17.969   5.110  13.311  0.00  0.00     0.082 A 
ATOM      9  C32 ZIN A   1      18.856   4.444  14.147  0.00  0.00     0.160 A 
ATOM     10  F33 ZIN A   1      19.890   3.749  13.624  0.00  0.00    -0.203 F 
BRANCH   8  11
ATOM     11  N7  ZIN A   1      18.144   5.057  11.922  0.00  0.00    -0.281 N 
ATOM     12  H41 ZIN A   1      18.758   5.669  11.487  0.00  0.00     0.178 HD
BRANCH  11  13
ATOM     13  S4  ZIN A   1      17.303   3.950  11.023  0.00  0.00     0.231 S 
ATOM     14  O5  ZIN A   1      16.187   4.678  10.526  0.00  0.00    -0.206 OA
ATOM     15  O6  ZIN A   1      17.125   2.847  11.900  0.00  0.00    -0.206 OA
BRANCH  13  16
ATOM     16  C3  ZIN A   1      18.431   3.514   9.671  0.00  0.00     0.163 C 
BRANCH  16  17
ATOM     17  C2  ZIN A   1      18.862   2.053   9.817  0.00  0.00     0.012 C 
ATOM     18  C1  ZIN A   1      18.892   1.390   8.439  0.00  0.00     0.006 C 
ENDBRANCH  16  17
ENDBRANCH  13  16
ENDBRANCH  11  13
ENDBRANCH   8  11
ENDBRANCH   1   3
BRANCH   1  19
ATOM     19  C16 ZIN A   1      19.206   2.572  17.111  0.00  0.00     0.044 A 
ATOM     20  C31 ZIN A   1      18.844   1.291  16.476  0.00  0.00     0.026 A 
ATOM     21  C19 ZIN A   1      18.523   0.414  17.526  0.00  0.00     0.138 A 
ATOM     22  C30 ZIN A   1      18.786   0.844  15.161  0.00  0.00     0.030 A 
ATOM     23  N18 ZIN A   1      18.672   1.113  18.704  0.00  0.00    -0.349 N 
ATOM     24  N20 ZIN A   1      18.157  -0.833  17.260  0.00  0.00    -0.242 NA
ATOM     25  C17 ZIN A   1      19.074   2.384  18.457  0.00  0.00     0.106 A 
ATOM     26  H45 ZIN A   1      18.511   0.747  19.587  0.00  0.00     0.167 HD
ATOM     27  C21 ZIN A   1      18.086  -1.288  16.028  0.00  0.00     0.131 A 
ATOM     28  C22 ZIN A   1      18.396  -0.476  14.935  0.00  0.00    -0.007 A 
BRANCH  28  29
ATOM     29  C23 ZIN A   1      18.309  -1.010  13.553  0.00  0.00    -0.024 A 
ATOM     30  C29 ZIN A   1      19.189  -2.007  13.132  0.00  0.00     0.014 A 
ATOM     31  C28 ZIN A   1      19.101  -2.502  11.848  0.00  0.00     0.024 A 
ATOM     32  C26 ZIN A   1      18.149  -2.005  10.974  0.00  0.00     0.034 A 
ATOM     33  C25 ZIN A   1      17.277  -1.012  11.385  0.00  0.00     0.024 A 
ATOM     34 Cl27 ZIN A   1      18.048  -2.629   9.357  0.00  0.00    -0.084 Cl
ATOM     35  C24 ZIN A   1      17.352  -0.513  12.670  0.00  0.00     0.014 A 
ENDBRANCH  28  29
ENDBRANCH   1  19
TORSDOF 7
ENDMDL
MODEL 6
REMARK VINA RESULT:      -9.3      2.611      5.101
REMARK  7 active torsions:
REMARK  status: ('A' for Active; 'I' for Inactive)
REMARK    1  A    between atoms: C2_2  and  C3_3 
REMARK    2  A    between atoms: C3_3  and  S4_4 
REMARK    3  A    between atoms: S4_4  and  N7_7 
REMARK    4  A    between atoms: N7_7  and  C8_8 
REMARK    5  A    between atoms: C13_13  and  C14_14 
REMARK    6  A    between atoms: C14_14  and  C16_16 
REMARK    7  A    between atoms: C22_22  and  C23_23 
ROOT
ATOM      1  C14 ZIN A   1      19.333   4.336  13.712  0.00  0.00     0.200 C 
ATOM      2  O15 ZIN A   1      20.172   5.192  13.925  0.00  0.00    -0.286 OA
ENDROOT
BRANCH   1   3
ATOM      3  C13 ZIN A   1      18.797   4.152  12.349  0.00  0.00     0.094 A 
ATOM      4  C11 ZIN A   1      17.673   4.874  11.931  0.00  0.00     0.133 A 
ATOM      5  C10 ZIN A   1      17.175   4.698  10.655  0.00  0.00     0.046 A 
ATOM      6  F12 ZIN A   1      17.075   5.741  12.777  0.00  0.00    -0.205 F 
ATOM      7  C9  ZIN A   1      17.784   3.812   9.785  0.00  0.00     0.036 A 
ATOM      8  C8  ZIN A   1      18.900   3.091  10.187  0.00  0.00     0.082 A 
ATOM      9  C32 ZIN A   1      19.408   3.253  11.470  0.00  0.00     0.160 A 
ATOM     10  F33 ZIN A   1      20.494   2.552  11.862  0.00  0.00    -0.203 F 
BRANCH   8  11
ATOM     11  N7  ZIN A   1      19.511   2.195   9.301  0.00  0.00    -0.281 N 
ATOM     12  H41 ZIN A   1      20.179   2.514   8.674  0.00  0.00     0.178 HD
BRANCH  11  13
ATOM     13  S4  ZIN A   1      19.094   0.593   9.323  0.00  0.00     0.231 S 
ATOM     14  O5  ZIN A   1      17.714   0.595   9.665  0.00  0.00    -0.206 OA
ATOM     15  O6  ZIN A   1      20.058  -0.009  10.175  0.00  0.00    -0.206 OA
BRANCH  13  16
ATOM     16  C3  ZIN A   1      19.324   0.042   7.610  0.00  0.00     0.163 C 
BRANCH  16  17
ATOM     17  C2  ZIN A   1      18.448   0.885   6.681  0.00  0.00     0.012 C 
ATOM     18  C1  ZIN A   1      17.283   0.036   6.169  0.00  0.00     0.006 C 
ENDBRANCH  16  17
ENDBRANCH  13  16
ENDBRANCH  11  13
ENDBRANCH   8  11
ENDBRANCH   1   3
BRANCH   1  19
ATOM     19  C16 ZIN A   1      18.853   3.488  14.809  0.00  0.00     0.044 A 
ATOM     20  C31 ZIN A   1      18.593   2.037  14.756  0.00  0.00     0.026 A 
ATOM     21  C19 ZIN A   1      18.154   1.674  16.042  0.00  0.00     0.138 A 
ATOM     22  C30 ZIN A   1      18.709   1.067  13.767  0.00  0.00     0.030 A 
ATOM     23  N18 ZIN A   1      18.142   2.818  16.809  0.00  0.00    -0.349 N 
ATOM     24  N20 ZIN A   1      17.843   0.411  16.304  0.00  0.00    -0.242 NA
ATOM     25  C17 ZIN A   1      18.555   3.885  16.081  0.00  0.00     0.106 A 
ATOM     26  H45 ZIN A   1      17.876   2.856  17.741  0.00  0.00     0.167 HD
ATOM     27  C21 ZIN A   1      17.935  -0.530  15.391  0.00  0.00     0.131 A 
ATOM     28  C22 ZIN A   1      18.369  -0.246  14.094  0.00  0.00    -0.007 A 
BRANCH  28  29
ATOM     29  C23 ZIN A   1      18.466  -1.324  13.079  0.00  0.00    -0.024 A 
ATOM     30  C29 ZIN A   1      17.402  -1.565  12.211  0.00  0.00     0.014 A 
ATOM     31  C28 ZIN A   1      17.499  -2.565  11.267  0.00  0.00     0.024 A 
ATOM     32  C26 ZIN A   1      18.647  -3.337  11.187  0.00  0.00     0.034 A 
ATOM     33  C25 ZIN A   1      19.703  -3.106  12.051  0.00  0.00     0.024 A 
ATOM     34 Cl27 ZIN A   1      18.760  -4.599  10.000  0.00  0.00    -0.084 Cl
ATOM     35  C24 ZIN A   1      19.618  -2.103  12.995  0.00  0.00     0.014 A 
ENDBRANCH  28  29
ENDBRANCH   1  19
TORSDOF 7
ENDMDL
MODEL 7
REMARK VINA RESULT:      -9.2      4.648      7.817
REMARK  7 active torsions:
REMARK  status: ('A' for Active; 'I' for Inactive)
REMARK    1  A    between atoms: C2_2  and  C3_3 
REMARK    2  A    between atoms: C3_3  and  S4_4 
REMARK    3  A    between atoms: S4_4  and  N7_7 
REMARK    4  A    between atoms: N7_7  and  C8_8 
REMARK    5  A    between atoms: C13_13  and  C14_14 
REMARK    6  A    between atoms: C14_14  and  C16_16 
REMARK    7  A    between atoms: C22_22  and  C23_23 
ROOT
ATOM      1  C14 ZIN A   1      17.388  -0.231  10.673  0.00  0.00     0.200 C 
ATOM      2  O15 ZIN A   1      16.325   0.135  11.139  0.00  0.00    -0.286 OA
ENDROOT
BRANCH   1   3
ATOM      3  C13 ZIN A   1      17.906   0.394   9.440  0.00  0.00     0.094 A 
ATOM      4  C11 ZIN A   1      18.673   1.563   9.511  0.00  0.00     0.133 A 
ATOM      5  C10 ZIN A   1      19.155   2.143   8.355  0.00  0.00     0.046 A 
ATOM      6  F12 ZIN A   1      18.940   2.123  10.712  0.00  0.00    -0.205 F 
ATOM      7  C9  ZIN A   1      18.885   1.574   7.124  0.00  0.00     0.036 A 
ATOM      8  C8  ZIN A   1      18.126   0.415   7.040  0.00  0.00     0.082 A 
ATOM      9  C32 ZIN A   1      17.629  -0.177   8.194  0.00  0.00     0.160 A 
ATOM     10  F33 ZIN A   1      16.891  -1.305   8.113  0.00  0.00    -0.203 F 
BRANCH   8  11
ATOM     11  N7  ZIN A   1      17.857  -0.156   5.790  0.00  0.00    -0.281 N 
ATOM     12  H41 ZIN A   1      17.081   0.131   5.283  0.00  0.00     0.178 HD
BRANCH  11  13
ATOM     13  S4  ZIN A   1      18.862  -1.320   5.177  0.00  0.00     0.231 S 
ATOM     14  O5  ZIN A   1      19.921  -0.587   4.575  0.00  0.00    -0.206 OA
ATOM     15  O6  ZIN A   1      18.008  -2.146   4.397  0.00  0.00    -0.206 OA
BRANCH  13  16
ATOM     16  C3  ZIN A   1      19.458  -2.218   6.636  0.00  0.00     0.163 C 
BRANCH  16  17
ATOM     17  C2  ZIN A   1      18.868  -3.630   6.642  0.00  0.00     0.012 C 
ATOM     18  C1  ZIN A   1      19.943  -4.630   7.072  0.00  0.00     0.006 C 
ENDBRANCH  16  17
ENDBRANCH  13  16
ENDBRANCH  11  13
ENDBRANCH   8  11
ENDBRANCH   1   3
BRANCH   1  19
ATOM     19  C16 ZIN A   1      18.155  -1.292  11.337  0.00  0.00     0.044 A 
ATOM     20  C31 ZIN A   1      18.096  -2.737  11.049  0.00  0.00     0.026 A 
ATOM     21  C19 ZIN A   1      19.005  -3.346  11.932  0.00  0.00     0.138 A 
ATOM     22  C30 ZIN A   1      17.386  -3.517  10.143  0.00  0.00     0.030 A 
ATOM     23  N18 ZIN A   1      19.564  -2.347  12.699  0.00  0.00    -0.349 N 
ATOM     24  N20 ZIN A   1      19.175  -4.662  11.905  0.00  0.00    -0.242 NA
ATOM     25  C17 ZIN A   1      19.062  -1.138  12.346  0.00  0.00     0.106 A 
ATOM     26  H45 ZIN A   1      20.224  -2.489  13.394  0.00  0.00     0.167 HD
ATOM     27  C21 ZIN A   1      18.516  -5.429  11.065  0.00  0.00     0.131 A 
ATOM     28  C22 ZIN A   1      17.601  -4.895  10.155  0.00  0.00    -0.007 A 
BRANCH  28  29
ATOM     29  C23 ZIN A   1      16.868  -5.780   9.216  0.00  0.00    -0.024 A 
ATOM     30  C29 ZIN A   1      17.507  -6.885   8.654  0.00  0.00     0.014 A 
ATOM     31  C28 ZIN A   1      16.820  -7.707   7.786  0.00  0.00     0.024 A 
ATOM     32  C26 ZIN A   1      15.501  -7.431   7.463  0.00  0.00     0.034 A 
ATOM     33  C25 ZIN A   1      14.865  -6.332   8.015  0.00  0.00     0.024 A 
ATOM     34 Cl27 ZIN A   1      14.644  -8.466   6.365  0.00  0.00    -0.084 Cl
ATOM     35  C24 ZIN A   1      15.542  -5.507   8.890  0.00  0.00     0.014 A 
ENDBRANCH  28  29
ENDBRANCH   1  19
TORSDOF 7
ENDMDL
MODEL 8
REMARK VINA RESULT:      -9.0      4.633      8.013
REMARK  7 active torsions:
REMARK  status: ('A' for Active; 'I' for Inactive)
REMARK    1  A    between atoms: C2_2  and  C3_3 
REMARK    2  A    between atoms: C3_3  and  S4_4 
REMARK    3  A    between atoms: S4_4  and  N7_7 
REMARK    4  A    between atoms: N7_7  and  C8_8 
REMARK    5  A    between atoms: C13_13  and  C14_14 
REMARK    6  A    between atoms: C14_14  and  C16_16 
REMARK    7  A    between atoms: C22_22  and  C23_23 
ROOT
ATOM      1  C14 ZIN A   1      17.909  -4.550   6.748  0.00  0.00     0.200 C 
ATOM      2  O15 ZIN A   1      16.989  -5.297   6.473  0.00  0.00    -0.286 OA
ENDROOT
BRANCH   1   3
ATOM      3  C13 ZIN A   1      18.633  -4.710   8.024  0.00  0.00     0.094 A 
ATOM      4  C11 ZIN A   1      19.890  -5.325   8.048  0.00  0.00     0.133 A 
ATOM      5  C10 ZIN A   1      20.564  -5.473   9.244  0.00  0.00     0.046 A 
ATOM      6  F12 ZIN A   1      20.444  -5.774   6.900  0.00  0.00    -0.205 F 
ATOM      7  C9  ZIN A   1      20.002  -5.014  10.422  0.00  0.00     0.036 A 
ATOM      8  C8  ZIN A   1      18.756  -4.402  10.411  0.00  0.00     0.082 A 
ATOM      9  C32 ZIN A   1      18.065  -4.252   9.216  0.00  0.00     0.160 A 
ATOM     10  F33 ZIN A   1      16.852  -3.656   9.205  0.00  0.00    -0.203 F 
BRANCH   8  11
ATOM     11  N7  ZIN A   1      18.194  -3.940  11.608  0.00  0.00    -0.281 N 
ATOM     12  H41 ZIN A   1      17.730  -4.557  12.196  0.00  0.00     0.178 HD
BRANCH  11  13
ATOM     13  S4  ZIN A   1      18.320  -2.341  12.020  0.00  0.00     0.231 S 
ATOM     14  O5  ZIN A   1      18.951  -2.357  13.294  0.00  0.00    -0.206 OA
ATOM     15  O6  ZIN A   1      17.003  -1.833  11.861  0.00  0.00    -0.206 OA
BRANCH  13  16
ATOM     16  C3  ZIN A   1      19.430  -1.638  10.769  0.00  0.00     0.163 C 
BRANCH  16  17
ATOM     17  C2  ZIN A   1      20.719  -1.162  11.441  0.00  0.00     0.012 C 
ATOM     18  C1  ZIN A   1      20.561   0.297  11.873  0.00  0.00     0.006 C 
ENDBRANCH  16  17
ENDBRANCH  13  16
ENDBRANCH  11  13
ENDBRANCH   8  11
ENDBRANCH   1   3
BRANCH   1  19
ATOM     19  C16 ZIN A   1      18.299  -3.489   5.811  0.00  0.00     0.044 A 
ATOM     20  C31 ZIN A   1      18.453  -2.054   6.115  0.00  0.00     0.026 A 
ATOM     21  C19 ZIN A   1      18.839  -1.441   4.910  0.00  0.00     0.138 A 
ATOM     22  C30 ZIN A   1      18.313  -1.286   7.266  0.00  0.00     0.030 A 
ATOM     23  N18 ZIN A   1      18.904  -2.428   3.951  0.00  0.00    -0.349 N 
ATOM     24  N20 ZIN A   1      19.058  -0.133   4.872  0.00  0.00    -0.242 NA
ATOM     25  C17 ZIN A   1      18.586  -3.633   4.484  0.00  0.00     0.106 A 
ATOM     26  H45 ZIN A   1      19.145  -2.281   3.023  0.00  0.00     0.167 HD
ATOM     27  C21 ZIN A   1      18.930   0.623   5.940  0.00  0.00     0.131 A 
ATOM     28  C22 ZIN A   1      18.556   0.084   7.173  0.00  0.00    -0.007 A 
BRANCH  28  29
ATOM     29  C23 ZIN A   1      18.418   0.957   8.365  0.00  0.00    -0.024 A 
ATOM     30  C29 ZIN A   1      17.498   0.636   9.363  0.00  0.00     0.014 A 
ATOM     31  C28 ZIN A   1      17.377   1.448  10.471  0.00  0.00     0.024 A 
ATOM     32  C26 ZIN A   1      18.159   2.586  10.589  0.00  0.00     0.034 A 
ATOM     33  C25 ZIN A   1      19.069   2.911   9.598  0.00  0.00     0.024 A 
ATOM     34 Cl27 ZIN A   1      17.996   3.607  11.983  0.00  0.00    -0.084 Cl
ATOM     35  C24 ZIN A   1      19.202   2.102   8.487  0.00  0.00     0.014 A 
ENDBRANCH  28  29
ENDBRANCH   1  19
TORSDOF 7
ENDMDL
MODEL 9
REMARK VINA RESULT:      -8.7      3.271      6.089
REMARK  7 active torsions:
REMARK  status: ('A' for Active; 'I' for Inactive)
REMARK    1  A    between atoms: C2_2  and  C3_3 
REMARK    2  A    between atoms: C3_3  and  S4_4 
REMARK    3  A    between atoms: S4_4  and  N7_7 
REMARK    4  A    between atoms: N7_7  and  C8_8 
REMARK    5  A    between atoms: C13_13  and  C14_14 
REMARK    6  A    between atoms: C14_14  and  C16_16 
REMARK    7  A    between atoms: C22_22  and  C23_23 
ROOT
ATOM      1  C14 ZIN A   1      20.282   0.699  12.337  0.00  0.00     0.200 C 
ATOM      2  O15 ZIN A   1      21.494   0.613  12.266  0.00  0.00    -0.286 OA
ENDROOT
BRANCH   1   3
ATOM      3  C13 ZIN A   1      19.593   0.370  13.601  0.00  0.00     0.094 A 
ATOM      4  C11 ZIN A   1      19.349  -0.965  13.943  0.00  0.00     0.133 A 
ATOM      5  C10 ZIN A   1      18.704  -1.268  15.126  0.00  0.00     0.046 A 
ATOM      6  F12 ZIN A   1      19.745  -1.957  13.115  0.00  0.00    -0.205 F 
ATOM      7  C9  ZIN A   1      18.297  -0.255  15.976  0.00  0.00     0.036 A 
ATOM      8  C8  ZIN A   1      18.533   1.072  15.648  0.00  0.00     0.082 A 
ATOM      9  C32 ZIN A   1      19.175   1.392  14.459  0.00  0.00     0.160 A 
ATOM     10  F33 ZIN A   1      19.406   2.684  14.139  0.00  0.00    -0.203 F 
BRANCH   8  11
ATOM     11  N7  ZIN A   1      18.118   2.091  16.514  0.00  0.00    -0.281 N 
ATOM     12  H41 ZIN A   1      17.216   2.443  16.452  0.00  0.00     0.178 HD
BRANCH  11  13
ATOM     13  S4  ZIN A   1      19.166   2.696  17.645  0.00  0.00     0.231 S 
ATOM     14  O5  ZIN A   1      20.070   3.494  16.892  0.00  0.00    -0.206 OA
ATOM     15  O6  ZIN A   1      19.617   1.550  18.354  0.00  0.00    -0.206 OA
BRANCH  13  16
ATOM     16  C3  ZIN A   1      18.131   3.738  18.709  0.00  0.00     0.163 C 
BRANCH  16  17
ATOM     17  C2  ZIN A   1      16.938   2.925  19.215  0.00  0.00     0.012 C 
ATOM     18  C1  ZIN A   1      16.281   3.658  20.387  0.00  0.00     0.006 C 
ENDBRANCH  16  17
ENDBRANCH  13  16
ENDBRANCH  11  13
ENDBRANCH   8  11
ENDBRANCH   1   3
BRANCH   1  19
ATOM     19  C16 ZIN A   1      19.506   1.128  11.168  0.00  0.00     0.044 A 
ATOM     20  C31 ZIN A   1      18.903   0.259  10.140  0.00  0.00     0.026 A 
ATOM     21  C19 ZIN A   1      18.262   1.120   9.231  0.00  0.00     0.138 A 
ATOM     22  C30 ZIN A   1      18.849  -1.116   9.943  0.00  0.00     0.030 A 
ATOM     23  N18 ZIN A   1      18.470   2.409   9.671  0.00  0.00    -0.349 N 
ATOM     24  N20 ZIN A   1      17.619   0.619   8.185  0.00  0.00    -0.242 NA
ATOM     25  C17 ZIN A   1      19.202   2.411  10.812  0.00  0.00     0.106 A 
ATOM     26  H45 ZIN A   1      18.138   3.204   9.227  0.00  0.00     0.167 HD
ATOM     27  C21 ZIN A   1      17.553  -0.676   7.965  0.00  0.00     0.131 A 
ATOM     28  C22 ZIN A   1      18.160  -1.592   8.827  0.00  0.00    -0.007 A 
BRANCH  28  29
ATOM     29  C23 ZIN A   1      18.073  -3.049   8.560  0.00  0.00    -0.024 A 
ATOM     30  C29 ZIN A   1      17.608  -3.915   9.549  0.00  0.00     0.014 A 
ATOM     31  C28 ZIN A   1      17.525  -5.267   9.294  0.00  0.00     0.024 A 
ATOM     32  C26 ZIN A   1      17.912  -5.767   8.061  0.00  0.00     0.034 A 
ATOM     33  C25 ZIN A   1      18.379  -4.912   7.078  0.00  0.00     0.024 A 
ATOM     34 Cl27 ZIN A   1      17.811  -7.472   7.749  0.00  0.00    -0.084 Cl
ATOM     35  C24 ZIN A   1      18.461  -3.556   7.322  0.00  0.00     0.014 A 
ENDBRANCH  28  29
ENDBRANCH   1  19
TORSDOF 7
ENDMDL
