MODEL 1
REMARK VINA RESULT:      -9.0      0.000      0.000
REMARK  1 active torsions:
REMARK  status: ('A' for Active; 'I' for Inactive)
REMARK    1  A    between atoms: C2_2  and  C3_3 
REMARK       I    between atoms: C2_2  and  N9_9 
ROOT
ATOM      1  O1  ZIN A   1      17.788   4.291   9.941  0.00  0.00    -0.273 OA
ATOM      2  C2  ZIN A   1      18.295   3.554  10.762  0.00  0.00     0.224 C 
ATOM      3  N9  ZIN A   1      18.823   2.376  10.373  0.00  0.00    -0.341 N 
ATOM      4  C10 ZIN A   1      19.336   1.409  11.356  0.00  0.00     0.228 C 
ATOM      5  C11 ZIN A   1      18.773   0.055  11.019  0.00  0.00     0.238 C 
ATOM      6  O12 ZIN A   1      18.731  -0.792  11.886  0.00  0.00    -0.272 OA
ATOM      7  N13 ZIN A   1      18.318  -0.252   9.796  0.00  0.00    -0.340 N 
ATOM      8  C14 ZIN A   1      17.924  -1.651   9.530  0.00  0.00     0.131 C 
ATOM      9  C15 ZIN A   1      18.843  -2.202   8.441  0.00  0.00     0.059 C 
ATOM     10  C16 ZIN A   1      18.923  -1.246   7.279  0.00  0.00    -0.048 A 
ATOM     11  C17 ZIN A   1      19.306  -1.754   6.045  0.00  0.00     0.008 A 
ATOM     12  C18 ZIN A   1      19.407  -0.925   4.947  0.00  0.00     0.001 A 
ATOM     13  C19 ZIN A   1      19.126   0.422   5.075  0.00  0.00     0.001 A 
ATOM     14  C20 ZIN A   1      18.740   0.929   6.300  0.00  0.00     0.010 A 
ATOM     15  C21 ZIN A   1      18.633   0.095   7.404  0.00  0.00    -0.027 A 
ATOM     16  C22 ZIN A   1      18.182   0.700   8.708  0.00  0.00     0.139 C 
ATOM     17  C24 ZIN A   1      18.905   2.008   8.955  0.00  0.00     0.156 C 
ENDROOT
BRANCH   2  18
ATOM     18  C3  ZIN A   1      18.326   3.952  12.214  0.00  0.00     0.078 C 
ATOM     19  C8  ZIN A   1      17.079   4.774  12.546  0.00  0.00     0.014 C 
ATOM     20  C7  ZIN A   1      17.111   5.178  14.021  0.00  0.00     0.001 C 
ATOM     21  C6  ZIN A   1      18.361   6.017  14.292  0.00  0.00     0.000 C 
ATOM     22  C5  ZIN A   1      19.609   5.196  13.961  0.00  0.00     0.001 C 
ATOM     23  C4  ZIN A   1      19.577   4.792  12.486  0.00  0.00     0.014 C 
ENDBRANCH   2  18
TORSDOF 1
ENDMDL
MODEL 2
REMARK VINA RESULT:      -8.8      2.576      4.067
REMARK  1 active torsions:
REMARK  status: ('A' for Active; 'I' for Inactive)
REMARK    1  A    between atoms: C2_2  and  C3_3 
REMARK       I    between atoms: C2_2  and  N9_9 
ROOT
ATOM      1  O1  ZIN A   1      19.307  -1.892  12.891  0.00  0.00    -0.273 OA
ATOM      2  C2  ZIN A   1      18.606  -0.902  12.867  0.00  0.00     0.224 C 
ATOM      3  N9  ZIN A   1      18.187  -0.402  11.687  0.00  0.00    -0.341 N 
ATOM      4  C10 ZIN A   1      17.437   0.863  11.618  0.00  0.00     0.228 C 
ATOM      5  C11 ZIN A   1      18.062   1.719  10.550  0.00  0.00     0.238 C 
ATOM      6  O12 ZIN A   1      17.879   2.918  10.583  0.00  0.00    -0.272 OA
ATOM      7  N13 ZIN A   1      18.810   1.209   9.563  0.00  0.00    -0.340 N 
ATOM      8  C14 ZIN A   1      19.252   2.115   8.483  0.00  0.00     0.131 C 
ATOM      9  C15 ZIN A   1      18.637   1.626   7.173  0.00  0.00     0.059 C 
ATOM     10  C16 ZIN A   1      18.858   0.146   7.002  0.00  0.00    -0.048 A 
ATOM     11  C17 ZIN A   1      18.798  -0.376   5.717  0.00  0.00     0.008 A 
ATOM     12  C18 ZIN A   1      18.982  -1.726   5.499  0.00  0.00     0.001 A 
ATOM     13  C19 ZIN A   1      19.228  -2.567   6.568  0.00  0.00     0.001 A 
ATOM     14  C20 ZIN A   1      19.293  -2.050   7.846  0.00  0.00     0.010 A 
ATOM     15  C21 ZIN A   1      19.114  -0.691   8.066  0.00  0.00    -0.027 A 
ATOM     16  C22 ZIN A   1      19.222  -0.182   9.480  0.00  0.00     0.139 C 
ATOM     17  C24 ZIN A   1      18.466  -1.093  10.424  0.00  0.00     0.156 C 
ENDROOT
BRANCH   2  18
ATOM     18  C3  ZIN A   1      18.209  -0.229  14.155  0.00  0.00     0.078 C 
ATOM     19  C8  ZIN A   1      19.252   0.829  14.521  0.00  0.00     0.014 C 
ATOM     20  C7  ZIN A   1      18.849   1.512  15.829  0.00  0.00     0.001 C 
ATOM     21  C6  ZIN A   1      18.767   0.469  16.945  0.00  0.00     0.000 C 
ATOM     22  C5  ZIN A   1      17.724  -0.589  16.580  0.00  0.00     0.001 C 
ATOM     23  C4  ZIN A   1      18.127  -1.272  15.272  0.00  0.00     0.014 C 
ENDBRANCH   2  18
TORSDOF 1
ENDMDL
MODEL 3
REMARK VINA RESULT:      -8.7      3.294      3.844
REMARK  1 active torsions:
REMARK  status: ('A' for Active; 'I' for Inactive)
REMARK    1  A    between atoms: C2_2  and  C3_3 
REMARK       I    between atoms: C2_2  and  N9_9 
ROOT
ATOM      1  O1  ZIN A   1      18.225   2.513  14.225  0.00  0.00    -0.273 OA
ATOM      2  C2  ZIN A   1      18.706   1.413  14.400  0.00  0.00     0.224 C 
ATOM      3  N9  ZIN A   1      19.100   0.675  13.342  0.00  0.00    -0.341 N 
ATOM      4  C10 ZIN A   1      19.575  -0.707  13.511  0.00  0.00     0.228 C 
ATOM      5  C11 ZIN A   1      18.871  -1.571  12.501  0.00  0.00     0.238 C 
ATOM      6  O12 ZIN A   1      18.799  -2.765  12.703  0.00  0.00    -0.272 OA
ATOM      7  N13 ZIN A   1      18.322  -1.072  11.385  0.00  0.00    -0.340 N 
ATOM      8  C14 ZIN A   1      17.786  -2.022  10.387  0.00  0.00     0.131 C 
ATOM      9  C15 ZIN A   1      18.587  -1.856   9.097  0.00  0.00     0.059 C 
ATOM     10  C16 ZIN A   1      18.691  -0.401   8.719  0.00  0.00    -0.048 A 
ATOM     11  C17 ZIN A   1      18.956  -0.092   7.392  0.00  0.00     0.008 A 
ATOM     12  C18 ZIN A   1      19.072   1.222   6.988  0.00  0.00     0.001 A 
ATOM     13  C19 ZIN A   1      18.925   2.240   7.911  0.00  0.00     0.001 A 
ATOM     14  C20 ZIN A   1      18.656   1.936   9.230  0.00  0.00     0.010 A 
ATOM     15  C21 ZIN A   1      18.533   0.614   9.637  0.00  0.00    -0.027 A 
ATOM     16  C22 ZIN A   1      18.214   0.345  11.084  0.00  0.00     0.139 C 
ATOM     17  C24 ZIN A   1      19.068   1.219  11.980  0.00  0.00     0.156 C 
ENDROOT
BRANCH   2  18
ATOM     18  C3  ZIN A   1      18.855   0.869  15.796  0.00  0.00     0.078 C 
ATOM     19  C8  ZIN A   1      17.573   0.137  16.199  0.00  0.00     0.014 C 
ATOM     20  C7  ZIN A   1      17.725  -0.415  17.618  0.00  0.00     0.001 C 
ATOM     21  C6  ZIN A   1      17.980   0.738  18.589  0.00  0.00     0.000 C 
ATOM     22  C5  ZIN A   1      19.262   1.470  18.187  0.00  0.00     0.001 C 
ATOM     23  C4  ZIN A   1      19.111   2.023  16.769  0.00  0.00     0.014 C 
ENDBRANCH   2  18
TORSDOF 1
ENDMDL
MODEL 4
REMARK VINA RESULT:      -8.7      2.743      7.500
REMARK  1 active torsions:
REMARK  status: ('A' for Active; 'I' for Inactive)
REMARK    1  A    between atoms: C2_2  and  C3_3 
REMARK       I    between atoms: C2_2  and  N9_9 
ROOT
ATOM      1  O1  ZIN A   1      17.808  -2.152   9.822  0.00  0.00    -0.273 OA
ATOM      2  C2  ZIN A   1      18.426  -1.139   9.566  0.00  0.00     0.224 C 
ATOM      3  N9  ZIN A   1      18.926  -0.384  10.565  0.00  0.00    -0.341 N 
ATOM      4  C10 ZIN A   1      19.575   0.908  10.293  0.00  0.00     0.228 C 
ATOM      5  C11 ZIN A   1      19.001   1.928  11.238  0.00  0.00     0.238 C 
ATOM      6  O12 ZIN A   1      19.082   3.103  10.949  0.00  0.00    -0.272 OA
ATOM      7  N13 ZIN A   1      18.404   1.589  12.389  0.00  0.00    -0.340 N 
ATOM      8  C14 ZIN A   1      18.008   2.670  13.315  0.00  0.00     0.131 C 
ATOM      9  C15 ZIN A   1      18.796   2.496  14.612  0.00  0.00     0.059 C 
ATOM     10  C16 ZIN A   1      18.714   1.072  15.097  0.00  0.00    -0.048 A 
ATOM     11  C17 ZIN A   1      18.952   0.829  16.443  0.00  0.00     0.008 A 
ATOM     12  C18 ZIN A   1      18.900  -0.456  16.943  0.00  0.00     0.001 A 
ATOM     13  C19 ZIN A   1      18.611  -1.511  16.097  0.00  0.00     0.001 A 
ATOM     14  C20 ZIN A   1      18.369  -1.272  14.760  0.00  0.00     0.010 A 
ATOM     15  C21 ZIN A   1      18.415   0.022  14.257  0.00  0.00    -0.027 A 
ATOM     16  C22 ZIN A   1      18.117   0.224  12.794  0.00  0.00     0.139 C 
ATOM     17  C24 ZIN A   1      18.839  -0.817  11.964  0.00  0.00     0.156 C 
ENDROOT
BRANCH   2  18
ATOM     18  C3  ZIN A   1      18.629  -0.723   8.132  0.00  0.00     0.078 C 
ATOM     19  C8  ZIN A   1      17.318  -0.167   7.571  0.00  0.00     0.014 C 
ATOM     20  C7  ZIN A   1      17.524   0.256   6.116  0.00  0.00     0.001 C 
ATOM     21  C6  ZIN A   1      17.959  -0.956   5.290  0.00  0.00     0.000 C 
ATOM     22  C5  ZIN A   1      19.270  -1.512   5.850  0.00  0.00     0.001 C 
ATOM     23  C4  ZIN A   1      19.064  -1.935   7.305  0.00  0.00     0.014 C 
ENDBRANCH   2  18
TORSDOF 1
ENDMDL
MODEL 5
REMARK VINA RESULT:      -8.6      1.797      7.100
REMARK  1 active torsions:
REMARK  status: ('A' for Active; 'I' for Inactive)
REMARK    1  A    between atoms: C2_2  and  C3_3 
REMARK       I    between atoms: C2_2  and  N9_9 
ROOT
ATOM      1  O1  ZIN A   1      19.685   1.672   8.051  0.00  0.00    -0.273 OA
ATOM      2  C2  ZIN A   1      18.752   0.958   8.355  0.00  0.00     0.224 C 
ATOM      3  N9  ZIN A   1      18.141   1.119   9.546  0.00  0.00    -0.341 N 
ATOM      4  C10 ZIN A   1      17.087   0.195   9.994  0.00  0.00     0.228 C 
ATOM      5  C11 ZIN A   1      17.396  -0.219  11.407  0.00  0.00     0.238 C 
ATOM      6  O12 ZIN A   1      16.912  -1.246  11.834  0.00  0.00    -0.272 OA
ATOM      7  N13 ZIN A   1      18.185   0.505  12.214  0.00  0.00    -0.340 N 
ATOM      8  C14 ZIN A   1      18.305   0.091  13.627  0.00  0.00     0.131 C 
ATOM      9  C15 ZIN A   1      17.752   1.216  14.499  0.00  0.00     0.059 C 
ATOM     10  C16 ZIN A   1      18.336   2.543  14.089  0.00  0.00    -0.048 A 
ATOM     11  C17 ZIN A   1      18.328   3.572  15.021  0.00  0.00     0.008 A 
ATOM     12  C18 ZIN A   1      18.840   4.812  14.699  0.00  0.00     0.001 A 
ATOM     13  C19 ZIN A   1      19.364   5.033  13.440  0.00  0.00     0.001 A 
ATOM     14  C20 ZIN A   1      19.378   4.010  12.514  0.00  0.00     0.010 A 
ATOM     15  C21 ZIN A   1      18.869   2.760  12.838  0.00  0.00    -0.027 A 
ATOM     16  C22 ZIN A   1      18.935   1.676  11.794  0.00  0.00     0.139 C 
ATOM     17  C24 ZIN A   1      18.505   2.219  10.447  0.00  0.00     0.156 C 
ENDROOT
BRANCH   2  18
ATOM     18  C3  ZIN A   1      18.280  -0.111   7.405  0.00  0.00     0.078 C 
ATOM     19  C8  ZIN A   1      19.244  -1.299   7.454  0.00  0.00     0.014 C 
ATOM     20  C7  ZIN A   1      18.765  -2.385   6.488  0.00  0.00     0.001 C 
ATOM     21  C6  ZIN A   1      18.724  -1.821   5.067  0.00  0.00     0.000 C 
ATOM     22  C5  ZIN A   1      17.760  -0.633   5.017  0.00  0.00     0.001 C 
ATOM     23  C4  ZIN A   1      18.239   0.453   5.982  0.00  0.00     0.014 C 
ENDBRANCH   2  18
TORSDOF 1
ENDMDL
MODEL 6
REMARK VINA RESULT:      -8.6      2.433      3.098
REMARK  1 active torsions:
REMARK  status: ('A' for Active; 'I' for Inactive)
REMARK    1  A    between atoms: C2_2  and  C3_3 
REMARK       I    between atoms: C2_2  and  N9_9 
ROOT
ATOM      1  O1  ZIN A   1      18.109   1.781  11.796  0.00  0.00    -0.273 OA
ATOM      2  C2  ZIN A   1      18.747   0.791  12.088  0.00  0.00     0.224 C 
ATOM      3  N9  ZIN A   1      19.253   0.005  11.116  0.00  0.00    -0.341 N 
ATOM      4  C10 ZIN A   1      19.926  -1.264  11.433  0.00  0.00     0.228 C 
ATOM      5  C11 ZIN A   1      19.363  -2.331  10.534  0.00  0.00     0.238 C 
ATOM      6  O12 ZIN A   1      19.468  -3.492  10.869  0.00  0.00    -0.272 OA
ATOM      7  N13 ZIN A   1      18.753  -2.048   9.375  0.00  0.00    -0.340 N 
ATOM      8  C14 ZIN A   1      18.369  -3.172   8.496  0.00  0.00     0.131 C 
ATOM      9  C15 ZIN A   1      19.145  -3.036   7.187  0.00  0.00     0.059 C 
ATOM     10  C16 ZIN A   1      19.034  -1.634   6.647  0.00  0.00    -0.048 A 
ATOM     11  C17 ZIN A   1      19.258  -1.441   5.291  0.00  0.00     0.008 A 
ATOM     12  C18 ZIN A   1      19.181  -0.178   4.740  0.00  0.00     0.001 A 
ATOM     13  C19 ZIN A   1      18.879   0.904   5.545  0.00  0.00     0.001 A 
ATOM     14  C20 ZIN A   1      18.651   0.714   6.893  0.00  0.00     0.010 A 
ATOM     15  C21 ZIN A   1      18.723  -0.557   7.447  0.00  0.00    -0.027 A 
ATOM     16  C22 ZIN A   1      18.438  -0.705   8.919  0.00  0.00     0.139 C 
ATOM     17  C24 ZIN A   1      19.148   0.380   9.701  0.00  0.00     0.156 C 
ENDROOT
BRANCH   2  18
ATOM     18  C3  ZIN A   1      18.967   0.435  13.535  0.00  0.00     0.078 C 
ATOM     19  C8  ZIN A   1      17.886  -0.547  13.990  0.00  0.00     0.014 C 
ATOM     20  C7  ZIN A   1      18.110  -0.908  15.459  0.00  0.00     0.001 C 
ATOM     21  C6  ZIN A   1      18.038   0.360  16.312  0.00  0.00     0.000 C 
ATOM     22  C5  ZIN A   1      19.119   1.343  15.858  0.00  0.00     0.001 C 
ATOM     23  C4  ZIN A   1      18.895   1.703  14.388  0.00  0.00     0.014 C 
ENDBRANCH   2  18
TORSDOF 1
ENDMDL
MODEL 7
REMARK VINA RESULT:      -8.3      3.396      7.477
REMARK  1 active torsions:
REMARK  status: ('A' for Active; 'I' for Inactive)
REMARK    1  A    between atoms: C2_2  and  C3_3 
REMARK       I    between atoms: C2_2  and  N9_9 
ROOT
ATOM      1  O1  ZIN A   1      19.666   2.762  11.122  0.00  0.00    -0.273 OA
ATOM      2  C2  ZIN A   1      18.968   1.771  11.067  0.00  0.00     0.224 C 
ATOM      3  N9  ZIN A   1      18.483   1.224  12.200  0.00  0.00    -0.341 N 
ATOM      4  C10 ZIN A   1      17.735  -0.042  12.176  0.00  0.00     0.228 C 
ATOM      5  C11 ZIN A   1      18.298  -0.940  13.244  0.00  0.00     0.238 C 
ATOM      6  O12 ZIN A   1      18.121  -2.136  13.154  0.00  0.00    -0.272 OA
ATOM      7  N13 ZIN A   1      18.987  -0.467  14.292  0.00  0.00    -0.340 N 
ATOM      8  C14 ZIN A   1      19.368  -1.415  15.360  0.00  0.00     0.131 C 
ATOM      9  C15 ZIN A   1      18.676  -0.977  16.650  0.00  0.00     0.059 C 
ATOM     10  C16 ZIN A   1      18.882   0.495  16.892  0.00  0.00    -0.048 A 
ATOM     11  C17 ZIN A   1      18.746   0.966  18.190  0.00  0.00     0.008 A 
ATOM     12  C18 ZIN A   1      18.913   2.307  18.471  0.00  0.00     0.001 A 
ATOM     13  C19 ZIN A   1      19.218   3.189  17.451  0.00  0.00     0.001 A 
ATOM     14  C20 ZIN A   1      19.359   2.723  16.160  0.00  0.00     0.010 A 
ATOM     15  C21 ZIN A   1      19.197   1.373  15.877  0.00  0.00    -0.027 A 
ATOM     16  C22 ZIN A   1      19.389   0.919  14.454  0.00  0.00     0.139 C 
ATOM     17  C24 ZIN A   1      18.686   1.867  13.503  0.00  0.00     0.156 C 
ENDROOT
BRANCH   2  18
ATOM     18  C3  ZIN A   1      18.649   1.149   9.733  0.00  0.00     0.078 C 
ATOM     19  C8  ZIN A   1      19.554  -0.064   9.505  0.00  0.00     0.014 C 
ATOM     20  C7  ZIN A   1      19.230  -0.696   8.150  0.00  0.00     0.001 C 
ATOM     21  C6  ZIN A   1      19.463   0.330   7.040  0.00  0.00     0.000 C 
ATOM     22  C5  ZIN A   1      18.558   1.543   7.267  0.00  0.00     0.001 C 
ATOM     23  C4  ZIN A   1      18.882   2.175   8.621  0.00  0.00     0.014 C 
ENDBRANCH   2  18
TORSDOF 1
ENDMDL
MODEL 8
REMARK VINA RESULT:      -8.3      3.555      8.474
REMARK  1 active torsions:
REMARK  status: ('A' for Active; 'I' for Inactive)
REMARK    1  A    between atoms: C2_2  and  C3_3 
REMARK       I    between atoms: C2_2  and  N9_9 
ROOT
ATOM      1  O1  ZIN A   1      16.521  -4.549   9.103  0.00  0.00    -0.273 OA
ATOM      2  C2  ZIN A   1      17.468  -4.542   8.344  0.00  0.00     0.224 C 
ATOM      3  N9  ZIN A   1      18.220  -3.431   8.215  0.00  0.00    -0.341 N 
ATOM      4  C10 ZIN A   1      19.299  -3.351   7.218  0.00  0.00     0.228 C 
ATOM      5  C11 ZIN A   1      19.151  -2.053   6.471  0.00  0.00     0.238 C 
ATOM      6  O12 ZIN A   1      19.660  -1.949   5.375  0.00  0.00    -0.272 OA
ATOM      7  N13 ZIN A   1      18.482  -1.006   6.973  0.00  0.00    -0.340 N 
ATOM      8  C14 ZIN A   1      18.522   0.269   6.227  0.00  0.00     0.131 C 
ATOM      9  C15 ZIN A   1      19.201   1.314   7.111  0.00  0.00     0.059 C 
ATOM     10  C16 ZIN A   1      18.602   1.311   8.493  0.00  0.00    -0.048 A 
ATOM     11  C17 ZIN A   1      18.744   2.455   9.266  0.00  0.00     0.008 A 
ATOM     12  C18 ZIN A   1      18.225   2.507  10.543  0.00  0.00     0.001 A 
ATOM     13  C19 ZIN A   1      17.559   1.412  11.059  0.00  0.00     0.001 A 
ATOM     14  C20 ZIN A   1      17.411   0.275  10.291  0.00  0.00     0.010 A 
ATOM     15  C21 ZIN A   1      17.928   0.223   9.004  0.00  0.00    -0.027 A 
ATOM     16  C22 ZIN A   1      17.713  -1.036   8.204  0.00  0.00     0.139 C 
ATOM     17  C24 ZIN A   1      17.991  -2.254   9.061  0.00  0.00     0.156 C 
ENDROOT
BRANCH   2  18
ATOM     18  C3  ZIN A   1      17.798  -5.773   7.540  0.00  0.00     0.078 C 
ATOM     19  C8  ZIN A   1      17.129  -5.681   6.167  0.00  0.00     0.014 C 
ATOM     20  C7  ZIN A   1      17.464  -6.931   5.351  0.00  0.00     0.001 C 
ATOM     21  C6  ZIN A   1      16.952  -8.172   6.086  0.00  0.00     0.000 C 
ATOM     22  C5  ZIN A   1      17.621  -8.264   7.458  0.00  0.00     0.001 C 
ATOM     23  C4  ZIN A   1      17.286  -7.014   8.274  0.00  0.00     0.014 C 
ENDBRANCH   2  18
TORSDOF 1
ENDMDL
MODEL 9
REMARK VINA RESULT:      -8.2      3.471      8.557
REMARK  1 active torsions:
REMARK  status: ('A' for Active; 'I' for Inactive)
REMARK    1  A    between atoms: C2_2  and  C3_3 
REMARK       I    between atoms: C2_2  and  N9_9 
ROOT
ATOM      1  O1  ZIN A   1      17.830  -4.311  12.089  0.00  0.00    -0.273 OA
ATOM      2  C2  ZIN A   1      18.508  -3.583  11.393  0.00  0.00     0.224 C 
ATOM      3  N9  ZIN A   1      19.004  -2.437  11.901  0.00  0.00    -0.341 N 
ATOM      4  C10 ZIN A   1      19.726  -1.476  11.053  0.00  0.00     0.228 C 
ATOM      5  C11 ZIN A   1      19.166  -0.105  11.316  0.00  0.00     0.238 C 
ATOM      6  O12 ZIN A   1      19.318   0.758  10.477  0.00  0.00    -0.272 OA
ATOM      7  N13 ZIN A   1      18.508   0.201  12.442  0.00  0.00    -0.340 N 
ATOM      8  C14 ZIN A   1      18.130   1.611  12.668  0.00  0.00     0.131 C 
ATOM      9  C15 ZIN A   1      18.855   2.102  13.920  0.00  0.00     0.059 C 
ATOM     10  C16 ZIN A   1      18.684   1.124  15.052  0.00  0.00    -0.048 A 
ATOM     11  C17 ZIN A   1      18.855   1.592  16.347  0.00  0.00     0.008 A 
ATOM     12  C18 ZIN A   1      18.720   0.741  17.425  0.00  0.00     0.001 A 
ATOM     13  C19 ZIN A   1      18.412  -0.590  17.213  0.00  0.00     0.001 A 
ATOM     14  C20 ZIN A   1      18.237  -1.058  15.927  0.00  0.00     0.010 A 
ATOM     15  C21 ZIN A   1      18.366  -0.201  14.843  0.00  0.00    -0.027 A 
ATOM     16  C22 ZIN A   1      18.137  -0.763  13.464  0.00  0.00     0.139 C 
ATOM     17  C24 ZIN A   1      18.840  -2.097  13.319  0.00  0.00     0.156 C 
ENDROOT
BRANCH   2  18
ATOM     18  C3  ZIN A   1      18.788  -3.957   9.962  0.00  0.00     0.078 C 
ATOM     19  C8  ZIN A   1      17.481  -4.354   9.272  0.00  0.00     0.014 C 
ATOM     20  C7  ZIN A   1      17.766  -4.734   7.818  0.00  0.00     0.001 C 
ATOM     21  C6  ZIN A   1      18.741  -5.912   7.780  0.00  0.00     0.000 C 
ATOM     22  C5  ZIN A   1      20.048  -5.515   8.469  0.00  0.00     0.001 C 
ATOM     23  C4  ZIN A   1      19.763  -5.136   9.923  0.00  0.00     0.014 C 
ENDBRANCH   2  18
TORSDOF 1
ENDMDL
