MODEL 1
REMARK VINA RESULT:      -8.8      0.000      0.000
REMARK  8 active torsions:
REMARK  status: ('A' for Active; 'I' for Inactive)
REMARK    1  A    between atoms: O1_1  and  C2_2 
REMARK    2  A    between atoms: C2_2  and  C3_3 
REMARK    3  A    between atoms: C3_3  and  N4_4 
REMARK    4  A    between atoms: N8_8  and  C9_9 
REMARK    5  A    between atoms: C9_9  and  C10_10 
REMARK    6  A    between atoms: C10_10  and  C11_11 
REMARK    7  A    between atoms: C11_11  and  N12_12 
REMARK    8  A    between atoms: C23_23  and  C24_24 
ROOT
ATOM      1  N12 ZIN A   1      18.442   1.429  14.570  0.00  0.00    -0.345 N 
ATOM      2  C13 ZIN A   1      18.490   1.109  15.924  0.00  0.00     0.052 A 
ATOM      3  C14 ZIN A   1      18.016  -0.132  16.335  0.00  0.00     0.031 A 
ATOM      4  C15 ZIN A   1      18.053  -0.486  17.670  0.00  0.00     0.002 A 
ATOM      5  C16 ZIN A   1      18.561   0.392  18.608  0.00  0.00     0.002 A 
ATOM      6  C17 ZIN A   1      19.033   1.629  18.210  0.00  0.00     0.021 A 
ATOM      7  C18 ZIN A   1      18.999   1.993  16.871  0.00  0.00     0.032 A 
ATOM      8  S19 ZIN A   1      19.601   3.577  16.392  0.00  0.00    -0.086 SA
ATOM      9  C20 ZIN A   1      18.911   3.808  14.789  0.00  0.00     0.032 A 
ATOM     10  C21 ZIN A   1      18.868   5.084  14.244  0.00  0.00     0.022 A 
ATOM     11  C22 ZIN A   1      18.328   5.288  12.988  0.00  0.00     0.017 A 
ATOM     12  C23 ZIN A   1      17.829   4.218  12.270  0.00  0.00     0.050 A 
ATOM     13  C28 ZIN A   1      17.870   2.944  12.805  0.00  0.00     0.047 A 
ATOM     14  C29 ZIN A   1      18.416   2.728  14.067  0.00  0.00     0.053 A 
ENDROOT
BRANCH   1  15
ATOM     15  C11 ZIN A   1      18.423   0.325  13.607  0.00  0.00     0.131 C 
BRANCH  15  16
ATOM     16  C10 ZIN A   1      19.852  -0.166  13.367  0.00  0.00     0.050 C 
BRANCH  16  17
ATOM     17  C9  ZIN A   1      20.304   0.248  11.965  0.00  0.00     0.274 C 
BRANCH  17  18
ATOM     18  N8  ZIN A   1      19.643  -0.602  10.966  0.00  0.00     0.091 N 
ATOM     19  C7  ZIN A   1      19.908  -2.024  11.225  0.00  0.00     0.300 C 
ATOM     20  C6  ZIN A   1      19.156  -2.875  10.200  0.00  0.00     0.265 C 
ATOM     21  N4  ZIN A   1      19.597  -2.516   8.846  0.00  0.00    -0.066 N 
ATOM     22  H5  ZIN A   1      20.590  -2.673   8.764  0.00  0.00     0.280 HD
ATOM     23  C31 ZIN A   1      19.303  -1.099   8.593  0.00  0.00     0.265 C 
ATOM     24  C30 ZIN A   1      20.057  -0.233   9.605  0.00  0.00     0.300 C 
BRANCH  21  25
ATOM     25  C3  ZIN A   1      18.887  -3.345   7.863  0.00  0.00     0.260 C 
BRANCH  25  26
ATOM     26  C2  ZIN A   1      19.692  -3.395   6.562  0.00  0.00     0.192 C 
BRANCH  26  27
ATOM     27  O1  ZIN A   1      20.906  -4.116   6.780  0.00  0.00    -0.399 OA
ATOM     28  H32 ZIN A   1      20.792  -5.076   6.820  0.00  0.00     0.209 HD
ENDBRANCH  26  27
ENDBRANCH  25  26
ENDBRANCH  21  25
ENDBRANCH  17  18
ENDBRANCH  16  17
ENDBRANCH  15  16
ENDBRANCH   1  15
BRANCH  12  29
ATOM     29  C24 ZIN A   1      17.241   4.440  10.900  0.00  0.00     0.417 C 
ATOM     30  F25 ZIN A   1      15.919   4.882  11.027  0.00  0.00    -0.166 F 
ATOM     31  F26 ZIN A   1      17.992   5.405  10.220  0.00  0.00    -0.166 F 
ATOM     32  F27 ZIN A   1      17.266   3.239  10.183  0.00  0.00    -0.166 F 
ENDBRANCH  12  29
TORSDOF 8
ENDMDL
MODEL 2
REMARK VINA RESULT:      -8.6      4.680      9.315
REMARK  8 active torsions:
REMARK  status: ('A' for Active; 'I' for Inactive)
REMARK    1  A    between atoms: O1_1  and  C2_2 
REMARK    2  A    between atoms: C2_2  and  C3_3 
REMARK    3  A    between atoms: C3_3  and  N4_4 
REMARK    4  A    between atoms: N8_8  and  C9_9 
REMARK    5  A    between atoms: C9_9  and  C10_10 
REMARK    6  A    between atoms: C10_10  and  C11_11 
REMARK    7  A    between atoms: C11_11  and  N12_12 
REMARK    8  A    between atoms: C23_23  and  C24_24 
ROOT
ATOM      1  N12 ZIN A   1      18.526  -1.675   8.371  0.00  0.00    -0.345 N 
ATOM      2  C13 ZIN A   1      18.600  -1.197   7.065  0.00  0.00     0.052 A 
ATOM      3  C14 ZIN A   1      18.143   0.089   6.796  0.00  0.00     0.031 A 
ATOM      4  C15 ZIN A   1      18.206   0.598   5.513  0.00  0.00     0.002 A 
ATOM      5  C16 ZIN A   1      18.722  -0.169   4.486  0.00  0.00     0.002 A 
ATOM      6  C17 ZIN A   1      19.177  -1.449   4.742  0.00  0.00     0.021 A 
ATOM      7  C18 ZIN A   1      19.118  -1.968   6.028  0.00  0.00     0.032 A 
ATOM      8  S19 ZIN A   1      19.698  -3.603   6.326  0.00  0.00    -0.086 SA
ATOM      9  C20 ZIN A   1      18.979  -4.015   7.880  0.00  0.00     0.032 A 
ATOM     10  C21 ZIN A   1      18.916  -5.346   8.269  0.00  0.00     0.022 A 
ATOM     11  C22 ZIN A   1      18.353  -5.691   9.483  0.00  0.00     0.017 A 
ATOM     12  C23 ZIN A   1      17.851  -4.709  10.315  0.00  0.00     0.050 A 
ATOM     13  C28 ZIN A   1      17.911  -3.381   9.935  0.00  0.00     0.047 A 
ATOM     14  C29 ZIN A   1      18.481  -3.023   8.716  0.00  0.00     0.053 A 
ENDROOT
BRANCH   1  15
ATOM     15  C11 ZIN A   1      18.500  -0.691   9.457  0.00  0.00     0.131 C 
BRANCH  15  16
ATOM     16  C10 ZIN A   1      19.930  -0.256   9.785  0.00  0.00     0.050 C 
BRANCH  16  17
ATOM     17  C9  ZIN A   1      20.278  -0.683  11.212  0.00  0.00     0.274 C 
BRANCH  17  18
ATOM     18  N8  ZIN A   1      19.573   0.183  12.167  0.00  0.00     0.091 N 
ATOM     19  C7  ZIN A   1      19.923   1.595  11.956  0.00  0.00     0.300 C 
ATOM     20  C6  ZIN A   1      19.125   2.466  12.930  0.00  0.00     0.265 C 
ATOM     21  N4  ZIN A   1      19.434   2.068  14.309  0.00  0.00    -0.066 N 
ATOM     22  H5  ZIN A   1      20.423   2.178  14.477  0.00  0.00     0.280 HD
ATOM     23  C31 ZIN A   1      19.057   0.662  14.512  0.00  0.00     0.265 C 
ATOM     24  C30 ZIN A   1      19.854  -0.223  13.552  0.00  0.00     0.300 C 
BRANCH  21  25
ATOM     25  C3  ZIN A   1      18.682   2.915  15.244  0.00  0.00     0.260 C 
BRANCH  25  26
ATOM     26  C2  ZIN A   1      19.443   3.015  16.568  0.00  0.00     0.192 C 
BRANCH  26  27
ATOM     27  O1  ZIN A   1      20.544   3.913  16.419  0.00  0.00    -0.399 OA
ATOM     28  H32 ZIN A   1      20.399   4.607  15.761  0.00  0.00     0.209 HD
ENDBRANCH  26  27
ENDBRANCH  25  26
ENDBRANCH  21  25
ENDBRANCH  17  18
ENDBRANCH  16  17
ENDBRANCH  15  16
ENDBRANCH   1  15
BRANCH  12  29
ATOM     29  C24 ZIN A   1      17.238  -5.085  11.640  0.00  0.00     0.417 C 
ATOM     30  F25 ZIN A   1      15.867  -4.808  11.613  0.00  0.00    -0.166 F 
ATOM     31  F26 ZIN A   1      17.434  -6.450  11.874  0.00  0.00    -0.166 F 
ATOM     32  F27 ZIN A   1      17.844  -4.344  12.660  0.00  0.00    -0.166 F 
ENDBRANCH  12  29
TORSDOF 8
ENDMDL
MODEL 3
REMARK VINA RESULT:      -8.4      4.779      9.211
REMARK  8 active torsions:
REMARK  status: ('A' for Active; 'I' for Inactive)
REMARK    1  A    between atoms: O1_1  and  C2_2 
REMARK    2  A    between atoms: C2_2  and  C3_3 
REMARK    3  A    between atoms: C3_3  and  N4_4 
REMARK    4  A    between atoms: N8_8  and  C9_9 
REMARK    5  A    between atoms: C9_9  and  C10_10 
REMARK    6  A    between atoms: C10_10  and  C11_11 
REMARK    7  A    between atoms: C11_11  and  N12_12 
REMARK    8  A    between atoms: C23_23  and  C24_24 
ROOT
ATOM      1  N12 ZIN A   1      18.528  -1.746   8.411  0.00  0.00    -0.345 N 
ATOM      2  C13 ZIN A   1      18.618  -1.253   7.112  0.00  0.00     0.052 A 
ATOM      3  C14 ZIN A   1      18.174   0.039   6.855  0.00  0.00     0.031 A 
ATOM      4  C15 ZIN A   1      18.252   0.564   5.579  0.00  0.00     0.002 A 
ATOM      5  C16 ZIN A   1      18.772  -0.194   4.547  0.00  0.00     0.002 A 
ATOM      6  C17 ZIN A   1      19.215  -1.481   4.792  0.00  0.00     0.021 A 
ATOM      7  C18 ZIN A   1      19.140  -2.015   6.070  0.00  0.00     0.032 A 
ATOM      8  S19 ZIN A   1      19.704  -3.658   6.353  0.00  0.00    -0.086 SA
ATOM      9  C20 ZIN A   1      18.968  -4.084   7.895  0.00  0.00     0.032 A 
ATOM     10  C21 ZIN A   1      18.892  -5.419   8.267  0.00  0.00     0.022 A 
ATOM     11  C22 ZIN A   1      18.315  -5.775   9.472  0.00  0.00     0.017 A 
ATOM     12  C23 ZIN A   1      17.813  -4.799  10.311  0.00  0.00     0.050 A 
ATOM     13  C28 ZIN A   1      17.886  -3.467   9.949  0.00  0.00     0.047 A 
ATOM     14  C29 ZIN A   1      18.470  -3.099   8.739  0.00  0.00     0.053 A 
ENDROOT
BRANCH   1  15
ATOM     15  C11 ZIN A   1      18.500  -0.776   9.509  0.00  0.00     0.131 C 
BRANCH  15  16
ATOM     16  C10 ZIN A   1      19.924  -0.304   9.809  0.00  0.00     0.050 C 
BRANCH  16  17
ATOM     17  C9  ZIN A   1      20.411  -0.946  11.109  0.00  0.00     0.274 C 
BRANCH  17  18
ATOM     18  N8  ZIN A   1      19.571  -0.490  12.225  0.00  0.00     0.091 N 
ATOM     19  C7  ZIN A   1      20.224   0.598  12.967  0.00  0.00     0.300 C 
ATOM     20  C6  ZIN A   1      19.293   1.082  14.081  0.00  0.00     0.265 C 
ATOM     21  N4  ZIN A   1      18.987  -0.035  14.984  0.00  0.00    -0.066 N 
ATOM     22  H5  ZIN A   1      19.844  -0.391  15.379  0.00  0.00     0.280 HD
ATOM     23  C31 ZIN A   1      18.313  -1.103  14.234  0.00  0.00     0.265 C 
ATOM     24  C30 ZIN A   1      19.235  -1.605  13.121  0.00  0.00     0.300 C 
BRANCH  21  25
ATOM     25  C3  ZIN A   1      18.108   0.435  16.063  0.00  0.00     0.260 C 
BRANCH  25  26
ATOM     26  C2  ZIN A   1      18.252  -0.487  17.276  0.00  0.00     0.192 C 
BRANCH  26  27
ATOM     27  O1  ZIN A   1      19.513  -0.251  17.906  0.00  0.00    -0.399 OA
ATOM     28  H32 ZIN A   1      19.451  -0.062  18.852  0.00  0.00     0.209 HD
ENDBRANCH  26  27
ENDBRANCH  25  26
ENDBRANCH  21  25
ENDBRANCH  17  18
ENDBRANCH  16  17
ENDBRANCH  15  16
ENDBRANCH   1  15
BRANCH  12  29
ATOM     29  C24 ZIN A   1      17.185  -5.187  11.625  0.00  0.00     0.417 C 
ATOM     30  F25 ZIN A   1      17.336  -6.564  11.826  0.00  0.00    -0.166 F 
ATOM     31  F26 ZIN A   1      17.811  -4.492  12.665  0.00  0.00    -0.166 F 
ATOM     32  F27 ZIN A   1      15.823  -4.865  11.603  0.00  0.00    -0.166 F 
ENDBRANCH  12  29
TORSDOF 8
ENDMDL
MODEL 4
REMARK VINA RESULT:      -8.3      3.751      7.819
REMARK  8 active torsions:
REMARK  status: ('A' for Active; 'I' for Inactive)
REMARK    1  A    between atoms: O1_1  and  C2_2 
REMARK    2  A    between atoms: C2_2  and  C3_3 
REMARK    3  A    between atoms: C3_3  and  N4_4 
REMARK    4  A    between atoms: N8_8  and  C9_9 
REMARK    5  A    between atoms: C9_9  and  C10_10 
REMARK    6  A    between atoms: C10_10  and  C11_11 
REMARK    7  A    between atoms: C11_11  and  N12_12 
REMARK    8  A    between atoms: C23_23  and  C24_24 
ROOT
ATOM      1  N12 ZIN A   1      18.617  -1.998   9.472  0.00  0.00    -0.345 N 
ATOM      2  C13 ZIN A   1      19.118  -3.181   8.932  0.00  0.00     0.052 A 
ATOM      3  C14 ZIN A   1      19.457  -4.218   9.794  0.00  0.00     0.031 A 
ATOM      4  C15 ZIN A   1      19.952  -5.408   9.293  0.00  0.00     0.002 A 
ATOM      5  C16 ZIN A   1      20.116  -5.574   7.932  0.00  0.00     0.002 A 
ATOM      6  C17 ZIN A   1      19.783  -4.548   7.066  0.00  0.00     0.021 A 
ATOM      7  C18 ZIN A   1      19.286  -3.350   7.560  0.00  0.00     0.032 A 
ATOM      8  S19 ZIN A   1      18.877  -2.057   6.438  0.00  0.00    -0.086 SA
ATOM      9  C20 ZIN A   1      18.803  -0.630   7.467  0.00  0.00     0.032 A 
ATOM     10  C21 ZIN A   1      18.860   0.630   6.888  0.00  0.00     0.022 A 
ATOM     11  C22 ZIN A   1      18.806   1.763   7.679  0.00  0.00     0.017 A 
ATOM     12  C23 ZIN A   1      18.694   1.643   9.050  0.00  0.00     0.050 A 
ATOM     13  C28 ZIN A   1      18.635   0.391   9.635  0.00  0.00     0.047 A 
ATOM     14  C29 ZIN A   1      18.683  -0.756   8.846  0.00  0.00     0.053 A 
ENDROOT
BRANCH   1  15
ATOM     15  C11 ZIN A   1      17.971  -2.068  10.785  0.00  0.00     0.131 C 
BRANCH  15  16
ATOM     16  C10 ZIN A   1      19.019  -1.858  11.880  0.00  0.00     0.050 C 
BRANCH  16  17
ATOM     17  C9  ZIN A   1      18.389  -2.135  13.246  0.00  0.00     0.274 C 
BRANCH  17  18
ATOM     18  N8  ZIN A   1      18.293  -0.881  14.006  0.00  0.00     0.091 N 
ATOM     19  C7  ZIN A   1      19.449  -0.013  13.740  0.00  0.00     0.300 C 
ATOM     20  C6  ZIN A   1      19.281   1.303  14.502  0.00  0.00     0.265 C 
ATOM     21  N4  ZIN A   1      19.175   1.027  15.940  0.00  0.00    -0.066 N 
ATOM     22  H5  ZIN A   1      20.008   0.550  16.253  0.00  0.00     0.280 HD
ATOM     23  C31 ZIN A   1      18.002   0.179  16.193  0.00  0.00     0.265 C 
ATOM     24  C30 ZIN A   1      18.160  -1.146  15.445  0.00  0.00     0.300 C 
BRANCH  21  25
ATOM     25  C3  ZIN A   1      19.031   2.292  16.673  0.00  0.00     0.260 C 
BRANCH  25  26
ATOM     26  C2  ZIN A   1      18.551   2.005  18.098  0.00  0.00     0.192 C 
BRANCH  26  27
ATOM     27  O1  ZIN A   1      19.639   2.164  19.009  0.00  0.00    -0.399 OA
ATOM     28  H32 ZIN A   1      19.909   1.344  19.447  0.00  0.00     0.209 HD
ENDBRANCH  26  27
ENDBRANCH  25  26
ENDBRANCH  21  25
ENDBRANCH  17  18
ENDBRANCH  16  17
ENDBRANCH  15  16
ENDBRANCH   1  15
BRANCH  12  29
ATOM     29  C24 ZIN A   1      18.634   2.878   9.912  0.00  0.00     0.417 C 
ATOM     30  F25 ZIN A   1      18.373   3.994   9.109  0.00  0.00    -0.166 F 
ATOM     31  F26 ZIN A   1      17.615   2.737  10.860  0.00  0.00    -0.166 F 
ATOM     32  F27 ZIN A   1      19.860   3.049  10.565  0.00  0.00    -0.166 F 
ENDBRANCH  12  29
TORSDOF 8
ENDMDL
MODEL 5
REMARK VINA RESULT:      -8.3      4.732      8.549
REMARK  8 active torsions:
REMARK  status: ('A' for Active; 'I' for Inactive)
REMARK    1  A    between atoms: O1_1  and  C2_2 
REMARK    2  A    between atoms: C2_2  and  C3_3 
REMARK    3  A    between atoms: C3_3  and  N4_4 
REMARK    4  A    between atoms: N8_8  and  C9_9 
REMARK    5  A    between atoms: C9_9  and  C10_10 
REMARK    6  A    between atoms: C10_10  and  C11_11 
REMARK    7  A    between atoms: C11_11  and  N12_12 
REMARK    8  A    between atoms: C23_23  and  C24_24 
ROOT
ATOM      1  N12 ZIN A   1      17.938  -0.454  11.446  0.00  0.00    -0.345 N 
ATOM      2  C13 ZIN A   1      18.117   0.831  10.938  0.00  0.00     0.052 A 
ATOM      3  C14 ZIN A   1      17.485   1.895  11.572  0.00  0.00     0.031 A 
ATOM      4  C15 ZIN A   1      17.644   3.184  11.099  0.00  0.00     0.002 A 
ATOM      5  C16 ZIN A   1      18.432   3.424   9.990  0.00  0.00     0.002 A 
ATOM      6  C17 ZIN A   1      19.064   2.373   9.351  0.00  0.00     0.021 A 
ATOM      7  C18 ZIN A   1      18.909   1.076   9.820  0.00  0.00     0.032 A 
ATOM      8  S19 ZIN A   1      19.719  -0.245   8.984  0.00  0.00    -0.086 SA
ATOM      9  C20 ZIN A   1      18.864  -1.675   9.555  0.00  0.00     0.032 A 
ATOM     10  C21 ZIN A   1      18.981  -2.865   8.849  0.00  0.00     0.022 A 
ATOM     11  C22 ZIN A   1      18.316  -3.998   9.280  0.00  0.00     0.017 A 
ATOM     12  C23 ZIN A   1      17.532  -3.949  10.416  0.00  0.00     0.050 A 
ATOM     13  C28 ZIN A   1      17.412  -2.768  11.125  0.00  0.00     0.047 A 
ATOM     14  C29 ZIN A   1      18.082  -1.623  10.703  0.00  0.00     0.053 A 
ENDROOT
BRANCH   1  15
ATOM     15  C11 ZIN A   1      17.580  -0.584  12.861  0.00  0.00     0.131 C 
BRANCH  15  16
ATOM     16  C10 ZIN A   1      18.849  -0.523  13.715  0.00  0.00     0.050 C 
BRANCH  16  17
ATOM     17  C9  ZIN A   1      18.569  -1.140  15.086  0.00  0.00     0.274 C 
BRANCH  17  18
ATOM     18  N8  ZIN A   1      18.779  -0.128  16.131  0.00  0.00     0.091 N 
ATOM     19  C7  ZIN A   1      17.701  -0.166  17.128  0.00  0.00     0.300 C 
ATOM     20  C6  ZIN A   1      17.988   0.860  18.226  0.00  0.00     0.265 C 
ATOM     21  N4  ZIN A   1      18.082   2.200  17.632  0.00  0.00    -0.066 N 
ATOM     22  H5  ZIN A   1      17.214   2.424  17.169  0.00  0.00     0.280 HD
ATOM     23  C31 ZIN A   1      19.179   2.230  16.656  0.00  0.00     0.265 C 
ATOM     24  C30 ZIN A   1      18.901   1.215  15.545  0.00  0.00     0.300 C 
BRANCH  21  25
ATOM     25  C3  ZIN A   1      18.340   3.187  18.688  0.00  0.00     0.260 C 
BRANCH  25  26
ATOM     26  C2  ZIN A   1      17.252   4.264  18.659  0.00  0.00     0.192 C 
BRANCH  26  27
ATOM     27  O1  ZIN A   1      15.992   3.676  18.983  0.00  0.00    -0.399 OA
ATOM     28  H32 ZIN A   1      16.048   2.950  19.620  0.00  0.00     0.209 HD
ENDBRANCH  26  27
ENDBRANCH  25  26
ENDBRANCH  21  25
ENDBRANCH  17  18
ENDBRANCH  16  17
ENDBRANCH  15  16
ENDBRANCH   1  15
BRANCH  12  29
ATOM     29  C24 ZIN A   1      16.808  -5.184  10.885  0.00  0.00     0.417 C 
ATOM     30  F25 ZIN A   1      17.728  -6.079  11.444  0.00  0.00    -0.166 F 
ATOM     31  F26 ZIN A   1      15.858  -4.831  11.849  0.00  0.00    -0.166 F 
ATOM     32  F27 ZIN A   1      16.168  -5.790   9.798  0.00  0.00    -0.166 F 
ENDBRANCH  12  29
TORSDOF 8
ENDMDL
MODEL 6
REMARK VINA RESULT:      -8.2      3.483      5.471
REMARK  8 active torsions:
REMARK  status: ('A' for Active; 'I' for Inactive)
REMARK    1  A    between atoms: O1_1  and  C2_2 
REMARK    2  A    between atoms: C2_2  and  C3_3 
REMARK    3  A    between atoms: C3_3  and  N4_4 
REMARK    4  A    between atoms: N8_8  and  C9_9 
REMARK    5  A    between atoms: C9_9  and  C10_10 
REMARK    6  A    between atoms: C10_10  and  C11_11 
REMARK    7  A    between atoms: C11_11  and  N12_12 
REMARK    8  A    between atoms: C23_23  and  C24_24 
ROOT
ATOM      1  N12 ZIN A   1      18.056   0.241  12.328  0.00  0.00    -0.345 N 
ATOM      2  C13 ZIN A   1      18.351   0.928  11.153  0.00  0.00     0.052 A 
ATOM      3  C14 ZIN A   1      18.531   0.201   9.981  0.00  0.00     0.031 A 
ATOM      4  C15 ZIN A   1      18.820   0.850   8.795  0.00  0.00     0.002 A 
ATOM      5  C16 ZIN A   1      18.934   2.226   8.766  0.00  0.00     0.002 A 
ATOM      6  C17 ZIN A   1      18.758   2.958   9.926  0.00  0.00     0.021 A 
ATOM      7  C18 ZIN A   1      18.468   2.315  11.122  0.00  0.00     0.032 A 
ATOM      8  S19 ZIN A   1      18.256   3.269  12.586  0.00  0.00    -0.086 SA
ATOM      9  C20 ZIN A   1      18.429   2.083  13.875  0.00  0.00     0.032 A 
ATOM     10  C21 ZIN A   1      18.680   2.517  15.170  0.00  0.00     0.022 A 
ATOM     11  C22 ZIN A   1      18.822   1.602  16.196  0.00  0.00     0.017 A 
ATOM     12  C23 ZIN A   1      18.713   0.249  15.935  0.00  0.00     0.050 A 
ATOM     13  C28 ZIN A   1      18.461  -0.191  14.649  0.00  0.00     0.047 A 
ATOM     14  C29 ZIN A   1      18.312   0.724  13.609  0.00  0.00     0.053 A 
ENDROOT
BRANCH   1  15
ATOM     15  C11 ZIN A   1      17.427  -1.077  12.209  0.00  0.00     0.131 C 
BRANCH  15  16
ATOM     16  C10 ZIN A   1      18.506  -2.138  11.982  0.00  0.00     0.050 C 
BRANCH  16  17
ATOM     17  C9  ZIN A   1      17.864  -3.526  11.986  0.00  0.00     0.274 C 
BRANCH  17  18
ATOM     18  N8  ZIN A   1      18.217  -4.233  10.747  0.00  0.00     0.091 N 
ATOM     19  C7  ZIN A   1      19.654  -4.536  10.703  0.00  0.00     0.300 C 
ATOM     20  C6  ZIN A   1      19.968  -5.321   9.428  0.00  0.00     0.265 C 
ATOM     21  N4  ZIN A   1      19.581  -4.527   8.255  0.00  0.00    -0.066 N 
ATOM     22  H5  ZIN A   1      20.089  -3.655   8.258  0.00  0.00     0.280 HD
ATOM     23  C31 ZIN A   1      18.138  -4.253   8.300  0.00  0.00     0.265 C 
ATOM     24  C30 ZIN A   1      17.810  -3.459   9.566  0.00  0.00     0.300 C 
BRANCH  21  25
ATOM     25  C3  ZIN A   1      19.898  -5.274   7.031  0.00  0.00     0.260 C 
BRANCH  25  26
ATOM     26  C2  ZIN A   1      18.605  -5.793   6.399  0.00  0.00     0.192 C 
BRANCH  26  27
ATOM     27  O1  ZIN A   1      18.914  -6.522   5.210  0.00  0.00    -0.399 OA
ATOM     28  H32 ZIN A   1      18.148  -6.945   4.797  0.00  0.00     0.209 HD
ENDBRANCH  26  27
ENDBRANCH  25  26
ENDBRANCH  21  25
ENDBRANCH  17  18
ENDBRANCH  16  17
ENDBRANCH  15  16
ENDBRANCH   1  15
BRANCH  12  29
ATOM     29  C24 ZIN A   1      18.866  -0.748  17.054  0.00  0.00     0.417 C 
ATOM     30  F25 ZIN A   1      19.653  -0.191  18.070  0.00  0.00    -0.166 F 
ATOM     31  F26 ZIN A   1      17.606  -1.073  17.566  0.00  0.00    -0.166 F 
ATOM     32  F27 ZIN A   1      19.485  -1.904  16.566  0.00  0.00    -0.166 F 
ENDBRANCH  12  29
TORSDOF 8
ENDMDL
MODEL 7
REMARK VINA RESULT:      -8.1      4.288      7.714
REMARK  8 active torsions:
REMARK  status: ('A' for Active; 'I' for Inactive)
REMARK    1  A    between atoms: O1_1  and  C2_2 
REMARK    2  A    between atoms: C2_2  and  C3_3 
REMARK    3  A    between atoms: C3_3  and  N4_4 
REMARK    4  A    between atoms: N8_8  and  C9_9 
REMARK    5  A    between atoms: C9_9  and  C10_10 
REMARK    6  A    between atoms: C10_10  and  C11_11 
REMARK    7  A    between atoms: C11_11  and  N12_12 
REMARK    8  A    between atoms: C23_23  and  C24_24 
ROOT
ATOM      1  N12 ZIN A   1      18.911   0.445  10.436  0.00  0.00    -0.345 N 
ATOM      2  C13 ZIN A   1      19.139  -0.095  11.699  0.00  0.00     0.052 A 
ATOM      3  C14 ZIN A   1      19.808   0.673  12.644  0.00  0.00     0.031 A 
ATOM      4  C15 ZIN A   1      20.047   0.172  13.910  0.00  0.00     0.002 A 
ATOM      5  C16 ZIN A   1      19.623  -1.099  14.245  0.00  0.00     0.002 A 
ATOM      6  C17 ZIN A   1      18.958  -1.873  13.312  0.00  0.00     0.021 A 
ATOM      7  C18 ZIN A   1      18.714  -1.377  12.039  0.00  0.00     0.032 A 
ATOM      8  S19 ZIN A   1      17.871  -2.385  10.867  0.00  0.00    -0.086 SA
ATOM      9  C20 ZIN A   1      18.237  -1.614   9.327  0.00  0.00     0.032 A 
ATOM     10  C21 ZIN A   1      18.045  -2.324   8.149  0.00  0.00     0.022 A 
ATOM     11  C22 ZIN A   1      18.329  -1.737   6.929  0.00  0.00     0.017 A 
ATOM     12  C23 ZIN A   1      18.803  -0.441   6.880  0.00  0.00     0.050 A 
ATOM     13  C28 ZIN A   1      18.995   0.273   8.049  0.00  0.00     0.047 A 
ATOM     14  C29 ZIN A   1      18.708  -0.308   9.281  0.00  0.00     0.053 A 
ENDROOT
BRANCH   1  15
ATOM     15  C11 ZIN A   1      18.877   1.905  10.314  0.00  0.00     0.131 C 
BRANCH  15  16
ATOM     16  C10 ZIN A   1      17.578   2.436  10.923  0.00  0.00     0.050 C 
BRANCH  16  17
ATOM     17  C9  ZIN A   1      17.545   3.960  10.801  0.00  0.00     0.274 C 
BRANCH  17  18
ATOM     18  N8  ZIN A   1      17.664   4.562  12.136  0.00  0.00     0.091 N 
ATOM     19  C7  ZIN A   1      17.753   3.527  13.175  0.00  0.00     0.300 C 
ATOM     20  C6  ZIN A   1      17.935   4.194  14.541  0.00  0.00     0.265 C 
ATOM     21  N4  ZIN A   1      16.798   5.084  14.807  0.00  0.00    -0.066 N 
ATOM     22  H5  ZIN A   1      15.943   4.549  14.795  0.00  0.00     0.280 HD
ATOM     23  C31 ZIN A   1      16.737   6.127  13.775  0.00  0.00     0.265 C 
ATOM     24  C30 ZIN A   1      16.545   5.477  12.403  0.00  0.00     0.300 C 
BRANCH  21  25
ATOM     25  C3  ZIN A   1      16.964   5.710  16.125  0.00  0.00     0.260 C 
BRANCH  25  26
ATOM     26  C2  ZIN A   1      18.302   5.278  16.731  0.00  0.00     0.192 C 
BRANCH  26  27
ATOM     27  O1  ZIN A   1      19.016   6.430  17.182  0.00  0.00    -0.399 OA
ATOM     28  H32 ZIN A   1      19.805   6.225  17.703  0.00  0.00     0.209 HD
ENDBRANCH  26  27
ENDBRANCH  25  26
ENDBRANCH  21  25
ENDBRANCH  17  18
ENDBRANCH  16  17
ENDBRANCH  15  16
ENDBRANCH   1  15
BRANCH  12  29
ATOM     29  C24 ZIN A   1      19.111   0.198   5.550  0.00  0.00     0.417 C 
ATOM     30  F25 ZIN A   1      17.932   0.318   4.807  0.00  0.00    -0.166 F 
ATOM     31  F26 ZIN A   1      19.663   1.467   5.758  0.00  0.00    -0.166 F 
ATOM     32  F27 ZIN A   1      20.025  -0.599   4.851  0.00  0.00    -0.166 F 
ENDBRANCH  12  29
TORSDOF 8
ENDMDL
MODEL 8
REMARK VINA RESULT:      -8.0      1.920      2.110
REMARK  8 active torsions:
REMARK  status: ('A' for Active; 'I' for Inactive)
REMARK    1  A    between atoms: O1_1  and  C2_2 
REMARK    2  A    between atoms: C2_2  and  C3_3 
REMARK    3  A    between atoms: C3_3  and  N4_4 
REMARK    4  A    between atoms: N8_8  and  C9_9 
REMARK    5  A    between atoms: C9_9  and  C10_10 
REMARK    6  A    between atoms: C10_10  and  C11_11 
REMARK    7  A    between atoms: C11_11  and  N12_12 
REMARK    8  A    between atoms: C23_23  and  C24_24 
ROOT
ATOM      1  N12 ZIN A   1      19.039   1.344  14.331  0.00  0.00    -0.345 N 
ATOM      2  C13 ZIN A   1      19.071   0.842  15.630  0.00  0.00     0.052 A 
ATOM      3  C14 ZIN A   1      19.009  -0.534  15.817  0.00  0.00     0.031 A 
ATOM      4  C15 ZIN A   1      19.043  -1.068  17.092  0.00  0.00     0.002 A 
ATOM      5  C16 ZIN A   1      19.136  -0.236  18.191  0.00  0.00     0.002 A 
ATOM      6  C17 ZIN A   1      19.196   1.134  18.016  0.00  0.00     0.021 A 
ATOM      7  C18 ZIN A   1      19.162   1.679  16.740  0.00  0.00     0.032 A 
ATOM      8  S19 ZIN A   1      19.233   3.427  16.545  0.00  0.00    -0.086 SA
ATOM      9  C20 ZIN A   1      18.654   3.679  14.902  0.00  0.00     0.032 A 
ATOM     10  C21 ZIN A   1      18.231   4.944  14.516  0.00  0.00     0.022 A 
ATOM     11  C22 ZIN A   1      17.770   5.162  13.231  0.00  0.00     0.017 A 
ATOM     12  C23 ZIN A   1      17.730   4.120  12.325  0.00  0.00     0.050 A 
ATOM     13  C28 ZIN A   1      18.151   2.857  12.702  0.00  0.00     0.047 A 
ATOM     14  C29 ZIN A   1      18.621   2.629  13.992  0.00  0.00     0.053 A 
ENDROOT
BRANCH   1  15
ATOM     15  C11 ZIN A   1      19.483   0.462  13.248  0.00  0.00     0.131 C 
BRANCH  15  16
ATOM     16  C10 ZIN A   1      18.267  -0.219  12.616  0.00  0.00     0.050 C 
BRANCH  16  17
ATOM     17  C9  ZIN A   1      18.560  -0.520  11.145  0.00  0.00     0.274 C 
BRANCH  17  18
ATOM     18  N8  ZIN A   1      17.862  -1.750  10.748  0.00  0.00     0.091 N 
ATOM     19  C7  ZIN A   1      17.876  -2.739  11.835  0.00  0.00     0.300 C 
ATOM     20  C6  ZIN A   1      17.090  -3.979  11.403  0.00  0.00     0.265 C 
ATOM     21  N4  ZIN A   1      17.698  -4.547  10.193  0.00  0.00    -0.066 N 
ATOM     22  H5  ZIN A   1      18.657  -4.795  10.384  0.00  0.00     0.280 HD
ATOM     23  C31 ZIN A   1      17.655  -3.557   9.109  0.00  0.00     0.265 C 
ATOM     24  C30 ZIN A   1      18.446  -2.314   9.522  0.00  0.00     0.300 C 
BRANCH  21  25
ATOM     25  C3  ZIN A   1      16.954  -5.747   9.788  0.00  0.00     0.260 C 
BRANCH  25  26
ATOM     26  C2  ZIN A   1      16.201  -5.467   8.485  0.00  0.00     0.192 C 
BRANCH  26  27
ATOM     27  O1  ZIN A   1      14.798  -5.417   8.747  0.00  0.00    -0.399 OA
ATOM     28  H32 ZIN A   1      14.498  -4.581   9.129  0.00  0.00     0.209 HD
ENDBRANCH  26  27
ENDBRANCH  25  26
ENDBRANCH  21  25
ENDBRANCH  17  18
ENDBRANCH  16  17
ENDBRANCH  15  16
ENDBRANCH   1  15
BRANCH  12  29
ATOM     29  C24 ZIN A   1      17.228   4.358  10.924  0.00  0.00     0.417 C 
ATOM     30  F25 ZIN A   1      15.921   4.855  10.976  0.00  0.00    -0.166 F 
ATOM     31  F26 ZIN A   1      18.055   5.287  10.284  0.00  0.00    -0.166 F 
ATOM     32  F27 ZIN A   1      17.241   3.152  10.214  0.00  0.00    -0.166 F 
ENDBRANCH  12  29
TORSDOF 8
ENDMDL
MODEL 9
REMARK VINA RESULT:      -7.9      2.885      4.683
REMARK  8 active torsions:
REMARK  status: ('A' for Active; 'I' for Inactive)
REMARK    1  A    between atoms: O1_1  and  C2_2 
REMARK    2  A    between atoms: C2_2  and  C3_3 
REMARK    3  A    between atoms: C3_3  and  N4_4 
REMARK    4  A    between atoms: N8_8  and  C9_9 
REMARK    5  A    between atoms: C9_9  and  C10_10 
REMARK    6  A    between atoms: C10_10  and  C11_11 
REMARK    7  A    between atoms: C11_11  and  N12_12 
REMARK    8  A    between atoms: C23_23  and  C24_24 
ROOT
ATOM      1  N12 ZIN A   1      18.567   2.380  13.635  0.00  0.00    -0.345 N 
ATOM      2  C13 ZIN A   1      19.006   3.469  14.385  0.00  0.00     0.052 A 
ATOM      3  C14 ZIN A   1      19.247   4.674  13.735  0.00  0.00     0.031 A 
ATOM      4  C15 ZIN A   1      19.679   5.778  14.448  0.00  0.00     0.002 A 
ATOM      5  C16 ZIN A   1      19.875   5.690  15.812  0.00  0.00     0.002 A 
ATOM      6  C17 ZIN A   1      19.640   4.495  16.468  0.00  0.00     0.021 A 
ATOM      7  C18 ZIN A   1      19.207   3.382  15.760  0.00  0.00     0.032 A 
ATOM      8  S19 ZIN A   1      18.921   1.872  16.617  0.00  0.00    -0.086 SA
ATOM      9  C20 ZIN A   1      18.908   0.668  15.332  0.00  0.00     0.032 A 
ATOM     10  C21 ZIN A   1      19.067  -0.673  15.654  0.00  0.00     0.022 A 
ATOM     11  C22 ZIN A   1      19.063  -1.633  14.659  0.00  0.00     0.017 A 
ATOM     12  C23 ZIN A   1      18.897  -1.259  13.339  0.00  0.00     0.050 A 
ATOM     13  C28 ZIN A   1      18.737   0.075  13.011  0.00  0.00     0.047 A 
ATOM     14  C29 ZIN A   1      18.735   1.048  14.006  0.00  0.00     0.053 A 
ENDROOT
BRANCH   1  15
ATOM     15  C11 ZIN A   1      17.875   2.655  12.373  0.00  0.00     0.131 C 
BRANCH  15  16
ATOM     16  C10 ZIN A   1      18.780   2.270  11.201  0.00  0.00     0.050 C 
BRANCH  16  17
ATOM     17  C9  ZIN A   1      18.322   3.006   9.941  0.00  0.00     0.274 C 
BRANCH  17  18
ATOM     18  N8  ZIN A   1      18.165   2.044   8.842  0.00  0.00     0.091 N 
ATOM     19  C7  ZIN A   1      17.742   0.731   9.347  0.00  0.00     0.300 C 
ATOM     20  C6  ZIN A   1      17.534  -0.223   8.168  0.00  0.00     0.265 C 
ATOM     21  N4  ZIN A   1      18.786  -0.349   7.412  0.00  0.00    -0.066 N 
ATOM     22  H5  ZIN A   1      19.511  -0.703   8.019  0.00  0.00     0.280 HD
ATOM     23  C31 ZIN A   1      19.182   0.967   6.893  0.00  0.00     0.265 C 
ATOM     24  C30 ZIN A   1      19.405   1.930   8.061  0.00  0.00     0.300 C 
BRANCH  21  25
ATOM     25  C3  ZIN A   1      18.591  -1.277   6.291  0.00  0.00     0.260 C 
BRANCH  25  26
ATOM     26  C2  ZIN A   1      19.212  -0.686   5.023  0.00  0.00     0.192 C 
BRANCH  26  27
ATOM     27  O1  ZIN A   1      19.621  -1.743   4.155  0.00  0.00    -0.399 OA
ATOM     28  H32 ZIN A   1      18.888  -2.219   3.741  0.00  0.00     0.209 HD
ENDBRANCH  26  27
ENDBRANCH  25  26
ENDBRANCH  21  25
ENDBRANCH  17  18
ENDBRANCH  16  17
ENDBRANCH  15  16
ENDBRANCH   1  15
BRANCH  12  29
ATOM     29  C24 ZIN A   1      18.891  -2.306  12.255  0.00  0.00     0.417 C 
ATOM     30  F25 ZIN A   1      19.931  -3.215  12.480  0.00  0.00    -0.166 F 
ATOM     31  F26 ZIN A   1      17.668  -2.984  12.268  0.00  0.00    -0.166 F 
ATOM     32  F27 ZIN A   1      19.071  -1.689  11.012  0.00  0.00    -0.166 F 
ENDBRANCH  12  29
TORSDOF 8
ENDMDL
