MODEL 1
REMARK VINA RESULT:      -9.9      0.000      0.000
REMARK  7 active torsions:
REMARK  status: ('A' for Active; 'I' for Inactive)
REMARK    1  A    between atoms: C2_2  and  C3_3 
REMARK    2  A    between atoms: C3_3  and  S4_4 
REMARK    3  A    between atoms: S4_4  and  N7_7 
REMARK    4  A    between atoms: N7_7  and  C8_8 
REMARK    5  A    between atoms: C13_13  and  C14_14 
REMARK    6  A    between atoms: C14_14  and  C16_16 
REMARK    7  A    between atoms: C22_22  and  C23_23 
ROOT
ATOM      1  C16 ZIN A   1      18.306   3.789  15.366  0.00  0.00     0.044 A 
ATOM      2  C17 ZIN A   1      17.700   4.886  15.907  0.00  0.00     0.106 A 
ATOM      3  N18 ZIN A   1      17.011   5.548  14.946  0.00  0.00    -0.349 N 
ATOM      4  C19 ZIN A   1      17.137   4.911  13.732  0.00  0.00     0.138 A 
ATOM      5  N20 ZIN A   1      16.657   5.173  12.523  0.00  0.00    -0.242 NA
ATOM      6  C21 ZIN A   1      16.920   4.404  11.490  0.00  0.00     0.131 A 
ATOM      7  C22 ZIN A   1      17.721   3.266  11.616  0.00  0.00    -0.007 A 
ATOM      8  C30 ZIN A   1      18.250   2.946  12.866  0.00  0.00     0.030 A 
ATOM      9  C31 ZIN A   1      17.957   3.786  13.935  0.00  0.00     0.026 A 
ATOM     10  H44 ZIN A   1      16.499   6.360  15.093  0.00  0.00     0.167 HD
ENDROOT
BRANCH   1  11
ATOM     11  C14 ZIN A   1      19.144   2.811  16.070  0.00  0.00     0.200 C 
ATOM     12  O15 ZIN A   1      20.147   3.177  16.654  0.00  0.00    -0.286 OA
BRANCH  11  13
ATOM     13  C13 ZIN A   1      18.773   1.383  16.068  0.00  0.00     0.094 A 
ATOM     14  C11 ZIN A   1      17.916   0.878  17.054  0.00  0.00     0.133 A 
ATOM     15  C10 ZIN A   1      17.570  -0.459  17.049  0.00  0.00     0.046 A 
ATOM     16  F12 ZIN A   1      17.427   1.699  18.010  0.00  0.00    -0.205 F 
ATOM     17  C9  ZIN A   1      18.067  -1.304  16.074  0.00  0.00     0.039 A 
ATOM     18  C8  ZIN A   1      18.918  -0.815  15.090  0.00  0.00     0.109 A 
ATOM     19  C32 ZIN A   1      19.279   0.526  15.087  0.00  0.00     0.163 A 
ATOM     20  F33 ZIN A   1      20.106   1.003  14.131  0.00  0.00    -0.202 F 
BRANCH  18  21
ATOM     21  N7  ZIN A   1      19.417  -1.676  14.107  0.00  0.00    -0.162 NA
BRANCH  21  22
ATOM     22  S4  ZIN A   1      18.782  -1.645  12.577  0.00  0.00     0.251 S 
ATOM     23  O5  ZIN A   1      19.761  -0.966  11.805  0.00  0.00    -0.204 OA
ATOM     24  O6  ZIN A   1      17.479  -1.102  12.751  0.00  0.00    -0.204 OA
BRANCH  22  25
ATOM     25  C3  ZIN A   1      18.684  -3.390  12.091  0.00  0.00     0.165 C 
BRANCH  25  26
ATOM     26  C2  ZIN A   1      20.024  -3.830  11.500  0.00  0.00     0.012 C 
ATOM     27  C1  ZIN A   1      19.776  -4.791  10.335  0.00  0.00     0.006 C 
ENDBRANCH  25  26
ENDBRANCH  22  25
ENDBRANCH  21  22
ENDBRANCH  18  21
ENDBRANCH  11  13
ENDBRANCH   1  11
BRANCH   7  28
ATOM     28  C23 ZIN A   1      18.003   2.411  10.436  0.00  0.00    -0.024 A 
ATOM     29  C29 ZIN A   1      18.877   2.853   9.445  0.00  0.00     0.014 A 
ATOM     30  C28 ZIN A   1      19.140   2.052   8.353  0.00  0.00     0.024 A 
ATOM     31  C26 ZIN A   1      18.529   0.814   8.236  0.00  0.00     0.034 A 
ATOM     32  C25 ZIN A   1      17.656   0.373   9.216  0.00  0.00     0.024 A 
ATOM     33 Cl27 ZIN A   1      18.860  -0.186   6.857  0.00  0.00    -0.084 Cl
ATOM     34  C24 ZIN A   1      17.391   1.165  10.314  0.00  0.00     0.014 A 
ENDBRANCH   7  28
TORSDOF 7
ENDMDL
MODEL 2
REMARK VINA RESULT:      -9.5      4.000      7.816
REMARK  7 active torsions:
REMARK  status: ('A' for Active; 'I' for Inactive)
REMARK    1  A    between atoms: C2_2  and  C3_3 
REMARK    2  A    between atoms: C3_3  and  S4_4 
REMARK    3  A    between atoms: S4_4  and  N7_7 
REMARK    4  A    between atoms: N7_7  and  C8_8 
REMARK    5  A    between atoms: C13_13  and  C14_14 
REMARK    6  A    between atoms: C14_14  and  C16_16 
REMARK    7  A    between atoms: C22_22  and  C23_23 
ROOT
ATOM      1  C16 ZIN A   1      19.261  -4.778   7.275  0.00  0.00     0.044 A 
ATOM      2  C17 ZIN A   1      19.102  -5.403   6.071  0.00  0.00     0.106 A 
ATOM      3  N18 ZIN A   1      18.693  -4.507   5.141  0.00  0.00    -0.349 N 
ATOM      4  C19 ZIN A   1      18.566  -3.253   5.697  0.00  0.00     0.138 A 
ATOM      5  N20 ZIN A   1      18.203  -2.078   5.198  0.00  0.00    -0.242 NA
ATOM      6  C21 ZIN A   1      18.155  -0.994   5.940  0.00  0.00     0.131 A 
ATOM      7  C22 ZIN A   1      18.487  -1.026   7.297  0.00  0.00    -0.007 A 
ATOM      8  C30 ZIN A   1      18.876  -2.236   7.871  0.00  0.00     0.030 A 
ATOM      9  C31 ZIN A   1      18.909  -3.364   7.057  0.00  0.00     0.026 A 
ATOM     10  H44 ZIN A   1      18.514  -4.718   4.211  0.00  0.00     0.167 HD
ENDROOT
BRANCH   1  11
ATOM     11  C14 ZIN A   1      19.690  -5.395   8.536  0.00  0.00     0.200 C 
ATOM     12  O15 ZIN A   1      20.712  -6.056   8.573  0.00  0.00    -0.286 OA
BRANCH  11  13
ATOM     13  C13 ZIN A   1      18.885  -5.213   9.759  0.00  0.00     0.094 A 
ATOM     14  C11 ZIN A   1      17.762  -6.019   9.987  0.00  0.00     0.133 A 
ATOM     15  C10 ZIN A   1      17.011  -5.846  11.133  0.00  0.00     0.046 A 
ATOM     16  F12 ZIN A   1      17.415  -6.965   9.088  0.00  0.00    -0.205 F 
ATOM     17  C9  ZIN A   1      17.363  -4.879  12.058  0.00  0.00     0.039 A 
ATOM     18  C8  ZIN A   1      18.474  -4.074  11.842  0.00  0.00     0.109 A 
ATOM     19  C32 ZIN A   1      19.235  -4.233  10.692  0.00  0.00     0.163 A 
ATOM     20  F33 ZIN A   1      20.316  -3.451  10.480  0.00  0.00    -0.202 F 
BRANCH  18  21
ATOM     21  N7  ZIN A   1      18.823  -3.098  12.782  0.00  0.00    -0.162 NA
BRANCH  21  22
ATOM     22  S4  ZIN A   1      18.307  -1.536  12.586  0.00  0.00     0.251 S 
ATOM     23  O5  ZIN A   1      17.060  -1.661  11.917  0.00  0.00    -0.204 OA
ATOM     24  O6  ZIN A   1      19.407  -0.879  11.969  0.00  0.00    -0.204 OA
BRANCH  22  25
ATOM     25  C3  ZIN A   1      18.065  -0.923  14.276  0.00  0.00     0.165 C 
BRANCH  25  26
ATOM     26  C2  ZIN A   1      19.274  -1.299  15.133  0.00  0.00     0.012 C 
ATOM     27  C1  ZIN A   1      18.872  -1.303  16.609  0.00  0.00     0.006 C 
ENDBRANCH  25  26
ENDBRANCH  22  25
ENDBRANCH  21  22
ENDBRANCH  18  21
ENDBRANCH  11  13
ENDBRANCH   1  11
BRANCH   7  28
ATOM     28  C23 ZIN A   1      18.427   0.211   8.115  0.00  0.00    -0.024 A 
ATOM     29  C29 ZIN A   1      17.615   0.263   9.246  0.00  0.00     0.014 A 
ATOM     30  C28 ZIN A   1      17.566   1.413  10.006  0.00  0.00     0.024 A 
ATOM     31  C26 ZIN A   1      18.315   2.519   9.640  0.00  0.00     0.034 A 
ATOM     32  C25 ZIN A   1      19.120   2.475   8.515  0.00  0.00     0.024 A 
ATOM     33 Cl27 ZIN A   1      18.245   3.965  10.598  0.00  0.00    -0.084 Cl
ATOM     34  C24 ZIN A   1      19.178   1.326   7.751  0.00  0.00     0.014 A 
ENDBRANCH   7  28
TORSDOF 7
ENDMDL
MODEL 3
REMARK VINA RESULT:      -9.4      4.137      8.841
REMARK  7 active torsions:
REMARK  status: ('A' for Active; 'I' for Inactive)
REMARK    1  A    between atoms: C2_2  and  C3_3 
REMARK    2  A    between atoms: C3_3  and  S4_4 
REMARK    3  A    between atoms: S4_4  and  N7_7 
REMARK    4  A    between atoms: N7_7  and  C8_8 
REMARK    5  A    between atoms: C13_13  and  C14_14 
REMARK    6  A    between atoms: C14_14  and  C16_16 
REMARK    7  A    between atoms: C22_22  and  C23_23 
ROOT
ATOM      1  C16 ZIN A   1      18.432  -4.020   7.700  0.00  0.00     0.044 A 
ATOM      2  C17 ZIN A   1      17.805  -5.168   7.309  0.00  0.00     0.106 A 
ATOM      3  N18 ZIN A   1      17.095  -5.677   8.344  0.00  0.00    -0.349 N 
ATOM      4  C19 ZIN A   1      17.227  -4.882   9.461  0.00  0.00     0.138 A 
ATOM      5  N20 ZIN A   1      16.733  -4.965  10.690  0.00  0.00    -0.242 NA
ATOM      6  C21 ZIN A   1      17.007  -4.066  11.610  0.00  0.00     0.131 A 
ATOM      7  C22 ZIN A   1      17.834  -2.974  11.337  0.00  0.00    -0.007 A 
ATOM      8  C30 ZIN A   1      18.379  -2.840  10.060  0.00  0.00     0.030 A 
ATOM      9  C31 ZIN A   1      18.074  -3.813   9.114  0.00  0.00     0.026 A 
ATOM     10  H44 ZIN A   1      16.566  -6.489   8.306  0.00  0.00     0.167 HD
ENDROOT
BRANCH   1  11
ATOM     11  C14 ZIN A   1      19.298  -3.166   6.877  0.00  0.00     0.200 C 
ATOM     12  O15 ZIN A   1      20.316  -3.622   6.389  0.00  0.00    -0.286 OA
BRANCH  11  13
ATOM     13  C13 ZIN A   1      18.934  -1.756   6.640  0.00  0.00     0.094 A 
ATOM     14  C11 ZIN A   1      18.188  -1.402   5.509  0.00  0.00     0.133 A 
ATOM     15  C10 ZIN A   1      17.850  -0.081   5.292  0.00  0.00     0.046 A 
ATOM     16  F12 ZIN A   1      17.799  -2.353   4.631  0.00  0.00    -0.205 F 
ATOM     17  C9  ZIN A   1      18.245   0.896   6.187  0.00  0.00     0.039 A 
ATOM     18  C8  ZIN A   1      18.985   0.558   7.313  0.00  0.00     0.109 A 
ATOM     19  C32 ZIN A   1      19.338  -0.766   7.541  0.00  0.00     0.163 A 
ATOM     20  F33 ZIN A   1      20.058  -1.097   8.635  0.00  0.00    -0.202 F 
BRANCH  18  21
ATOM     21  N7  ZIN A   1      19.381   1.552   8.214  0.00  0.00    -0.162 NA
BRANCH  21  22
ATOM     22  S4  ZIN A   1      18.624   1.692   9.680  0.00  0.00     0.251 S 
ATOM     23  O5  ZIN A   1      19.597   1.261  10.620  0.00  0.00    -0.204 OA
ATOM     24  O6  ZIN A   1      17.403   0.983   9.512  0.00  0.00    -0.204 OA
BRANCH  22  25
ATOM     25  C3  ZIN A   1      18.308   3.470   9.860  0.00  0.00     0.165 C 
BRANCH  25  26
ATOM     26  C2  ZIN A   1      17.541   3.723  11.158  0.00  0.00     0.012 C 
ATOM     27  C1  ZIN A   1      16.773   5.041  11.048  0.00  0.00     0.006 C 
ENDBRANCH  25  26
ENDBRANCH  22  25
ENDBRANCH  21  22
ENDBRANCH  18  21
ENDBRANCH  11  13
ENDBRANCH   1  11
BRANCH   7  28
ATOM     28  C23 ZIN A   1      18.128  -1.971  12.391  0.00  0.00    -0.024 A 
ATOM     29  C29 ZIN A   1      19.163  -2.191  13.296  0.00  0.00     0.014 A 
ATOM     30  C28 ZIN A   1      19.436  -1.254  14.271  0.00  0.00     0.024 A 
ATOM     31  C26 ZIN A   1      18.675  -0.100  14.356  0.00  0.00     0.034 A 
ATOM     32  C25 ZIN A   1      17.641   0.121  13.462  0.00  0.00     0.024 A 
ATOM     33 Cl27 ZIN A   1      19.019   1.074  15.588  0.00  0.00    -0.084 Cl
ATOM     34  C24 ZIN A   1      17.365  -0.809  12.480  0.00  0.00     0.014 A 
ENDBRANCH   7  28
TORSDOF 7
ENDMDL
MODEL 4
REMARK VINA RESULT:      -9.4      2.936      5.483
REMARK  7 active torsions:
REMARK  status: ('A' for Active; 'I' for Inactive)
REMARK    1  A    between atoms: C2_2  and  C3_3 
REMARK    2  A    between atoms: C3_3  and  S4_4 
REMARK    3  A    between atoms: S4_4  and  N7_7 
REMARK    4  A    between atoms: N7_7  and  C8_8 
REMARK    5  A    between atoms: C13_13  and  C14_14 
REMARK    6  A    between atoms: C14_14  and  C16_16 
REMARK    7  A    between atoms: C22_22  and  C23_23 
ROOT
ATOM      1  C16 ZIN A   1      17.790   1.288  11.270  0.00  0.00     0.044 A 
ATOM      2  C17 ZIN A   1      18.152   2.560  11.607  0.00  0.00     0.106 A 
ATOM      3  N18 ZIN A   1      18.704   3.178  10.536  0.00  0.00    -0.349 N 
ATOM      4  C19 ZIN A   1      18.726   2.335   9.447  0.00  0.00     0.138 A 
ATOM      5  N20 ZIN A   1      19.159   2.483   8.201  0.00  0.00    -0.242 NA
ATOM      6  C21 ZIN A   1      19.074   1.514   7.317  0.00  0.00     0.131 A 
ATOM      7  C22 ZIN A   1      18.520   0.275   7.647  0.00  0.00    -0.007 A 
ATOM      8  C30 ZIN A   1      18.050   0.067   8.945  0.00  0.00     0.030 A 
ATOM      9  C31 ZIN A   1      18.162   1.113   9.855  0.00  0.00     0.026 A 
ATOM     10  H44 ZIN A   1      19.038   4.090  10.534  0.00  0.00     0.167 HD
ENDROOT
BRANCH   1  11
ATOM     11  C14 ZIN A   1      17.161   0.291  12.145  0.00  0.00     0.200 C 
ATOM     12  O15 ZIN A   1      16.030  -0.096  11.912  0.00  0.00    -0.286 OA
BRANCH  11  13
ATOM     13  C13 ZIN A   1      17.897  -0.242  13.307  0.00  0.00     0.094 A 
ATOM     14  C11 ZIN A   1      18.926  -1.174  13.121  0.00  0.00     0.133 A 
ATOM     15  C10 ZIN A   1      19.612  -1.670  14.211  0.00  0.00     0.046 A 
ATOM     16  F12 ZIN A   1      19.246  -1.587  11.875  0.00  0.00    -0.205 F 
ATOM     17  C9  ZIN A   1      19.289  -1.250  15.489  0.00  0.00     0.039 A 
ATOM     18  C8  ZIN A   1      18.271  -0.326  15.686  0.00  0.00     0.109 A 
ATOM     19  C32 ZIN A   1      17.568   0.176  14.600  0.00  0.00     0.163 A 
ATOM     20  F33 ZIN A   1      16.577   1.075  14.790  0.00  0.00    -0.202 F 
BRANCH  18  21
ATOM     21  N7  ZIN A   1      17.949   0.093  16.982  0.00  0.00    -0.162 NA
BRANCH  21  22
ATOM     22  S4  ZIN A   1      18.803   1.323  17.691  0.00  0.00     0.251 S 
ATOM     23  O5  ZIN A   1      19.912   0.675  18.297  0.00  0.00    -0.204 OA
ATOM     24  O6  ZIN A   1      17.837   2.011  18.477  0.00  0.00    -0.204 OA
BRANCH  22  25
ATOM     25  C3  ZIN A   1      19.347   2.356  16.304  0.00  0.00     0.165 C 
BRANCH  25  26
ATOM     26  C2  ZIN A   1      18.594   3.687  16.332  0.00  0.00     0.012 C 
ATOM     27  C1  ZIN A   1      18.149   4.051  14.914  0.00  0.00     0.006 C 
ENDBRANCH  25  26
ENDBRANCH  22  25
ENDBRANCH  21  22
ENDBRANCH  18  21
ENDBRANCH  11  13
ENDBRANCH   1  11
BRANCH   7  28
ATOM     28  C23 ZIN A   1      18.433  -0.805   6.633  0.00  0.00    -0.024 A 
ATOM     29  C29 ZIN A   1      19.182  -1.969   6.785  0.00  0.00     0.014 A 
ATOM     30  C28 ZIN A   1      19.095  -2.973   5.842  0.00  0.00     0.024 A 
ATOM     31  C26 ZIN A   1      18.270  -2.818   4.740  0.00  0.00     0.034 A 
ATOM     32  C25 ZIN A   1      17.528  -1.661   4.581  0.00  0.00     0.024 A 
ATOM     33 Cl27 ZIN A   1      18.168  -4.082   3.553  0.00  0.00    -0.084 Cl
ATOM     34  C24 ZIN A   1      17.606  -0.655   5.523  0.00  0.00     0.014 A 
ENDBRANCH   7  28
TORSDOF 7
ENDMDL
MODEL 5
REMARK VINA RESULT:      -9.3      4.830      7.963
REMARK  7 active torsions:
REMARK  status: ('A' for Active; 'I' for Inactive)
REMARK    1  A    between atoms: C2_2  and  C3_3 
REMARK    2  A    between atoms: C3_3  and  S4_4 
REMARK    3  A    between atoms: S4_4  and  N7_7 
REMARK    4  A    between atoms: N7_7  and  C8_8 
REMARK    5  A    between atoms: C13_13  and  C14_14 
REMARK    6  A    between atoms: C14_14  and  C16_16 
REMARK    7  A    between atoms: C22_22  and  C23_23 
ROOT
ATOM      1  C16 ZIN A   1      18.267  -1.212  11.246  0.00  0.00     0.044 A 
ATOM      2  C17 ZIN A   1      19.196  -1.042  12.231  0.00  0.00     0.106 A 
ATOM      3  N18 ZIN A   1      19.688  -2.247  12.609  0.00  0.00    -0.349 N 
ATOM      4  C19 ZIN A   1      19.101  -3.260  11.884  0.00  0.00     0.138 A 
ATOM      5  N20 ZIN A   1      19.251  -4.578  11.893  0.00  0.00    -0.242 NA
ATOM      6  C21 ZIN A   1      18.564  -5.361  11.091  0.00  0.00     0.131 A 
ATOM      7  C22 ZIN A   1      17.637  -4.840  10.185  0.00  0.00    -0.007 A 
ATOM      8  C30 ZIN A   1      17.441  -3.460  10.136  0.00  0.00     0.030 A 
ATOM      9  C31 ZIN A   1      18.181  -2.663  11.003  0.00  0.00     0.026 A 
ATOM     10  H44 ZIN A   1      20.362  -2.379  13.295  0.00  0.00     0.167 HD
ENDROOT
BRANCH   1  11
ATOM     11  C14 ZIN A   1      17.501  -0.159  10.568  0.00  0.00     0.200 C 
ATOM     12  O15 ZIN A   1      16.462   0.248  11.056  0.00  0.00    -0.286 OA
BRANCH  11  13
ATOM     13  C13 ZIN A   1      17.989   0.406   9.295  0.00  0.00     0.094 A 
ATOM     14  C11 ZIN A   1      18.757   1.577   9.294  0.00  0.00     0.133 A 
ATOM     15  C10 ZIN A   1      19.211   2.102   8.100  0.00  0.00     0.046 A 
ATOM     16  F12 ZIN A   1      19.052   2.193  10.460  0.00  0.00    -0.205 F 
ATOM     17  C9  ZIN A   1      18.911   1.476   6.904  0.00  0.00     0.039 A 
ATOM     18  C8  ZIN A   1      18.151   0.314   6.892  0.00  0.00     0.109 A 
ATOM     19  C32 ZIN A   1      17.682  -0.222   8.084  0.00  0.00     0.163 A 
ATOM     20  F33 ZIN A   1      16.942  -1.352   8.075  0.00  0.00    -0.202 F 
BRANCH  18  21
ATOM     21  N7  ZIN A   1      17.851  -0.313   5.678  0.00  0.00    -0.162 NA
BRANCH  21  22
ATOM     22  S4  ZIN A   1      18.874  -1.463   5.064  0.00  0.00     0.251 S 
ATOM     23  O5  ZIN A   1      19.937  -0.716   4.492  0.00  0.00    -0.204 OA
ATOM     24  O6  ZIN A   1      18.036  -2.281   4.258  0.00  0.00    -0.204 OA
BRANCH  22  25
ATOM     25  C3  ZIN A   1      19.449  -2.381   6.519  0.00  0.00     0.165 C 
BRANCH  25  26
ATOM     26  C2  ZIN A   1      18.779  -3.755   6.553  0.00  0.00     0.012 C 
ATOM     27  C1  ZIN A   1      19.819  -4.820   6.908  0.00  0.00     0.006 C 
ENDBRANCH  25  26
ENDBRANCH  22  25
ENDBRANCH  21  22
ENDBRANCH  18  21
ENDBRANCH  11  13
ENDBRANCH   1  11
BRANCH   7  28
ATOM     28  C23 ZIN A   1      16.873  -5.742   9.288  0.00  0.00    -0.024 A 
ATOM     29  C29 ZIN A   1      17.464  -6.903   8.796  0.00  0.00     0.014 A 
ATOM     30  C28 ZIN A   1      16.748  -7.741   7.966  0.00  0.00     0.024 A 
ATOM     31  C26 ZIN A   1      15.446  -7.424   7.615  0.00  0.00     0.034 A 
ATOM     32  C25 ZIN A   1      14.856  -6.269   8.098  0.00  0.00     0.024 A 
ATOM     33 Cl27 ZIN A   1      14.552  -8.480   6.566  0.00  0.00    -0.084 Cl
ATOM     34  C24 ZIN A   1      15.563  -5.427   8.932  0.00  0.00     0.014 A 
ENDBRANCH   7  28
TORSDOF 7
ENDMDL
MODEL 6
REMARK VINA RESULT:      -9.3      4.373      8.196
REMARK  7 active torsions:
REMARK  status: ('A' for Active; 'I' for Inactive)
REMARK    1  A    between atoms: C2_2  and  C3_3 
REMARK    2  A    between atoms: C3_3  and  S4_4 
REMARK    3  A    between atoms: S4_4  and  N7_7 
REMARK    4  A    between atoms: N7_7  and  C8_8 
REMARK    5  A    between atoms: C13_13  and  C14_14 
REMARK    6  A    between atoms: C14_14  and  C16_16 
REMARK    7  A    between atoms: C22_22  and  C23_23 
ROOT
ATOM      1  C16 ZIN A   1      18.318  -3.393   5.612  0.00  0.00     0.044 A 
ATOM      2  C17 ZIN A   1      18.636  -3.489   4.288  0.00  0.00     0.106 A 
ATOM      3  N18 ZIN A   1      18.971  -2.268   3.808  0.00  0.00    -0.349 N 
ATOM      4  C19 ZIN A   1      18.887  -1.316   4.801  0.00  0.00     0.138 A 
ATOM      5  N20 ZIN A   1      19.112  -0.009   4.817  0.00  0.00    -0.242 NA
ATOM      6  C21 ZIN A   1      18.960   0.708   5.908  0.00  0.00     0.131 A 
ATOM      7  C22 ZIN A   1      18.554   0.125   7.111  0.00  0.00    -0.007 A 
ATOM      8  C30 ZIN A   1      18.305  -1.247   7.148  0.00  0.00     0.030 A 
ATOM      9  C31 ZIN A   1      18.469  -1.973   5.972  0.00  0.00     0.026 A 
ATOM     10  H44 ZIN A   1      19.235  -2.086   2.892  0.00  0.00     0.167 HD
ENDROOT
BRANCH   1  11
ATOM     11  C14 ZIN A   1      17.901  -4.487   6.498  0.00  0.00     0.200 C 
ATOM     12  O15 ZIN A   1      16.955  -5.191   6.194  0.00  0.00    -0.286 OA
BRANCH  11  13
ATOM     13  C13 ZIN A   1      18.629  -4.734   7.758  0.00  0.00     0.094 A 
ATOM     14  C11 ZIN A   1      19.832  -5.450   7.747  0.00  0.00     0.133 A 
ATOM     15  C10 ZIN A   1      20.510  -5.679   8.928  0.00  0.00     0.046 A 
ATOM     16  F12 ZIN A   1      20.331  -5.916   6.581  0.00  0.00    -0.205 F 
ATOM     17  C9  ZIN A   1      20.004  -5.204  10.125  0.00  0.00     0.039 A 
ATOM     18  C8  ZIN A   1      18.811  -4.493  10.149  0.00  0.00     0.109 A 
ATOM     19  C32 ZIN A   1      18.116  -4.260   8.970  0.00  0.00     0.163 A 
ATOM     20  F33 ZIN A   1      16.956  -3.569   8.991  0.00  0.00    -0.202 F 
BRANCH  18  21
ATOM     21  N7  ZIN A   1      18.306  -4.016  11.364  0.00  0.00    -0.162 NA
BRANCH  21  22
ATOM     22  S4  ZIN A   1      18.400  -2.402  11.725  0.00  0.00     0.251 S 
ATOM     23  O5  ZIN A   1      17.057  -1.947  11.646  0.00  0.00    -0.204 OA
ATOM     24  O6  ZIN A   1      19.395  -1.903  10.840  0.00  0.00    -0.204 OA
BRANCH  22  25
ATOM     25  C3  ZIN A   1      18.991  -2.354  13.439  0.00  0.00     0.165 C 
BRANCH  25  26
ATOM     26  C2  ZIN A   1      18.532  -1.054  14.101  0.00  0.00     0.012 C 
ATOM     27  C1  ZIN A   1      19.526   0.062  13.774  0.00  0.00     0.006 C 
ENDBRANCH  25  26
ENDBRANCH  22  25
ENDBRANCH  21  22
ENDBRANCH  18  21
ENDBRANCH  11  13
ENDBRANCH   1  11
BRANCH   7  28
ATOM     28  C23 ZIN A   1      18.391   0.954   8.331  0.00  0.00    -0.024 A 
ATOM     29  C29 ZIN A   1      19.040   2.182   8.434  0.00  0.00     0.014 A 
ATOM     30  C28 ZIN A   1      18.882   2.951   9.569  0.00  0.00     0.024 A 
ATOM     31  C26 ZIN A   1      18.087   2.498  10.609  0.00  0.00     0.034 A 
ATOM     32  C25 ZIN A   1      17.443   1.276  10.513  0.00  0.00     0.024 A 
ATOM     33 Cl27 ZIN A   1      17.896   3.468  12.036  0.00  0.00    -0.084 Cl
ATOM     34  C24 ZIN A   1      17.592   0.503   9.379  0.00  0.00     0.014 A 
ENDBRANCH   7  28
TORSDOF 7
ENDMDL
MODEL 7
REMARK VINA RESULT:      -8.9      4.087      6.890
REMARK  7 active torsions:
REMARK  status: ('A' for Active; 'I' for Inactive)
REMARK    1  A    between atoms: C2_2  and  C3_3 
REMARK    2  A    between atoms: C3_3  and  S4_4 
REMARK    3  A    between atoms: S4_4  and  N7_7 
REMARK    4  A    between atoms: N7_7  and  C8_8 
REMARK    5  A    between atoms: C13_13  and  C14_14 
REMARK    6  A    between atoms: C14_14  and  C16_16 
REMARK    7  A    between atoms: C22_22  and  C23_23 
ROOT
ATOM      1  C16 ZIN A   1      17.756  -0.030  12.613  0.00  0.00     0.044 A 
ATOM      2  C17 ZIN A   1      18.227  -1.209  13.114  0.00  0.00     0.106 A 
ATOM      3  N18 ZIN A   1      18.821  -0.993  14.312  0.00  0.00    -0.349 N 
ATOM      4  C19 ZIN A   1      18.763   0.341  14.649  0.00  0.00     0.138 A 
ATOM      5  N20 ZIN A   1      19.197   1.024  15.700  0.00  0.00    -0.242 NA
ATOM      6  C21 ZIN A   1      19.024   2.323  15.803  0.00  0.00     0.131 A 
ATOM      7  C22 ZIN A   1      18.370   3.051  14.807  0.00  0.00    -0.007 A 
ATOM      8  C30 ZIN A   1      17.894   2.380  13.680  0.00  0.00     0.030 A 
ATOM      9  C31 ZIN A   1      18.101   1.007  13.602  0.00  0.00     0.026 A 
ATOM     10  H44 ZIN A   1      19.230  -1.683  14.859  0.00  0.00     0.167 HD
ENDROOT
BRANCH   1  11
ATOM     11  C14 ZIN A   1      17.051   0.167  11.341  0.00  0.00     0.200 C 
ATOM     12  O15 ZIN A   1      15.838   0.068  11.295  0.00  0.00    -0.286 OA
BRANCH  11  13
ATOM     13  C13 ZIN A   1      17.811   0.484  10.116  0.00  0.00     0.094 A 
ATOM     14  C11 ZIN A   1      18.090   1.816   9.786  0.00  0.00     0.133 A 
ATOM     15  C10 ZIN A   1      18.802   2.108   8.639  0.00  0.00     0.046 A 
ATOM     16  F12 ZIN A   1      17.662   2.815  10.589  0.00  0.00    -0.205 F 
ATOM     17  C9  ZIN A   1      19.242   1.089   7.814  0.00  0.00     0.039 A 
ATOM     18  C8  ZIN A   1      18.973  -0.236   8.131  0.00  0.00     0.109 A 
ATOM     19  C32 ZIN A   1      18.253  -0.544   9.278  0.00  0.00     0.163 A 
ATOM     20  F33 ZIN A   1      17.989  -1.832   9.588  0.00  0.00    -0.202 F 
BRANCH  18  21
ATOM     21  N7  ZIN A   1      19.422  -1.261   7.291  0.00  0.00    -0.162 NA
BRANCH  21  22
ATOM     22  S4  ZIN A   1      18.782  -1.429   5.772  0.00  0.00     0.251 S 
ATOM     23  O5  ZIN A   1      19.829  -1.019   4.904  0.00  0.00    -0.204 OA
ATOM     24  O6  ZIN A   1      17.555  -0.712   5.829  0.00  0.00    -0.204 OA
BRANCH  22  25
ATOM     25  C3  ZIN A   1      18.473  -3.208   5.604  0.00  0.00     0.165 C 
BRANCH  25  26
ATOM     26  C2  ZIN A   1      18.303  -3.558   4.125  0.00  0.00     0.012 C 
ATOM     27  C1  ZIN A   1      16.848  -3.331   3.711  0.00  0.00     0.006 C 
ENDBRANCH  25  26
ENDBRANCH  22  25
ENDBRANCH  21  22
ENDBRANCH  18  21
ENDBRANCH  11  13
ENDBRANCH   1  11
BRANCH   7  28
ATOM     28  C23 ZIN A   1      18.184   4.517  14.945  0.00  0.00    -0.024 A 
ATOM     29  C29 ZIN A   1      18.908   5.226  15.901  0.00  0.00     0.014 A 
ATOM     30  C28 ZIN A   1      18.736   6.590  16.022  0.00  0.00     0.024 A 
ATOM     31  C26 ZIN A   1      17.837   7.252  15.202  0.00  0.00     0.034 A 
ATOM     32  C25 ZIN A   1      17.111   6.550  14.255  0.00  0.00     0.024 A 
ATOM     33 Cl27 ZIN A   1      17.620   8.967  15.364  0.00  0.00    -0.084 Cl
ATOM     34  C24 ZIN A   1      17.281   5.187  14.123  0.00  0.00     0.014 A 
ENDBRANCH   7  28
TORSDOF 7
ENDMDL
MODEL 8
REMARK VINA RESULT:      -8.7      3.568      6.181
REMARK  7 active torsions:
REMARK  status: ('A' for Active; 'I' for Inactive)
REMARK    1  A    between atoms: C2_2  and  C3_3 
REMARK    2  A    between atoms: C3_3  and  S4_4 
REMARK    3  A    between atoms: S4_4  and  N7_7 
REMARK    4  A    between atoms: N7_7  and  C8_8 
REMARK    5  A    between atoms: C13_13  and  C14_14 
REMARK    6  A    between atoms: C14_14  and  C16_16 
REMARK    7  A    between atoms: C22_22  and  C23_23 
ROOT
ATOM      1  C16 ZIN A   1      17.794   0.978  10.029  0.00  0.00     0.044 A 
ATOM      2  C17 ZIN A   1      18.319   2.226  10.203  0.00  0.00     0.106 A 
ATOM      3  N18 ZIN A   1      18.904   2.641   9.053  0.00  0.00    -0.349 N 
ATOM      4  C19 ZIN A   1      18.786   1.679   8.074  0.00  0.00     0.138 A 
ATOM      5  N20 ZIN A   1      19.189   1.625   6.811  0.00  0.00    -0.242 NA
ATOM      6  C21 ZIN A   1      18.957   0.577   6.053  0.00  0.00     0.131 A 
ATOM      7  C22 ZIN A   1      18.269  -0.536   6.541  0.00  0.00    -0.007 A 
ATOM      8  C30 ZIN A   1      17.823  -0.530   7.863  0.00  0.00     0.030 A 
ATOM      9  C31 ZIN A   1      18.093   0.593   8.638  0.00  0.00     0.026 A 
ATOM     10  H44 ZIN A   1      19.345   3.497   8.935  0.00  0.00     0.167 HD
ENDROOT
BRANCH   1  11
ATOM     11  C14 ZIN A   1      17.079   0.177  11.030  0.00  0.00     0.200 C 
ATOM     12  O15 ZIN A   1      15.862   0.175  11.052  0.00  0.00    -0.286 OA
BRANCH  11  13
ATOM     13  C13 ZIN A   1      17.835  -0.626  12.010  0.00  0.00     0.094 A 
ATOM     14  C11 ZIN A   1      18.298  -1.902  11.667  0.00  0.00     0.133 A 
ATOM     15  C10 ZIN A   1      19.005  -2.650  12.588  0.00  0.00     0.046 A 
ATOM     16  F12 ZIN A   1      18.053  -2.402  10.436  0.00  0.00    -0.205 F 
ATOM     17  C9  ZIN A   1      19.259  -2.144  13.850  0.00  0.00     0.039 A 
ATOM     18  C8  ZIN A   1      18.805  -0.879  14.202  0.00  0.00     0.109 A 
ATOM     19  C32 ZIN A   1      18.088  -0.119  13.288  0.00  0.00     0.163 A 
ATOM     20  F33 ZIN A   1      17.645   1.111  13.629  0.00  0.00    -0.202 F 
BRANCH  18  21
ATOM     21  N7  ZIN A   1      19.066  -0.374  15.480  0.00  0.00    -0.162 NA
BRANCH  21  22
ATOM     22  S4  ZIN A   1      18.023  -0.695  16.727  0.00  0.00     0.251 S 
ATOM     23  O5  ZIN A   1      17.914  -2.111  16.737  0.00  0.00    -0.204 OA
ATOM     24  O6  ZIN A   1      16.894   0.125  16.457  0.00  0.00    -0.204 OA
BRANCH  22  25
ATOM     25  C3  ZIN A   1      18.894  -0.111  18.208  0.00  0.00     0.165 C 
BRANCH  25  26
ATOM     26  C2  ZIN A   1      18.321   1.240  18.637  0.00  0.00     0.012 C 
ATOM     27  C1  ZIN A   1      19.256   2.360  18.174  0.00  0.00     0.006 C 
ENDBRANCH  25  26
ENDBRANCH  22  25
ENDBRANCH  21  22
ENDBRANCH  18  21
ENDBRANCH  11  13
ENDBRANCH   1  11
BRANCH   7  28
ATOM     28  C23 ZIN A   1      18.017  -1.708   5.666  0.00  0.00    -0.024 A 
ATOM     29  C29 ZIN A   1      17.026  -1.650   4.689  0.00  0.00     0.014 A 
ATOM     30  C28 ZIN A   1      16.798  -2.740   3.875  0.00  0.00     0.024 A 
ATOM     31  C26 ZIN A   1      17.546  -3.895   4.035  0.00  0.00     0.034 A 
ATOM     32  C25 ZIN A   1      18.529  -3.959   5.008  0.00  0.00     0.024 A 
ATOM     33 Cl27 ZIN A   1      17.251  -5.266   3.011  0.00  0.00    -0.084 Cl
ATOM     34  C24 ZIN A   1      18.767  -2.871   5.823  0.00  0.00     0.014 A 
ENDBRANCH   7  28
TORSDOF 7
ENDMDL
MODEL 9
REMARK VINA RESULT:      -8.4      3.719      5.622
REMARK  7 active torsions:
REMARK  status: ('A' for Active; 'I' for Inactive)
REMARK    1  A    between atoms: C2_2  and  C3_3 
REMARK    2  A    between atoms: C3_3  and  S4_4 
REMARK    3  A    between atoms: S4_4  and  N7_7 
REMARK    4  A    between atoms: N7_7  and  C8_8 
REMARK    5  A    between atoms: C13_13  and  C14_14 
REMARK    6  A    between atoms: C14_14  and  C16_16 
REMARK    7  A    between atoms: C22_22  and  C23_23 
ROOT
ATOM      1  C16 ZIN A   1      17.870   1.115  10.103  0.00  0.00     0.044 A 
ATOM      2  C17 ZIN A   1      18.337   2.385  10.283  0.00  0.00     0.106 A 
ATOM      3  N18 ZIN A   1      18.912   2.827   9.138  0.00  0.00    -0.349 N 
ATOM      4  C19 ZIN A   1      18.845   1.863   8.157  0.00  0.00     0.138 A 
ATOM      5  N20 ZIN A   1      19.261   1.829   6.898  0.00  0.00    -0.242 NA
ATOM      6  C21 ZIN A   1      19.082   0.772   6.136  0.00  0.00     0.131 A 
ATOM      7  C22 ZIN A   1      18.441  -0.371   6.618  0.00  0.00    -0.007 A 
ATOM      8  C30 ZIN A   1      17.985  -0.387   7.936  0.00  0.00     0.030 A 
ATOM      9  C31 ZIN A   1      18.197   0.746   8.715  0.00  0.00     0.026 A 
ATOM     10  H44 ZIN A   1      19.315   3.703   9.024  0.00  0.00     0.167 HD
ENDROOT
BRANCH   1  11
ATOM     11  C14 ZIN A   1      17.184   0.281  11.098  0.00  0.00     0.200 C 
ATOM     12  O15 ZIN A   1      16.019   0.500  11.376  0.00  0.00    -0.286 OA
BRANCH  11  13
ATOM     13  C13 ZIN A   1      17.905  -0.822  11.760  0.00  0.00     0.094 A 
ATOM     14  C11 ZIN A   1      18.568  -0.601  12.975  0.00  0.00     0.133 A 
ATOM     15  C10 ZIN A   1      19.242  -1.636  13.591  0.00  0.00     0.046 A 
ATOM     16  F12 ZIN A   1      18.547   0.625  13.542  0.00  0.00    -0.205 F 
ATOM     17  C9  ZIN A   1      19.266  -2.894  13.015  0.00  0.00     0.039 A 
ATOM     18  C8  ZIN A   1      18.613  -3.126  11.811  0.00  0.00     0.109 A 
ATOM     19  C32 ZIN A   1      17.937  -2.092  11.177  0.00  0.00     0.163 A 
ATOM     20  F33 ZIN A   1      17.301  -2.316  10.006  0.00  0.00    -0.202 F 
BRANCH  18  21
ATOM     21  N7  ZIN A   1      18.643  -4.400  11.235  0.00  0.00    -0.162 NA
BRANCH  21  22
ATOM     22  S4  ZIN A   1      17.384  -5.449  11.476  0.00  0.00     0.251 S 
ATOM     23  O5  ZIN A   1      16.231  -4.619  11.473  0.00  0.00    -0.204 OA
ATOM     24  O6  ZIN A   1      17.756  -6.180  12.638  0.00  0.00    -0.204 OA
BRANCH  22  25
ATOM     25  C3  ZIN A   1      17.401  -6.524  10.015  0.00  0.00     0.165 C 
BRANCH  25  26
ATOM     26  C2  ZIN A   1      17.387  -5.664   8.750  0.00  0.00     0.012 C 
ATOM     27  C1  ZIN A   1      15.960  -5.588   8.202  0.00  0.00     0.006 C 
ENDBRANCH  25  26
ENDBRANCH  22  25
ENDBRANCH  21  22
ENDBRANCH  18  21
ENDBRANCH  11  13
ENDBRANCH   1  11
BRANCH   7  28
ATOM     28  C23 ZIN A   1      18.249  -1.553   5.740  0.00  0.00    -0.024 A 
ATOM     29  C29 ZIN A   1      17.390  -1.477   4.646  0.00  0.00     0.014 A 
ATOM     30  C28 ZIN A   1      17.218  -2.576   3.830  0.00  0.00     0.024 A 
ATOM     31  C26 ZIN A   1      17.890  -3.756   4.103  0.00  0.00     0.034 A 
ATOM     32  C25 ZIN A   1      18.741  -3.837   5.191  0.00  0.00     0.024 A 
ATOM     33 Cl27 ZIN A   1      17.665  -5.137   3.075  0.00  0.00    -0.084 Cl
ATOM     34  C24 ZIN A   1      18.923  -2.741   6.010  0.00  0.00     0.014 A 
ENDBRANCH   7  28
TORSDOF 7
ENDMDL
