MODEL 1
REMARK VINA RESULT:      -6.2      0.000      0.000
REMARK  15 active torsions:
REMARK  status: ('A' for Active; 'I' for Inactive)
REMARK    1  A    between atoms: C2_2  and  C3_3 
REMARK    2  A    between atoms: C3_3  and  C4_4 
REMARK    3  A    between atoms: C4_4  and  C5_5 
REMARK    4  A    between atoms: C5_5  and  C6_6 
REMARK    5  A    between atoms: C6_6  and  C7_7 
REMARK    6  A    between atoms: C7_7  and  C8_8 
REMARK    7  A    between atoms: C8_8  and  C9_9 
REMARK    8  A    between atoms: C12_12  and  C13_13 
REMARK    9  A    between atoms: C13_13  and  C14_14 
REMARK   10  A    between atoms: C14_14  and  C15_15 
REMARK   11  A    between atoms: C15_15  and  N16_16 
REMARK   12  A    between atoms: C15_15  and  C20_20 
REMARK   13  A    between atoms: C15_15  and  C22_22 
REMARK   14  A    between atoms: C20_20  and  O21_21 
REMARK   15  A    between atoms: C22_22  and  O23_23 
ROOT
ATOM      1  C9  ZIN A   1      18.276   0.463   6.472  0.00  0.00    -0.058 A 
ATOM      2  C10 ZIN A   1      19.214   1.268   7.091  0.00  0.00     0.007 A 
ATOM      3  C11 ZIN A   1      19.174   1.450   8.461  0.00  0.00     0.007 A 
ATOM      4  C12 ZIN A   1      18.195   0.827   9.212  0.00  0.00    -0.058 A 
ATOM      5  C24 ZIN A   1      17.255   0.025   8.593  0.00  0.00     0.007 A 
ATOM      6  C25 ZIN A   1      17.294  -0.155   7.224  0.00  0.00     0.007 A 
ENDROOT
BRANCH   4   7
ATOM      7  C13 ZIN A   1      18.150   1.026  10.705  0.00  0.00     0.041 C 
BRANCH   7   8
ATOM      8  C14 ZIN A   1      19.165   0.098  11.375  0.00  0.00     0.048 C 
BRANCH   8   9
ATOM      9  C15 ZIN A   1      20.058   0.911  12.314  0.00  0.00     0.165 C 
BRANCH   9  10
ATOM     10  N16 ZIN A   1      21.468   0.613  12.030  0.00  0.00    -0.066 N 
ATOM     11  H17 ZIN A   1      21.763   1.133  11.217  0.00  0.00     0.275 HD
ATOM     12  H18 ZIN A   1      22.034   0.879  12.822  0.00  0.00     0.275 HD
ATOM     13  H19 ZIN A   1      21.575  -0.374  11.855  0.00  0.00     0.275 HD
ENDBRANCH   9  10
BRANCH   9  14
ATOM     14  C20 ZIN A   1      19.798   2.404  12.101  0.00  0.00     0.205 C 
BRANCH  14  15
ATOM     15  O21 ZIN A   1      21.000   3.039  11.663  0.00  0.00    -0.398 OA
ATOM     16  H51 ZIN A   1      21.144   2.994  10.707  0.00  0.00     0.209 HD
ENDBRANCH  14  15
ENDBRANCH   9  14
BRANCH   9  17
ATOM     17  C22 ZIN A   1      19.741   0.541  13.765  0.00  0.00     0.205 C 
BRANCH  17  18
ATOM     18  O23 ZIN A   1      18.530   1.183  14.167  0.00  0.00    -0.398 OA
ATOM     19  H54 ZIN A   1      17.806   1.088  13.534  0.00  0.00     0.209 HD
ENDBRANCH  17  18
ENDBRANCH   9  17
ENDBRANCH   8   9
ENDBRANCH   7   8
ENDBRANCH   4   7
BRANCH   1  20
ATOM     20  C8  ZIN A   1      18.320   0.264   4.979  0.00  0.00     0.038 C 
BRANCH  20  21
ATOM     21  C7  ZIN A   1      17.902  -1.169   4.644  0.00  0.00     0.005 C 
BRANCH  21  22
ATOM     22  C6  ZIN A   1      19.145  -2.059   4.575  0.00  0.00     0.000 C 
BRANCH  22  23
ATOM     23  C5  ZIN A   1      18.928  -3.305   5.436  0.00  0.00     0.000 C 
BRANCH  23  24
ATOM     24  C4  ZIN A   1      19.610  -3.112   6.792  0.00  0.00     0.000 C 
BRANCH  24  25
ATOM     25  C3  ZIN A   1      18.734  -3.712   7.893  0.00  0.00    -0.000 C 
BRANCH  25  26
ATOM     26  C2  ZIN A   1      18.962  -2.948   9.199  0.00  0.00    -0.005 C 
ATOM     27  C1  ZIN A   1      17.821  -3.249  10.173  0.00  0.00     0.005 C 
ENDBRANCH  25  26
ENDBRANCH  24  25
ENDBRANCH  23  24
ENDBRANCH  22  23
ENDBRANCH  21  22
ENDBRANCH  20  21
ENDBRANCH   1  20
TORSDOF 15
ENDMDL
MODEL 2
REMARK VINA RESULT:      -6.1      1.275      2.081
REMARK  15 active torsions:
REMARK  status: ('A' for Active; 'I' for Inactive)
REMARK    1  A    between atoms: C2_2  and  C3_3 
REMARK    2  A    between atoms: C3_3  and  C4_4 
REMARK    3  A    between atoms: C4_4  and  C5_5 
REMARK    4  A    between atoms: C5_5  and  C6_6 
REMARK    5  A    between atoms: C6_6  and  C7_7 
REMARK    6  A    between atoms: C7_7  and  C8_8 
REMARK    7  A    between atoms: C8_8  and  C9_9 
REMARK    8  A    between atoms: C12_12  and  C13_13 
REMARK    9  A    between atoms: C13_13  and  C14_14 
REMARK   10  A    between atoms: C14_14  and  C15_15 
REMARK   11  A    between atoms: C15_15  and  N16_16 
REMARK   12  A    between atoms: C15_15  and  C20_20 
REMARK   13  A    between atoms: C15_15  and  C22_22 
REMARK   14  A    between atoms: C20_20  and  O21_21 
REMARK   15  A    between atoms: C22_22  and  O23_23 
ROOT
ATOM      1  C9  ZIN A   1      18.041   0.088   6.474  0.00  0.00    -0.058 A 
ATOM      2  C10 ZIN A   1      17.355  -0.264   7.621  0.00  0.00     0.007 A 
ATOM      3  C11 ZIN A   1      17.614   0.389   8.811  0.00  0.00     0.007 A 
ATOM      4  C12 ZIN A   1      18.561   1.396   8.854  0.00  0.00    -0.058 A 
ATOM      5  C24 ZIN A   1      19.248   1.747   7.708  0.00  0.00     0.007 A 
ATOM      6  C25 ZIN A   1      18.991   1.091   6.519  0.00  0.00     0.007 A 
ENDROOT
BRANCH   4   7
ATOM      7  C13 ZIN A   1      18.845   2.108  10.151  0.00  0.00     0.041 C 
BRANCH   7   8
ATOM      8  C14 ZIN A   1      18.492   1.193  11.325  0.00  0.00     0.048 C 
BRANCH   8   9
ATOM      9  C15 ZIN A   1      19.776   0.654  11.957  0.00  0.00     0.165 C 
BRANCH   9  10
ATOM     10  N16 ZIN A   1      20.824   1.682  11.890  0.00  0.00    -0.066 N 
ATOM     11  H17 ZIN A   1      21.712   1.243  11.700  0.00  0.00     0.275 HD
ATOM     12  H18 ZIN A   1      20.607   2.336  11.154  0.00  0.00     0.275 HD
ATOM     13  H19 ZIN A   1      20.872   2.171  12.771  0.00  0.00     0.275 HD
ENDBRANCH   9  10
BRANCH   9  14
ATOM     14  C20 ZIN A   1      19.512   0.288  13.418  0.00  0.00     0.205 C 
BRANCH  14  15
ATOM     15  O21 ZIN A   1      20.504  -0.637  13.865  0.00  0.00    -0.398 OA
ATOM     16  H51 ZIN A   1      20.733  -0.549  14.801  0.00  0.00     0.209 HD
ENDBRANCH  14  15
ENDBRANCH   9  14
BRANCH   9  17
ATOM     17  C22 ZIN A   1      20.236  -0.591  11.194  0.00  0.00     0.205 C 
BRANCH  17  18
ATOM     18  O23 ZIN A   1      21.655  -0.556  11.037  0.00  0.00    -0.398 OA
ATOM     19  H54 ZIN A   1      22.102  -1.365  11.321  0.00  0.00     0.209 HD
ENDBRANCH  17  18
ENDBRANCH   9  17
ENDBRANCH   8   9
ENDBRANCH   7   8
ENDBRANCH   4   7
BRANCH   1  20
ATOM     20  C8  ZIN A   1      17.757  -0.624   5.177  0.00  0.00     0.038 C 
BRANCH  20  21
ATOM     21  C7  ZIN A   1      18.878  -1.626   4.890  0.00  0.00     0.005 C 
BRANCH  21  22
ATOM     22  C6  ZIN A   1      18.453  -3.017   5.367  0.00  0.00     0.000 C 
BRANCH  22  23
ATOM     23  C5  ZIN A   1      19.576  -3.635   6.199  0.00  0.00     0.000 C 
BRANCH  23  24
ATOM     24  C4  ZIN A   1      19.367  -3.288   7.675  0.00  0.00     0.000 C 
BRANCH  24  25
ATOM     25  C3  ZIN A   1      18.009  -3.821   8.137  0.00  0.00    -0.000 C 
BRANCH  25  26
ATOM     26  C2  ZIN A   1      17.762  -3.398   9.587  0.00  0.00    -0.005 C 
ATOM     27  C1  ZIN A   1      17.144  -4.564  10.360  0.00  0.00     0.005 C 
ENDBRANCH  25  26
ENDBRANCH  24  25
ENDBRANCH  23  24
ENDBRANCH  22  23
ENDBRANCH  21  22
ENDBRANCH  20  21
ENDBRANCH   1  20
TORSDOF 15
ENDMDL
MODEL 3
REMARK VINA RESULT:      -6.1      3.067      5.628
REMARK  15 active torsions:
REMARK  status: ('A' for Active; 'I' for Inactive)
REMARK    1  A    between atoms: C2_2  and  C3_3 
REMARK    2  A    between atoms: C3_3  and  C4_4 
REMARK    3  A    between atoms: C4_4  and  C5_5 
REMARK    4  A    between atoms: C5_5  and  C6_6 
REMARK    5  A    between atoms: C6_6  and  C7_7 
REMARK    6  A    between atoms: C7_7  and  C8_8 
REMARK    7  A    between atoms: C8_8  and  C9_9 
REMARK    8  A    between atoms: C12_12  and  C13_13 
REMARK    9  A    between atoms: C13_13  and  C14_14 
REMARK   10  A    between atoms: C14_14  and  C15_15 
REMARK   11  A    between atoms: C15_15  and  N16_16 
REMARK   12  A    between atoms: C15_15  and  C20_20 
REMARK   13  A    between atoms: C15_15  and  C22_22 
REMARK   14  A    between atoms: C20_20  and  O21_21 
REMARK   15  A    between atoms: C22_22  and  O23_23 
ROOT
ATOM      1  C9  ZIN A   1      19.801  -0.616  11.299  0.00  0.00    -0.058 A 
ATOM      2  C10 ZIN A   1      20.211   0.237  12.306  0.00  0.00     0.007 A 
ATOM      3  C11 ZIN A   1      19.684   0.111  13.577  0.00  0.00     0.007 A 
ATOM      4  C12 ZIN A   1      18.745  -0.870  13.841  0.00  0.00    -0.058 A 
ATOM      5  C24 ZIN A   1      18.334  -1.721  12.834  0.00  0.00     0.007 A 
ATOM      6  C25 ZIN A   1      18.859  -1.593  11.563  0.00  0.00     0.007 A 
ENDROOT
BRANCH   4   7
ATOM      7  C13 ZIN A   1      18.170  -1.008  15.227  0.00  0.00     0.041 C 
BRANCH   7   8
ATOM      8  C14 ZIN A   1      19.133  -0.393  16.244  0.00  0.00     0.048 C 
BRANCH   8   9
ATOM      9  C15 ZIN A   1      18.409   0.697  17.038  0.00  0.00     0.165 C 
BRANCH   9  10
ATOM     10  N16 ZIN A   1      16.957   0.502  16.926  0.00  0.00    -0.066 N 
ATOM     11  H17 ZIN A   1      16.702   0.432  15.952  0.00  0.00     0.275 HD
ATOM     12  H18 ZIN A   1      16.694  -0.345  17.405  0.00  0.00     0.275 HD
ATOM     13  H19 ZIN A   1      16.480   1.287  17.343  0.00  0.00     0.275 HD
ENDBRANCH   9  10
BRANCH   9  14
ATOM     14  C20 ZIN A   1      18.824   0.618  18.508  0.00  0.00     0.205 C 
BRANCH  14  15
ATOM     15  O21 ZIN A   1      19.581   1.779  18.854  0.00  0.00    -0.398 OA
ATOM     16  H51 ZIN A   1      19.050   2.502  19.216  0.00  0.00     0.209 HD
ENDBRANCH  14  15
ENDBRANCH   9  14
BRANCH   9  17
ATOM     17  C22 ZIN A   1      18.784   2.071  16.476  0.00  0.00     0.205 C 
BRANCH  17  18
ATOM     18  O23 ZIN A   1      17.751   2.524  15.599  0.00  0.00    -0.398 OA
ATOM     19  H54 ZIN A   1      17.940   3.371  15.174  0.00  0.00     0.209 HD
ENDBRANCH  17  18
ENDBRANCH   9  17
ENDBRANCH   8   9
ENDBRANCH   7   8
ENDBRANCH   4   7
BRANCH   1  20
ATOM     20  C8  ZIN A   1      20.377  -0.479   9.913  0.00  0.00     0.038 C 
BRANCH  20  21
ATOM     21  C7  ZIN A   1      19.254  -0.597   8.881  0.00  0.00     0.005 C 
BRANCH  21  22
ATOM     22  C6  ZIN A   1      18.390   0.666   8.921  0.00  0.00     0.000 C 
BRANCH  22  23
ATOM     23  C5  ZIN A   1      19.292   1.901   8.883  0.00  0.00     0.000 C 
BRANCH  23  24
ATOM     24  C4  ZIN A   1      18.679   3.006   9.746  0.00  0.00     0.000 C 
BRANCH  24  25
ATOM     25  C3  ZIN A   1      17.629   2.400  10.680  0.00  0.00    -0.000 C 
BRANCH  25  26
ATOM     26  C2  ZIN A   1      17.730   3.060  12.057  0.00  0.00    -0.005 C 
ATOM     27  C1  ZIN A   1      19.090   3.749  12.194  0.00  0.00     0.005 C 
ENDBRANCH  25  26
ENDBRANCH  24  25
ENDBRANCH  23  24
ENDBRANCH  22  23
ENDBRANCH  21  22
ENDBRANCH  20  21
ENDBRANCH   1  20
TORSDOF 15
ENDMDL
MODEL 4
REMARK VINA RESULT:      -6.0      3.433      6.429
REMARK  15 active torsions:
REMARK  status: ('A' for Active; 'I' for Inactive)
REMARK    1  A    between atoms: C2_2  and  C3_3 
REMARK    2  A    between atoms: C3_3  and  C4_4 
REMARK    3  A    between atoms: C4_4  and  C5_5 
REMARK    4  A    between atoms: C5_5  and  C6_6 
REMARK    5  A    between atoms: C6_6  and  C7_7 
REMARK    6  A    between atoms: C7_7  and  C8_8 
REMARK    7  A    between atoms: C8_8  and  C9_9 
REMARK    8  A    between atoms: C12_12  and  C13_13 
REMARK    9  A    between atoms: C13_13  and  C14_14 
REMARK   10  A    between atoms: C14_14  and  C15_15 
REMARK   11  A    between atoms: C15_15  and  N16_16 
REMARK   12  A    between atoms: C15_15  and  C20_20 
REMARK   13  A    between atoms: C15_15  and  C22_22 
REMARK   14  A    between atoms: C20_20  and  O21_21 
REMARK   15  A    between atoms: C22_22  and  O23_23 
ROOT
ATOM      1  C9  ZIN A   1      18.010   1.570  11.235  0.00  0.00    -0.058 A 
ATOM      2  C10 ZIN A   1      17.281   0.584  10.597  0.00  0.00     0.007 A 
ATOM      3  C11 ZIN A   1      17.471   0.347   9.249  0.00  0.00     0.007 A 
ATOM      4  C12 ZIN A   1      18.391   1.096   8.538  0.00  0.00    -0.058 A 
ATOM      5  C24 ZIN A   1      19.118   2.082   9.176  0.00  0.00     0.007 A 
ATOM      6  C25 ZIN A   1      18.926   2.322  10.523  0.00  0.00     0.007 A 
ENDROOT
BRANCH   4   7
ATOM      7  C13 ZIN A   1      18.598   0.838   7.068  0.00  0.00     0.041 C 
BRANCH   7   8
ATOM      8  C14 ZIN A   1      17.539  -0.146   6.568  0.00  0.00     0.048 C 
BRANCH   8   9
ATOM      9  C15 ZIN A   1      18.226  -1.359   5.938  0.00  0.00     0.165 C 
BRANCH   9  10
ATOM     10  N16 ZIN A   1      17.275  -2.062   5.066  0.00  0.00    -0.066 N 
ATOM     11  H17 ZIN A   1      17.301  -1.654   4.143  0.00  0.00     0.275 HD
ATOM     12  H18 ZIN A   1      17.528  -3.037   5.009  0.00  0.00     0.275 HD
ATOM     13  H19 ZIN A   1      16.345  -1.977   5.445  0.00  0.00     0.275 HD
ENDBRANCH   9  10
BRANCH   9  14
ATOM     14  C20 ZIN A   1      19.428  -0.894   5.113  0.00  0.00     0.205 C 
BRANCH  14  15
ATOM     15  O21 ZIN A   1      19.632  -1.791   4.020  0.00  0.00    -0.398 OA
ATOM     16  H51 ZIN A   1      20.189  -2.553   4.234  0.00  0.00     0.209 HD
ENDBRANCH  14  15
ENDBRANCH   9  14
BRANCH   9  17
ATOM     17  C22 ZIN A   1      18.701  -2.306   7.042  0.00  0.00     0.205 C 
BRANCH  17  18
ATOM     18  O23 ZIN A   1      20.007  -2.792   6.724  0.00  0.00    -0.398 OA
ATOM     19  H54 ZIN A   1      20.265  -2.651   5.803  0.00  0.00     0.209 HD
ENDBRANCH  17  18
ENDBRANCH   9  17
ENDBRANCH   8   9
ENDBRANCH   7   8
ENDBRANCH   4   7
BRANCH   1  20
ATOM     20  C8  ZIN A   1      17.803   1.828  12.706  0.00  0.00     0.038 C 
BRANCH  20  21
ATOM     21  C7  ZIN A   1      19.158   1.844  13.416  0.00  0.00     0.005 C 
BRANCH  21  22
ATOM     22  C6  ZIN A   1      19.708   0.418  13.496  0.00  0.00     0.000 C 
BRANCH  22  23
ATOM     23  C5  ZIN A   1      18.698  -0.477  14.216  0.00  0.00     0.000 C 
BRANCH  23  24
ATOM     24  C4  ZIN A   1      18.497  -1.765  13.415  0.00  0.00     0.000 C 
BRANCH  24  25
ATOM     25  C3  ZIN A   1      19.475  -1.792  12.238  0.00  0.00    -0.000 C 
BRANCH  25  26
ATOM     26  C2  ZIN A   1      19.091  -2.923  11.282  0.00  0.00    -0.005 C 
ATOM     27  C1  ZIN A   1      20.085  -4.077  11.430  0.00  0.00     0.005 C 
ENDBRANCH  25  26
ENDBRANCH  24  25
ENDBRANCH  23  24
ENDBRANCH  22  23
ENDBRANCH  21  22
ENDBRANCH  20  21
ENDBRANCH   1  20
TORSDOF 15
ENDMDL
MODEL 5
REMARK VINA RESULT:      -6.0      3.452      5.245
REMARK  15 active torsions:
REMARK  status: ('A' for Active; 'I' for Inactive)
REMARK    1  A    between atoms: C2_2  and  C3_3 
REMARK    2  A    between atoms: C3_3  and  C4_4 
REMARK    3  A    between atoms: C4_4  and  C5_5 
REMARK    4  A    between atoms: C5_5  and  C6_6 
REMARK    5  A    between atoms: C6_6  and  C7_7 
REMARK    6  A    between atoms: C7_7  and  C8_8 
REMARK    7  A    between atoms: C8_8  and  C9_9 
REMARK    8  A    between atoms: C12_12  and  C13_13 
REMARK    9  A    between atoms: C13_13  and  C14_14 
REMARK   10  A    between atoms: C14_14  and  C15_15 
REMARK   11  A    between atoms: C15_15  and  N16_16 
REMARK   12  A    between atoms: C15_15  and  C20_20 
REMARK   13  A    between atoms: C15_15  and  C22_22 
REMARK   14  A    between atoms: C20_20  and  O21_21 
REMARK   15  A    between atoms: C22_22  and  O23_23 
ROOT
ATOM      1  C9  ZIN A   1      18.928   2.714   9.862  0.00  0.00    -0.058 A 
ATOM      2  C10 ZIN A   1      19.730   2.573  10.978  0.00  0.00     0.007 A 
ATOM      3  C11 ZIN A   1      19.512   3.362  12.092  0.00  0.00     0.007 A 
ATOM      4  C12 ZIN A   1      18.490   4.294  12.088  0.00  0.00    -0.058 A 
ATOM      5  C24 ZIN A   1      17.690   4.437  10.971  0.00  0.00     0.007 A 
ATOM      6  C25 ZIN A   1      17.910   3.650   9.857  0.00  0.00     0.007 A 
ENDROOT
BRANCH   4   7
ATOM      7  C13 ZIN A   1      18.252   5.155  13.302  0.00  0.00     0.041 C 
BRANCH   7   8
ATOM      8  C14 ZIN A   1      19.369   4.922  14.321  0.00  0.00     0.048 C 
BRANCH   8   9
ATOM      9  C15 ZIN A   1      18.792   4.998  15.736  0.00  0.00     0.165 C 
BRANCH   9  10
ATOM     10  N16 ZIN A   1      17.375   4.613  15.709  0.00  0.00    -0.066 N 
ATOM     11  H17 ZIN A   1      17.039   4.504  16.655  0.00  0.00     0.275 HD
ATOM     12  H18 ZIN A   1      16.840   5.331  15.244  0.00  0.00     0.275 HD
ATOM     13  H19 ZIN A   1      17.272   3.741  15.214  0.00  0.00     0.275 HD
ENDBRANCH   9  10
BRANCH   9  14
ATOM     14  C20 ZIN A   1      19.563   4.047  16.653  0.00  0.00     0.205 C 
BRANCH  14  15
ATOM     15  O21 ZIN A   1      20.961   4.325  16.563  0.00  0.00    -0.398 OA
ATOM     16  H51 ZIN A   1      21.221   5.171  16.954  0.00  0.00     0.209 HD
ENDBRANCH  14  15
ENDBRANCH   9  14
BRANCH   9  17
ATOM     17  C22 ZIN A   1      18.922   6.430  16.262  0.00  0.00     0.205 C 
BRANCH  17  18
ATOM     18  O23 ZIN A   1      18.945   6.412  17.691  0.00  0.00    -0.398 OA
ATOM     19  H54 ZIN A   1      19.519   5.731  18.066  0.00  0.00     0.209 HD
ENDBRANCH  17  18
ENDBRANCH   9  17
ENDBRANCH   8   9
ENDBRANCH   7   8
ENDBRANCH   4   7
BRANCH   1  20
ATOM     20  C8  ZIN A   1      19.166   1.853   8.648  0.00  0.00     0.038 C 
BRANCH  20  21
ATOM     21  C7  ZIN A   1      19.163   0.380   9.061  0.00  0.00     0.005 C 
BRANCH  21  22
ATOM     22  C6  ZIN A   1      17.720  -0.122   9.148  0.00  0.00     0.000 C 
BRANCH  22  23
ATOM     23  C5  ZIN A   1      17.489  -0.774  10.512  0.00  0.00     0.000 C 
BRANCH  23  24
ATOM     24  C4  ZIN A   1      16.771   0.214  11.435  0.00  0.00     0.000 C 
BRANCH  24  25
ATOM     25  C3  ZIN A   1      17.405   0.166  12.826  0.00  0.00    -0.000 C 
BRANCH  25  26
ATOM     26  C2  ZIN A   1      18.317  -1.059  12.928  0.00  0.00    -0.005 C 
ATOM     27  C1  ZIN A   1      19.369  -0.824  14.014  0.00  0.00     0.005 C 
ENDBRANCH  25  26
ENDBRANCH  24  25
ENDBRANCH  23  24
ENDBRANCH  22  23
ENDBRANCH  21  22
ENDBRANCH  20  21
ENDBRANCH   1  20
TORSDOF 15
ENDMDL
MODEL 6
REMARK VINA RESULT:      -5.9      3.241      4.804
REMARK  15 active torsions:
REMARK  status: ('A' for Active; 'I' for Inactive)
REMARK    1  A    between atoms: C2_2  and  C3_3 
REMARK    2  A    between atoms: C3_3  and  C4_4 
REMARK    3  A    between atoms: C4_4  and  C5_5 
REMARK    4  A    between atoms: C5_5  and  C6_6 
REMARK    5  A    between atoms: C6_6  and  C7_7 
REMARK    6  A    between atoms: C7_7  and  C8_8 
REMARK    7  A    between atoms: C8_8  and  C9_9 
REMARK    8  A    between atoms: C12_12  and  C13_13 
REMARK    9  A    between atoms: C13_13  and  C14_14 
REMARK   10  A    between atoms: C14_14  and  C15_15 
REMARK   11  A    between atoms: C15_15  and  N16_16 
REMARK   12  A    between atoms: C15_15  and  C20_20 
REMARK   13  A    between atoms: C15_15  and  C22_22 
REMARK   14  A    between atoms: C20_20  and  O21_21 
REMARK   15  A    between atoms: C22_22  and  O23_23 
ROOT
ATOM      1  C9  ZIN A   1      18.967   2.537   9.922  0.00  0.00    -0.058 A 
ATOM      2  C10 ZIN A   1      19.750   2.319  11.040  0.00  0.00     0.007 A 
ATOM      3  C11 ZIN A   1      19.607   3.124  12.153  0.00  0.00     0.007 A 
ATOM      4  C12 ZIN A   1      18.679   4.150  12.148  0.00  0.00    -0.058 A 
ATOM      5  C24 ZIN A   1      17.897   4.369  11.030  0.00  0.00     0.007 A 
ATOM      6  C25 ZIN A   1      18.043   3.566   9.916  0.00  0.00     0.007 A 
ENDROOT
BRANCH   4   7
ATOM      7  C13 ZIN A   1      18.522   5.029  13.362  0.00  0.00     0.041 C 
BRANCH   7   8
ATOM      8  C14 ZIN A   1      19.900   5.480  13.848  0.00  0.00     0.048 C 
BRANCH   8   9
ATOM      9  C15 ZIN A   1      19.950   5.412  15.376  0.00  0.00     0.165 C 
BRANCH   9  10
ATOM     10  N16 ZIN A   1      21.329   5.628  15.831  0.00  0.00    -0.066 N 
ATOM     11  H17 ZIN A   1      21.723   4.750  16.136  0.00  0.00     0.275 HD
ATOM     12  H18 ZIN A   1      21.880   5.999  15.072  0.00  0.00     0.275 HD
ATOM     13  H19 ZIN A   1      21.332   6.282  16.600  0.00  0.00     0.275 HD
ENDBRANCH   9  10
BRANCH   9  14
ATOM     14  C20 ZIN A   1      19.042   6.494  15.964  0.00  0.00     0.205 C 
BRANCH  14  15
ATOM     15  O21 ZIN A   1      19.088   6.431  17.391  0.00  0.00    -0.398 OA
ATOM     16  H51 ZIN A   1      18.438   6.996  17.832  0.00  0.00     0.209 HD
ENDBRANCH  14  15
ENDBRANCH   9  14
BRANCH   9  17
ATOM     17  C22 ZIN A   1      19.469   4.036  15.841  0.00  0.00     0.205 C 
BRANCH  17  18
ATOM     18  O23 ZIN A   1      20.127   3.689  17.061  0.00  0.00    -0.398 OA
ATOM     19  H54 ZIN A   1      19.724   2.945  17.528  0.00  0.00     0.209 HD
ENDBRANCH  17  18
ENDBRANCH   9  17
ENDBRANCH   8   9
ENDBRANCH   7   8
ENDBRANCH   4   7
BRANCH   1  20
ATOM     20  C8  ZIN A   1      19.124   1.657   8.708  0.00  0.00     0.038 C 
BRANCH  20  21
ATOM     21  C7  ZIN A   1      17.904   0.742   8.581  0.00  0.00     0.005 C 
BRANCH  21  22
ATOM     22  C6  ZIN A   1      18.369  -0.698   8.355  0.00  0.00     0.000 C 
BRANCH  22  23
ATOM     23  C5  ZIN A   1      19.351  -1.096   9.457  0.00  0.00     0.000 C 
BRANCH  23  24
ATOM     24  C4  ZIN A   1      18.587  -1.759  10.606  0.00  0.00     0.000 C 
BRANCH  24  25
ATOM     25  C3  ZIN A   1      18.986  -1.102  11.929  0.00  0.00    -0.000 C 
BRANCH  25  26
ATOM     26  C2  ZIN A   1      17.729  -0.798  12.748  0.00  0.00    -0.005 C 
ATOM     27  C1  ZIN A   1      16.817   0.139  11.954  0.00  0.00     0.005 C 
ENDBRANCH  25  26
ENDBRANCH  24  25
ENDBRANCH  23  24
ENDBRANCH  22  23
ENDBRANCH  21  22
ENDBRANCH  20  21
ENDBRANCH   1  20
TORSDOF 15
ENDMDL
MODEL 7
REMARK VINA RESULT:      -5.9      3.485      7.285
REMARK  15 active torsions:
REMARK  status: ('A' for Active; 'I' for Inactive)
REMARK    1  A    between atoms: C2_2  and  C3_3 
REMARK    2  A    between atoms: C3_3  and  C4_4 
REMARK    3  A    between atoms: C4_4  and  C5_5 
REMARK    4  A    between atoms: C5_5  and  C6_6 
REMARK    5  A    between atoms: C6_6  and  C7_7 
REMARK    6  A    between atoms: C7_7  and  C8_8 
REMARK    7  A    between atoms: C8_8  and  C9_9 
REMARK    8  A    between atoms: C12_12  and  C13_13 
REMARK    9  A    between atoms: C13_13  and  C14_14 
REMARK   10  A    between atoms: C14_14  and  C15_15 
REMARK   11  A    between atoms: C15_15  and  N16_16 
REMARK   12  A    between atoms: C15_15  and  C20_20 
REMARK   13  A    between atoms: C15_15  and  C22_22 
REMARK   14  A    between atoms: C20_20  and  O21_21 
REMARK   15  A    between atoms: C22_22  and  O23_23 
ROOT
ATOM      1  C9  ZIN A   1      18.231  -0.507  12.638  0.00  0.00    -0.058 A 
ATOM      2  C10 ZIN A   1      19.392  -0.359  11.903  0.00  0.00     0.007 A 
ATOM      3  C11 ZIN A   1      19.329   0.044  10.583  0.00  0.00     0.007 A 
ATOM      4  C12 ZIN A   1      18.103   0.298   9.996  0.00  0.00    -0.058 A 
ATOM      5  C24 ZIN A   1      16.942   0.148  10.730  0.00  0.00     0.007 A 
ATOM      6  C25 ZIN A   1      17.005  -0.258  12.049  0.00  0.00     0.007 A 
ENDROOT
BRANCH   4   7
ATOM      7  C13 ZIN A   1      18.033   0.737   8.556  0.00  0.00     0.041 C 
BRANCH   7   8
ATOM      8  C14 ZIN A   1      17.335  -0.342   7.727  0.00  0.00     0.048 C 
BRANCH   8   9
ATOM      9  C15 ZIN A   1      18.123  -0.586   6.439  0.00  0.00     0.165 C 
BRANCH   9  10
ATOM     10  N16 ZIN A   1      17.227  -1.134   5.412  0.00  0.00    -0.066 N 
ATOM     11  H17 ZIN A   1      17.376  -0.644   4.542  0.00  0.00     0.275 HD
ATOM     12  H18 ZIN A   1      17.422  -2.115   5.283  0.00  0.00     0.275 HD
ATOM     13  H19 ZIN A   1      16.269  -1.016   5.704  0.00  0.00     0.275 HD
ENDBRANCH   9  10
BRANCH   9  14
ATOM     14  C20 ZIN A   1      18.719   0.734   5.946  0.00  0.00     0.205 C 
BRANCH  14  15
ATOM     15  O21 ZIN A   1      19.617   0.478   4.865  0.00  0.00    -0.398 OA
ATOM     16  H51 ZIN A   1      19.180   0.207   4.046  0.00  0.00     0.209 HD
ENDBRANCH  14  15
ENDBRANCH   9  14
BRANCH   9  17
ATOM     17  C22 ZIN A   1      19.252  -1.583   6.714  0.00  0.00     0.205 C 
BRANCH  17  18
ATOM     18  O23 ZIN A   1      19.653  -2.198   5.488  0.00  0.00    -0.398 OA
ATOM     19  H54 ZIN A   1      19.440  -1.681   4.700  0.00  0.00     0.209 HD
ENDBRANCH  17  18
ENDBRANCH   9  17
ENDBRANCH   8   9
ENDBRANCH   7   8
ENDBRANCH   4   7
BRANCH   1  20
ATOM     20  C8  ZIN A   1      18.301  -0.946  14.078  0.00  0.00     0.038 C 
BRANCH  20  21
ATOM     21  C7  ZIN A   1      17.763   0.170  14.977  0.00  0.00     0.005 C 
BRANCH  21  22
ATOM     22  C6  ZIN A   1      18.829   1.257  15.132  0.00  0.00     0.000 C 
BRANCH  22  23
ATOM     23  C5  ZIN A   1      18.244   2.607  14.717  0.00  0.00     0.000 C 
BRANCH  23  24
ATOM     24  C4  ZIN A   1      18.902   3.070  13.415  0.00  0.00     0.000 C 
BRANCH  24  25
ATOM     25  C3  ZIN A   1      17.820   3.384  12.380  0.00  0.00    -0.000 C 
BRANCH  25  26
ATOM     26  C2  ZIN A   1      18.479   3.730  11.043  0.00  0.00    -0.005 C 
ATOM     27  C1  ZIN A   1      17.548   4.636  10.234  0.00  0.00     0.005 C 
ENDBRANCH  25  26
ENDBRANCH  24  25
ENDBRANCH  23  24
ENDBRANCH  22  23
ENDBRANCH  21  22
ENDBRANCH  20  21
ENDBRANCH   1  20
TORSDOF 15
ENDMDL
MODEL 8
REMARK VINA RESULT:      -5.9      2.753      5.106
REMARK  15 active torsions:
REMARK  status: ('A' for Active; 'I' for Inactive)
REMARK    1  A    between atoms: C2_2  and  C3_3 
REMARK    2  A    between atoms: C3_3  and  C4_4 
REMARK    3  A    between atoms: C4_4  and  C5_5 
REMARK    4  A    between atoms: C5_5  and  C6_6 
REMARK    5  A    between atoms: C6_6  and  C7_7 
REMARK    6  A    between atoms: C7_7  and  C8_8 
REMARK    7  A    between atoms: C8_8  and  C9_9 
REMARK    8  A    between atoms: C12_12  and  C13_13 
REMARK    9  A    between atoms: C13_13  and  C14_14 
REMARK   10  A    between atoms: C14_14  and  C15_15 
REMARK   11  A    between atoms: C15_15  and  N16_16 
REMARK   12  A    between atoms: C15_15  and  C20_20 
REMARK   13  A    between atoms: C15_15  and  C22_22 
REMARK   14  A    between atoms: C20_20  and  O21_21 
REMARK   15  A    between atoms: C22_22  and  O23_23 
ROOT
ATOM      1  C9  ZIN A   1      18.463  -1.936  10.747  0.00  0.00    -0.058 A 
ATOM      2  C10 ZIN A   1      19.506  -2.400  11.526  0.00  0.00     0.007 A 
ATOM      3  C11 ZIN A   1      19.509  -2.167  12.888  0.00  0.00     0.007 A 
ATOM      4  C12 ZIN A   1      18.467  -1.470  13.472  0.00  0.00    -0.058 A 
ATOM      5  C24 ZIN A   1      17.425  -1.005  12.693  0.00  0.00     0.007 A 
ATOM      6  C25 ZIN A   1      17.424  -1.235  11.331  0.00  0.00     0.007 A 
ENDROOT
BRANCH   4   7
ATOM      7  C13 ZIN A   1      18.470  -1.216  14.958  0.00  0.00     0.041 C 
BRANCH   7   8
ATOM      8  C14 ZIN A   1      19.250   0.066  15.255  0.00  0.00     0.048 C 
BRANCH   8   9
ATOM      9  C15 ZIN A   1      18.386   1.005  16.098  0.00  0.00     0.165 C 
BRANCH   9  10
ATOM     10  N16 ZIN A   1      17.641   1.911  15.213  0.00  0.00    -0.066 N 
ATOM     11  H17 ZIN A   1      17.555   2.815  15.655  0.00  0.00     0.275 HD
ATOM     12  H18 ZIN A   1      18.135   2.009  14.339  0.00  0.00     0.275 HD
ATOM     13  H19 ZIN A   1      16.722   1.533  15.041  0.00  0.00     0.275 HD
ENDBRANCH   9  10
BRANCH   9  14
ATOM     14  C20 ZIN A   1      17.402   0.183  16.933  0.00  0.00     0.205 C 
BRANCH  14  15
ATOM     15  O21 ZIN A   1      16.823   1.013  17.942  0.00  0.00    -0.398 OA
ATOM     16  H51 ZIN A   1      17.105   0.794  18.841  0.00  0.00     0.209 HD
ENDBRANCH  14  15
ENDBRANCH   9  14
BRANCH   9  17
ATOM     17  C22 ZIN A   1      19.283   1.825  17.028  0.00  0.00     0.205 C 
BRANCH  17  18
ATOM     18  O23 ZIN A   1      19.746   0.996  18.096  0.00  0.00    -0.398 OA
ATOM     19  H54 ZIN A   1      20.229   0.212  17.804  0.00  0.00     0.209 HD
ENDBRANCH  17  18
ENDBRANCH   9  17
ENDBRANCH   8   9
ENDBRANCH   7   8
ENDBRANCH   4   7
BRANCH   1  20
ATOM     20  C8  ZIN A   1      18.460  -2.191   9.261  0.00  0.00     0.038 C 
BRANCH  20  21
ATOM     21  C7  ZIN A   1      19.394  -1.194   8.573  0.00  0.00     0.005 C 
BRANCH  21  22
ATOM     22  C6  ZIN A   1      18.590  -0.336   7.592  0.00  0.00     0.000 C 
BRANCH  22  23
ATOM     23  C5  ZIN A   1      18.057   0.901   8.316  0.00  0.00     0.000 C 
BRANCH  23  24
ATOM     24  C4  ZIN A   1      19.230   1.720   8.859  0.00  0.00     0.000 C 
BRANCH  24  25
ATOM     25  C3  ZIN A   1      18.699   2.839   9.756  0.00  0.00    -0.000 C 
BRANCH  25  26
ATOM     26  C2  ZIN A   1      18.423   2.284  11.156  0.00  0.00    -0.005 C 
ATOM     27  C1  ZIN A   1      19.723   1.741  11.754  0.00  0.00     0.005 C 
ENDBRANCH  25  26
ENDBRANCH  24  25
ENDBRANCH  23  24
ENDBRANCH  22  23
ENDBRANCH  21  22
ENDBRANCH  20  21
ENDBRANCH   1  20
TORSDOF 15
ENDMDL
MODEL 9
REMARK VINA RESULT:      -5.7      2.922      5.423
REMARK  15 active torsions:
REMARK  status: ('A' for Active; 'I' for Inactive)
REMARK    1  A    between atoms: C2_2  and  C3_3 
REMARK    2  A    between atoms: C3_3  and  C4_4 
REMARK    3  A    between atoms: C4_4  and  C5_5 
REMARK    4  A    between atoms: C5_5  and  C6_6 
REMARK    5  A    between atoms: C6_6  and  C7_7 
REMARK    6  A    between atoms: C7_7  and  C8_8 
REMARK    7  A    between atoms: C8_8  and  C9_9 
REMARK    8  A    between atoms: C12_12  and  C13_13 
REMARK    9  A    between atoms: C13_13  and  C14_14 
REMARK   10  A    between atoms: C14_14  and  C15_15 
REMARK   11  A    between atoms: C15_15  and  N16_16 
REMARK   12  A    between atoms: C15_15  and  C20_20 
REMARK   13  A    between atoms: C15_15  and  C22_22 
REMARK   14  A    between atoms: C20_20  and  O21_21 
REMARK   15  A    between atoms: C22_22  and  O23_23 
ROOT
ATOM      1  C9  ZIN A   1      18.160  -1.572  12.514  0.00  0.00    -0.058 A 
ATOM      2  C10 ZIN A   1      17.297  -0.493  12.486  0.00  0.00     0.007 A 
ATOM      3  C11 ZIN A   1      17.478   0.562  13.360  0.00  0.00     0.007 A 
ATOM      4  C12 ZIN A   1      18.525   0.538  14.264  0.00  0.00    -0.058 A 
ATOM      5  C24 ZIN A   1      19.387  -0.541  14.293  0.00  0.00     0.007 A 
ATOM      6  C25 ZIN A   1      19.203  -1.597  13.422  0.00  0.00     0.007 A 
ENDROOT
BRANCH   4   7
ATOM      7  C13 ZIN A   1      18.723   1.688  15.217  0.00  0.00     0.041 C 
BRANCH   7   8
ATOM      8  C14 ZIN A   1      18.727   3.004  14.437  0.00  0.00     0.048 C 
BRANCH   8   9
ATOM      9  C15 ZIN A   1      18.821   4.176  15.415  0.00  0.00     0.165 C 
BRANCH   9  10
ATOM     10  N16 ZIN A   1      17.480   4.508  15.913  0.00  0.00    -0.066 N 
ATOM     11  H17 ZIN A   1      16.911   4.842  15.149  0.00  0.00     0.275 HD
ATOM     12  H18 ZIN A   1      17.056   3.684  16.312  0.00  0.00     0.275 HD
ATOM     13  H19 ZIN A   1      17.551   5.226  16.618  0.00  0.00     0.275 HD
ENDBRANCH   9  10
BRANCH   9  14
ATOM     14  C20 ZIN A   1      19.721   3.790  16.590  0.00  0.00     0.205 C 
BRANCH  14  15
ATOM     15  O21 ZIN A   1      21.044   4.279  16.359  0.00  0.00    -0.398 OA
ATOM     16  H51 ZIN A   1      21.195   5.176  16.689  0.00  0.00     0.209 HD
ENDBRANCH  14  15
ENDBRANCH   9  14
BRANCH   9  17
ATOM     17  C22 ZIN A   1      19.413   5.392  14.698  0.00  0.00     0.205 C 
BRANCH  17  18
ATOM     18  O23 ZIN A   1      20.206   4.953  13.593  0.00  0.00    -0.398 OA
ATOM     19  H54 ZIN A   1      20.396   5.645  12.945  0.00  0.00     0.209 HD
ENDBRANCH  17  18
ENDBRANCH   9  17
ENDBRANCH   8   9
ENDBRANCH   7   8
ENDBRANCH   4   7
BRANCH   1  20
ATOM     20  C8  ZIN A   1      17.962  -2.722  11.560  0.00  0.00     0.038 C 
BRANCH  20  21
ATOM     21  C7  ZIN A   1      19.146  -2.791  10.594  0.00  0.00     0.005 C 
BRANCH  21  22
ATOM     22  C6  ZIN A   1      18.834  -1.962   9.346  0.00  0.00     0.000 C 
BRANCH  22  23
ATOM     23  C5  ZIN A   1      19.626  -0.655   9.392  0.00  0.00     0.000 C 
BRANCH  23  24
ATOM     24  C4  ZIN A   1      19.235   0.221   8.199  0.00  0.00     0.000 C 
BRANCH  24  25
ATOM     25  C3  ZIN A   1      19.275   1.693   8.613  0.00  0.00    -0.000 C 
BRANCH  25  26
ATOM     26  C2  ZIN A   1      19.086   1.803  10.127  0.00  0.00    -0.005 C 
ATOM     27  C1  ZIN A   1      17.938   2.769  10.429  0.00  0.00     0.005 C 
ENDBRANCH  25  26
ENDBRANCH  24  25
ENDBRANCH  23  24
ENDBRANCH  22  23
ENDBRANCH  21  22
ENDBRANCH  20  21
ENDBRANCH   1  20
TORSDOF 15
ENDMDL
