MODEL 1
REMARK VINA RESULT:      -8.0      0.000      0.000
REMARK  8 active torsions:
REMARK  status: ('A' for Active; 'I' for Inactive)
REMARK    1  A    between atoms: O2_2  and  N3_3 
REMARK    2  A    between atoms: C4_4  and  C5_5 
REMARK    3  A    between atoms: C4_4  and  C27_25 
REMARK       I    between atoms: C5_5  and  N7_7 
REMARK    4  A    between atoms: N7_7  and  C8_8 
REMARK    5  A    between atoms: C13_12  and  C14_13 
REMARK    6  A    between atoms: C17_16  and  C18_17 
REMARK    7  A    between atoms: C18_17  and  O19_18 
REMARK    8  A    between atoms: O19_18  and  C20_19 
REMARK       I    between atoms: C20_19  and  N21_20 
ROOT
ATOM      1  C8  ZIN A   1      19.266  -2.210   8.726  0.00  0.00     0.211 C 
ATOM      2  C10 ZIN A   1      18.246  -2.066   9.843  0.00  0.00     0.251 C 
ATOM      3  O11 ZIN A   1      17.461  -2.821  10.376  0.00  0.00    -0.271 OA
ATOM      4  N12 ZIN A   1      18.560  -0.769  10.006  0.00  0.00    -0.293 N 
ATOM      5  C13 ZIN A   1      17.998   0.384  10.581  0.00  0.00     0.121 C 
ATOM      6  C17 ZIN A   1      18.272   1.579  10.073  0.00  0.00    -0.013 C 
ATOM      7  C23 ZIN A   1      19.181   1.914   8.939  0.00  0.00     0.115 C 
ATOM      8  S24 ZIN A   1      19.508   0.481   7.869  0.00  0.00    -0.136 SA
ATOM      9  C25 ZIN A   1      19.766  -0.823   9.117  0.00  0.00     0.187 C 
ENDROOT
BRANCH   1  10
ATOM     10  N7  ZIN A   1      18.670  -2.264   7.389  0.00  0.00    -0.339 N 
ATOM     11  C5  ZIN A   1      19.272  -2.967   6.410  0.00  0.00     0.276 C 
ATOM     12  O6  ZIN A   1      20.257  -3.634   6.659  0.00  0.00    -0.266 OA
ATOM     13  H35 ZIN A   1      17.840  -1.794   7.208  0.00  0.00     0.163 HD
BRANCH  11  14
ATOM     14  C4  ZIN A   1      18.735  -2.925   5.029  0.00  0.00     0.185 C 
ATOM     15  N3  ZIN A   1      19.135  -1.999   4.201  0.00  0.00    -0.126 NA
BRANCH  15  16
ATOM     16  O2  ZIN A   1      19.997  -0.971   4.653  0.00  0.00    -0.261 OA
ATOM     17  C1  ZIN A   1      19.398   0.326   4.661  0.00  0.00     0.240 C 
ENDBRANCH  15  16
BRANCH  14  18
ATOM     18  C27 ZIN A   1      17.751  -3.930   4.590  0.00  0.00     0.111 A 
ATOM     19  O31 ZIN A   1      17.757  -5.238   4.915  0.00  0.00    -0.320 OA
ATOM     20  C30 ZIN A   1      16.709  -5.846   4.339  0.00  0.00     0.142 A 
ATOM     21  C29 ZIN A   1      16.018  -4.932   3.625  0.00  0.00     0.027 A 
ATOM     22  C28 ZIN A   1      16.679  -3.701   3.781  0.00  0.00     0.042 A 
ENDBRANCH  14  18
ENDBRANCH  11  14
ENDBRANCH   1  10
BRANCH   5  23
ATOM     23  C14 ZIN A   1      17.106   0.266  11.747  0.00  0.00     0.227 C 
ATOM     24  O15 ZIN A   1      17.566   0.339  12.878  0.00  0.00    -0.643 OA
ATOM     25  O16 ZIN A   1      15.906   0.094  11.584  0.00  0.00    -0.643 OA
ENDBRANCH   5  23
BRANCH   6  26
ATOM     26  C18 ZIN A   1      17.576   2.745  10.725  0.00  0.00     0.218 C 
BRANCH  26  27
ATOM     27  O19 ZIN A   1      18.549   3.773  11.043  0.00  0.00    -0.300 OA
BRANCH  27  28
ATOM     28  C20 ZIN A   1      19.385   3.528  12.070  0.00  0.00     0.358 C 
ATOM     29  N21 ZIN A   1      20.713   3.441  11.853  0.00  0.00    -0.346 N 
ATOM     30  H38 ZIN A   1      21.065   3.558  10.957  0.00  0.00     0.161 HD
ATOM     31  H39 ZIN A   1      21.314   3.263  12.592  0.00  0.00     0.161 HD
ATOM     32  O22 ZIN A   1      18.942   3.381  13.191  0.00  0.00    -0.239 OA
ENDBRANCH  27  28
ENDBRANCH  26  27
ENDBRANCH   6  26
TORSDOF 8
ENDMDL
MODEL 2
REMARK VINA RESULT:      -7.7      2.934      3.660
REMARK  8 active torsions:
REMARK  status: ('A' for Active; 'I' for Inactive)
REMARK    1  A    between atoms: O2_2  and  N3_3 
REMARK    2  A    between atoms: C4_4  and  C5_5 
REMARK    3  A    between atoms: C4_4  and  C27_25 
REMARK       I    between atoms: C5_5  and  N7_7 
REMARK    4  A    between atoms: N7_7  and  C8_8 
REMARK    5  A    between atoms: C13_12  and  C14_13 
REMARK    6  A    between atoms: C17_16  and  C18_17 
REMARK    7  A    between atoms: C18_17  and  O19_18 
REMARK    8  A    between atoms: O19_18  and  C20_19 
REMARK       I    between atoms: C20_19  and  N21_20 
ROOT
ATOM      1  C8  ZIN A   1      18.073  -4.082   9.529  0.00  0.00     0.211 C 
ATOM      2  C10 ZIN A   1      17.494  -3.275  10.679  0.00  0.00     0.251 C 
ATOM      3  O11 ZIN A   1      16.799  -3.541  11.637  0.00  0.00    -0.271 OA
ATOM      4  N12 ZIN A   1      18.059  -2.147  10.215  0.00  0.00    -0.293 N 
ATOM      5  C13 ZIN A   1      17.911  -0.757  10.366  0.00  0.00     0.121 C 
ATOM      6  C17 ZIN A   1      18.212   0.054   9.361  0.00  0.00    -0.013 C 
ATOM      7  C23 ZIN A   1      18.763  -0.299   8.020  0.00  0.00     0.115 C 
ATOM      8  S24 ZIN A   1      18.489  -2.047   7.600  0.00  0.00    -0.136 SA
ATOM      9  C25 ZIN A   1      18.899  -2.846   9.187  0.00  0.00     0.187 C 
ENDROOT
BRANCH   1  10
ATOM     10  N7  ZIN A   1      17.088  -4.432   8.503  0.00  0.00    -0.339 N 
ATOM     11  C5  ZIN A   1      16.564  -5.673   8.467  0.00  0.00     0.276 C 
ATOM     12  O6  ZIN A   1      16.835  -6.473   9.342  0.00  0.00    -0.266 OA
ATOM     13  H35 ZIN A   1      16.811  -3.770   7.849  0.00  0.00     0.163 HD
BRANCH  11  14
ATOM     14  C4  ZIN A   1      15.659  -6.065   7.360  0.00  0.00     0.185 C 
ATOM     15  N3  ZIN A   1      16.092  -6.055   6.130  0.00  0.00    -0.126 NA
BRANCH  15  16
ATOM     16  O2  ZIN A   1      17.389  -5.567   5.840  0.00  0.00    -0.261 OA
ATOM     17  C1  ZIN A   1      17.420  -4.573   4.813  0.00  0.00     0.240 C 
ENDBRANCH  15  16
BRANCH  14  18
ATOM     18  C27 ZIN A   1      14.272  -6.467   7.650  0.00  0.00     0.111 A 
ATOM     19  O31 ZIN A   1      13.327  -5.693   8.219  0.00  0.00    -0.320 OA
ATOM     20  C30 ZIN A   1      12.184  -6.389   8.324  0.00  0.00     0.142 A 
ATOM     21  C29 ZIN A   1      12.386  -7.628   7.830  0.00  0.00     0.027 A 
ATOM     22  C28 ZIN A   1      13.722  -7.687   7.395  0.00  0.00     0.042 A 
ENDBRANCH  14  18
ENDBRANCH  11  14
ENDBRANCH   1  10
BRANCH   5  23
ATOM     23  C14 ZIN A   1      17.423  -0.203  11.640  0.00  0.00     0.227 C 
ATOM     24  O15 ZIN A   1      18.212   0.043  12.542  0.00  0.00    -0.643 OA
ATOM     25  O16 ZIN A   1      16.228   0.010  11.796  0.00  0.00    -0.643 OA
ENDBRANCH   5  23
BRANCH   6  26
ATOM     26  C18 ZIN A   1      17.964   1.521   9.604  0.00  0.00     0.218 C 
BRANCH  26  27
ATOM     27  O19 ZIN A   1      19.235   2.212   9.725  0.00  0.00    -0.300 OA
BRANCH  27  28
ATOM     28  C20 ZIN A   1      19.502   2.797  10.909  0.00  0.00     0.358 C 
ATOM     29  N21 ZIN A   1      20.407   2.248  11.743  0.00  0.00    -0.346 N 
ATOM     30  H38 ZIN A   1      20.867   1.433  11.490  0.00  0.00     0.161 HD
ATOM     31  H39 ZIN A   1      20.598   2.669  12.595  0.00  0.00     0.161 HD
ATOM     32  O22 ZIN A   1      18.924   3.818  11.225  0.00  0.00    -0.239 OA
ENDBRANCH  27  28
ENDBRANCH  26  27
ENDBRANCH   6  26
TORSDOF 8
ENDMDL
MODEL 3
REMARK VINA RESULT:      -7.7      2.799      8.567
REMARK  8 active torsions:
REMARK  status: ('A' for Active; 'I' for Inactive)
REMARK    1  A    between atoms: O2_2  and  N3_3 
REMARK    2  A    between atoms: C4_4  and  C5_5 
REMARK    3  A    between atoms: C4_4  and  C27_25 
REMARK       I    between atoms: C5_5  and  N7_7 
REMARK    4  A    between atoms: N7_7  and  C8_8 
REMARK    5  A    between atoms: C13_12  and  C14_13 
REMARK    6  A    between atoms: C17_16  and  C18_17 
REMARK    7  A    between atoms: C18_17  and  O19_18 
REMARK    8  A    between atoms: O19_18  and  C20_19 
REMARK       I    between atoms: C20_19  and  N21_20 
ROOT
ATOM      1  C8  ZIN A   1      20.131   0.951  10.084  0.00  0.00     0.211 C 
ATOM      2  C10 ZIN A   1      19.664   0.749   8.653  0.00  0.00     0.251 C 
ATOM      3  O11 ZIN A   1      19.400   1.496   7.734  0.00  0.00    -0.271 OA
ATOM      4  N12 ZIN A   1      19.659  -0.586   8.808  0.00  0.00    -0.293 N 
ATOM      5  C13 ZIN A   1      19.099  -1.715   8.185  0.00  0.00     0.121 C 
ATOM      6  C17 ZIN A   1      18.811  -2.793   8.902  0.00  0.00    -0.013 C 
ATOM      7  C23 ZIN A   1      19.047  -3.026  10.358  0.00  0.00     0.115 C 
ATOM      8  S24 ZIN A   1      19.273  -1.473  11.277  0.00  0.00    -0.136 SA
ATOM      9  C25 ZIN A   1      20.358  -0.556  10.134  0.00  0.00     0.187 C 
ENDROOT
BRANCH   1  10
ATOM     10  N7  ZIN A   1      19.075   1.416  10.987  0.00  0.00    -0.339 N 
ATOM     11  C5  ZIN A   1      19.262   2.526  11.728  0.00  0.00     0.276 C 
ATOM     12  O6  ZIN A   1      20.265   3.196  11.577  0.00  0.00    -0.266 OA
ATOM     13  H35 ZIN A   1      18.240   0.925  11.052  0.00  0.00     0.163 HD
BRANCH  11  14
ATOM     14  C4  ZIN A   1      18.245   2.930  12.728  0.00  0.00     0.185 C 
ATOM     15  N3  ZIN A   1      17.111   3.443  12.334  0.00  0.00    -0.126 NA
BRANCH  15  16
ATOM     16  O2  ZIN A   1      16.896   3.715  10.961  0.00  0.00    -0.261 OA
ATOM     17  C1  ZIN A   1      17.011   5.098  10.619  0.00  0.00     0.240 C 
ENDBRANCH  15  16
BRANCH  14  18
ATOM     18  C27 ZIN A   1      18.513   2.751  14.165  0.00  0.00     0.111 A 
ATOM     19  O31 ZIN A   1      18.728   3.736  15.058  0.00  0.00    -0.320 OA
ATOM     20  C30 ZIN A   1      18.934   3.202  16.272  0.00  0.00     0.142 A 
ATOM     21  C29 ZIN A   1      18.863   1.858  16.169  0.00  0.00     0.027 A 
ATOM     22  C28 ZIN A   1      18.593   1.560  14.822  0.00  0.00     0.042 A 
ENDBRANCH  14  18
ENDBRANCH  11  14
ENDBRANCH   1  10
BRANCH   5  23
ATOM     23  C14 ZIN A   1      18.834  -1.701   6.737  0.00  0.00     0.227 C 
ATOM     24  O15 ZIN A   1      19.650  -2.179   5.961  0.00  0.00    -0.643 OA
ATOM     25  O16 ZIN A   1      17.798  -1.210   6.310  0.00  0.00    -0.643 OA
ENDBRANCH   5  23
BRANCH   6  26
ATOM     26  C18 ZIN A   1      18.162  -3.927   8.152  0.00  0.00     0.218 C 
BRANCH  26  27
ATOM     27  O19 ZIN A   1      18.984  -5.118   8.271  0.00  0.00    -0.300 OA
BRANCH  27  28
ATOM     28  C20 ZIN A   1      19.753  -5.437   7.213  0.00  0.00     0.358 C 
ATOM     29  N21 ZIN A   1      20.943  -4.829   7.037  0.00  0.00    -0.346 N 
ATOM     30  H38 ZIN A   1      21.245  -4.163   7.673  0.00  0.00     0.161 HD
ATOM     31  H39 ZIN A   1      21.497  -5.059   6.275  0.00  0.00     0.161 HD
ATOM     32  O22 ZIN A   1      19.374  -6.272   6.416  0.00  0.00    -0.239 OA
ENDBRANCH  27  28
ENDBRANCH  26  27
ENDBRANCH   6  26
TORSDOF 8
ENDMDL
MODEL 4
REMARK VINA RESULT:      -7.7      3.154      4.777
REMARK  8 active torsions:
REMARK  status: ('A' for Active; 'I' for Inactive)
REMARK    1  A    between atoms: O2_2  and  N3_3 
REMARK    2  A    between atoms: C4_4  and  C5_5 
REMARK    3  A    between atoms: C4_4  and  C27_25 
REMARK       I    between atoms: C5_5  and  N7_7 
REMARK    4  A    between atoms: N7_7  and  C8_8 
REMARK    5  A    between atoms: C13_12  and  C14_13 
REMARK    6  A    between atoms: C17_16  and  C18_17 
REMARK    7  A    between atoms: C18_17  and  O19_18 
REMARK    8  A    between atoms: O19_18  and  C20_19 
REMARK       I    between atoms: C20_19  and  N21_20 
ROOT
ATOM      1  C8  ZIN A   1      16.975   0.232  10.622  0.00  0.00     0.211 C 
ATOM      2  C10 ZIN A   1      17.450   1.631  10.979  0.00  0.00     0.251 C 
ATOM      3  O11 ZIN A   1      17.667   2.641  10.343  0.00  0.00    -0.271 OA
ATOM      4  N12 ZIN A   1      17.537   1.305  12.280  0.00  0.00    -0.293 N 
ATOM      5  C13 ZIN A   1      18.164   1.783  13.444  0.00  0.00     0.121 C 
ATOM      6  C17 ZIN A   1      18.519   0.935  14.401  0.00  0.00    -0.013 C 
ATOM      7  C23 ZIN A   1      18.301  -0.541  14.457  0.00  0.00     0.115 C 
ATOM      8  S24 ZIN A   1      17.982  -1.254  12.815  0.00  0.00    -0.136 SA
ATOM      9  C25 ZIN A   1      16.840  -0.013  12.122  0.00  0.00     0.187 C 
ENDROOT
BRANCH   1  10
ATOM     10  N7  ZIN A   1      18.002  -0.592   9.982  0.00  0.00    -0.339 N 
ATOM     11  C5  ZIN A   1      17.878  -0.936   8.684  0.00  0.00     0.276 C 
ATOM     12  O6  ZIN A   1      16.967  -0.483   8.020  0.00  0.00    -0.266 OA
ATOM     13  H35 ZIN A   1      18.772  -0.891  10.491  0.00  0.00     0.163 HD
BRANCH  11  14
ATOM     14  C4  ZIN A   1      18.853  -1.867   8.068  0.00  0.00     0.185 C 
ATOM     15  N3  ZIN A   1      19.492  -1.520   6.984  0.00  0.00    -0.126 NA
BRANCH  15  16
ATOM     16  O2  ZIN A   1      19.175  -0.301   6.336  0.00  0.00    -0.261 OA
ATOM     17  C1  ZIN A   1      19.299  -0.351   4.914  0.00  0.00     0.240 C 
ENDBRANCH  15  16
BRANCH  14  18
ATOM     18  C27 ZIN A   1      19.102  -3.184   8.679  0.00  0.00     0.111 A 
ATOM     19  O31 ZIN A   1      19.185  -3.441   9.999  0.00  0.00    -0.320 OA
ATOM     20  C30 ZIN A   1      19.416  -4.749  10.186  0.00  0.00     0.142 A 
ATOM     21  C29 ZIN A   1      19.495  -5.351   8.981  0.00  0.00     0.027 A 
ATOM     22  C28 ZIN A   1      19.295  -4.355   8.009  0.00  0.00     0.042 A 
ENDBRANCH  14  18
ENDBRANCH  11  14
ENDBRANCH   1  10
BRANCH   5  23
ATOM     23  C14 ZIN A   1      18.426   3.223  13.601  0.00  0.00     0.227 C 
ATOM     24  O15 ZIN A   1      19.396   3.731  13.055  0.00  0.00    -0.643 OA
ATOM     25  O16 ZIN A   1      17.674   3.910  14.278  0.00  0.00    -0.643 OA
ENDBRANCH   5  23
BRANCH   6  26
ATOM     26  C18 ZIN A   1      19.235   1.539  15.581  0.00  0.00     0.218 C 
BRANCH  26  27
ATOM     27  O19 ZIN A   1      18.538   1.183  16.803  0.00  0.00    -0.300 OA
BRANCH  27  28
ATOM     28  C20 ZIN A   1      19.298   0.880  17.874  0.00  0.00     0.358 C 
ATOM     29  N21 ZIN A   1      19.534  -0.408  18.191  0.00  0.00    -0.346 N 
ATOM     30  H38 ZIN A   1      19.158  -1.117  17.647  0.00  0.00     0.161 HD
ATOM     31  H39 ZIN A   1      20.080  -0.625  18.962  0.00  0.00     0.161 HD
ATOM     32  O22 ZIN A   1      19.767   1.770  18.555  0.00  0.00    -0.239 OA
ENDBRANCH  27  28
ENDBRANCH  26  27
ENDBRANCH   6  26
TORSDOF 8
ENDMDL
MODEL 5
REMARK VINA RESULT:      -7.5      3.077      8.509
REMARK  8 active torsions:
REMARK  status: ('A' for Active; 'I' for Inactive)
REMARK    1  A    between atoms: O2_2  and  N3_3 
REMARK    2  A    between atoms: C4_4  and  C5_5 
REMARK    3  A    between atoms: C4_4  and  C27_25 
REMARK       I    between atoms: C5_5  and  N7_7 
REMARK    4  A    between atoms: N7_7  and  C8_8 
REMARK    5  A    between atoms: C13_12  and  C14_13 
REMARK    6  A    between atoms: C17_16  and  C18_17 
REMARK    7  A    between atoms: C18_17  and  O19_18 
REMARK    8  A    between atoms: O19_18  and  C20_19 
REMARK       I    between atoms: C20_19  and  N21_20 
ROOT
ATOM      1  C8  ZIN A   1      20.106  -0.287  11.216  0.00  0.00     0.211 C 
ATOM      2  C10 ZIN A   1      19.895  -0.356   9.713  0.00  0.00     0.251 C 
ATOM      3  O11 ZIN A   1      20.044   0.428   8.800  0.00  0.00    -0.271 OA
ATOM      4  N12 ZIN A   1      19.477  -1.630   9.797  0.00  0.00    -0.293 N 
ATOM      5  C13 ZIN A   1      18.753  -2.552   9.022  0.00  0.00     0.121 C 
ATOM      6  C17 ZIN A   1      18.031  -3.495   9.616  0.00  0.00    -0.013 C 
ATOM      7  C23 ZIN A   1      17.896  -3.774  11.075  0.00  0.00     0.115 C 
ATOM      8  S24 ZIN A   1      18.371  -2.347  12.098  0.00  0.00    -0.136 SA
ATOM      9  C25 ZIN A   1      19.878  -1.795  11.233  0.00  0.00     0.187 C 
ENDROOT
BRANCH   1  10
ATOM     10  N7  ZIN A   1      19.071   0.472  11.921  0.00  0.00    -0.339 N 
ATOM     11  C5  ZIN A   1      19.293   1.755  12.268  0.00  0.00     0.276 C 
ATOM     12  O6  ZIN A   1      20.313   2.312  11.912  0.00  0.00    -0.266 OA
ATOM     13  H35 ZIN A   1      18.224   0.051  12.139  0.00  0.00     0.163 HD
BRANCH  11  14
ATOM     14  C4  ZIN A   1      18.296   2.487  13.084  0.00  0.00     0.185 C 
ATOM     15  N3  ZIN A   1      18.044   2.101  14.305  0.00  0.00    -0.126 NA
BRANCH  15  16
ATOM     16  O2  ZIN A   1      18.641   0.922  14.812  0.00  0.00    -0.261 OA
ATOM     17  C1  ZIN A   1      17.703  -0.039  15.301  0.00  0.00     0.240 C 
ENDBRANCH  15  16
BRANCH  14  18
ATOM     18  C27 ZIN A   1      17.590   3.649  12.519  0.00  0.00     0.111 A 
ATOM     19  O31 ZIN A   1      17.057   4.669  13.219  0.00  0.00    -0.320 OA
ATOM     20  C30 ZIN A   1      16.497   5.547  12.373  0.00  0.00     0.142 A 
ATOM     21  C29 ZIN A   1      16.657   5.095  11.112  0.00  0.00     0.027 A 
ATOM     22  C28 ZIN A   1      17.357   3.878  11.196  0.00  0.00     0.042 A 
ENDBRANCH  14  18
ENDBRANCH  11  14
ENDBRANCH   1  10
BRANCH   5  23
ATOM     23  C14 ZIN A   1      18.795  -2.473   7.553  0.00  0.00     0.227 C 
ATOM     24  O15 ZIN A   1      18.011  -1.748   6.957  0.00  0.00    -0.643 OA
ATOM     25  O16 ZIN A   1      19.614  -3.133   6.928  0.00  0.00    -0.643 OA
ENDBRANCH   5  23
BRANCH   6  26
ATOM     26  C18 ZIN A   1      17.247  -4.397   8.698  0.00  0.00     0.218 C 
BRANCH  26  27
ATOM     27  O19 ZIN A   1      17.667  -5.772   8.897  0.00  0.00    -0.300 OA
BRANCH  27  28
ATOM     28  C20 ZIN A   1      18.756  -6.182   8.220  0.00  0.00     0.358 C 
ATOM     29  N21 ZIN A   1      18.782  -6.106   6.874  0.00  0.00    -0.346 N 
ATOM     30  H38 ZIN A   1      18.016  -5.754   6.395  0.00  0.00     0.161 HD
ATOM     31  H39 ZIN A   1      19.565  -6.403   6.387  0.00  0.00     0.161 HD
ATOM     32  O22 ZIN A   1      19.714  -6.625   8.822  0.00  0.00    -0.239 OA
ENDBRANCH  27  28
ENDBRANCH  26  27
ENDBRANCH   6  26
TORSDOF 8
ENDMDL
MODEL 6
REMARK VINA RESULT:      -7.3      3.528      4.853
REMARK  8 active torsions:
REMARK  status: ('A' for Active; 'I' for Inactive)
REMARK    1  A    between atoms: O2_2  and  N3_3 
REMARK    2  A    between atoms: C4_4  and  C5_5 
REMARK    3  A    between atoms: C4_4  and  C27_25 
REMARK       I    between atoms: C5_5  and  N7_7 
REMARK    4  A    between atoms: N7_7  and  C8_8 
REMARK    5  A    between atoms: C13_12  and  C14_13 
REMARK    6  A    between atoms: C17_16  and  C18_17 
REMARK    7  A    between atoms: C18_17  and  O19_18 
REMARK    8  A    between atoms: O19_18  and  C20_19 
REMARK       I    between atoms: C20_19  and  N21_20 
ROOT
ATOM      1  C8  ZIN A   1      20.205   0.258  12.040  0.00  0.00     0.211 C 
ATOM      2  C10 ZIN A   1      19.922   0.217  13.532  0.00  0.00     0.251 C 
ATOM      3  O11 ZIN A   1      19.922  -0.659  14.371  0.00  0.00    -0.271 OA
ATOM      4  N12 ZIN A   1      19.670   1.537  13.553  0.00  0.00    -0.293 N 
ATOM      5  C13 ZIN A   1      19.023   2.471  14.382  0.00  0.00     0.121 C 
ATOM      6  C17 ZIN A   1      18.458   3.547  13.852  0.00  0.00    -0.013 C 
ATOM      7  C23 ZIN A   1      18.439   3.973  12.421  0.00  0.00     0.115 C 
ATOM      8  S24 ZIN A   1      18.789   2.595  11.287  0.00  0.00    -0.136 SA
ATOM      9  C25 ZIN A   1      20.166   1.778  12.159  0.00  0.00     0.187 C 
ENDROOT
BRANCH   1  10
ATOM     10  N7  ZIN A   1      19.124  -0.295  11.221  0.00  0.00    -0.339 N 
ATOM     11  C5  ZIN A   1      19.233  -1.537  10.709  0.00  0.00     0.276 C 
ATOM     12  O6  ZIN A   1      20.184  -2.234  11.005  0.00  0.00    -0.266 OA
ATOM     13  H35 ZIN A   1      18.328   0.233  11.046  0.00  0.00     0.163 HD
BRANCH  11  14
ATOM     14  C4  ZIN A   1      18.196  -2.052   9.784  0.00  0.00     0.185 C 
ATOM     15  N3  ZIN A   1      17.878  -1.372   8.717  0.00  0.00    -0.126 NA
BRANCH  15  16
ATOM     16  O2  ZIN A   1      18.444  -0.091   8.499  0.00  0.00    -0.261 OA
ATOM     17  C1  ZIN A   1      18.302   0.385   7.160  0.00  0.00     0.240 C 
ENDBRANCH  15  16
BRANCH  14  18
ATOM     18  C27 ZIN A   1      17.525  -3.332  10.068  0.00  0.00     0.111 A 
ATOM     19  O31 ZIN A   1      17.052  -4.198   9.150  0.00  0.00    -0.320 OA
ATOM     20  C30 ZIN A   1      16.509  -5.255   9.773  0.00  0.00     0.142 A 
ATOM     21  C29 ZIN A   1      16.618  -5.075  11.106  0.00  0.00     0.027 A 
ATOM     22  C28 ZIN A   1      17.268  -3.844  11.304  0.00  0.00     0.042 A 
ENDBRANCH  14  18
ENDBRANCH  11  14
ENDBRANCH   1  10
BRANCH   5  23
ATOM     23  C14 ZIN A   1      18.975   2.254  15.837  0.00  0.00     0.227 C 
ATOM     24  O15 ZIN A   1      18.114   1.530  16.319  0.00  0.00    -0.643 OA
ATOM     25  O16 ZIN A   1      19.795   2.799  16.564  0.00  0.00    -0.643 OA
ENDBRANCH   5  23
BRANCH   6  26
ATOM     26  C18 ZIN A   1      17.742   4.456  14.817  0.00  0.00     0.218 C 
BRANCH  26  27
ATOM     27  O19 ZIN A   1      18.248   5.809  14.674  0.00  0.00    -0.300 OA
BRANCH  27  28
ATOM     28  C20 ZIN A   1      19.368   6.118  15.355  0.00  0.00     0.358 C 
ATOM     29  N21 ZIN A   1      19.463   5.823  16.666  0.00  0.00    -0.346 N 
ATOM     30  H38 ZIN A   1      18.725   5.386  17.119  0.00  0.00     0.161 HD
ATOM     31  H39 ZIN A   1      20.269   6.046  17.156  0.00  0.00     0.161 HD
ATOM     32  O22 ZIN A   1      20.291   6.667  14.787  0.00  0.00    -0.239 OA
ENDBRANCH  27  28
ENDBRANCH  26  27
ENDBRANCH   6  26
TORSDOF 8
ENDMDL
MODEL 7
REMARK VINA RESULT:      -7.3      2.891      8.516
REMARK  8 active torsions:
REMARK  status: ('A' for Active; 'I' for Inactive)
REMARK    1  A    between atoms: O2_2  and  N3_3 
REMARK    2  A    between atoms: C4_4  and  C5_5 
REMARK    3  A    between atoms: C4_4  and  C27_25 
REMARK       I    between atoms: C5_5  and  N7_7 
REMARK    4  A    between atoms: N7_7  and  C8_8 
REMARK    5  A    between atoms: C13_12  and  C14_13 
REMARK    6  A    between atoms: C17_16  and  C18_17 
REMARK    7  A    between atoms: C18_17  and  O19_18 
REMARK    8  A    between atoms: O19_18  and  C20_19 
REMARK       I    between atoms: C20_19  and  N21_20 
ROOT
ATOM      1  C8  ZIN A   1      20.214   0.013  10.756  0.00  0.00     0.211 C 
ATOM      2  C10 ZIN A   1      19.777   0.151   9.308  0.00  0.00     0.251 C 
ATOM      3  O11 ZIN A   1      19.640   1.088   8.549  0.00  0.00    -0.271 OA
ATOM      4  N12 ZIN A   1      19.601  -1.177   9.200  0.00  0.00    -0.293 N 
ATOM      5  C13 ZIN A   1      18.927  -2.084   8.364  0.00  0.00     0.121 C 
ATOM      6  C17 ZIN A   1      18.482  -3.233   8.855  0.00  0.00    -0.013 C 
ATOM      7  C23 ZIN A   1      18.636  -3.769  10.239  0.00  0.00     0.115 C 
ATOM      8  S24 ZIN A   1      19.020  -2.463  11.445  0.00  0.00    -0.136 SA
ATOM      9  C25 ZIN A   1      20.251  -1.492  10.514  0.00  0.00     0.187 C 
ENDROOT
BRANCH   1  10
ATOM     10  N7  ZIN A   1      19.193   0.428  11.721  0.00  0.00    -0.339 N 
ATOM     11  C5  ZIN A   1      19.531   0.655  13.006  0.00  0.00     0.276 C 
ATOM     12  O6  ZIN A   1      20.698   0.609  13.344  0.00  0.00    -0.266 OA
ATOM     13  H35 ZIN A   1      18.272   0.541  11.435  0.00  0.00     0.163 HD
BRANCH  11  14
ATOM     14  C4  ZIN A   1      18.481   0.959  14.006  0.00  0.00     0.185 C 
ATOM     15  N3  ZIN A   1      17.829   2.087  13.946  0.00  0.00    -0.126 NA
BRANCH  15  16
ATOM     16  O2  ZIN A   1      18.198   3.067  12.993  0.00  0.00    -0.261 OA
ATOM     17  C1  ZIN A   1      17.434   4.272  13.074  0.00  0.00     0.240 C 
ENDBRANCH  15  16
BRANCH  14  18
ATOM     18  C27 ZIN A   1      18.172  -0.014  15.068  0.00  0.00     0.111 A 
ATOM     19  O31 ZIN A   1      17.219   0.120  16.011  0.00  0.00    -0.320 OA
ATOM     20  C30 ZIN A   1      17.222  -0.961  16.807  0.00  0.00     0.142 A 
ATOM     21  C29 ZIN A   1      18.190  -1.803  16.388  0.00  0.00     0.027 A 
ATOM     22  C28 ZIN A   1      18.805  -1.203  15.273  0.00  0.00     0.042 A 
ENDBRANCH  14  18
ENDBRANCH  11  14
ENDBRANCH   1  10
BRANCH   5  23
ATOM     23  C14 ZIN A   1      18.717  -1.758   6.943  0.00  0.00     0.227 C 
ATOM     24  O15 ZIN A   1      19.544  -2.101   6.109  0.00  0.00    -0.643 OA
ATOM     25  O16 ZIN A   1      17.717  -1.145   6.598  0.00  0.00    -0.643 OA
ENDBRANCH   5  23
BRANCH   6  26
ATOM     26  C18 ZIN A   1      17.725  -4.109   7.891  0.00  0.00     0.218 C 
BRANCH  26  27
ATOM     27  O19 ZIN A   1      18.504  -5.300   7.604  0.00  0.00    -0.300 OA
BRANCH  27  28
ATOM     28  C20 ZIN A   1      18.570  -5.692   6.317  0.00  0.00     0.358 C 
ATOM     29  N21 ZIN A   1      18.648  -4.772   5.335  0.00  0.00    -0.346 N 
ATOM     30  H38 ZIN A   1      18.658  -3.828   5.556  0.00  0.00     0.161 HD
ATOM     31  H39 ZIN A   1      18.694  -5.055   4.409  0.00  0.00     0.161 HD
ATOM     32  O22 ZIN A   1      18.555  -6.875   6.042  0.00  0.00    -0.239 OA
ENDBRANCH  27  28
ENDBRANCH  26  27
ENDBRANCH   6  26
TORSDOF 8
ENDMDL
MODEL 8
REMARK VINA RESULT:      -7.3      3.364      5.173
REMARK  8 active torsions:
REMARK  status: ('A' for Active; 'I' for Inactive)
REMARK    1  A    between atoms: O2_2  and  N3_3 
REMARK    2  A    between atoms: C4_4  and  C5_5 
REMARK    3  A    between atoms: C4_4  and  C27_25 
REMARK       I    between atoms: C5_5  and  N7_7 
REMARK    4  A    between atoms: N7_7  and  C8_8 
REMARK    5  A    between atoms: C13_12  and  C14_13 
REMARK    6  A    between atoms: C17_16  and  C18_17 
REMARK    7  A    between atoms: C18_17  and  O19_18 
REMARK    8  A    between atoms: O19_18  and  C20_19 
REMARK       I    between atoms: C20_19  and  N21_20 
ROOT
ATOM      1  C8  ZIN A   1      20.092  -0.546  12.564  0.00  0.00     0.211 C 
ATOM      2  C10 ZIN A   1      19.678  -0.506  14.025  0.00  0.00     0.251 C 
ATOM      3  O11 ZIN A   1      19.463  -1.350  14.869  0.00  0.00    -0.271 OA
ATOM      4  N12 ZIN A   1      19.644   0.838  14.012  0.00  0.00    -0.293 N 
ATOM      5  C13 ZIN A   1      19.089   1.883  14.771  0.00  0.00     0.121 C 
ATOM      6  C17 ZIN A   1      18.754   3.024  14.183  0.00  0.00    -0.013 C 
ATOM      7  C23 ZIN A   1      18.928   3.413  12.753  0.00  0.00     0.115 C 
ATOM      8  S24 ZIN A   1      19.145   1.970  11.667  0.00  0.00    -0.136 SA
ATOM      9  C25 ZIN A   1      20.291   0.962  12.665  0.00  0.00     0.187 C 
ENDROOT
BRANCH   1  10
ATOM     10  N7  ZIN A   1      19.010  -0.937  11.657  0.00  0.00    -0.339 N 
ATOM     11  C5  ZIN A   1      19.108  -2.073  10.939  0.00  0.00     0.276 C 
ATOM     12  O6  ZIN A   1      20.049  -2.822  11.114  0.00  0.00    -0.266 OA
ATOM     13  H35 ZIN A   1      18.220  -0.377  11.574  0.00  0.00     0.163 HD
BRANCH  11  14
ATOM     14  C4  ZIN A   1      18.071  -2.407   9.934  0.00  0.00     0.185 C 
ATOM     15  N3  ZIN A   1      17.209  -3.356  10.178  0.00  0.00    -0.126 NA
BRANCH  15  16
ATOM     16  O2  ZIN A   1      17.331  -4.138  11.352  0.00  0.00    -0.261 OA
ATOM     17  C1  ZIN A   1      17.332  -5.547  11.114  0.00  0.00     0.240 C 
ENDBRANCH  15  16
BRANCH  14  18
ATOM     18  C27 ZIN A   1      18.013  -1.669   8.662  0.00  0.00     0.111 A 
ATOM     19  O31 ZIN A   1      18.613  -2.027   7.510  0.00  0.00    -0.320 OA
ATOM     20  C30 ZIN A   1      18.338  -1.120   6.561  0.00  0.00     0.142 A 
ATOM     21  C29 ZIN A   1      17.561  -0.156   7.097  0.00  0.00     0.027 A 
ATOM     22  C28 ZIN A   1      17.347  -0.500   8.444  0.00  0.00     0.042 A 
ENDBRANCH  14  18
ENDBRANCH  11  14
ENDBRANCH   1  10
BRANCH   5  23
ATOM     23  C14 ZIN A   1      18.880   1.711  16.219  0.00  0.00     0.227 C 
ATOM     24  O15 ZIN A   1      17.907   1.093  16.627  0.00  0.00    -0.643 OA
ATOM     25  O16 ZIN A   1      19.680   2.188  17.012  0.00  0.00    -0.643 OA
ENDBRANCH   5  23
BRANCH   6  26
ATOM     26  C18 ZIN A   1      18.115   4.058  15.073  0.00  0.00     0.218 C 
BRANCH  26  27
ATOM     27  O19 ZIN A   1      18.834   5.313  14.948  0.00  0.00    -0.300 OA
BRANCH  27  28
ATOM     28  C20 ZIN A   1      19.655   5.651  15.961  0.00  0.00     0.358 C 
ATOM     29  N21 ZIN A   1      20.743   4.900  16.226  0.00  0.00    -0.346 N 
ATOM     30  H38 ZIN A   1      20.935   4.119  15.686  0.00  0.00     0.161 HD
ATOM     31  H39 ZIN A   1      21.333   5.143  16.956  0.00  0.00     0.161 HD
ATOM     32  O22 ZIN A   1      19.412   6.630  16.639  0.00  0.00    -0.239 OA
ENDBRANCH  27  28
ENDBRANCH  26  27
ENDBRANCH   6  26
TORSDOF 8
ENDMDL
MODEL 9
REMARK VINA RESULT:      -7.1      3.060      5.069
REMARK  8 active torsions:
REMARK  status: ('A' for Active; 'I' for Inactive)
REMARK    1  A    between atoms: O2_2  and  N3_3 
REMARK    2  A    between atoms: C4_4  and  C5_5 
REMARK    3  A    between atoms: C4_4  and  C27_25 
REMARK       I    between atoms: C5_5  and  N7_7 
REMARK    4  A    between atoms: N7_7  and  C8_8 
REMARK    5  A    between atoms: C13_12  and  C14_13 
REMARK    6  A    between atoms: C17_16  and  C18_17 
REMARK    7  A    between atoms: C18_17  and  O19_18 
REMARK    8  A    between atoms: O19_18  and  C20_19 
REMARK       I    between atoms: C20_19  and  N21_20 
ROOT
ATOM      1  C8  ZIN A   1      16.949   0.523  10.920  0.00  0.00     0.211 C 
ATOM      2  C10 ZIN A   1      17.341   1.927  11.350  0.00  0.00     0.251 C 
ATOM      3  O11 ZIN A   1      17.398   3.000  10.789  0.00  0.00    -0.271 OA
ATOM      4  N12 ZIN A   1      17.600   1.506  12.600  0.00  0.00    -0.293 N 
ATOM      5  C13 ZIN A   1      18.310   1.946  13.731  0.00  0.00     0.121 C 
ATOM      6  C17 ZIN A   1      18.840   1.061  14.566  0.00  0.00    -0.013 C 
ATOM      7  C23 ZIN A   1      18.756  -0.428  14.511  0.00  0.00     0.115 C 
ATOM      8  S24 ZIN A   1      18.318  -1.034  12.854  0.00  0.00    -0.136 SA
ATOM      9  C25 ZIN A   1      17.004   0.146  12.397  0.00  0.00     0.187 C 
ENDROOT
BRANCH   1  10
ATOM     10  N7  ZIN A   1      17.965  -0.147  10.105  0.00  0.00    -0.339 N 
ATOM     11  C5  ZIN A   1      17.693  -0.477   8.827  0.00  0.00     0.276 C 
ATOM     12  O6  ZIN A   1      16.643  -0.134   8.321  0.00  0.00    -0.266 OA
ATOM     13  H35 ZIN A   1      18.834  -0.353  10.484  0.00  0.00     0.163 HD
BRANCH  11  14
ATOM     14  C4  ZIN A   1      18.675  -1.260   8.038  0.00  0.00     0.185 C 
ATOM     15  N3  ZIN A   1      19.328  -2.241   8.599  0.00  0.00    -0.126 NA
BRANCH  15  16
ATOM     16  O2  ZIN A   1      19.182  -2.487   9.986  0.00  0.00    -0.261 OA
ATOM     17  C1  ZIN A   1      18.734  -3.808  10.296  0.00  0.00     0.240 C 
ENDBRANCH  15  16
BRANCH  14  18
ATOM     18  C27 ZIN A   1      18.911  -0.933   6.622  0.00  0.00     0.111 A 
ATOM     19  O31 ZIN A   1      19.051   0.305   6.109  0.00  0.00    -0.320 OA
ATOM     20  C30 ZIN A   1      19.256   0.220   4.786  0.00  0.00     0.142 A 
ATOM     21  C29 ZIN A   1      19.241  -1.081   4.429  0.00  0.00     0.027 A 
ATOM     22  C28 ZIN A   1      19.021  -1.828   5.600  0.00  0.00     0.042 A 
ENDBRANCH  14  18
ENDBRANCH  11  14
ENDBRANCH   1  10
BRANCH   5  23
ATOM     23  C14 ZIN A   1      18.464   3.387  13.990  0.00  0.00     0.227 C 
ATOM     24  O15 ZIN A   1      19.305   4.031  13.378  0.00  0.00    -0.643 OA
ATOM     25  O16 ZIN A   1      17.752   3.939  14.817  0.00  0.00    -0.643 OA
ENDBRANCH   5  23
BRANCH   6  26
ATOM     26  C18 ZIN A   1      19.629   1.634  15.715  0.00  0.00     0.218 C 
BRANCH  26  27
ATOM     27  O19 ZIN A   1      19.005   1.251  16.968  0.00  0.00    -0.300 OA
BRANCH  27  28
ATOM     28  C20 ZIN A   1      18.840   2.219  17.890  0.00  0.00     0.358 C 
ATOM     29  N21 ZIN A   1      17.811   3.082  17.784  0.00  0.00    -0.346 N 
ATOM     30  H38 ZIN A   1      17.188   3.005  17.045  0.00  0.00     0.161 HD
ATOM     31  H39 ZIN A   1      17.693   3.779  18.448  0.00  0.00     0.161 HD
ATOM     32  O22 ZIN A   1      19.622   2.315  18.815  0.00  0.00    -0.239 OA
ENDBRANCH  27  28
ENDBRANCH  26  27
ENDBRANCH   6  26
TORSDOF 8
ENDMDL
