MODEL 1
REMARK VINA RESULT:      -9.1      0.000      0.000
REMARK  9 active torsions:
REMARK  status: ('A' for Active; 'I' for Inactive)
REMARK    1  A    between atoms: C2_2  and  C3_3 
REMARK    2  A    between atoms: C2_2  and  C20_20 
REMARK    3  A    between atoms: C4_4  and  C5_5 
REMARK    4  A    between atoms: C8_8  and  O9_9 
REMARK    5  A    between atoms: C15_15  and  O16_16 
REMARK    6  A    between atoms: C23_23  and  O24_24 
REMARK    7  A    between atoms: O24_24  and  C25_25 
REMARK    8  A    between atoms: C25_25  and  C26_26 
REMARK    9  A    between atoms: C26_26  and  N27_27 
ROOT
ATOM      1  C3  <0> d   1      17.914  -0.056  12.498  0.00  0.00     0.044 A 
ATOM      2  C4  <0> d   1      18.580  -1.221  12.765  0.00  0.00     0.031 A 
ATOM      3  S12 <0> d   1      19.562  -1.063  14.207  0.00  0.00    -0.088 SA
ATOM      4  C13 <0> d   1      19.069   0.606  14.460  0.00  0.00     0.019 A 
ATOM      5  C14 <0> d   1      19.436   1.505  15.468  0.00  0.00     0.056 A 
ATOM      6  C15 <0> d   1      18.926   2.787  15.479  0.00  0.00     0.067 A 
ATOM      7  C17 <0> d   1      18.041   3.193  14.486  0.00  0.00     0.037 A 
ATOM      8  C18 <0> d   1      17.671   2.324  13.492  0.00  0.00     0.016 A 
ATOM      9  C19 <0> d   1      18.187   1.013  13.460  0.00  0.00    -0.003 A 
ENDROOT
BRANCH   1  10
ATOM     10  C2  <0> d   1      17.018   0.108  11.353  0.00  0.00     0.194 C 
ATOM     11  O1  <0> d   1      15.812   0.051  11.509  0.00  0.00    -0.287 OA
BRANCH  10  12
ATOM     12  C20 <0> d   1      17.577   0.337  10.005  0.00  0.00     0.015 A 
ATOM     13  C35 <0> d   1      17.270  -0.539   8.961  0.00  0.00     0.018 A 
ATOM     14  C34 <0> d   1      17.789  -0.320   7.704  0.00  0.00     0.037 A 
ATOM     15  C23 <0> d   1      18.626   0.766   7.477  0.00  0.00     0.068 A 
ATOM     16  C22 <0> d   1      18.939   1.637   8.514  0.00  0.00     0.037 A 
ATOM     17  C21 <0> d   1      18.420   1.427   9.772  0.00  0.00     0.018 A 
BRANCH  15  18
ATOM     18  O24 <0> d   1      19.140   0.976   6.238  0.00  0.00    -0.350 OA
BRANCH  18  19
ATOM     19  C25 <0> d   1      18.573   0.223   5.164  0.00  0.00     0.203 C 
BRANCH  19  20
ATOM     20  C26 <0> d   1      19.575  -0.834   4.696  0.00  0.00     0.261 C 
BRANCH  20  21
ATOM     21  N27 <0> d   1      18.852  -2.042   4.276  0.00  0.00    -0.069 N 
ATOM     22  H28 <0> d   1      19.191  -2.339   3.374  0.00  0.00     0.280 HD
ATOM     23  C33 <0> d   1      19.074  -3.109   5.258  0.00  0.00     0.235 C 
ATOM     24  C32 <0> d   1      18.391  -4.393   4.784  0.00  0.00     0.028 C 
ATOM     25  C31 <0> d   1      16.888  -4.140   4.638  0.00  0.00     0.003 C 
ATOM     26  C30 <0> d   1      16.669  -2.974   3.669  0.00  0.00     0.028 C 
ATOM     27  C29 <0> d   1      17.418  -1.743   4.184  0.00  0.00     0.235 C 
ENDBRANCH  20  21
ENDBRANCH  19  20
ENDBRANCH  18  19
ENDBRANCH  15  18
ENDBRANCH  10  12
ENDBRANCH   1  10
BRANCH   2  28
ATOM     28  C5  <0> d   1      18.485  -2.444  11.948  0.00  0.00    -0.018 A 
ATOM     29  C11 <0> d   1      19.568  -2.848  11.161  0.00  0.00     0.015 A 
ATOM     30  C10 <0> d   1      19.479  -3.995  10.405  0.00  0.00     0.037 A 
ATOM     31  C8  <0> d   1      18.310  -4.746  10.415  0.00  0.00     0.065 A 
ATOM     32  C7  <0> d   1      17.228  -4.346  11.189  0.00  0.00     0.037 A 
ATOM     33  C6  <0> d   1      17.311  -3.203  11.954  0.00  0.00     0.015 A 
BRANCH  31  34
ATOM     34  O9  <0> d   1      18.223  -5.874   9.663  0.00  0.00    -0.361 OA
ATOM     35  H38 <0> d   1      18.945  -6.500   9.810  0.00  0.00     0.217 HD
ENDBRANCH  31  34
ENDBRANCH   2  28
BRANCH   6  36
ATOM     36  O16 <0> d   1      19.288   3.653  16.463  0.00  0.00    -0.361 OA
ATOM     37  H42 <0> d   1      18.573   4.231  16.761  0.00  0.00     0.217 HD
ENDBRANCH   6  36
TORSDOF 9
ENDMDL
MODEL 2
REMARK VINA RESULT:      -9.1      2.143      4.855
REMARK  9 active torsions:
REMARK  status: ('A' for Active; 'I' for Inactive)
REMARK    1  A    between atoms: C2_2  and  C3_3 
REMARK    2  A    between atoms: C2_2  and  C20_20 
REMARK    3  A    between atoms: C4_4  and  C5_5 
REMARK    4  A    between atoms: C8_8  and  O9_9 
REMARK    5  A    between atoms: C15_15  and  O16_16 
REMARK    6  A    between atoms: C23_23  and  O24_24 
REMARK    7  A    between atoms: O24_24  and  C25_25 
REMARK    8  A    between atoms: C25_25  and  C26_26 
REMARK    9  A    between atoms: C26_26  and  N27_27 
ROOT
ATOM      1  C3  <0> d   1      19.081   0.729  11.699  0.00  0.00     0.044 A 
ATOM      2  C4  <0> d   1      18.399   1.450  10.757  0.00  0.00     0.031 A 
ATOM      3  S12 <0> d   1      17.572   2.810  11.490  0.00  0.00    -0.088 SA
ATOM      4  C13 <0> d   1      18.155   2.404  13.099  0.00  0.00     0.019 A 
ATOM      5  C14 <0> d   1      17.926   3.044  14.322  0.00  0.00     0.056 A 
ATOM      6  C15 <0> d   1      18.486   2.552  15.483  0.00  0.00     0.067 A 
ATOM      7  C17 <0> d   1      19.284   1.413  15.442  0.00  0.00     0.037 A 
ATOM      8  C18 <0> d   1      19.517   0.774  14.252  0.00  0.00     0.016 A 
ATOM      9  C19 <0> d   1      18.948   1.259  13.057  0.00  0.00    -0.003 A 
ENDROOT
BRANCH   1  10
ATOM     10  C2  <0> d   1      19.865  -0.464  11.378  0.00  0.00     0.194 C 
ATOM     11  O1  <0> d   1      21.041  -0.359  11.082  0.00  0.00    -0.287 OA
BRANCH  10  12
ATOM     12  C20 <0> d   1      19.227  -1.795  11.407  0.00  0.00     0.015 A 
ATOM     13  C35 <0> d   1      19.997  -2.946  11.218  0.00  0.00     0.018 A 
ATOM     14  C34 <0> d   1      19.399  -4.186  11.251  0.00  0.00     0.037 A 
ATOM     15  C23 <0> d   1      18.029  -4.294  11.460  0.00  0.00     0.068 A 
ATOM     16  C22 <0> d   1      17.258  -3.152  11.643  0.00  0.00     0.037 A 
ATOM     17  C21 <0> d   1      17.849  -1.908  11.617  0.00  0.00     0.018 A 
BRANCH  15  18
ATOM     18  O24 <0> d   1      17.443  -5.518  11.487  0.00  0.00    -0.350 OA
BRANCH  18  19
ATOM     19  C25 <0> d   1      17.426  -6.256  10.263  0.00  0.00     0.203 C 
BRANCH  19  20
ATOM     20  C26 <0> d   1      16.600  -5.499   9.222  0.00  0.00     0.261 C 
BRANCH  20  21
ATOM     21  N27 <0> d   1      17.441  -5.199   8.055  0.00  0.00    -0.069 N 
ATOM     22  H28 <0> d   1      16.938  -5.429   7.211  0.00  0.00     0.280 HD
ATOM     23  C33 <0> d   1      17.777  -3.771   8.050  0.00  0.00     0.235 C 
ATOM     24  C32 <0> d   1      18.584  -3.438   6.792  0.00  0.00     0.028 C 
ATOM     25  C31 <0> d   1      19.872  -4.265   6.787  0.00  0.00     0.003 C 
ATOM     26  C30 <0> d   1      19.513  -5.752   6.868  0.00  0.00     0.028 C 
ATOM     27  C29 <0> d   1      18.670  -5.999   8.122  0.00  0.00     0.235 C 
ENDBRANCH  20  21
ENDBRANCH  19  20
ENDBRANCH  18  19
ENDBRANCH  15  18
ENDBRANCH  10  12
ENDBRANCH   1  10
BRANCH   2  28
ATOM     28  C5  <0> d   1      18.362   1.126   9.320  0.00  0.00    -0.018 A 
ATOM     29  C11 <0> d   1      19.262   1.736   8.440  0.00  0.00     0.015 A 
ATOM     30  C10 <0> d   1      19.229   1.425   7.099  0.00  0.00     0.037 A 
ATOM     31  C8  <0> d   1      18.296   0.515   6.618  0.00  0.00     0.065 A 
ATOM     32  C7  <0> d   1      17.395  -0.088   7.486  0.00  0.00     0.037 A 
ATOM     33  C6  <0> d   1      17.425   0.212   8.831  0.00  0.00     0.015 A 
BRANCH  31  34
ATOM     34  O9  <0> d   1      18.263   0.216   5.293  0.00  0.00    -0.361 OA
ATOM     35  H38 <0> d   1      18.838  -0.520   5.043  0.00  0.00     0.217 HD
ENDBRANCH  31  34
ENDBRANCH   2  28
BRANCH   6  36
ATOM     36  O16 <0> d   1      18.259   3.181  16.667  0.00  0.00    -0.361 OA
ATOM     37  H42 <0> d   1      17.337   3.438  16.805  0.00  0.00     0.217 HD
ENDBRANCH   6  36
TORSDOF 9
ENDMDL
MODEL 3
REMARK VINA RESULT:      -9.0      3.679      9.613
REMARK  9 active torsions:
REMARK  status: ('A' for Active; 'I' for Inactive)
REMARK    1  A    between atoms: C2_2  and  C3_3 
REMARK    2  A    between atoms: C2_2  and  C20_20 
REMARK    3  A    between atoms: C4_4  and  C5_5 
REMARK    4  A    between atoms: C8_8  and  O9_9 
REMARK    5  A    between atoms: C15_15  and  O16_16 
REMARK    6  A    between atoms: C23_23  and  O24_24 
REMARK    7  A    between atoms: O24_24  and  C25_25 
REMARK    8  A    between atoms: C25_25  and  C26_26 
REMARK    9  A    between atoms: C26_26  and  N27_27 
ROOT
ATOM      1  C3  <0> d   1      17.926   0.335  10.268  0.00  0.00     0.044 A 
ATOM      2  C4  <0> d   1      18.523   1.554  10.097  0.00  0.00     0.031 A 
ATOM      3  S12 <0> d   1      19.534   1.559   8.666  0.00  0.00    -0.088 SA
ATOM      4  C13 <0> d   1      19.147  -0.114   8.285  0.00  0.00     0.019 A 
ATOM      5  C14 <0> d   1      19.582  -0.915   7.223  0.00  0.00     0.056 A 
ATOM      6  C15 <0> d   1      19.150  -2.220   7.111  0.00  0.00     0.067 A 
ATOM      7  C17 <0> d   1      18.277  -2.749   8.056  0.00  0.00     0.037 A 
ATOM      8  C18 <0> d   1      17.842  -1.977   9.103  0.00  0.00     0.016 A 
ATOM      9  C19 <0> d   1      18.277  -0.643   9.237  0.00  0.00    -0.003 A 
ENDROOT
BRANCH   1  10
ATOM     10  C2  <0> d   1      17.025   0.036  11.381  0.00  0.00     0.194 C 
ATOM     11  O1  <0> d   1      15.820   0.034  11.207  0.00  0.00    -0.287 OA
BRANCH  10  12
ATOM     12  C20 <0> d   1      17.577  -0.256  12.719  0.00  0.00     0.015 A 
ATOM     13  C35 <0> d   1      18.479  -1.310  12.890  0.00  0.00     0.018 A 
ATOM     14  C34 <0> d   1      18.995  -1.576  14.138  0.00  0.00     0.037 A 
ATOM     15  C23 <0> d   1      18.613  -0.806  15.230  0.00  0.00     0.068 A 
ATOM     16  C22 <0> d   1      17.713   0.240  15.065  0.00  0.00     0.037 A 
ATOM     17  C21 <0> d   1      17.195   0.516  13.819  0.00  0.00     0.018 A 
BRANCH  15  18
ATOM     18  O24 <0> d   1      19.121  -1.074  16.460  0.00  0.00    -0.350 OA
BRANCH  18  19
ATOM     19  C25 <0> d   1      18.503  -0.425  17.572  0.00  0.00     0.203 C 
BRANCH  19  20
ATOM     20  C26 <0> d   1      19.543   0.417  18.315  0.00  0.00     0.261 C 
BRANCH  20  21
ATOM     21  N27 <0> d   1      18.949   1.706  18.693  0.00  0.00    -0.069 N 
ATOM     22  H28 <0> d   1      19.368   2.029  19.552  0.00  0.00     0.280 HD
ATOM     23  C33 <0> d   1      19.195   2.686  17.630  0.00  0.00     0.235 C 
ATOM     24  C32 <0> d   1      18.651   4.052  18.055  0.00  0.00     0.028 C 
ATOM     25  C31 <0> d   1      17.144   3.938  18.305  0.00  0.00     0.003 C 
ATOM     26  C30 <0> d   1      16.893   2.859  19.362  0.00  0.00     0.028 C 
ATOM     27  C29 <0> d   1      17.504   1.537  18.889  0.00  0.00     0.235 C 
ENDBRANCH  20  21
ENDBRANCH  19  20
ENDBRANCH  18  19
ENDBRANCH  15  18
ENDBRANCH  10  12
ENDBRANCH   1  10
BRANCH   2  28
ATOM     28  C5  <0> d   1      18.343   2.707  10.996  0.00  0.00    -0.018 A 
ATOM     29  C11 <0> d   1      17.248   3.561  10.832  0.00  0.00     0.015 A 
ATOM     30  C10 <0> d   1      17.079   4.633  11.679  0.00  0.00     0.037 A 
ATOM     31  C8  <0> d   1      18.003   4.875  12.689  0.00  0.00     0.065 A 
ATOM     32  C7  <0> d   1      19.097   4.034  12.852  0.00  0.00     0.037 A 
ATOM     33  C6  <0> d   1      19.270   2.954  12.014  0.00  0.00     0.015 A 
BRANCH  31  34
ATOM     34  O9  <0> d   1      17.836   5.938  13.519  0.00  0.00    -0.361 OA
ATOM     35  H38 <0> d   1      16.950   6.005  13.897  0.00  0.00     0.217 HD
ENDBRANCH  31  34
ENDBRANCH   2  28
BRANCH   6  36
ATOM     36  O16 <0> d   1      19.578  -2.991   6.075  0.00  0.00    -0.361 OA
ATOM     37  H42 <0> d   1      19.781  -3.903   6.321  0.00  0.00     0.217 HD
ENDBRANCH   6  36
TORSDOF 9
ENDMDL
MODEL 4
REMARK VINA RESULT:      -8.9      2.165      4.935
REMARK  9 active torsions:
REMARK  status: ('A' for Active; 'I' for Inactive)
REMARK    1  A    between atoms: C2_2  and  C3_3 
REMARK    2  A    between atoms: C2_2  and  C20_20 
REMARK    3  A    between atoms: C4_4  and  C5_5 
REMARK    4  A    between atoms: C8_8  and  O9_9 
REMARK    5  A    between atoms: C15_15  and  O16_16 
REMARK    6  A    between atoms: C23_23  and  O24_24 
REMARK    7  A    between atoms: O24_24  and  C25_25 
REMARK    8  A    between atoms: C25_25  and  C26_26 
REMARK    9  A    between atoms: C26_26  and  N27_27 
ROOT
ATOM      1  C3  <0> d   1      18.814  -0.722  12.109  0.00  0.00     0.044 A 
ATOM      2  C4  <0> d   1      18.245   0.308  11.412  0.00  0.00     0.031 A 
ATOM      3  S12 <0> d   1      17.420   1.413  12.494  0.00  0.00    -0.088 SA
ATOM      4  C13 <0> d   1      17.850   0.472  13.916  0.00  0.00     0.019 A 
ATOM      5  C14 <0> d   1      17.550   0.698  15.264  0.00  0.00     0.056 A 
ATOM      6  C15 <0> d   1      17.990  -0.178  16.234  0.00  0.00     0.067 A 
ATOM      7  C17 <0> d   1      18.738  -1.295  15.876  0.00  0.00     0.037 A 
ATOM      8  C18 <0> d   1      19.040  -1.531  14.559  0.00  0.00     0.016 A 
ATOM      9  C19 <0> d   1      18.593  -0.650  13.554  0.00  0.00    -0.003 A 
ENDROOT
BRANCH   1  10
ATOM     10  C2  <0> d   1      19.569  -1.799  11.467  0.00  0.00     0.194 C 
ATOM     11  O1  <0> d   1      20.753  -1.654  11.225  0.00  0.00    -0.287 OA
BRANCH  10  12
ATOM     12  C20 <0> d   1      18.892  -3.061  11.107  0.00  0.00     0.015 A 
ATOM     13  C35 <0> d   1      19.585  -4.054  10.411  0.00  0.00     0.018 A 
ATOM     14  C34 <0> d   1      18.951  -5.232  10.081  0.00  0.00     0.037 A 
ATOM     15  C23 <0> d   1      17.621  -5.429  10.432  0.00  0.00     0.068 A 
ATOM     16  C22 <0> d   1      16.926  -4.442  11.120  0.00  0.00     0.037 A 
ATOM     17  C21 <0> d   1      17.553  -3.263  11.457  0.00  0.00     0.018 A 
BRANCH  15  18
ATOM     18  O24 <0> d   1      16.998  -6.589  10.101  0.00  0.00    -0.350 OA
BRANCH  18  19
ATOM     19  C25 <0> d   1      16.953  -6.928   8.713  0.00  0.00     0.203 C 
BRANCH  19  20
ATOM     20  C26 <0> d   1      15.705  -6.313   8.078  0.00  0.00     0.261 C 
BRANCH  20  21
ATOM     21  N27 <0> d   1      16.086  -5.571   6.869  0.00  0.00    -0.069 N 
ATOM     22  H28 <0> d   1      15.849  -4.597   6.984  0.00  0.00     0.280 HD
ATOM     23  C33 <0> d   1      17.532  -5.700   6.654  0.00  0.00     0.235 C 
ATOM     24  C32 <0> d   1      17.948  -4.862   5.443  0.00  0.00     0.028 C 
ATOM     25  C31 <0> d   1      17.202  -5.364   4.204  0.00  0.00     0.003 C 
ATOM     26  C30 <0> d   1      15.694  -5.296   4.465  0.00  0.00     0.028 C 
ATOM     27  C29 <0> d   1      15.362  -6.117   5.714  0.00  0.00     0.235 C 
ENDBRANCH  20  21
ENDBRANCH  19  20
ENDBRANCH  18  19
ENDBRANCH  15  18
ENDBRANCH  10  12
ENDBRANCH   1  10
BRANCH   2  28
ATOM     28  C5  <0> d   1      18.312   0.467   9.949  0.00  0.00    -0.018 A 
ATOM     29  C11 <0> d   1      17.426  -0.234   9.125  0.00  0.00     0.015 A 
ATOM     30  C10 <0> d   1      17.488  -0.077   7.758  0.00  0.00     0.037 A 
ATOM     31  C8  <0> d   1      18.437   0.768   7.197  0.00  0.00     0.065 A 
ATOM     32  C7  <0> d   1      19.325   1.462   8.010  0.00  0.00     0.037 A 
ATOM     33  C6  <0> d   1      19.266   1.316   9.379  0.00  0.00     0.015 A 
BRANCH  31  34
ATOM     34  O9  <0> d   1      18.499   0.915   5.847  0.00  0.00    -0.361 OA
ATOM     35  H38 <0> d   1      17.875   0.358   5.363  0.00  0.00     0.217 HD
ENDBRANCH  31  34
ENDBRANCH   2  28
BRANCH   6  36
ATOM     36  O16 <0> d   1      17.693   0.051  17.541  0.00  0.00    -0.361 OA
ATOM     37  H42 <0> d   1      17.287  -0.703  17.990  0.00  0.00     0.217 HD
ENDBRANCH   6  36
TORSDOF 9
ENDMDL
MODEL 5
REMARK VINA RESULT:      -8.5      2.291      5.078
REMARK  9 active torsions:
REMARK  status: ('A' for Active; 'I' for Inactive)
REMARK    1  A    between atoms: C2_2  and  C3_3 
REMARK    2  A    between atoms: C2_2  and  C20_20 
REMARK    3  A    between atoms: C4_4  and  C5_5 
REMARK    4  A    between atoms: C8_8  and  O9_9 
REMARK    5  A    between atoms: C15_15  and  O16_16 
REMARK    6  A    between atoms: C23_23  and  O24_24 
REMARK    7  A    between atoms: O24_24  and  C25_25 
REMARK    8  A    between atoms: C25_25  and  C26_26 
REMARK    9  A    between atoms: C26_26  and  N27_27 
ROOT
ATOM      1  C3  <0> d   1      17.939   0.803  13.573  0.00  0.00     0.044 A 
ATOM      2  C4  <0> d   1      18.313   2.109  13.414  0.00  0.00     0.031 A 
ATOM      3  S12 <0> d   1      18.993   2.751  14.896  0.00  0.00    -0.088 SA
ATOM      4  C13 <0> d   1      18.771   1.230  15.752  0.00  0.00     0.019 A 
ATOM      5  C14 <0> d   1      19.082   0.894  17.074  0.00  0.00     0.056 A 
ATOM      6  C15 <0> d   1      18.821  -0.373  17.552  0.00  0.00     0.067 A 
ATOM      7  C17 <0> d   1      18.246  -1.327  16.718  0.00  0.00     0.037 A 
ATOM      8  C18 <0> d   1      17.935  -1.013  15.420  0.00  0.00     0.016 A 
ATOM      9  C19 <0> d   1      18.189   0.279  14.917  0.00  0.00    -0.003 A 
ENDROOT
BRANCH   1  10
ATOM     10  C2  <0> d   1      17.339   0.008  12.502  0.00  0.00     0.194 C 
ATOM     11  O1  <0> d   1      16.254   0.319  12.046  0.00  0.00    -0.287 OA
BRANCH  10  12
ATOM     12  C20 <0> d   1      18.046  -1.178  11.979  0.00  0.00     0.015 A 
ATOM     13  C35 <0> d   1      17.381  -2.403  11.875  0.00  0.00     0.018 A 
ATOM     14  C34 <0> d   1      18.043  -3.505  11.382  0.00  0.00     0.037 A 
ATOM     15  C23 <0> d   1      19.375  -3.403  10.996  0.00  0.00     0.068 A 
ATOM     16  C22 <0> d   1      20.042  -2.188  11.102  0.00  0.00     0.037 A 
ATOM     17  C21 <0> d   1      19.386  -1.080  11.590  0.00  0.00     0.018 A 
BRANCH  15  18
ATOM     18  O24 <0> d   1      20.025  -4.493  10.515  0.00  0.00    -0.350 OA
BRANCH  18  19
ATOM     19  C25 <0> d   1      19.283  -5.367   9.662  0.00  0.00     0.203 C 
BRANCH  19  20
ATOM     20  C26 <0> d   1      19.958  -5.436   8.291  0.00  0.00     0.261 C 
BRANCH  20  21
ATOM     21  N27 <0> d   1      19.120  -4.752   7.297  0.00  0.00    -0.069 N 
ATOM     22  H28 <0> d   1      18.252  -4.472   7.727  0.00  0.00     0.280 HD
ATOM     23  C33 <0> d   1      19.824  -3.566   6.799  0.00  0.00     0.235 C 
ATOM     24  C32 <0> d   1      18.922  -2.804   5.826  0.00  0.00     0.028 C 
ATOM     25  C31 <0> d   1      18.567  -3.717   4.649  0.00  0.00     0.003 C 
ATOM     26  C30 <0> d   1      17.901  -4.987   5.184  0.00  0.00     0.028 C 
ATOM     27  C29 <0> d   1      18.840  -5.667   6.184  0.00  0.00     0.235 C 
ENDBRANCH  20  21
ENDBRANCH  19  20
ENDBRANCH  18  19
ENDBRANCH  15  18
ENDBRANCH  10  12
ENDBRANCH   1  10
BRANCH   2  28
ATOM     28  C5  <0> d   1      18.162   2.876  12.164  0.00  0.00    -0.018 A 
ATOM     29  C11 <0> d   1      17.306   3.980  12.117  0.00  0.00     0.015 A 
ATOM     30  C10 <0> d   1      17.173   4.698  10.949  0.00  0.00     0.037 A 
ATOM     31  C8  <0> d   1      17.881   4.319   9.815  0.00  0.00     0.065 A 
ATOM     32  C7  <0> d   1      18.729   3.219   9.854  0.00  0.00     0.037 A 
ATOM     33  C6  <0> d   1      18.873   2.499  11.020  0.00  0.00     0.015 A 
BRANCH  31  34
ATOM     34  O9  <0> d   1      17.744   5.027   8.663  0.00  0.00    -0.361 OA
ATOM     35  H38 <0> d   1      18.261   5.843   8.640  0.00  0.00     0.217 HD
ENDBRANCH  31  34
ENDBRANCH   2  28
BRANCH   6  36
ATOM     36  O16 <0> d   1      19.128  -0.691  18.838  0.00  0.00    -0.361 OA
ATOM     37  H42 <0> d   1      18.848  -1.578  19.101  0.00  0.00     0.217 HD
ENDBRANCH   6  36
TORSDOF 9
ENDMDL
MODEL 6
REMARK VINA RESULT:      -8.5      4.129      9.852
REMARK  9 active torsions:
REMARK  status: ('A' for Active; 'I' for Inactive)
REMARK    1  A    between atoms: C2_2  and  C3_3 
REMARK    2  A    between atoms: C2_2  and  C20_20 
REMARK    3  A    between atoms: C4_4  and  C5_5 
REMARK    4  A    between atoms: C8_8  and  O9_9 
REMARK    5  A    between atoms: C15_15  and  O16_16 
REMARK    6  A    between atoms: C23_23  and  O24_24 
REMARK    7  A    between atoms: O24_24  and  C25_25 
REMARK    8  A    between atoms: C25_25  and  C26_26 
REMARK    9  A    between atoms: C26_26  and  N27_27 
ROOT
ATOM      1  C3  <0> d   1      19.297  -0.736  11.026  0.00  0.00     0.044 A 
ATOM      2  C4  <0> d   1      18.463  -0.052  10.184  0.00  0.00     0.031 A 
ATOM      3  S12 <0> d   1      17.705  -1.137   9.036  0.00  0.00    -0.088 SA
ATOM      4  C13 <0> d   1      18.525  -2.545   9.700  0.00  0.00     0.019 A 
ATOM      5  C14 <0> d   1      18.454  -3.887   9.314  0.00  0.00     0.056 A 
ATOM      6  C15 <0> d   1      19.191  -4.845   9.978  0.00  0.00     0.067 A 
ATOM      7  C17 <0> d   1      20.012  -4.479  11.040  0.00  0.00     0.037 A 
ATOM      8  C18 <0> d   1      20.093  -3.167  11.431  0.00  0.00     0.016 A 
ATOM      9  C19 <0> d   1      19.352  -2.174  10.759  0.00  0.00    -0.003 A 
ENDROOT
BRANCH   1  10
ATOM     10  C2  <0> d   1      20.066  -0.089  12.088  0.00  0.00     0.194 C 
ATOM     11  O1  <0> d   1      21.128   0.449  11.831  0.00  0.00    -0.287 OA
BRANCH  10  12
ATOM     12  C20 <0> d   1      19.558  -0.093  13.475  0.00  0.00     0.015 A 
ATOM     13  C35 <0> d   1      19.369   1.112  14.156  0.00  0.00     0.018 A 
ATOM     14  C34 <0> d   1      18.890   1.104  15.447  0.00  0.00     0.037 A 
ATOM     15  C23 <0> d   1      18.605  -0.101  16.077  0.00  0.00     0.068 A 
ATOM     16  C22 <0> d   1      18.797  -1.303  15.405  0.00  0.00     0.037 A 
ATOM     17  C21 <0> d   1      19.271  -1.303  14.113  0.00  0.00     0.018 A 
BRANCH  15  18
ATOM     18  O24 <0> d   1      18.138  -0.105  17.352  0.00  0.00    -0.350 OA
BRANCH  18  19
ATOM     19  C25 <0> d   1      18.597   0.938  18.214  0.00  0.00     0.203 C 
BRANCH  19  20
ATOM     20  C26 <0> d   1      17.408   1.535  18.970  0.00  0.00     0.261 C 
BRANCH  20  21
ATOM     21  N27 <0> d   1      17.141   2.890  18.469  0.00  0.00    -0.069 N 
ATOM     22  H28 <0> d   1      16.540   2.836  17.661  0.00  0.00     0.280 HD
ATOM     23  C33 <0> d   1      16.481   3.676  19.517  0.00  0.00     0.235 C 
ATOM     24  C32 <0> d   1      16.126   5.062  18.973  0.00  0.00     0.028 C 
ATOM     25  C31 <0> d   1      17.409   5.773  18.533  0.00  0.00     0.003 C 
ATOM     26  C30 <0> d   1      18.129   4.910  17.494  0.00  0.00     0.028 C 
ATOM     27  C29 <0> d   1      18.408   3.528  18.092  0.00  0.00     0.235 C 
ENDBRANCH  20  21
ENDBRANCH  19  20
ENDBRANCH  18  19
ENDBRANCH  15  18
ENDBRANCH  10  12
ENDBRANCH   1  10
BRANCH   2  28
ATOM     28  C5  <0> d   1      18.234   1.403  10.234  0.00  0.00    -0.018 A 
ATOM     29  C11 <0> d   1      17.492   1.961  11.280  0.00  0.00     0.015 A 
ATOM     30  C10 <0> d   1      17.286   3.322  11.327  0.00  0.00     0.037 A 
ATOM     31  C8  <0> d   1      17.806   4.139  10.331  0.00  0.00     0.065 A 
ATOM     32  C7  <0> d   1      18.539   3.590   9.286  0.00  0.00     0.037 A 
ATOM     33  C6  <0> d   1      18.755   2.230   9.235  0.00  0.00     0.015 A 
BRANCH  31  34
ATOM     34  O9  <0> d   1      17.595   5.481  10.378  0.00  0.00    -0.361 OA
ATOM     35  H38 <0> d   1      17.842   5.945   9.567  0.00  0.00     0.217 HD
ENDBRANCH  31  34
ENDBRANCH   2  28
BRANCH   6  36
ATOM     36  O16 <0> d   1      19.115  -6.148   9.595  0.00  0.00    -0.361 OA
ATOM     37  H42 <0> d   1      18.681  -6.722  10.240  0.00  0.00     0.217 HD
ENDBRANCH   6  36
TORSDOF 9
ENDMDL
MODEL 7
REMARK VINA RESULT:      -8.2      1.825      2.451
REMARK  9 active torsions:
REMARK  status: ('A' for Active; 'I' for Inactive)
REMARK    1  A    between atoms: C2_2  and  C3_3 
REMARK    2  A    between atoms: C2_2  and  C20_20 
REMARK    3  A    between atoms: C4_4  and  C5_5 
REMARK    4  A    between atoms: C8_8  and  O9_9 
REMARK    5  A    between atoms: C15_15  and  O16_16 
REMARK    6  A    between atoms: C23_23  and  O24_24 
REMARK    7  A    between atoms: O24_24  and  C25_25 
REMARK    8  A    between atoms: C25_25  and  C26_26 
REMARK    9  A    between atoms: C26_26  and  N27_27 
ROOT
ATOM      1  C3  <0> d   1      19.343   0.286  11.555  0.00  0.00     0.044 A 
ATOM      2  C4  <0> d   1      18.554  -0.599  12.237  0.00  0.00     0.031 A 
ATOM      3  S12 <0> d   1      17.697   0.201  13.538  0.00  0.00    -0.088 SA
ATOM      4  C13 <0> d   1      18.413   1.763  13.160  0.00  0.00     0.019 A 
ATOM      5  C14 <0> d   1      18.230   3.005  13.777  0.00  0.00     0.056 A 
ATOM      6  C15 <0> d   1      18.899   4.120  13.316  0.00  0.00     0.067 A 
ATOM      7  C17 <0> d   1      19.762   4.013  12.229  0.00  0.00     0.037 A 
ATOM      8  C18 <0> d   1      19.951   2.803  11.613  0.00  0.00     0.016 A 
ATOM      9  C19 <0> d   1      19.281   1.653  12.075  0.00  0.00    -0.003 A 
ENDROOT
BRANCH   1  10
ATOM     10  C2  <0> d   1      20.177  -0.099  10.416  0.00  0.00     0.194 C 
ATOM     11  O1  <0> d   1      21.345  -0.397  10.588  0.00  0.00    -0.287 OA
BRANCH  10  12
ATOM     12  C20 <0> d   1      19.603  -0.122   9.055  0.00  0.00     0.015 A 
ATOM     13  C35 <0> d   1      19.404   1.072   8.358  0.00  0.00     0.018 A 
ATOM     14  C34 <0> d   1      18.873   1.047   7.088  0.00  0.00     0.037 A 
ATOM     15  C23 <0> d   1      18.525  -0.165   6.503  0.00  0.00     0.068 A 
ATOM     16  C22 <0> d   1      18.716  -1.355   7.194  0.00  0.00     0.037 A 
ATOM     17  C21 <0> d   1      19.251  -1.338   8.463  0.00  0.00     0.018 A 
BRANCH  15  18
ATOM     18  O24 <0> d   1      17.998  -0.186   5.252  0.00  0.00    -0.350 OA
BRANCH  18  19
ATOM     19  C25 <0> d   1      18.339  -1.298   4.423  0.00  0.00     0.203 C 
BRANCH  19  20
ATOM     20  C26 <0> d   1      17.063  -2.018   3.983  0.00  0.00     0.261 C 
BRANCH  20  21
ATOM     21  N27 <0> d   1      17.000  -3.338   4.624  0.00  0.00    -0.069 N 
ATOM     22  H28 <0> d   1      16.540  -3.255   5.518  0.00  0.00     0.280 HD
ATOM     23  C33 <0> d   1      16.243  -4.259   3.769  0.00  0.00     0.235 C 
ATOM     24  C32 <0> d   1      16.104  -5.613   4.470  0.00  0.00     0.028 C 
ATOM     25  C31 <0> d   1      17.498  -6.189   4.733  0.00  0.00     0.003 C 
ATOM     26  C30 <0> d   1      18.306  -5.187   5.562  0.00  0.00     0.028 C 
ATOM     27  C29 <0> d   1      18.362  -3.849   4.821  0.00  0.00     0.235 C 
ENDBRANCH  20  21
ENDBRANCH  19  20
ENDBRANCH  18  19
ENDBRANCH  15  18
ENDBRANCH  10  12
ENDBRANCH   1  10
BRANCH   2  28
ATOM     28  C5  <0> d   1      18.441  -2.035  11.921  0.00  0.00    -0.018 A 
ATOM     29  C11 <0> d   1      19.547  -2.876  12.076  0.00  0.00     0.015 A 
ATOM     30  C10 <0> d   1      19.436  -4.218  11.787  0.00  0.00     0.037 A 
ATOM     31  C8  <0> d   1      18.230  -4.734  11.331  0.00  0.00     0.065 A 
ATOM     32  C7  <0> d   1      17.129  -3.901  11.168  0.00  0.00     0.037 A 
ATOM     33  C6  <0> d   1      17.230  -2.558  11.461  0.00  0.00     0.015 A 
BRANCH  31  34
ATOM     34  O9  <0> d   1      18.125  -6.057  11.041  0.00  0.00    -0.361 OA
ATOM     35  H38 <0> d   1      18.794  -6.607  11.470  0.00  0.00     0.217 HD
ENDBRANCH  31  34
ENDBRANCH   2  28
BRANCH   6  36
ATOM     36  O16 <0> d   1      18.715   5.322  13.923  0.00  0.00    -0.361 OA
ATOM     37  H42 <0> d   1      17.835   5.700  13.789  0.00  0.00     0.217 HD
ENDBRANCH   6  36
TORSDOF 9
ENDMDL
MODEL 8
REMARK VINA RESULT:      -8.2      3.593      8.350
REMARK  9 active torsions:
REMARK  status: ('A' for Active; 'I' for Inactive)
REMARK    1  A    between atoms: C2_2  and  C3_3 
REMARK    2  A    between atoms: C2_2  and  C20_20 
REMARK    3  A    between atoms: C4_4  and  C5_5 
REMARK    4  A    between atoms: C8_8  and  O9_9 
REMARK    5  A    between atoms: C15_15  and  O16_16 
REMARK    6  A    between atoms: C23_23  and  O24_24 
REMARK    7  A    between atoms: O24_24  and  C25_25 
REMARK    8  A    between atoms: C25_25  and  C26_26 
REMARK    9  A    between atoms: C26_26  and  N27_27 
ROOT
ATOM      1  C3  <0> d   1      16.418  -6.406   6.967  0.00  0.00     0.044 A 
ATOM      2  C4  <0> d   1      15.895  -5.992   8.161  0.00  0.00     0.031 A 
ATOM      3  S12 <0> d   1      14.176  -6.325   8.240  0.00  0.00    -0.088 SA
ATOM      4  C13 <0> d   1      14.157  -7.039   6.632  0.00  0.00     0.019 A 
ATOM      5  C14 <0> d   1      13.092  -7.586   5.908  0.00  0.00     0.056 A 
ATOM      6  C15 <0> d   1      13.298  -8.099   4.644  0.00  0.00     0.067 A 
ATOM      7  C17 <0> d   1      14.570  -8.075   4.082  0.00  0.00     0.037 A 
ATOM      8  C18 <0> d   1      15.624  -7.542   4.778  0.00  0.00     0.016 A 
ATOM      9  C19 <0> d   1      15.431  -7.007   6.068  0.00  0.00    -0.003 A 
ENDROOT
BRANCH   1  10
ATOM     10  C2  <0> d   1      17.831  -6.257   6.619  0.00  0.00     0.194 C 
ATOM     11  O1  <0> d   1      18.613  -7.162   6.842  0.00  0.00    -0.287 OA
BRANCH  10  12
ATOM     12  C20 <0> d   1      18.310  -5.003   6.002  0.00  0.00     0.015 A 
ATOM     13  C35 <0> d   1      19.253  -4.212   6.663  0.00  0.00     0.018 A 
ATOM     14  C34 <0> d   1      19.701  -3.047   6.083  0.00  0.00     0.037 A 
ATOM     15  C23 <0> d   1      19.209  -2.651   4.845  0.00  0.00     0.068 A 
ATOM     16  C22 <0> d   1      18.267  -3.432   4.186  0.00  0.00     0.037 A 
ATOM     17  C21 <0> d   1      17.817  -4.601   4.757  0.00  0.00     0.018 A 
BRANCH  15  18
ATOM     18  O24 <0> d   1      19.649  -1.499   4.278  0.00  0.00    -0.350 OA
BRANCH  18  19
ATOM     19  C25 <0> d   1      19.518  -0.305   5.051  0.00  0.00     0.203 C 
BRANCH  19  20
ATOM     20  C26 <0> d   1      18.041  -0.057   5.361  0.00  0.00     0.261 C 
BRANCH  20  21
ATOM     21  N27 <0> d   1      17.916   0.550   6.693  0.00  0.00    -0.069 N 
ATOM     22  H28 <0> d   1      17.190   1.249   6.677  0.00  0.00     0.280 HD
ATOM     23  C33 <0> d   1      17.573  -0.488   7.672  0.00  0.00     0.235 C 
ATOM     24  C32 <0> d   1      17.361   0.151   9.046  0.00  0.00     0.028 C 
ATOM     25  C31 <0> d   1      18.651   0.853   9.479  0.00  0.00     0.003 C 
ATOM     26  C30 <0> d   1      19.043   1.882   8.415  0.00  0.00     0.028 C 
ATOM     27  C29 <0> d   1      19.191   1.178   7.063  0.00  0.00     0.235 C 
ENDBRANCH  20  21
ENDBRANCH  19  20
ENDBRANCH  18  19
ENDBRANCH  15  18
ENDBRANCH  10  12
ENDBRANCH   1  10
BRANCH   2  28
ATOM     28  C5  <0> d   1      16.671  -5.349   9.236  0.00  0.00    -0.018 A 
ATOM     29  C11 <0> d   1      16.957  -3.982   9.175  0.00  0.00     0.015 A 
ATOM     30  C10 <0> d   1      17.676  -3.384  10.185  0.00  0.00     0.037 A 
ATOM     31  C8  <0> d   1      18.128  -4.139  11.260  0.00  0.00     0.065 A 
ATOM     32  C7  <0> d   1      17.852  -5.500  11.323  0.00  0.00     0.037 A 
ATOM     33  C6  <0> d   1      17.127  -6.106  10.320  0.00  0.00     0.015 A 
BRANCH  31  34
ATOM     34  O9  <0> d   1      18.842  -3.547  12.252  0.00  0.00    -0.361 OA
ATOM     35  H38 <0> d   1      19.451  -4.144  12.707  0.00  0.00     0.217 HD
ENDBRANCH  31  34
ENDBRANCH   2  28
BRANCH   6  36
ATOM     36  O16 <0> d   1      12.257  -8.629   3.948  0.00  0.00    -0.361 OA
ATOM     37  H42 <0> d   1      11.682  -7.969   3.537  0.00  0.00     0.217 HD
ENDBRANCH   6  36
TORSDOF 9
ENDMDL
MODEL 9
REMARK VINA RESULT:      -8.2      3.482      8.563
REMARK  9 active torsions:
REMARK  status: ('A' for Active; 'I' for Inactive)
REMARK    1  A    between atoms: C2_2  and  C3_3 
REMARK    2  A    between atoms: C2_2  and  C20_20 
REMARK    3  A    between atoms: C4_4  and  C5_5 
REMARK    4  A    between atoms: C8_8  and  O9_9 
REMARK    5  A    between atoms: C15_15  and  O16_16 
REMARK    6  A    between atoms: C23_23  and  O24_24 
REMARK    7  A    between atoms: O24_24  and  C25_25 
REMARK    8  A    between atoms: C25_25  and  C26_26 
REMARK    9  A    between atoms: C26_26  and  N27_27 
ROOT
ATOM      1  C3  <0> d   1      19.011  -1.300  10.730  0.00  0.00     0.044 A 
ATOM      2  C4  <0> d   1      18.343  -1.826  11.802  0.00  0.00     0.031 A 
ATOM      3  S12 <0> d   1      17.395  -3.220  11.325  0.00  0.00    -0.088 SA
ATOM      4  C13 <0> d   1      17.905  -3.096   9.646  0.00  0.00     0.019 A 
ATOM      5  C14 <0> d   1      17.567  -3.892   8.546  0.00  0.00     0.056 A 
ATOM      6  C15 <0> d   1      18.086  -3.616   7.298  0.00  0.00     0.067 A 
ATOM      7  C17 <0> d   1      18.951  -2.540   7.127  0.00  0.00     0.037 A 
ATOM      8  C18 <0> d   1      19.292  -1.750   8.194  0.00  0.00     0.016 A 
ATOM      9  C19 <0> d   1      18.766  -2.014   9.475  0.00  0.00    -0.003 A 
ENDROOT
BRANCH   1  10
ATOM     10  C2  <0> d   1      19.882  -0.129  10.828  0.00  0.00     0.194 C 
ATOM     11  O1  <0> d   1      21.088  -0.256  10.729  0.00  0.00    -0.287 OA
BRANCH  10  12
ATOM     12  C20 <0> d   1      19.297   1.209  11.053  0.00  0.00     0.015 A 
ATOM     13  C35 <0> d   1      18.188   1.623  10.311  0.00  0.00     0.018 A 
ATOM     14  C34 <0> d   1      17.643   2.869  10.528  0.00  0.00     0.037 A 
ATOM     15  C23 <0> d   1      18.201   3.718  11.475  0.00  0.00     0.068 A 
ATOM     16  C22 <0> d   1      19.308   3.313  12.212  0.00  0.00     0.037 A 
ATOM     17  C21 <0> d   1      19.856   2.067  12.005  0.00  0.00     0.018 A 
BRANCH  15  18
ATOM     18  O24 <0> d   1      17.664   4.948  11.682  0.00  0.00    -0.350 OA
BRANCH  18  19
ATOM     19  C25 <0> d   1      17.766   5.486  13.002  0.00  0.00     0.203 C 
BRANCH  19  20
ATOM     20  C26 <0> d   1      16.429   5.317  13.727  0.00  0.00     0.261 C 
BRANCH  20  21
ATOM     21  N27 <0> d   1      16.675   5.032  15.147  0.00  0.00    -0.069 N 
ATOM     22  H28 <0> d   1      16.139   4.224  15.425  0.00  0.00     0.280 HD
ATOM     23  C33 <0> d   1      18.103   4.764  15.350  0.00  0.00     0.235 C 
ATOM     24  C32 <0> d   1      18.353   4.385  16.811  0.00  0.00     0.028 C 
ATOM     25  C31 <0> d   1      17.919   5.545  17.713  0.00  0.00     0.003 C 
ATOM     26  C30 <0> d   1      16.447   5.867  17.440  0.00  0.00     0.028 C 
ATOM     27  C29 <0> d   1      16.268   6.189  15.954  0.00  0.00     0.235 C 
ENDBRANCH  20  21
ENDBRANCH  19  20
ENDBRANCH  18  19
ENDBRANCH  15  18
ENDBRANCH  10  12
ENDBRANCH   1  10
BRANCH   2  28
ATOM     28  C5  <0> d   1      18.411  -1.292  13.174  0.00  0.00    -0.018 A 
ATOM     29  C11 <0> d   1      19.339  -1.809  14.083  0.00  0.00     0.015 A 
ATOM     30  C10 <0> d   1      19.404  -1.302  15.362  0.00  0.00     0.037 A 
ATOM     31  C8  <0> d   1      18.541  -0.286  15.752  0.00  0.00     0.065 A 
ATOM     32  C7  <0> d   1      17.612   0.227  14.855  0.00  0.00     0.037 A 
ATOM     33  C6  <0> d   1      17.544  -0.270  13.571  0.00  0.00     0.015 A 
BRANCH  31  34
ATOM     34  O9  <0> d   1      18.603   0.207  17.017  0.00  0.00    -0.361 OA
ATOM     35  H38 <0> d   1      19.478   0.531  17.269  0.00  0.00     0.217 HD
ENDBRANCH  31  34
ENDBRANCH   2  28
BRANCH   6  36
ATOM     36  O16 <0> d   1      17.752  -4.396   6.236  0.00  0.00    -0.361 OA
ATOM     37  H42 <0> d   1      18.323  -5.167   6.119  0.00  0.00     0.217 HD
ENDBRANCH   6  36
TORSDOF 9
ENDMDL
