MODEL 1
REMARK VINA RESULT:      -7.1      0.000      0.000
REMARK  10 active torsions:
REMARK  status: ('A' for Active; 'I' for Inactive)
REMARK    1  A    between atoms: C2_2  and  C4_3 
REMARK    2  A    between atoms: C2_2  and  N13_12 
REMARK    3  A    between atoms: C4_3  and  C5_4 
REMARK    4  A    between atoms: C5_4  and  C6_5 
REMARK    5  A    between atoms: C9_8  and  O10_9 
REMARK    6  A    between atoms: N13_12  and  C16_15 
REMARK    7  A    between atoms: C16_15  and  C17_16 
REMARK    8  A    between atoms: C17_16  and  C18_17 
REMARK    9  A    between atoms: C21_20  and  O22_21 
REMARK   10  A    between atoms: C23_22  and  O24_23 
ROOT
ATOM      1  N13 <0> d   1      19.371   3.246  13.953  0.00  0.00    -0.071 N 
ATOM      2  H14 <0> d   1      20.326   2.921  13.967  0.00  0.00     0.277 HD
ATOM      3  H15 <0> d   1      19.181   3.767  14.795  0.00  0.00     0.277 HD
ENDROOT
BRANCH   1   4
ATOM      4  C2  <0> d   1      19.167   4.113  12.784  0.00  0.00     0.182 C 
ATOM      5  C1  <0> d   1      17.682   4.458  12.657  0.00  0.00     0.040 C 
BRANCH   4   6
ATOM      6  C4  <0> d   1      19.632   3.385  11.522  0.00  0.00     0.037 C 
BRANCH   6   7
ATOM      7  C5  <0> d   1      18.570   3.528  10.429  0.00  0.00     0.040 C 
BRANCH   7   8
ATOM      8  C6  <0> d   1      18.328   2.188   9.785  0.00  0.00    -0.058 A 
ATOM      9  C12 <0> d   1      17.427   1.303  10.349  0.00  0.00     0.010 A 
ATOM     10  C11 <0> d   1      17.200   0.076   9.758  0.00  0.00     0.037 A 
ATOM     11  C9  <0> d   1      17.884  -0.273   8.602  0.00  0.00     0.065 A 
ATOM     12  C8  <0> d   1      18.790   0.614   8.040  0.00  0.00     0.037 A 
ATOM     13  C7  <0> d   1      19.011   1.843   8.634  0.00  0.00     0.010 A 
BRANCH  11  14
ATOM     14  O10 <0> d   1      17.666  -1.482   8.021  0.00  0.00    -0.361 OA
ATOM     15  H35 <0> d   1      16.769  -1.598   7.679  0.00  0.00     0.217 HD
ENDBRANCH  11  14
ENDBRANCH   7   8
ENDBRANCH   6   7
ENDBRANCH   4   6
ENDBRANCH   1   4
BRANCH   1  16
ATOM     16  C16 <0> d   1      18.463   2.095  13.873  0.00  0.00     0.237 C 
BRANCH  16  17
ATOM     17  C17 <0> d   1      19.163   0.853  14.426  0.00  0.00     0.066 C 
BRANCH  17  18
ATOM     18  C18 <0> d   1      19.380  -0.140  13.313  0.00  0.00    -0.054 A 
ATOM     19  C25 <0> d   1      20.273   0.146  12.297  0.00  0.00     0.046 A 
ATOM     20  C23 <0> d   1      20.476  -0.767  11.276  0.00  0.00     0.099 A 
ATOM     21  C21 <0> d   1      19.773  -1.967  11.270  0.00  0.00     0.098 A 
ATOM     22  C20 <0> d   1      18.875  -2.246  12.288  0.00  0.00     0.040 A 
ATOM     23  C19 <0> d   1      18.680  -1.331  13.306  0.00  0.00     0.010 A 
BRANCH  20  24
ATOM     24  O24 <0> d   1      21.359  -0.488  10.278  0.00  0.00    -0.358 OA
ATOM     25  H45 <0> d   1      20.978   0.016   9.546  0.00  0.00     0.217 HD
ENDBRANCH  20  24
BRANCH  21  26
ATOM     26  O22 <0> d   1      19.965  -2.866  10.267  0.00  0.00    -0.358 OA
ATOM     27  H44 <0> d   1      20.726  -3.448  10.401  0.00  0.00     0.217 HD
ENDBRANCH  21  26
ENDBRANCH  17  18
ENDBRANCH  16  17
ENDBRANCH   1  16
TORSDOF 10
ENDMDL
MODEL 2
REMARK VINA RESULT:      -7.0      1.167      1.743
REMARK  10 active torsions:
REMARK  status: ('A' for Active; 'I' for Inactive)
REMARK    1  A    between atoms: C2_2  and  C4_3 
REMARK    2  A    between atoms: C2_2  and  N13_12 
REMARK    3  A    between atoms: C4_3  and  C5_4 
REMARK    4  A    between atoms: C5_4  and  C6_5 
REMARK    5  A    between atoms: C9_8  and  O10_9 
REMARK    6  A    between atoms: N13_12  and  C16_15 
REMARK    7  A    between atoms: C16_15  and  C17_16 
REMARK    8  A    between atoms: C17_16  and  C18_17 
REMARK    9  A    between atoms: C21_20  and  O22_21 
REMARK   10  A    between atoms: C23_22  and  O24_23 
ROOT
ATOM      1  N13 <0> d   1      17.704   3.396  12.907  0.00  0.00    -0.071 N 
ATOM      2  H14 <0> d   1      17.381   4.193  13.435  0.00  0.00     0.277 HD
ATOM      3  H15 <0> d   1      16.990   2.685  12.901  0.00  0.00     0.277 HD
ENDROOT
BRANCH   1   4
ATOM      4  C2  <0> d   1      17.995   3.810  11.527  0.00  0.00     0.182 C 
ATOM      5  C1  <0> d   1      17.113   5.003  11.155  0.00  0.00     0.040 C 
BRANCH   4   6
ATOM      6  C4  <0> d   1      17.709   2.647  10.575  0.00  0.00     0.037 C 
BRANCH   6   7
ATOM      7  C5  <0> d   1      18.877   2.487   9.599  0.00  0.00     0.040 C 
BRANCH   7   8
ATOM      8  C6  <0> d   1      18.539   1.430   8.581  0.00  0.00    -0.058 A 
ATOM      9  C12 <0> d   1      19.124   1.463   7.329  0.00  0.00     0.010 A 
ATOM     10  C11 <0> d   1      18.819   0.493   6.395  0.00  0.00     0.037 A 
ATOM     11  C9  <0> d   1      17.916  -0.512   6.711  0.00  0.00     0.065 A 
ATOM     12  C8  <0> d   1      17.326  -0.542   7.967  0.00  0.00     0.037 A 
ATOM     13  C7  <0> d   1      17.638   0.430   8.898  0.00  0.00     0.010 A 
BRANCH  11  14
ATOM     14  O10 <0> d   1      17.610  -1.466   5.793  0.00  0.00    -0.361 OA
ATOM     15  H35 <0> d   1      17.122  -1.134   5.028  0.00  0.00     0.217 HD
ENDBRANCH  11  14
ENDBRANCH   7   8
ENDBRANCH   6   7
ENDBRANCH   4   6
ENDBRANCH   1   4
BRANCH   1  16
ATOM     16  C16 <0> d   1      18.924   2.862  13.526  0.00  0.00     0.237 C 
BRANCH  16  17
ATOM     17  C17 <0> d   1      18.634   1.480  14.114  0.00  0.00     0.066 C 
BRANCH  17  18
ATOM     18  C18 <0> d   1      18.952   0.420  13.091  0.00  0.00    -0.054 A 
ATOM     19  C25 <0> d   1      20.181   0.421  12.456  0.00  0.00     0.046 A 
ATOM     20  C23 <0> d   1      20.476  -0.555  11.519  0.00  0.00     0.099 A 
ATOM     21  C21 <0> d   1      19.531  -1.529  11.211  0.00  0.00     0.098 A 
ATOM     22  C20 <0> d   1      18.300  -1.521  11.847  0.00  0.00     0.040 A 
ATOM     23  C19 <0> d   1      18.013  -0.546  12.785  0.00  0.00     0.010 A 
BRANCH  20  24
ATOM     24  O24 <0> d   1      21.686  -0.558  10.897  0.00  0.00    -0.358 OA
ATOM     25  H45 <0> d   1      21.656  -0.258   9.978  0.00  0.00     0.217 HD
ENDBRANCH  20  24
BRANCH  21  26
ATOM     26  O22 <0> d   1      19.814  -2.487  10.288  0.00  0.00    -0.358 OA
ATOM     27  H44 <0> d   1      20.719  -2.825  10.336  0.00  0.00     0.217 HD
ENDBRANCH  21  26
ENDBRANCH  17  18
ENDBRANCH  16  17
ENDBRANCH   1  16
TORSDOF 10
ENDMDL
MODEL 3
REMARK VINA RESULT:      -6.9      1.997      2.996
REMARK  10 active torsions:
REMARK  status: ('A' for Active; 'I' for Inactive)
REMARK    1  A    between atoms: C2_2  and  C4_3 
REMARK    2  A    between atoms: C2_2  and  N13_12 
REMARK    3  A    between atoms: C4_3  and  C5_4 
REMARK    4  A    between atoms: C5_4  and  C6_5 
REMARK    5  A    between atoms: C9_8  and  O10_9 
REMARK    6  A    between atoms: N13_12  and  C16_15 
REMARK    7  A    between atoms: C16_15  and  C17_16 
REMARK    8  A    between atoms: C17_16  and  C18_17 
REMARK    9  A    between atoms: C21_20  and  O22_21 
REMARK   10  A    between atoms: C23_22  and  O24_23 
ROOT
ATOM      1  N13 <0> d   1      20.084   2.606  11.176  0.00  0.00    -0.071 N 
ATOM      2  H14 <0> d   1      20.807   2.119  10.667  0.00  0.00     0.277 HD
ATOM      3  H15 <0> d   1      20.467   3.446  11.582  0.00  0.00     0.277 HD
ENDROOT
BRANCH   1   4
ATOM      4  C2  <0> d   1      18.993   2.959  10.258  0.00  0.00     0.182 C 
ATOM      5  C1  <0> d   1      17.659   2.495  10.848  0.00  0.00     0.040 C 
BRANCH   4   6
ATOM      6  C4  <0> d   1      19.220   2.275   8.909  0.00  0.00     0.037 C 
BRANCH   6   7
ATOM      7  C5  <0> d   1      18.347   1.021   8.818  0.00  0.00     0.040 C 
BRANCH   7   8
ATOM      8  C6  <0> d   1      18.678   0.270   7.556  0.00  0.00    -0.058 A 
ATOM      9  C12 <0> d   1      18.823   0.952   6.362  0.00  0.00     0.010 A 
ATOM     10  C11 <0> d   1      19.130   0.266   5.204  0.00  0.00     0.037 A 
ATOM     11  C9  <0> d   1      19.285  -1.113   5.237  0.00  0.00     0.065 A 
ATOM     12  C8  <0> d   1      19.135  -1.797   6.435  0.00  0.00     0.037 A 
ATOM     13  C7  <0> d   1      18.831  -1.104   7.591  0.00  0.00     0.010 A 
BRANCH  11  14
ATOM     14  O10 <0> d   1      19.583  -1.792   4.098  0.00  0.00    -0.361 OA
ATOM     15  H35 <0> d   1      20.499  -2.095   4.049  0.00  0.00     0.217 HD
ENDBRANCH  11  14
ENDBRANCH   7   8
ENDBRANCH   6   7
ENDBRANCH   4   6
ENDBRANCH   1   4
BRANCH   1  16
ATOM     16  C16 <0> d   1      19.566   1.738  12.242  0.00  0.00     0.237 C 
BRANCH  16  17
ATOM     17  C17 <0> d   1      20.391   0.451  12.298  0.00  0.00     0.066 C 
BRANCH  17  18
ATOM     18  C18 <0> d   1      19.539  -0.713  11.863  0.00  0.00    -0.054 A 
ATOM     19  C25 <0> d   1      20.094  -1.731  11.111  0.00  0.00     0.046 A 
ATOM     20  C23 <0> d   1      19.314  -2.803  10.713  0.00  0.00     0.099 A 
ATOM     21  C21 <0> d   1      17.968  -2.849  11.063  0.00  0.00     0.098 A 
ATOM     22  C20 <0> d   1      17.416  -1.822  11.813  0.00  0.00     0.040 A 
ATOM     23  C19 <0> d   1      18.202  -0.756  12.210  0.00  0.00     0.010 A 
BRANCH  20  24
ATOM     24  O24 <0> d   1      19.860  -3.809   9.977  0.00  0.00    -0.358 OA
ATOM     25  H45 <0> d   1      19.271  -4.563   9.843  0.00  0.00     0.217 HD
ENDBRANCH  20  24
BRANCH  21  26
ATOM     26  O22 <0> d   1      17.195  -3.897  10.672  0.00  0.00    -0.358 OA
ATOM     27  H44 <0> d   1      16.868  -4.439  11.403  0.00  0.00     0.217 HD
ENDBRANCH  21  26
ENDBRANCH  17  18
ENDBRANCH  16  17
ENDBRANCH   1  16
TORSDOF 10
ENDMDL
MODEL 4
REMARK VINA RESULT:      -6.7      2.826      6.436
REMARK  10 active torsions:
REMARK  status: ('A' for Active; 'I' for Inactive)
REMARK    1  A    between atoms: C2_2  and  C4_3 
REMARK    2  A    between atoms: C2_2  and  N13_12 
REMARK    3  A    between atoms: C4_3  and  C5_4 
REMARK    4  A    between atoms: C5_4  and  C6_5 
REMARK    5  A    between atoms: C9_8  and  O10_9 
REMARK    6  A    between atoms: N13_12  and  C16_15 
REMARK    7  A    between atoms: C16_15  and  C17_16 
REMARK    8  A    between atoms: C17_16  and  C18_17 
REMARK    9  A    between atoms: C21_20  and  O22_21 
REMARK   10  A    between atoms: C23_22  and  O24_23 
ROOT
ATOM      1  N13 <0> d   1      19.037   0.461  12.336  0.00  0.00    -0.071 N 
ATOM      2  H14 <0> d   1      19.333   0.905  13.192  0.00  0.00     0.277 HD
ATOM      3  H15 <0> d   1      19.653   0.735  11.586  0.00  0.00     0.277 HD
ENDROOT
BRANCH   1   4
ATOM      4  C2  <0> d   1      19.084  -0.998  12.500  0.00  0.00     0.182 C 
ATOM      5  C1  <0> d   1      17.683  -1.580  12.300  0.00  0.00     0.040 C 
BRANCH   4   6
ATOM      6  C4  <0> d   1      19.581  -1.338  13.906  0.00  0.00     0.037 C 
BRANCH   6   7
ATOM      7  C5  <0> d   1      18.408  -1.298  14.887  0.00  0.00     0.040 C 
BRANCH   7   8
ATOM      8  C6  <0> d   1      18.722  -0.341  16.007  0.00  0.00    -0.058 A 
ATOM      9  C12 <0> d   1      18.982  -0.823  17.277  0.00  0.00     0.010 A 
ATOM     10  C11 <0> d   1      19.275   0.051  18.304  0.00  0.00     0.037 A 
ATOM     11  C9  <0> d   1      19.298   1.418  18.064  0.00  0.00     0.065 A 
ATOM     12  C8  <0> d   1      19.033   1.901  16.791  0.00  0.00     0.037 A 
ATOM     13  C7  <0> d   1      18.744   1.020  15.766  0.00  0.00     0.010 A 
BRANCH  11  14
ATOM     14  O10 <0> d   1      19.581   2.281  19.074  0.00  0.00    -0.361 OA
ATOM     15  H35 <0> d   1      20.157   1.913  19.758  0.00  0.00     0.217 HD
ENDBRANCH  11  14
ENDBRANCH   7   8
ENDBRANCH   6   7
ENDBRANCH   4   6
ENDBRANCH   1   4
BRANCH   1  16
ATOM     16  C16 <0> d   1      17.664   0.874  12.020  0.00  0.00     0.237 C 
BRANCH  16  17
ATOM     17  C17 <0> d   1      17.697   2.038  11.028  0.00  0.00     0.066 C 
BRANCH  17  18
ATOM     18  C18 <0> d   1      18.053   1.522   9.658  0.00  0.00    -0.054 A 
ATOM     19  C25 <0> d   1      17.427   0.393   9.162  0.00  0.00     0.046 A 
ATOM     20  C23 <0> d   1      17.750  -0.080   7.901  0.00  0.00     0.099 A 
ATOM     21  C21 <0> d   1      18.712   0.577   7.140  0.00  0.00     0.098 A 
ATOM     22  C20 <0> d   1      19.339   1.705   7.644  0.00  0.00     0.040 A 
ATOM     23  C19 <0> d   1      19.008   2.174   8.902  0.00  0.00     0.010 A 
BRANCH  20  24
ATOM     24  O24 <0> d   1      17.132  -1.188   7.410  0.00  0.00    -0.358 OA
ATOM     25  H45 <0> d   1      17.467  -1.476   6.550  0.00  0.00     0.217 HD
ENDBRANCH  20  24
BRANCH  21  26
ATOM     26  O22 <0> d   1      19.036   0.114   5.902  0.00  0.00    -0.358 OA
ATOM     27  H44 <0> d   1      18.869  -0.831   5.780  0.00  0.00     0.217 HD
ENDBRANCH  21  26
ENDBRANCH  17  18
ENDBRANCH  16  17
ENDBRANCH   1  16
TORSDOF 10
ENDMDL
MODEL 5
REMARK VINA RESULT:      -6.6      3.395      6.614
REMARK  10 active torsions:
REMARK  status: ('A' for Active; 'I' for Inactive)
REMARK    1  A    between atoms: C2_2  and  C4_3 
REMARK    2  A    between atoms: C2_2  and  N13_12 
REMARK    3  A    between atoms: C4_3  and  C5_4 
REMARK    4  A    between atoms: C5_4  and  C6_5 
REMARK    5  A    between atoms: C9_8  and  O10_9 
REMARK    6  A    between atoms: N13_12  and  C16_15 
REMARK    7  A    between atoms: C16_15  and  C17_16 
REMARK    8  A    between atoms: C17_16  and  C18_17 
REMARK    9  A    between atoms: C21_20  and  O22_21 
REMARK   10  A    between atoms: C23_22  and  O24_23 
ROOT
ATOM      1  N13 <0> d   1      20.252  -1.938  11.218  0.00  0.00    -0.071 N 
ATOM      2  H14 <0> d   1      21.124  -2.442  11.285  0.00  0.00     0.277 HD
ATOM      3  H15 <0> d   1      19.812  -2.146  10.335  0.00  0.00     0.277 HD
ENDROOT
BRANCH   1   4
ATOM      4  C2  <0> d   1      19.365  -2.345  12.316  0.00  0.00     0.182 C 
ATOM      5  C1  <0> d   1      17.909  -2.110  11.910  0.00  0.00     0.040 C 
BRANCH   4   6
ATOM      6  C4  <0> d   1      19.687  -1.521  13.564  0.00  0.00     0.037 C 
BRANCH   6   7
ATOM      7  C5  <0> d   1      18.390  -1.185  14.302  0.00  0.00     0.040 C 
BRANCH   7   8
ATOM      8  C6  <0> d   1      18.708  -0.384  15.537  0.00  0.00    -0.058 A 
ATOM      9  C12 <0> d   1      18.894  -1.024  16.749  0.00  0.00     0.010 A 
ATOM     10  C11 <0> d   1      19.190  -0.292  17.881  0.00  0.00     0.037 A 
ATOM     11  C9  <0> d   1      19.292   1.089  17.805  0.00  0.00     0.065 A 
ATOM     12  C8  <0> d   1      19.101   1.731  16.590  0.00  0.00     0.037 A 
ATOM     13  C7  <0> d   1      18.809   0.993  15.459  0.00  0.00     0.010 A 
BRANCH  11  14
ATOM     14  O10 <0> d   1      19.579   1.813  18.919  0.00  0.00    -0.361 OA
ATOM     15  H35 <0> d   1      19.895   2.708  18.736  0.00  0.00     0.217 HD
ENDBRANCH  11  14
ENDBRANCH   7   8
ENDBRANCH   6   7
ENDBRANCH   4   6
ENDBRANCH   1   4
BRANCH   1  16
ATOM     16  C16 <0> d   1      20.513  -0.495  11.308  0.00  0.00     0.237 C 
BRANCH  16  17
ATOM     17  C17 <0> d   1      19.822   0.222  10.147  0.00  0.00     0.066 C 
BRANCH  17  18
ATOM     18  C18 <0> d   1      19.285   1.548  10.621  0.00  0.00    -0.054 A 
ATOM     19  C25 <0> d   1      19.680   2.053  11.846  0.00  0.00     0.046 A 
ATOM     20  C23 <0> d   1      19.191   3.273  12.282  0.00  0.00     0.099 A 
ATOM     21  C21 <0> d   1      18.295   3.983  11.490  0.00  0.00     0.098 A 
ATOM     22  C20 <0> d   1      17.899   3.469  10.266  0.00  0.00     0.040 A 
ATOM     23  C19 <0> d   1      18.394   2.252   9.835  0.00  0.00     0.010 A 
BRANCH  20  24
ATOM     24  O24 <0> d   1      19.582   3.774  13.485  0.00  0.00    -0.358 OA
ATOM     25  H45 <0> d   1      19.370   3.203  14.236  0.00  0.00     0.217 HD
ENDBRANCH  20  24
BRANCH  21  26
ATOM     26  O22 <0> d   1      17.808   5.180  11.915  0.00  0.00    -0.358 OA
ATOM     27  H44 <0> d   1      17.807   5.285  12.876  0.00  0.00     0.217 HD
ENDBRANCH  21  26
ENDBRANCH  17  18
ENDBRANCH  16  17
ENDBRANCH   1  16
TORSDOF 10
ENDMDL
MODEL 6
REMARK VINA RESULT:      -6.6      3.635      6.782
REMARK  10 active torsions:
REMARK  status: ('A' for Active; 'I' for Inactive)
REMARK    1  A    between atoms: C2_2  and  C4_3 
REMARK    2  A    between atoms: C2_2  and  N13_12 
REMARK    3  A    between atoms: C4_3  and  C5_4 
REMARK    4  A    between atoms: C5_4  and  C6_5 
REMARK    5  A    between atoms: C9_8  and  O10_9 
REMARK    6  A    between atoms: N13_12  and  C16_15 
REMARK    7  A    between atoms: C16_15  and  C17_16 
REMARK    8  A    between atoms: C17_16  and  C18_17 
REMARK    9  A    between atoms: C21_20  and  O22_21 
REMARK   10  A    between atoms: C23_22  and  O24_23 
ROOT
ATOM      1  N13 <0> d   1      20.084  -1.320  11.346  0.00  0.00    -0.071 N 
ATOM      2  H14 <0> d   1      21.006  -1.730  11.331  0.00  0.00     0.277 HD
ATOM      3  H15 <0> d   1      19.615  -1.519  10.476  0.00  0.00     0.277 HD
ENDROOT
BRANCH   1   4
ATOM      4  C2  <0> d   1      19.313  -1.890  12.459  0.00  0.00     0.182 C 
ATOM      5  C1  <0> d   1      17.818  -1.697  12.197  0.00  0.00     0.040 C 
BRANCH   4   6
ATOM      6  C4  <0> d   1      19.697  -1.183  13.760  0.00  0.00     0.037 C 
BRANCH   6   7
ATOM      7  C5  <0> d   1      18.507  -1.197  14.721  0.00  0.00     0.040 C 
BRANCH   7   8
ATOM      8  C6  <0> d   1      18.789  -0.283  15.885  0.00  0.00    -0.058 A 
ATOM      9  C12 <0> d   1      19.007  -0.813  17.143  0.00  0.00     0.010 A 
ATOM     10  C11 <0> d   1      19.272   0.022  18.210  0.00  0.00     0.037 A 
ATOM     11  C9  <0> d   1      19.308   1.396  18.021  0.00  0.00     0.065 A 
ATOM     12  C8  <0> d   1      19.085   1.927  16.759  0.00  0.00     0.037 A 
ATOM     13  C7  <0> d   1      18.825   1.086  15.694  0.00  0.00     0.010 A 
BRANCH  11  14
ATOM     14  O10 <0> d   1      19.563   2.221  19.071  0.00  0.00    -0.361 OA
ATOM     15  H35 <0> d   1      20.409   2.052  19.508  0.00  0.00     0.217 HD
ENDBRANCH  11  14
ENDBRANCH   7   8
ENDBRANCH   6   7
ENDBRANCH   4   6
ENDBRANCH   1   4
BRANCH   1  16
ATOM     16  C16 <0> d   1      20.197   0.134  11.522  0.00  0.00     0.237 C 
BRANCH  16  17
ATOM     17  C17 <0> d   1      19.535   0.844  10.340  0.00  0.00     0.066 C 
BRANCH  17  18
ATOM     18  C18 <0> d   1      18.775   2.047  10.837  0.00  0.00    -0.054 A 
ATOM     19  C25 <0> d   1      18.493   3.089   9.973  0.00  0.00     0.046 A 
ATOM     20  C23 <0> d   1      17.791   4.193  10.426  0.00  0.00     0.099 A 
ATOM     21  C21 <0> d   1      17.381   4.256  11.754  0.00  0.00     0.098 A 
ATOM     22  C20 <0> d   1      17.671   3.211  12.616  0.00  0.00     0.040 A 
ATOM     23  C19 <0> d   1      18.368   2.109  12.156  0.00  0.00     0.010 A 
BRANCH  20  24
ATOM     24  O24 <0> d   1      17.509   5.217   9.576  0.00  0.00    -0.358 OA
ATOM     25  H45 <0> d   1      16.974   5.920   9.971  0.00  0.00     0.217 HD
ENDBRANCH  20  24
BRANCH  21  26
ATOM     26  O22 <0> d   1      16.695   5.341  12.206  0.00  0.00    -0.358 OA
ATOM     27  H44 <0> d   1      16.118   5.155  12.960  0.00  0.00     0.217 HD
ENDBRANCH  21  26
ENDBRANCH  17  18
ENDBRANCH  16  17
ENDBRANCH   1  16
TORSDOF 10
ENDMDL
MODEL 7
REMARK VINA RESULT:      -6.6      1.879      3.073
REMARK  10 active torsions:
REMARK  status: ('A' for Active; 'I' for Inactive)
REMARK    1  A    between atoms: C2_2  and  C4_3 
REMARK    2  A    between atoms: C2_2  and  N13_12 
REMARK    3  A    between atoms: C4_3  and  C5_4 
REMARK    4  A    between atoms: C5_4  and  C6_5 
REMARK    5  A    between atoms: C9_8  and  O10_9 
REMARK    6  A    between atoms: N13_12  and  C16_15 
REMARK    7  A    between atoms: C16_15  and  C17_16 
REMARK    8  A    between atoms: C17_16  and  C18_17 
REMARK    9  A    between atoms: C21_20  and  O22_21 
REMARK   10  A    between atoms: C23_22  and  O24_23 
ROOT
ATOM      1  N13 <0> d   1      18.084   2.382  16.320  0.00  0.00    -0.071 N 
ATOM      2  H14 <0> d   1      18.303   2.410  17.304  0.00  0.00     0.277 HD
ATOM      3  H15 <0> d   1      17.094   2.528  16.193  0.00  0.00     0.277 HD
ENDROOT
BRANCH   1   4
ATOM      4  C2  <0> d   1      18.828   3.441  15.623  0.00  0.00     0.182 C 
ATOM      5  C1  <0> d   1      19.859   4.051  16.574  0.00  0.00     0.040 C 
BRANCH   4   6
ATOM      6  C4  <0> d   1      17.855   4.527  15.159  0.00  0.00     0.037 C 
BRANCH   6   7
ATOM      7  C5  <0> d   1      18.496   5.340  14.033  0.00  0.00     0.040 C 
BRANCH   7   8
ATOM      8  C6  <0> d   1      18.523   4.518  12.772  0.00  0.00    -0.058 A 
ATOM      9  C12 <0> d   1      17.339   4.121  12.179  0.00  0.00     0.010 A 
ATOM     10  C11 <0> d   1      17.361   3.371  11.020  0.00  0.00     0.037 A 
ATOM     11  C9  <0> d   1      18.575   3.006  10.454  0.00  0.00     0.065 A 
ATOM     12  C8  <0> d   1      19.763   3.402  11.053  0.00  0.00     0.037 A 
ATOM     13  C7  <0> d   1      19.734   4.155  12.210  0.00  0.00     0.010 A 
BRANCH  11  14
ATOM     14  O10 <0> d   1      18.600   2.264   9.316  0.00  0.00    -0.361 OA
ATOM     15  H35 <0> d   1      19.356   2.448   8.743  0.00  0.00     0.217 HD
ENDBRANCH  11  14
ENDBRANCH   7   8
ENDBRANCH   6   7
ENDBRANCH   4   6
ENDBRANCH   1   4
BRANCH   1  16
ATOM     16  C16 <0> d   1      18.463   1.074  15.770  0.00  0.00     0.237 C 
BRANCH  16  17
ATOM     17  C17 <0> d   1      17.540   0.725  14.602  0.00  0.00     0.066 C 
BRANCH  17  18
ATOM     18  C18 <0> d   1      18.367   0.329  13.407  0.00  0.00    -0.054 A 
ATOM     19  C25 <0> d   1      19.711   0.651  13.361  0.00  0.00     0.046 A 
ATOM     20  C23 <0> d   1      20.475   0.285  12.265  0.00  0.00     0.099 A 
ATOM     21  C21 <0> d   1      19.884  -0.399  11.207  0.00  0.00     0.098 A 
ATOM     22  C20 <0> d   1      18.536  -0.714  11.257  0.00  0.00     0.040 A 
ATOM     23  C19 <0> d   1      17.781  -0.349  12.356  0.00  0.00     0.010 A 
BRANCH  20  24
ATOM     24  O24 <0> d   1      21.798   0.597  12.221  0.00  0.00    -0.358 OA
ATOM     25  H45 <0> d   1      22.383  -0.138  12.449  0.00  0.00     0.217 HD
ENDBRANCH  20  24
BRANCH  21  26
ATOM     26  O22 <0> d   1      20.628  -0.757  10.126  0.00  0.00    -0.358 OA
ATOM     27  H44 <0> d   1      20.178  -1.365   9.523  0.00  0.00     0.217 HD
ENDBRANCH  21  26
ENDBRANCH  17  18
ENDBRANCH  16  17
ENDBRANCH   1  16
TORSDOF 10
ENDMDL
MODEL 8
REMARK VINA RESULT:      -6.5      1.799      4.294
REMARK  10 active torsions:
REMARK  status: ('A' for Active; 'I' for Inactive)
REMARK    1  A    between atoms: C2_2  and  C4_3 
REMARK    2  A    between atoms: C2_2  and  N13_12 
REMARK    3  A    between atoms: C4_3  and  C5_4 
REMARK    4  A    between atoms: C5_4  and  C6_5 
REMARK    5  A    between atoms: C9_8  and  O10_9 
REMARK    6  A    between atoms: N13_12  and  C16_15 
REMARK    7  A    between atoms: C16_15  and  C17_16 
REMARK    8  A    between atoms: C17_16  and  C18_17 
REMARK    9  A    between atoms: C21_20  and  O22_21 
REMARK   10  A    between atoms: C23_22  and  O24_23 
ROOT
ATOM      1  N13 <0> d   1      17.330   0.754  12.795  0.00  0.00    -0.071 N 
ATOM      2  H14 <0> d   1      17.528   0.019  12.132  0.00  0.00     0.277 HD
ATOM      3  H15 <0> d   1      16.332   0.860  12.889  0.00  0.00     0.277 HD
ENDROOT
BRANCH   1   4
ATOM      4  C2  <0> d   1      17.912   0.406  14.099  0.00  0.00     0.182 C 
ATOM      5  C1  <0> d   1      19.214   1.182  14.301  0.00  0.00     0.040 C 
BRANCH   4   6
ATOM      6  C4  <0> d   1      18.200  -1.096  14.144  0.00  0.00     0.037 C 
BRANCH   6   7
ATOM      7  C5  <0> d   1      19.408  -1.411  13.258  0.00  0.00     0.040 C 
BRANCH   7   8
ATOM      8  C6  <0> d   1      19.040  -2.486  12.270  0.00  0.00    -0.058 A 
ATOM      9  C12 <0> d   1      17.731  -2.614  11.842  0.00  0.00     0.010 A 
ATOM     10  C11 <0> d   1      17.392  -3.595  10.933  0.00  0.00     0.037 A 
ATOM     11  C9  <0> d   1      18.364  -4.462  10.455  0.00  0.00     0.065 A 
ATOM     12  C8  <0> d   1      19.676  -4.335  10.888  0.00  0.00     0.037 A 
ATOM     13  C7  <0> d   1      20.010  -3.348  11.795  0.00  0.00     0.010 A 
BRANCH  11  14
ATOM     14  O10 <0> d   1      18.033  -5.432   9.563  0.00  0.00    -0.361 OA
ATOM     15  H35 <0> d   1      17.132  -5.359   9.219  0.00  0.00     0.217 HD
ENDBRANCH  11  14
ENDBRANCH   7   8
ENDBRANCH   6   7
ENDBRANCH   4   6
ENDBRANCH   1   4
BRANCH   1  16
ATOM     16  C16 <0> d   1      17.915   2.014  12.318  0.00  0.00     0.237 C 
BRANCH  16  17
ATOM     17  C17 <0> d   1      17.649   2.165  10.820  0.00  0.00     0.066 C 
BRANCH  17  18
ATOM     18  C18 <0> d   1      18.258   1.002  10.080  0.00  0.00    -0.054 A 
ATOM     19  C25 <0> d   1      17.475   0.237   9.234  0.00  0.00     0.046 A 
ATOM     20  C23 <0> d   1      18.034  -0.830   8.551  0.00  0.00     0.099 A 
ATOM     21  C21 <0> d   1      19.379  -1.136   8.724  0.00  0.00     0.098 A 
ATOM     22  C20 <0> d   1      20.157  -0.369   9.577  0.00  0.00     0.040 A 
ATOM     23  C19 <0> d   1      19.594   0.697  10.254  0.00  0.00     0.010 A 
BRANCH  20  24
ATOM     24  O24 <0> d   1      17.266  -1.580   7.715  0.00  0.00    -0.358 OA
ATOM     25  H45 <0> d   1      17.766  -2.026   7.017  0.00  0.00     0.217 HD
ENDBRANCH  20  24
BRANCH  21  26
ATOM     26  O22 <0> d   1      19.932  -2.186   8.059  0.00  0.00    -0.358 OA
ATOM     27  H44 <0> d   1      19.659  -3.051   8.393  0.00  0.00     0.217 HD
ENDBRANCH  21  26
ENDBRANCH  17  18
ENDBRANCH  16  17
ENDBRANCH   1  16
TORSDOF 10
ENDMDL
MODEL 9
REMARK VINA RESULT:      -6.4      2.499      5.244
REMARK  10 active torsions:
REMARK  status: ('A' for Active; 'I' for Inactive)
REMARK    1  A    between atoms: C2_2  and  C4_3 
REMARK    2  A    between atoms: C2_2  and  N13_12 
REMARK    3  A    between atoms: C4_3  and  C5_4 
REMARK    4  A    between atoms: C5_4  and  C6_5 
REMARK    5  A    between atoms: C9_8  and  O10_9 
REMARK    6  A    between atoms: N13_12  and  C16_15 
REMARK    7  A    between atoms: C16_15  and  C17_16 
REMARK    8  A    between atoms: C17_16  and  C18_17 
REMARK    9  A    between atoms: C21_20  and  O22_21 
REMARK   10  A    between atoms: C23_22  and  O24_23 
ROOT
ATOM      1  N13 <0> d   1      17.520   0.906  11.502  0.00  0.00    -0.071 N 
ATOM      2  H14 <0> d   1      16.638   0.416  11.524  0.00  0.00     0.277 HD
ATOM      3  H15 <0> d   1      17.352   1.900  11.498  0.00  0.00     0.277 HD
ENDROOT
BRANCH   1   4
ATOM      4  C2  <0> d   1      18.309   0.547  12.689  0.00  0.00     0.182 C 
ATOM      5  C1  <0> d   1      19.800   0.615  12.352  0.00  0.00     0.040 C 
BRANCH   4   6
ATOM      6  C4  <0> d   1      17.950  -0.873  13.129  0.00  0.00     0.037 C 
BRANCH   6   7
ATOM      7  C5  <0> d   1      19.189  -1.766  13.037  0.00  0.00     0.040 C 
BRANCH   7   8
ATOM      8  C6  <0> d   1      18.935  -2.877  12.052  0.00  0.00    -0.058 A 
ATOM      9  C12 <0> d   1      17.642  -3.175  11.664  0.00  0.00     0.010 A 
ATOM     10  C11 <0> d   1      17.408  -4.191  10.758  0.00  0.00     0.037 A 
ATOM     11  C9  <0> d   1      18.471  -4.919  10.244  0.00  0.00     0.065 A 
ATOM     12  C8  <0> d   1      19.768  -4.621  10.638  0.00  0.00     0.037 A 
ATOM     13  C7  <0> d   1      19.997  -3.602  11.542  0.00  0.00     0.010 A 
BRANCH  11  14
ATOM     14  O10 <0> d   1      18.243  -5.922   9.356  0.00  0.00    -0.361 OA
ATOM     15  H35 <0> d   1      18.396  -5.674   8.434  0.00  0.00     0.217 HD
ENDBRANCH  11  14
ENDBRANCH   7   8
ENDBRANCH   6   7
ENDBRANCH   4   6
ENDBRANCH   1   4
BRANCH   1  16
ATOM     16  C16 <0> d   1      18.259   0.529  10.291  0.00  0.00     0.237 C 
BRANCH  16  17
ATOM     17  C17 <0> d   1      17.400  -0.406   9.439  0.00  0.00     0.066 C 
BRANCH  17  18
ATOM     18  C18 <0> d   1      18.065  -0.627   8.105  0.00  0.00    -0.054 A 
ATOM     19  C25 <0> d   1      18.737  -1.810   7.856  0.00  0.00     0.046 A 
ATOM     20  C23 <0> d   1      19.346  -2.015   6.629  0.00  0.00     0.099 A 
ATOM     21  C21 <0> d   1      19.289  -1.026   5.653  0.00  0.00     0.098 A 
ATOM     22  C20 <0> d   1      18.619   0.160   5.910  0.00  0.00     0.040 A 
ATOM     23  C19 <0> d   1      18.010   0.357   7.136  0.00  0.00     0.010 A 
BRANCH  20  24
ATOM     24  O24 <0> d   1      20.003  -3.181   6.381  0.00  0.00    -0.358 OA
ATOM     25  H45 <0> d   1      20.621  -3.133   5.640  0.00  0.00     0.217 HD
ENDBRANCH  20  24
BRANCH  21  26
ATOM     26  O22 <0> d   1      19.889  -1.221   4.448  0.00  0.00    -0.358 OA
ATOM     27  H44 <0> d   1      19.427  -1.848   3.875  0.00  0.00     0.217 HD
ENDBRANCH  21  26
ENDBRANCH  17  18
ENDBRANCH  16  17
ENDBRANCH   1  16
TORSDOF 10
ENDMDL
