MODEL 1
REMARK VINA RESULT:      -7.0      0.000      0.000
REMARK  17 active torsions:
REMARK  status: ('A' for Active; 'I' for Inactive)
REMARK    1  A    between atoms: C2_2  and  C3_3 
REMARK    2  A    between atoms: C3_3  and  C4_4 
REMARK    3  A    between atoms: C4_4  and  C5_5 
REMARK    4  A    between atoms: C5_5  and  C6_6 
REMARK    5  A    between atoms: C6_6  and  C7_7 
REMARK    6  A    between atoms: C7_7  and  C8_8 
REMARK    7  A    between atoms: C8_8  and  C10_10 
REMARK    8  A    between atoms: C10_10  and  C11_11 
REMARK    9  A    between atoms: C11_11  and  C12_12 
REMARK   10  A    between atoms: C14_13  and  O16_14 
REMARK   11  A    between atoms: C18_16  and  O20_17 
REMARK   12  A    between atoms: C21_18  and  C23_19 
REMARK   13  A    between atoms: C23_19  and  C24_20 
REMARK   14  A    between atoms: C25_21  and  C26_22 
REMARK   15  A    between atoms: C26_22  and  C27_23 
REMARK   16  A    between atoms: C27_23  and  C28_24 
REMARK   17  A    between atoms: C28_24  and  C29_25 
ROOT
ATOM      1  C12 <0> d   1      19.668  -1.801  12.003  0.00  0.00     0.022 C 
ATOM      2  C14 <0> d   1      20.173  -0.933  10.831  0.00  0.00     0.125 C 
ATOM      3  C17 <0> d   1      19.238   0.302  10.842  0.00  0.00     0.064 C 
ATOM      4  C18 <0> d   1      17.863  -0.315  11.204  0.00  0.00     0.125 C 
ATOM      5  C21 <0> d   1      18.200  -1.407  12.240  0.00  0.00     0.024 C 
ENDROOT
BRANCH   1   6
ATOM      6  C11 <0> d   1      19.761  -3.283  11.634  0.00  0.00     0.015 C 
BRANCH   6   7
ATOM      7  C10 <0> d   1      18.352  -3.876  11.545  0.00  0.00     0.079 C 
BRANCH   7   8
ATOM      8  C8  <0> d   1      18.142  -4.466  10.175  0.00  0.00     0.127 C 
ATOM      9  O9  <0> d   1      18.255  -5.657  10.008  0.00  0.00    -0.298 OA
BRANCH   8  10
ATOM     10  C7  <0> d   1      17.789  -3.572   9.015  0.00  0.00     0.078 C 
BRANCH  10  11
ATOM     11  C6  <0> d   1      18.967  -3.512   8.041  0.00  0.00     0.007 C 
BRANCH  11  12
ATOM     12  C5  <0> d   1      19.084  -2.097   7.468  0.00  0.00     0.000 C 
BRANCH  12  13
ATOM     13  C4  <0> d   1      17.817  -1.306   7.802  0.00  0.00     0.000 C 
BRANCH  13  14
ATOM     14  C3  <0> d   1      17.641  -0.174   6.788  0.00  0.00    -0.000 C 
BRANCH  14  15
ATOM     15  C2  <0> d   1      19.011   0.400   6.421  0.00  0.00    -0.005 C 
ATOM     16  C1  <0> d   1      19.207   0.319   4.905  0.00  0.00     0.005 C 
ENDBRANCH  14  15
ENDBRANCH  13  14
ENDBRANCH  12  13
ENDBRANCH  11  12
ENDBRANCH  10  11
ENDBRANCH   8  10
ENDBRANCH   7   8
ENDBRANCH   6   7
ENDBRANCH   1   6
BRANCH   5  17
ATOM     17  C23 <0> d   1      18.025  -0.858  13.658  0.00  0.00     0.034 C 
BRANCH  17  18
ATOM     18  C24 <0> d   1      19.199  -1.272  14.507  0.00  0.00    -0.030 C 
ATOM     19  C25 <0> d   1      19.077  -1.333  15.809  0.00  0.00    -0.031 C 
BRANCH  19  20
ATOM     20  C26 <0> d   1      17.724  -1.154  16.448  0.00  0.00     0.027 C 
BRANCH  20  21
ATOM     21  C27 <0> d   1      17.811  -0.081  17.535  0.00  0.00     0.014 C 
BRANCH  21  22
ATOM     22  C28 <0> d   1      18.230   1.249  16.905  0.00  0.00     0.113 C 
BRANCH  22  23
ATOM     23  C29 <0> d   1      19.349   1.857  17.713  0.00  0.00     0.172 C 
ATOM     24  O30 <0> d   1      19.815   1.250  18.661  0.00  0.00    -0.648 OA
ATOM     25  O31 <0> d   1      19.787   2.956  17.416  0.00  0.00    -0.648 OA
ENDBRANCH  22  23
ENDBRANCH  21  22
ENDBRANCH  20  21
ENDBRANCH  19  20
ENDBRANCH  17  18
ENDBRANCH   5  17
BRANCH   2  26
ATOM     26  O16 <0> d   1      21.530  -0.538  11.049  0.00  0.00    -0.395 OA
ATOM     27  H51 <0> d   1      21.773   0.290  10.613  0.00  0.00     0.210 HD
ENDBRANCH   2  26
BRANCH   4  28
ATOM     28  O20 <0> d   1      17.007   0.676  11.778  0.00  0.00    -0.395 OA
ATOM     29  H54 <0> d   1      16.635   1.294  11.134  0.00  0.00     0.210 HD
ENDBRANCH   4  28
TORSDOF 17
ENDMDL
MODEL 2
REMARK VINA RESULT:      -7.0      2.771      8.956
REMARK  17 active torsions:
REMARK  status: ('A' for Active; 'I' for Inactive)
REMARK    1  A    between atoms: C2_2  and  C3_3 
REMARK    2  A    between atoms: C3_3  and  C4_4 
REMARK    3  A    between atoms: C4_4  and  C5_5 
REMARK    4  A    between atoms: C5_5  and  C6_6 
REMARK    5  A    between atoms: C6_6  and  C7_7 
REMARK    6  A    between atoms: C7_7  and  C8_8 
REMARK    7  A    between atoms: C8_8  and  C10_10 
REMARK    8  A    between atoms: C10_10  and  C11_11 
REMARK    9  A    between atoms: C11_11  and  C12_12 
REMARK   10  A    between atoms: C14_13  and  O16_14 
REMARK   11  A    between atoms: C18_16  and  O20_17 
REMARK   12  A    between atoms: C21_18  and  C23_19 
REMARK   13  A    between atoms: C23_19  and  C24_20 
REMARK   14  A    between atoms: C25_21  and  C26_22 
REMARK   15  A    between atoms: C26_22  and  C27_23 
REMARK   16  A    between atoms: C27_23  and  C28_24 
REMARK   17  A    between atoms: C28_24  and  C29_25 
ROOT
ATOM      1  C12 <0> d   1      19.832   2.064  11.183  0.00  0.00     0.022 C 
ATOM      2  C14 <0> d   1      20.182   0.826  12.035  0.00  0.00     0.125 C 
ATOM      3  C17 <0> d   1      18.977  -0.126  11.834  0.00  0.00     0.064 C 
ATOM      4  C18 <0> d   1      17.773   0.849  11.804  0.00  0.00     0.125 C 
ATOM      5  C21 <0> d   1      18.301   2.078  11.036  0.00  0.00     0.024 C 
ENDROOT
BRANCH   1   6
ATOM      6  C11 <0> d   1      20.303   3.337  11.891  0.00  0.00     0.015 C 
BRANCH   6   7
ATOM      7  C10 <0> d   1      19.088   4.176  12.293  0.00  0.00     0.079 C 
BRANCH   7   8
ATOM      8  C8  <0> d   1      19.058   4.331  13.791  0.00  0.00     0.127 C 
ATOM      9  O9  <0> d   1      19.781   5.135  14.329  0.00  0.00    -0.298 OA
BRANCH   8  10
ATOM     10  C7  <0> d   1      18.126   3.484  14.618  0.00  0.00     0.078 C 
BRANCH  10  11
ATOM     11  C6  <0> d   1      18.874   2.251  15.128  0.00  0.00     0.007 C 
BRANCH  11  12
ATOM     12  C5  <0> d   1      17.921   1.055  15.167  0.00  0.00     0.000 C 
BRANCH  12  13
ATOM     13  C4  <0> d   1      18.697  -0.204  15.557  0.00  0.00     0.000 C 
BRANCH  13  14
ATOM     14  C3  <0> d   1      18.191  -0.719  16.906  0.00  0.00    -0.000 C 
BRANCH  14  15
ATOM     15  C2  <0> d   1      19.214  -0.389  17.994  0.00  0.00    -0.005 C 
ATOM     16  C1  <0> d   1      18.892   0.980  18.597  0.00  0.00     0.005 C 
ENDBRANCH  14  15
ENDBRANCH  13  14
ENDBRANCH  12  13
ENDBRANCH  11  12
ENDBRANCH  10  11
ENDBRANCH   8  10
ENDBRANCH   7   8
ENDBRANCH   6   7
ENDBRANCH   1   6
BRANCH   5  17
ATOM     17  C23 <0> d   1      17.914   1.980   9.559  0.00  0.00     0.034 C 
BRANCH  17  18
ATOM     18  C24 <0> d   1      19.151   2.083   8.705  0.00  0.00    -0.030 C 
ATOM     19  C25 <0> d   1      19.346   1.232   7.729  0.00  0.00    -0.031 C 
BRANCH  19  20
ATOM     20  C26 <0> d   1      18.260   0.259   7.349  0.00  0.00     0.027 C 
BRANCH  20  21
ATOM     21  C27 <0> d   1      17.920   0.428   5.867  0.00  0.00     0.014 C 
BRANCH  21  22
ATOM     22  C28 <0> d   1      17.791  -0.950   5.214  0.00  0.00     0.113 C 
BRANCH  22  23
ATOM     23  C29 <0> d   1      19.162  -1.470   4.862  0.00  0.00     0.172 C 
ATOM     24  O30 <0> d   1      19.372  -2.670   4.843  0.00  0.00    -0.648 OA
ATOM     25  O31 <0> d   1      20.059  -0.688   4.596  0.00  0.00    -0.648 OA
ENDBRANCH  22  23
ENDBRANCH  21  22
ENDBRANCH  20  21
ENDBRANCH  19  20
ENDBRANCH  17  18
ENDBRANCH   5  17
BRANCH   2  26
ATOM     26  O16 <0> d   1      21.387   0.218  11.564  0.00  0.00    -0.395 OA
ATOM     27  H51 <0> d   1      21.905   0.780  10.973  0.00  0.00     0.210 HD
ENDBRANCH   2  26
BRANCH   4  28
ATOM     28  O20 <0> d   1      16.670   0.259  11.113  0.00  0.00    -0.395 OA
ATOM     29  H54 <0> d   1      15.961  -0.048  11.693  0.00  0.00     0.210 HD
ENDBRANCH   4  28
TORSDOF 17
ENDMDL
MODEL 3
REMARK VINA RESULT:      -6.9      2.246      4.737
REMARK  17 active torsions:
REMARK  status: ('A' for Active; 'I' for Inactive)
REMARK    1  A    between atoms: C2_2  and  C3_3 
REMARK    2  A    between atoms: C3_3  and  C4_4 
REMARK    3  A    between atoms: C4_4  and  C5_5 
REMARK    4  A    between atoms: C5_5  and  C6_6 
REMARK    5  A    between atoms: C6_6  and  C7_7 
REMARK    6  A    between atoms: C7_7  and  C8_8 
REMARK    7  A    between atoms: C8_8  and  C10_10 
REMARK    8  A    between atoms: C10_10  and  C11_11 
REMARK    9  A    between atoms: C11_11  and  C12_12 
REMARK   10  A    between atoms: C14_13  and  O16_14 
REMARK   11  A    between atoms: C18_16  and  O20_17 
REMARK   12  A    between atoms: C21_18  and  C23_19 
REMARK   13  A    between atoms: C23_19  and  C24_20 
REMARK   14  A    between atoms: C25_21  and  C26_22 
REMARK   15  A    between atoms: C26_22  and  C27_23 
REMARK   16  A    between atoms: C27_23  and  C28_24 
REMARK   17  A    between atoms: C28_24  and  C29_25 
ROOT
ATOM      1  C12 <0> d   1      18.563  -1.195  12.073  0.00  0.00     0.022 C 
ATOM      2  C14 <0> d   1      19.358  -1.882  10.942  0.00  0.00     0.125 C 
ATOM      3  C17 <0> d   1      20.805  -1.362  11.126  0.00  0.00     0.064 C 
ATOM      4  C18 <0> d   1      20.587   0.116  11.539  0.00  0.00     0.125 C 
ATOM      5  C21 <0> d   1      19.345   0.074  12.453  0.00  0.00     0.024 C 
ENDROOT
BRANCH   1   6
ATOM      6  C11 <0> d   1      17.164  -0.821  11.578  0.00  0.00     0.015 C 
BRANCH   6   7
ATOM      7  C10 <0> d   1      17.123   0.673  11.248  0.00  0.00     0.079 C 
BRANCH   7   8
ATOM      8  C8  <0> d   1      17.506   0.880   9.806  0.00  0.00     0.127 C 
ATOM      9  O9  <0> d   1      17.140   0.092   8.966  0.00  0.00    -0.298 OA
BRANCH   8  10
ATOM     10  C7  <0> d   1      18.343   2.069   9.411  0.00  0.00     0.078 C 
BRANCH  10  11
ATOM     11  C6  <0> d   1      18.142   3.194  10.428  0.00  0.00     0.007 C 
BRANCH  11  12
ATOM     12  C5  <0> d   1      19.474   3.504  11.115  0.00  0.00     0.000 C 
BRANCH  12  13
ATOM     13  C4  <0> d   1      19.213   4.288  12.403  0.00  0.00     0.000 C 
BRANCH  13  14
ATOM     14  C3  <0> d   1      17.882   3.840  13.012  0.00  0.00    -0.000 C 
BRANCH  14  15
ATOM     15  C2  <0> d   1      18.106   3.405  14.462  0.00  0.00    -0.005 C 
ATOM     16  C1  <0> d   1      17.841   4.589  15.395  0.00  0.00     0.005 C 
ENDBRANCH  14  15
ENDBRANCH  13  14
ENDBRANCH  12  13
ENDBRANCH  11  12
ENDBRANCH  10  11
ENDBRANCH   8  10
ENDBRANCH   7   8
ENDBRANCH   6   7
ENDBRANCH   1   6
BRANCH   5  17
ATOM     17  C23 <0> d   1      19.774   0.008  13.921  0.00  0.00     0.034 C 
BRANCH  17  18
ATOM     18  C24 <0> d   1      19.295  -1.285  14.528  0.00  0.00    -0.030 C 
ATOM     19  C25 <0> d   1      18.417  -1.266  15.499  0.00  0.00    -0.031 C 
BRANCH  19  20
ATOM     20  C26 <0> d   1      17.759   0.030  15.896  0.00  0.00     0.027 C 
BRANCH  20  21
ATOM     21  C27 <0> d   1      17.333  -0.043  17.364  0.00  0.00     0.014 C 
BRANCH  21  22
ATOM     22  C28 <0> d   1      17.711   1.261  18.070  0.00  0.00     0.113 C 
BRANCH  22  23
ATOM     23  C29 <0> d   1      19.206   1.451  18.007  0.00  0.00     0.172 C 
ATOM     24  O30 <0> d   1      19.949   0.574  18.411  0.00  0.00    -0.648 OA
ATOM     25  O31 <0> d   1      19.669   2.482  17.551  0.00  0.00    -0.648 OA
ENDBRANCH  22  23
ENDBRANCH  21  22
ENDBRANCH  20  21
ENDBRANCH  19  20
ENDBRANCH  17  18
ENDBRANCH   5  17
BRANCH   2  26
ATOM     26  O16 <0> d   1      19.311  -3.303  11.089  0.00  0.00    -0.395 OA
ATOM     27  H51 <0> d   1      18.552  -3.717  10.658  0.00  0.00     0.210 HD
ENDBRANCH   2  26
BRANCH   4  28
ATOM     28  O20 <0> d   1      21.723   0.606  12.256  0.00  0.00    -0.395 OA
ATOM     29  H54 <0> d   1      21.902   0.133  13.080  0.00  0.00     0.210 HD
ENDBRANCH   4  28
TORSDOF 17
ENDMDL
MODEL 4
REMARK VINA RESULT:      -6.9      3.064      7.463
REMARK  17 active torsions:
REMARK  status: ('A' for Active; 'I' for Inactive)
REMARK    1  A    between atoms: C2_2  and  C3_3 
REMARK    2  A    between atoms: C3_3  and  C4_4 
REMARK    3  A    between atoms: C4_4  and  C5_5 
REMARK    4  A    between atoms: C5_5  and  C6_6 
REMARK    5  A    between atoms: C6_6  and  C7_7 
REMARK    6  A    between atoms: C7_7  and  C8_8 
REMARK    7  A    between atoms: C8_8  and  C10_10 
REMARK    8  A    between atoms: C10_10  and  C11_11 
REMARK    9  A    between atoms: C11_11  and  C12_12 
REMARK   10  A    between atoms: C14_13  and  O16_14 
REMARK   11  A    between atoms: C18_16  and  O20_17 
REMARK   12  A    between atoms: C21_18  and  C23_19 
REMARK   13  A    between atoms: C23_19  and  C24_20 
REMARK   14  A    between atoms: C25_21  and  C26_22 
REMARK   15  A    between atoms: C26_22  and  C27_23 
REMARK   16  A    between atoms: C27_23  and  C28_24 
REMARK   17  A    between atoms: C28_24  and  C29_25 
ROOT
ATOM      1  C12 <0> d   1      18.959  -2.111  11.494  0.00  0.00     0.022 C 
ATOM      2  C14 <0> d   1      19.681  -3.468  11.350  0.00  0.00     0.125 C 
ATOM      3  C17 <0> d   1      19.297  -3.954   9.931  0.00  0.00     0.064 C 
ATOM      4  C18 <0> d   1      17.818  -3.508   9.807  0.00  0.00     0.125 C 
ATOM      5  C21 <0> d   1      17.775  -2.137  10.512  0.00  0.00     0.024 C 
ENDROOT
BRANCH   1   6
ATOM      6  C11 <0> d   1      18.449  -1.939  12.927  0.00  0.00     0.015 C 
BRANCH   6   7
ATOM      7  C10 <0> d   1      19.222  -0.809  13.611  0.00  0.00     0.079 C 
BRANCH   7   8
ATOM      8  C8  <0> d   1      18.488   0.492  13.414  0.00  0.00     0.127 C 
ATOM      9  O9  <0> d   1      17.350   0.607  13.802  0.00  0.00    -0.298 OA
BRANCH   8  10
ATOM     10  C7  <0> d   1      19.173   1.649  12.735  0.00  0.00     0.078 C 
BRANCH  10  11
ATOM     11  C6  <0> d   1      18.202   2.315  11.758  0.00  0.00     0.007 C 
BRANCH  11  12
ATOM     12  C5  <0> d   1      18.940   3.392  10.960  0.00  0.00     0.000 C 
BRANCH  12  13
ATOM     13  C4  <0> d   1      17.922   4.338  10.318  0.00  0.00     0.000 C 
BRANCH  13  14
ATOM     14  C3  <0> d   1      16.692   4.453  11.221  0.00  0.00    -0.000 C 
BRANCH  14  15
ATOM     15  C2  <0> d   1      16.768   5.753  12.024  0.00  0.00    -0.005 C 
ATOM     16  C1  <0> d   1      17.049   5.428  13.493  0.00  0.00     0.005 C 
ENDBRANCH  14  15
ENDBRANCH  13  14
ENDBRANCH  12  13
ENDBRANCH  11  12
ENDBRANCH  10  11
ENDBRANCH   8  10
ENDBRANCH   7   8
ENDBRANCH   6   7
ENDBRANCH   1   6
BRANCH   5  17
ATOM     17  C23 <0> d   1      17.919  -1.012   9.484  0.00  0.00     0.034 C 
BRANCH  17  18
ATOM     18  C24 <0> d   1      19.298  -0.412   9.585  0.00  0.00    -0.030 C 
ATOM     19  C25 <0> d   1      19.646   0.566   8.786  0.00  0.00    -0.031 C 
BRANCH  19  20
ATOM     20  C26 <0> d   1      18.620   1.205   7.885  0.00  0.00     0.027 C 
BRANCH  20  21
ATOM     21  C27 <0> d   1      19.089   1.107   6.432  0.00  0.00     0.014 C 
BRANCH  21  22
ATOM     22  C28 <0> d   1      18.328  -0.018   5.726  0.00  0.00     0.113 C 
BRANCH  22  23
ATOM     23  C29 <0> d   1      19.246  -1.198   5.528  0.00  0.00     0.172 C 
ATOM     24  O30 <0> d   1      19.408  -2.000   6.431  0.00  0.00    -0.648 OA
ATOM     25  O31 <0> d   1      19.825  -1.348   4.466  0.00  0.00    -0.648 OA
ENDBRANCH  22  23
ENDBRANCH  21  22
ENDBRANCH  20  21
ENDBRANCH  19  20
ENDBRANCH  17  18
ENDBRANCH   5  17
BRANCH   2  26
ATOM     26  O16 <0> d   1      21.096  -3.295  11.457  0.00  0.00    -0.395 OA
ATOM     27  H51 <0> d   1      21.533  -3.960  12.005  0.00  0.00     0.210 HD
ENDBRANCH   2  26
BRANCH   4  28
ATOM     28  O20 <0> d   1      17.450  -3.378   8.431  0.00  0.00    -0.395 OA
ATOM     29  H54 <0> d   1      17.539  -4.194   7.921  0.00  0.00     0.210 HD
ENDBRANCH   4  28
TORSDOF 17
ENDMDL
MODEL 5
REMARK VINA RESULT:      -6.8      2.121      4.176
REMARK  17 active torsions:
REMARK  status: ('A' for Active; 'I' for Inactive)
REMARK    1  A    between atoms: C2_2  and  C3_3 
REMARK    2  A    between atoms: C3_3  and  C4_4 
REMARK    3  A    between atoms: C4_4  and  C5_5 
REMARK    4  A    between atoms: C5_5  and  C6_6 
REMARK    5  A    between atoms: C6_6  and  C7_7 
REMARK    6  A    between atoms: C7_7  and  C8_8 
REMARK    7  A    between atoms: C8_8  and  C10_10 
REMARK    8  A    between atoms: C10_10  and  C11_11 
REMARK    9  A    between atoms: C11_11  and  C12_12 
REMARK   10  A    between atoms: C14_13  and  O16_14 
REMARK   11  A    between atoms: C18_16  and  O20_17 
REMARK   12  A    between atoms: C21_18  and  C23_19 
REMARK   13  A    between atoms: C23_19  and  C24_20 
REMARK   14  A    between atoms: C25_21  and  C26_22 
REMARK   15  A    between atoms: C26_22  and  C27_23 
REMARK   16  A    between atoms: C27_23  and  C28_24 
REMARK   17  A    between atoms: C28_24  and  C29_25 
ROOT
ATOM      1  C12 <0> d   1      17.794   0.491  13.339  0.00  0.00     0.022 C 
ATOM      2  C14 <0> d   1      17.383   0.109  11.902  0.00  0.00     0.125 C 
ATOM      3  C17 <0> d   1      18.068  -1.259  11.662  0.00  0.00     0.064 C 
ATOM      4  C18 <0> d   1      19.432  -1.088  12.377  0.00  0.00     0.125 C 
ATOM      5  C21 <0> d   1      19.096  -0.270  13.642  0.00  0.00     0.024 C 
ENDROOT
BRANCH   1   6
ATOM      6  C11 <0> d   1      18.034   2.000  13.432  0.00  0.00     0.015 C 
BRANCH   6   7
ATOM      7  C10 <0> d   1      19.174   2.393  12.488  0.00  0.00     0.079 C 
BRANCH   7   8
ATOM      8  C8  <0> d   1      18.731   3.541  11.619  0.00  0.00     0.127 C 
ATOM      9  O9  <0> d   1      18.559   4.634  12.104  0.00  0.00    -0.298 OA
BRANCH   8  10
ATOM     10  C7  <0> d   1      18.505   3.327  10.144  0.00  0.00     0.078 C 
BRANCH  10  11
ATOM     11  C6  <0> d   1      19.289   2.097   9.682  0.00  0.00     0.007 C 
BRANCH  11  12
ATOM     12  C5  <0> d   1      18.984   1.823   8.207  0.00  0.00     0.000 C 
BRANCH  12  13
ATOM     13  C4  <0> d   1      18.372   0.429   8.063  0.00  0.00     0.000 C 
BRANCH  13  14
ATOM     14  C3  <0> d   1      17.865   0.239   6.632  0.00  0.00    -0.000 C 
BRANCH  14  15
ATOM     15  C2  <0> d   1      19.008   0.496   5.648  0.00  0.00    -0.005 C 
ATOM     16  C1  <0> d   1      18.916  -0.499   4.489  0.00  0.00     0.005 C 
ENDBRANCH  14  15
ENDBRANCH  13  14
ENDBRANCH  12  13
ENDBRANCH  11  12
ENDBRANCH  10  11
ENDBRANCH   8  10
ENDBRANCH   7   8
ENDBRANCH   6   7
ENDBRANCH   1   6
BRANCH   5  17
ATOM     17  C23 <0> d   1      18.893  -1.207  14.834  0.00  0.00     0.034 C 
BRANCH  17  18
ATOM     18  C24 <0> d   1      17.650  -0.805  15.585  0.00  0.00    -0.030 C 
ATOM     19  C25 <0> d   1      17.709  -0.572  16.873  0.00  0.00    -0.031 C 
BRANCH  19  20
ATOM     20  C26 <0> d   1      19.043  -0.542  17.573  0.00  0.00     0.027 C 
BRANCH  20  21
ATOM     21  C27 <0> d   1      19.343   0.886  18.036  0.00  0.00     0.014 C 
BRANCH  21  22
ATOM     22  C28 <0> d   1      18.656   1.881  17.097  0.00  0.00     0.113 C 
BRANCH  22  23
ATOM     23  C29 <0> d   1      19.180   3.269  17.367  0.00  0.00     0.172 C 
ATOM     24  O30 <0> d   1      18.562   4.020  18.101  0.00  0.00    -0.648 OA
ATOM     25  O31 <0> d   1      20.221   3.638  16.851  0.00  0.00    -0.648 OA
ENDBRANCH  22  23
ENDBRANCH  21  22
ENDBRANCH  20  21
ENDBRANCH  19  20
ENDBRANCH  17  18
ENDBRANCH   5  17
BRANCH   2  26
ATOM     26  O16 <0> d   1      15.962  -0.016  11.804  0.00  0.00    -0.395 OA
ATOM     27  H51 <0> d   1      15.498   0.828  11.719  0.00  0.00     0.210 HD
ENDBRANCH   2  26
BRANCH   4  28
ATOM     28  O20 <0> d   1      19.974  -2.362  12.731  0.00  0.00    -0.395 OA
ATOM     29  H54 <0> d   1      20.487  -2.357  13.551  0.00  0.00     0.210 HD
ENDBRANCH   4  28
TORSDOF 17
ENDMDL
MODEL 6
REMARK VINA RESULT:      -6.7      1.970      2.576
REMARK  17 active torsions:
REMARK  status: ('A' for Active; 'I' for Inactive)
REMARK    1  A    between atoms: C2_2  and  C3_3 
REMARK    2  A    between atoms: C3_3  and  C4_4 
REMARK    3  A    between atoms: C4_4  and  C5_5 
REMARK    4  A    between atoms: C5_5  and  C6_6 
REMARK    5  A    between atoms: C6_6  and  C7_7 
REMARK    6  A    between atoms: C7_7  and  C8_8 
REMARK    7  A    between atoms: C8_8  and  C10_10 
REMARK    8  A    between atoms: C10_10  and  C11_11 
REMARK    9  A    between atoms: C11_11  and  C12_12 
REMARK   10  A    between atoms: C14_13  and  O16_14 
REMARK   11  A    between atoms: C18_16  and  O20_17 
REMARK   12  A    between atoms: C21_18  and  C23_19 
REMARK   13  A    between atoms: C23_19  and  C24_20 
REMARK   14  A    between atoms: C25_21  and  C26_22 
REMARK   15  A    between atoms: C26_22  and  C27_23 
REMARK   16  A    between atoms: C27_23  and  C28_24 
REMARK   17  A    between atoms: C28_24  and  C29_25 
ROOT
ATOM      1  C12 <0> d   1      19.306  -1.712  11.015  0.00  0.00     0.022 C 
ATOM      2  C14 <0> d   1      20.098  -0.578  10.332  0.00  0.00     0.125 C 
ATOM      3  C17 <0> d   1      19.381   0.716  10.791  0.00  0.00     0.064 C 
ATOM      4  C18 <0> d   1      17.889   0.299  10.788  0.00  0.00     0.125 C 
ATOM      5  C21 <0> d   1      17.902  -1.155  11.306  0.00  0.00     0.024 C 
ENDROOT
BRANCH   1   6
ATOM      6  C11 <0> d   1      19.207  -2.920  10.080  0.00  0.00     0.015 C 
BRANCH   6   7
ATOM      7  C10 <0> d   1      19.485  -4.201  10.870  0.00  0.00     0.079 C 
BRANCH   7   8
ATOM      8  C8  <0> d   1      18.190  -4.931  11.114  0.00  0.00     0.127 C 
ATOM      9  O9  <0> d   1      17.566  -4.732  12.129  0.00  0.00    -0.298 OA
BRANCH   8  10
ATOM     10  C7  <0> d   1      17.672  -5.908  10.090  0.00  0.00     0.078 C 
BRANCH  10  11
ATOM     11  C6  <0> d   1      16.523  -5.267   9.309  0.00  0.00     0.007 C 
BRANCH  11  12
ATOM     12  C5  <0> d   1      16.548  -5.770   7.863  0.00  0.00     0.000 C 
BRANCH  12  13
ATOM     13  C4  <0> d   1      17.996  -5.865   7.381  0.00  0.00     0.000 C 
BRANCH  13  14
ATOM     14  C3  <0> d   1      18.293  -4.706   6.425  0.00  0.00    -0.000 C 
BRANCH  14  15
ATOM     15  C2  <0> d   1      19.733  -4.233   6.630  0.00  0.00    -0.005 C 
ATOM     16  C1  <0> d   1      20.523  -5.313   7.372  0.00  0.00     0.005 C 
ENDBRANCH  14  15
ENDBRANCH  13  14
ENDBRANCH  12  13
ENDBRANCH  11  12
ENDBRANCH  10  11
ENDBRANCH   8  10
ENDBRANCH   7   8
ENDBRANCH   6   7
ENDBRANCH   1   6
BRANCH   5  17
ATOM     17  C23 <0> d   1      17.627  -1.178  12.811  0.00  0.00     0.034 C 
BRANCH  17  18
ATOM     18  C24 <0> d   1      18.850  -1.673  13.539  0.00  0.00    -0.030 C 
ATOM     19  C25 <0> d   1      19.183  -1.149  14.692  0.00  0.00    -0.031 C 
BRANCH  19  20
ATOM     20  C26 <0> d   1      18.256  -0.174  15.372  0.00  0.00     0.027 C 
BRANCH  20  21
ATOM     21  C27 <0> d   1      17.850  -0.727  16.740  0.00  0.00     0.014 C 
BRANCH  21  22
ATOM     22  C28 <0> d   1      19.006  -0.550  17.726  0.00  0.00     0.113 C 
BRANCH  22  23
ATOM     23  C29 <0> d   1      18.869   0.777  18.427  0.00  0.00     0.172 C 
ATOM     24  O30 <0> d   1      19.842   1.500  18.559  0.00  0.00    -0.648 OA
ATOM     25  O31 <0> d   1      17.786   1.127  18.863  0.00  0.00    -0.648 OA
ENDBRANCH  22  23
ENDBRANCH  21  22
ENDBRANCH  20  21
ENDBRANCH  19  20
ENDBRANCH  17  18
ENDBRANCH   5  17
BRANCH   2  26
ATOM     26  O16 <0> d   1      21.458  -0.583  10.773  0.00  0.00    -0.395 OA
ATOM     27  H51 <0> d   1      21.627  -1.174  11.518  0.00  0.00     0.210 HD
ENDBRANCH   2  26
BRANCH   4  28
ATOM     28  O20 <0> d   1      17.134   1.139  11.665  0.00  0.00    -0.395 OA
ATOM     29  H54 <0> d   1      17.586   1.957  11.910  0.00  0.00     0.210 HD
ENDBRANCH   4  28
TORSDOF 17
ENDMDL
MODEL 7
REMARK VINA RESULT:      -6.7      2.270      6.396
REMARK  17 active torsions:
REMARK  status: ('A' for Active; 'I' for Inactive)
REMARK    1  A    between atoms: C2_2  and  C3_3 
REMARK    2  A    between atoms: C3_3  and  C4_4 
REMARK    3  A    between atoms: C4_4  and  C5_5 
REMARK    4  A    between atoms: C5_5  and  C6_6 
REMARK    5  A    between atoms: C6_6  and  C7_7 
REMARK    6  A    between atoms: C7_7  and  C8_8 
REMARK    7  A    between atoms: C8_8  and  C10_10 
REMARK    8  A    between atoms: C10_10  and  C11_11 
REMARK    9  A    between atoms: C11_11  and  C12_12 
REMARK   10  A    between atoms: C14_13  and  O16_14 
REMARK   11  A    between atoms: C18_16  and  O20_17 
REMARK   12  A    between atoms: C21_18  and  C23_19 
REMARK   13  A    between atoms: C23_19  and  C24_20 
REMARK   14  A    between atoms: C25_21  and  C26_22 
REMARK   15  A    between atoms: C26_22  and  C27_23 
REMARK   16  A    between atoms: C27_23  and  C28_24 
REMARK   17  A    between atoms: C28_24  and  C29_25 
ROOT
ATOM      1  C12 <0> d   1      18.971   2.209  15.866  0.00  0.00     0.022 C 
ATOM      2  C14 <0> d   1      19.287   3.445  16.734  0.00  0.00     0.125 C 
ATOM      3  C17 <0> d   1      19.243   2.909  18.187  0.00  0.00     0.064 C 
ATOM      4  C18 <0> d   1      18.067   1.903  18.144  0.00  0.00     0.125 C 
ATOM      5  C21 <0> d   1      18.196   1.228  16.762  0.00  0.00     0.024 C 
ENDROOT
BRANCH   1   6
ATOM      6  C11 <0> d   1      18.111   2.617  14.668  0.00  0.00     0.015 C 
BRANCH   6   7
ATOM      7  C10 <0> d   1      18.948   2.539  13.389  0.00  0.00     0.079 C 
BRANCH   7   8
ATOM      8  C8  <0> d   1      18.917   3.871  12.686  0.00  0.00     0.127 C 
ATOM      9  O9  <0> d   1      19.538   4.805  13.135  0.00  0.00    -0.298 OA
BRANCH   8  10
ATOM     10  C7  <0> d   1      18.113   4.039  11.423  0.00  0.00     0.078 C 
BRANCH  10  11
ATOM     11  C6  <0> d   1      18.027   2.698  10.691  0.00  0.00     0.007 C 
BRANCH  11  12
ATOM     12  C5  <0> d   1      19.123   2.628   9.626  0.00  0.00     0.000 C 
BRANCH  12  13
ATOM     13  C4  <0> d   1      18.834   1.466   8.672  0.00  0.00     0.000 C 
BRANCH  13  14
ATOM     14  C3  <0> d   1      17.797   0.535   9.303  0.00  0.00    -0.000 C 
BRANCH  14  15
ATOM     15  C2  <0> d   1      17.265  -0.429   8.241  0.00  0.00    -0.005 C 
ATOM     16  C1  <0> d   1      17.676   0.066   6.852  0.00  0.00     0.005 C 
ENDBRANCH  14  15
ENDBRANCH  13  14
ENDBRANCH  12  13
ENDBRANCH  11  12
ENDBRANCH  10  11
ENDBRANCH   8  10
ENDBRANCH   7   8
ENDBRANCH   6   7
ENDBRANCH   1   6
BRANCH   5  17
ATOM     17  C23 <0> d   1      18.965  -0.089  16.890  0.00  0.00     0.034 C 
BRANCH  17  18
ATOM     18  C24 <0> d   1      18.127  -1.216  16.346  0.00  0.00    -0.030 C 
ATOM     19  C25 <0> d   1      18.347  -1.672  15.138  0.00  0.00    -0.031 C 
BRANCH  19  20
ATOM     20  C26 <0> d   1      19.542  -1.190  14.357  0.00  0.00     0.027 C 
BRANCH  20  21
ATOM     21  C27 <0> d   1      19.171  -1.081  12.876  0.00  0.00     0.014 C 
BRANCH  21  22
ATOM     22  C28 <0> d   1      18.562  -2.403  12.404  0.00  0.00     0.113 C 
BRANCH  22  23
ATOM     23  C29 <0> d   1      19.444  -3.012  11.343  0.00  0.00     0.172 C 
ATOM     24  O30 <0> d   1      19.266  -2.732  10.170  0.00  0.00    -0.648 OA
ATOM     25  O31 <0> d   1      20.333  -3.783  11.659  0.00  0.00    -0.648 OA
ENDBRANCH  22  23
ENDBRANCH  21  22
ENDBRANCH  20  21
ENDBRANCH  19  20
ENDBRANCH  17  18
ENDBRANCH   5  17
BRANCH   2  26
ATOM     26  O16 <0> d   1      20.587   3.954  16.425  0.00  0.00    -0.395 OA
ATOM     27  H51 <0> d   1      20.576   4.779  15.922  0.00  0.00     0.210 HD
ENDBRANCH   2  26
BRANCH   4  28
ATOM     28  O20 <0> d   1      18.198   0.936  19.189  0.00  0.00    -0.395 OA
ATOM     29  H54 <0> d   1      18.762   1.222  19.920  0.00  0.00     0.210 HD
ENDBRANCH   4  28
TORSDOF 17
ENDMDL
MODEL 8
REMARK VINA RESULT:      -6.7      2.334      8.401
REMARK  17 active torsions:
REMARK  status: ('A' for Active; 'I' for Inactive)
REMARK    1  A    between atoms: C2_2  and  C3_3 
REMARK    2  A    between atoms: C3_3  and  C4_4 
REMARK    3  A    between atoms: C4_4  and  C5_5 
REMARK    4  A    between atoms: C5_5  and  C6_6 
REMARK    5  A    between atoms: C6_6  and  C7_7 
REMARK    6  A    between atoms: C7_7  and  C8_8 
REMARK    7  A    between atoms: C8_8  and  C10_10 
REMARK    8  A    between atoms: C10_10  and  C11_11 
REMARK    9  A    between atoms: C11_11  and  C12_12 
REMARK   10  A    between atoms: C14_13  and  O16_14 
REMARK   11  A    between atoms: C18_16  and  O20_17 
REMARK   12  A    between atoms: C21_18  and  C23_19 
REMARK   13  A    between atoms: C23_19  and  C24_20 
REMARK   14  A    between atoms: C25_21  and  C26_22 
REMARK   15  A    between atoms: C26_22  and  C27_23 
REMARK   16  A    between atoms: C27_23  and  C28_24 
REMARK   17  A    between atoms: C28_24  and  C29_25 
ROOT
ATOM      1  C12 <0> d   1      19.620   0.415  11.702  0.00  0.00     0.022 C 
ATOM      2  C14 <0> d   1      20.378  -0.871  11.312  0.00  0.00     0.125 C 
ATOM      3  C17 <0> d   1      19.551  -1.458  10.140  0.00  0.00     0.064 C 
ATOM      4  C18 <0> d   1      18.092  -1.161  10.570  0.00  0.00     0.125 C 
ATOM      5  C21 <0> d   1      18.168   0.232  11.230  0.00  0.00     0.024 C 
ENDROOT
BRANCH   1   6
ATOM      6  C11 <0> d   1      19.659   0.605  13.220  0.00  0.00     0.015 C 
BRANCH   6   7
ATOM      7  C10 <0> d   1      19.413  -0.740  13.908  0.00  0.00     0.079 C 
BRANCH   7   8
ATOM      8  C8  <0> d   1      18.269  -0.605  14.879  0.00  0.00     0.127 C 
ATOM      9  O9  <0> d   1      17.419   0.234  14.697  0.00  0.00    -0.298 OA
BRANCH   8  10
ATOM     10  C7  <0> d   1      18.184  -1.517  16.075  0.00  0.00     0.078 C 
BRANCH  10  11
ATOM     11  C6  <0> d   1      19.125  -1.011  17.170  0.00  0.00     0.007 C 
BRANCH  11  12
ATOM     12  C5  <0> d   1      18.363  -0.065  18.101  0.00  0.00     0.000 C 
BRANCH  12  13
ATOM     13  C4  <0> d   1      19.237   1.149  18.421  0.00  0.00     0.000 C 
BRANCH  13  14
ATOM     14  C3  <0> d   1      18.470   2.432  18.092  0.00  0.00    -0.000 C 
BRANCH  14  15
ATOM     15  C2  <0> d   1      19.337   3.333  17.211  0.00  0.00    -0.005 C 
ATOM     16  C1  <0> d   1      18.934   3.153  15.746  0.00  0.00     0.005 C 
ENDBRANCH  14  15
ENDBRANCH  13  14
ENDBRANCH  12  13
ENDBRANCH  11  12
ENDBRANCH  10  11
ENDBRANCH   8  10
ENDBRANCH   7   8
ENDBRANCH   6   7
ENDBRANCH   1   6
BRANCH   5  17
ATOM     17  C23 <0> d   1      17.804   1.315  10.212  0.00  0.00     0.034 C 
BRANCH  17  18
ATOM     18  C24 <0> d   1      19.059   1.998   9.733  0.00  0.00    -0.030 C 
ATOM     19  C25 <0> d   1      19.395   1.937   8.469  0.00  0.00    -0.031 C 
BRANCH  19  20
ATOM     20  C26 <0> d   1      18.448   1.332   7.465  0.00  0.00     0.027 C 
BRANCH  20  21
ATOM     21  C27 <0> d   1      19.202   1.036   6.167  0.00  0.00     0.014 C 
BRANCH  21  22
ATOM     22  C28 <0> d   1      18.444  -0.026   5.367  0.00  0.00     0.113 C 
BRANCH  22  23
ATOM     23  C29 <0> d   1      19.232  -1.312   5.367  0.00  0.00     0.172 C 
ATOM     24  O30 <0> d   1      19.406  -1.919   6.410  0.00  0.00    -0.648 OA
ATOM     25  O31 <0> d   1      19.693  -1.743   4.325  0.00  0.00    -0.648 OA
ENDBRANCH  22  23
ENDBRANCH  21  22
ENDBRANCH  20  21
ENDBRANCH  19  20
ENDBRANCH  17  18
ENDBRANCH   5  17
BRANCH   2  26
ATOM     26  O16 <0> d   1      21.705  -0.560  10.884  0.00  0.00    -0.395 OA
ATOM     27  H51 <0> d   1      22.181   0.033  11.480  0.00  0.00     0.210 HD
ENDBRANCH   2  26
BRANCH   4  28
ATOM     28  O20 <0> d   1      17.232  -1.131   9.429  0.00  0.00    -0.395 OA
ATOM     29  H54 <0> d   1      17.449  -1.790   8.755  0.00  0.00     0.210 HD
ENDBRANCH   4  28
TORSDOF 17
ENDMDL
MODEL 9
REMARK VINA RESULT:      -6.7      2.789      6.588
REMARK  17 active torsions:
REMARK  status: ('A' for Active; 'I' for Inactive)
REMARK    1  A    between atoms: C2_2  and  C3_3 
REMARK    2  A    between atoms: C3_3  and  C4_4 
REMARK    3  A    between atoms: C4_4  and  C5_5 
REMARK    4  A    between atoms: C5_5  and  C6_6 
REMARK    5  A    between atoms: C6_6  and  C7_7 
REMARK    6  A    between atoms: C7_7  and  C8_8 
REMARK    7  A    between atoms: C8_8  and  C10_10 
REMARK    8  A    between atoms: C10_10  and  C11_11 
REMARK    9  A    between atoms: C11_11  and  C12_12 
REMARK   10  A    between atoms: C14_13  and  O16_14 
REMARK   11  A    between atoms: C18_16  and  O20_17 
REMARK   12  A    between atoms: C21_18  and  C23_19 
REMARK   13  A    between atoms: C23_19  and  C24_20 
REMARK   14  A    between atoms: C25_21  and  C26_22 
REMARK   15  A    between atoms: C26_22  and  C27_23 
REMARK   16  A    between atoms: C27_23  and  C28_24 
REMARK   17  A    between atoms: C28_24  and  C29_25 
ROOT
ATOM      1  C12 <0> d   1      18.172   1.093  11.234  0.00  0.00     0.022 C 
ATOM      2  C14 <0> d   1      17.172  -0.002  10.806  0.00  0.00     0.125 C 
ATOM      3  C17 <0> d   1      17.856  -1.326  11.228  0.00  0.00     0.064 C 
ATOM      4  C18 <0> d   1      19.348  -1.055  10.913  0.00  0.00     0.125 C 
ATOM      5  C21 <0> d   1      19.555   0.423  11.303  0.00  0.00     0.024 C 
ENDROOT
BRANCH   1   6
ATOM      6  C11 <0> d   1      18.186   2.222  10.201  0.00  0.00     0.015 C 
BRANCH   6   7
ATOM      7  C10 <0> d   1      18.705   3.505  10.855  0.00  0.00     0.079 C 
BRANCH   7   8
ATOM      8  C8  <0> d   1      17.663   4.587  10.733  0.00  0.00     0.127 C 
ATOM      9  O9  <0> d   1      17.492   5.143   9.674  0.00  0.00    -0.298 OA
BRANCH   8  10
ATOM     10  C7  <0> d   1      16.834   4.973  11.930  0.00  0.00     0.078 C 
BRANCH  10  11
ATOM     11  C6  <0> d   1      17.447   4.365  13.193  0.00  0.00     0.007 C 
BRANCH  11  12
ATOM     12  C5  <0> d   1      16.903   5.092  14.425  0.00  0.00     0.000 C 
BRANCH  12  13
ATOM     13  C4  <0> d   1      18.055   5.407  15.381  0.00  0.00     0.000 C 
BRANCH  13  14
ATOM     14  C3  <0> d   1      19.221   4.454  15.107  0.00  0.00    -0.000 C 
BRANCH  14  15
ATOM     15  C2  <0> d   1      19.560   3.684  16.385  0.00  0.00    -0.005 C 
ATOM     16  C1  <0> d   1      18.539   4.027  17.472  0.00  0.00     0.005 C 
ENDBRANCH  14  15
ENDBRANCH  13  14
ENDBRANCH  12  13
ENDBRANCH  11  12
ENDBRANCH  10  11
ENDBRANCH   8  10
ENDBRANCH   7   8
ENDBRANCH   6   7
ENDBRANCH   1   6
BRANCH   5  17
ATOM     17  C23 <0> d   1      20.116   0.518  12.723  0.00  0.00     0.034 C 
BRANCH  17  18
ATOM     18  C24 <0> d   1      19.076   1.114  13.637  0.00  0.00    -0.030 C 
ATOM     19  C25 <0> d   1      18.580   0.402  14.617  0.00  0.00    -0.031 C 
BRANCH  19  20
ATOM     20  C26 <0> d   1      19.166  -0.950  14.938  0.00  0.00     0.027 C 
BRANCH  20  21
ATOM     21  C27 <0> d   1      19.055  -1.208  16.443  0.00  0.00     0.014 C 
BRANCH  21  22
ATOM     22  C28 <0> d   1      18.057  -0.224  17.056  0.00  0.00     0.113 C 
BRANCH  22  23
ATOM     23  C29 <0> d   1      18.675   0.428  18.268  0.00  0.00     0.172 C 
ATOM     24  O30 <0> d   1      17.963   0.830  19.172  0.00  0.00    -0.648 OA
ATOM     25  O31 <0> d   1      19.885   0.551  18.342  0.00  0.00    -0.648 OA
ENDBRANCH  22  23
ENDBRANCH  21  22
ENDBRANCH  20  21
ENDBRANCH  19  20
ENDBRANCH  17  18
ENDBRANCH   5  17
BRANCH   2  26
ATOM     26  O16 <0> d   1      15.928   0.161  11.490  0.00  0.00    -0.395 OA
ATOM     27  H51 <0> d   1      15.389   0.891  11.157  0.00  0.00     0.210 HD
ENDBRANCH   2  26
BRANCH   4  28
ATOM     28  O20 <0> d   1      20.187  -1.905  11.700  0.00  0.00    -0.395 OA
ATOM     29  H54 <0> d   1      20.160  -2.835  11.439  0.00  0.00     0.210 HD
ENDBRANCH   4  28
TORSDOF 17
ENDMDL
