MODEL 1
REMARK VINA RESULT:      -9.3      0.000      0.000
REMARK  3 active torsions:
REMARK  status: ('A' for Active; 'I' for Inactive)
REMARK    1  A    between atoms: C2_2  and  O4_4 
REMARK    2  A    between atoms: O4_4  and  C5_5 
REMARK    3  A    between atoms: C5_5  and  C6_6 
ROOT
ATOM      1  C5  ZIN A   1      18.410   2.713  11.143  0.00  0.00     0.138 C 
ATOM      2  C9  ZIN A   1      18.934   3.019   9.718  0.00  0.00     0.048 C 
ATOM      3  C10 ZIN A   1      19.211   1.645   9.049  0.00  0.00     0.009 C 
ATOM      4  C11 ZIN A   1      18.293   0.694   9.824  0.00  0.00     0.005 C 
ATOM      5  C13 ZIN A   1      18.677  -0.773   9.791  0.00  0.00     0.018 C 
ATOM      6  C15 ZIN A   1      18.616  -1.309   8.388  0.00  0.00    -0.021 C 
ATOM      7  C16 ZIN A   1      18.303  -2.580   8.144  0.00  0.00     0.004 C 
ATOM      8  C17 ZIN A   1      17.999  -3.507   9.233  0.00  0.00    -0.046 C 
ATOM      9  C18 ZIN A   1      17.694  -4.797   8.956  0.00  0.00     0.058 C 
ATOM     10  C19 ZIN A   1      17.377  -5.716   9.968  0.00  0.00     0.149 C 
ATOM     11  O20 ZIN A   1      17.123  -6.868   9.678  0.00  0.00    -0.293 OA
ATOM     12  C21 ZIN A   1      17.348  -5.289  11.414  0.00  0.00     0.084 C 
ATOM     13  C22 ZIN A   1      17.004  -3.798  11.488  0.00  0.00     0.022 C 
ATOM     14  C23 ZIN A   1      18.026  -3.015  10.659  0.00  0.00    -0.012 C 
ATOM     15  C24 ZIN A   1      19.425  -3.219  11.244  0.00  0.00     0.021 C 
ATOM     16  C25 ZIN A   1      17.678  -1.525  10.683  0.00  0.00     0.006 C 
ATOM     17  C27 ZIN A   1      17.702  -1.001  12.114  0.00  0.00     0.007 C 
ATOM     18  C28 ZIN A   1      17.455   0.517  12.155  0.00  0.00     0.013 C 
ATOM     19  C29 ZIN A   1      18.482   1.196  11.282  0.00  0.00    -0.001 C 
ATOM     20  C30 ZIN A   1      19.888   0.787  11.726  0.00  0.00     0.019 C 
ENDROOT
BRANCH   1  21
ATOM     21  O4  ZIN A   1      17.037   3.165  11.282  0.00  0.00    -0.302 OA
BRANCH  21  22
ATOM     22  C2  ZIN A   1      16.813   4.482  11.152  0.00  0.00     0.256 C 
ATOM     23  C1  ZIN A   1      16.353   5.288  12.340  0.00  0.00     0.126 C 
ATOM     24  O3  ZIN A   1      16.979   5.021  10.084  0.00  0.00    -0.266 OA
ENDBRANCH  21  22
ENDBRANCH   1  21
BRANCH   1  25
ATOM     25  C6  ZIN A   1      19.283   3.374  12.177  0.00  0.00     0.158 C 
ATOM     26  C7  ZIN A   1      18.940   3.259  13.640  0.00  0.00     0.094 C 
ATOM     27  O8  ZIN A   1      20.259   3.998  11.834  0.00  0.00    -0.295 OA
ENDBRANCH   1  25
TORSDOF 3
ENDMDL
MODEL 2
REMARK VINA RESULT:      -8.5      1.533      7.766
REMARK  3 active torsions:
REMARK  status: ('A' for Active; 'I' for Inactive)
REMARK    1  A    between atoms: C2_2  and  O4_4 
REMARK    2  A    between atoms: O4_4  and  C5_5 
REMARK    3  A    between atoms: C5_5  and  C6_6 
ROOT
ATOM      1  C5  ZIN A   1      17.825  -5.138   8.831  0.00  0.00     0.138 C 
ATOM      2  C9  ZIN A   1      17.437  -5.699  10.222  0.00  0.00     0.048 C 
ATOM      3  C10 ZIN A   1      17.590  -4.523  11.226  0.00  0.00     0.009 C 
ATOM      4  C11 ZIN A   1      17.441  -3.287  10.332  0.00  0.00     0.005 C 
ATOM      5  C13 ZIN A   1      18.038  -2.002  10.873  0.00  0.00     0.018 C 
ATOM      6  C15 ZIN A   1      17.352  -1.588  12.145  0.00  0.00    -0.021 C 
ATOM      7  C16 ZIN A   1      17.224  -0.305  12.478  0.00  0.00     0.004 C 
ATOM      8  C17 ZIN A   1      17.741   0.756  11.616  0.00  0.00    -0.046 C 
ATOM      9  C18 ZIN A   1      17.607   2.052  11.986  0.00  0.00     0.058 C 
ATOM     10  C19 ZIN A   1      18.071   3.103  11.180  0.00  0.00     0.149 C 
ATOM     11  O20 ZIN A   1      17.943   4.251  11.555  0.00  0.00    -0.293 OA
ATOM     12  C21 ZIN A   1      18.728   2.823   9.852  0.00  0.00     0.084 C 
ATOM     13  C22 ZIN A   1      18.180   1.506   9.291  0.00  0.00     0.022 C 
ATOM     14  C23 ZIN A   1      18.421   0.396  10.317  0.00  0.00    -0.012 C 
ATOM     15  C24 ZIN A   1      19.924   0.233  10.554  0.00  0.00     0.021 C 
ATOM     16  C25 ZIN A   1      17.843  -0.922   9.798  0.00  0.00     0.006 C 
ATOM     17  C27 ZIN A   1      18.516  -1.312   8.487  0.00  0.00     0.007 C 
ATOM     18  C28 ZIN A   1      18.025  -2.684   7.996  0.00  0.00     0.013 C 
ATOM     19  C29 ZIN A   1      18.268  -3.701   9.085  0.00  0.00    -0.001 C 
ATOM     20  C30 ZIN A   1      19.744  -3.682   9.489  0.00  0.00     0.019 C 
ENDROOT
BRANCH   1  21
ATOM     21  O4  ZIN A   1      16.677  -5.160   7.942  0.00  0.00    -0.302 OA
BRANCH  21  22
ATOM     22  C2  ZIN A   1      15.718  -6.061   8.208  0.00  0.00     0.256 C 
ATOM     23  C1  ZIN A   1      15.909  -7.503   7.814  0.00  0.00     0.126 C 
ATOM     24  O3  ZIN A   1      14.702  -5.716   8.763  0.00  0.00    -0.266 OA
ENDBRANCH  21  22
ENDBRANCH   1  21
BRANCH   1  25
ATOM     25  C6  ZIN A   1      18.958  -5.937   8.241  0.00  0.00     0.158 C 
ATOM     26  C7  ZIN A   1      19.292  -5.804   6.777  0.00  0.00     0.094 C 
ATOM     27  O8  ZIN A   1      19.598  -6.685   8.940  0.00  0.00    -0.295 OA
ENDBRANCH   1  25
TORSDOF 3
ENDMDL
MODEL 3
REMARK VINA RESULT:      -8.4      1.862      2.899
REMARK  3 active torsions:
REMARK  status: ('A' for Active; 'I' for Inactive)
REMARK    1  A    between atoms: C2_2  and  O4_4 
REMARK    2  A    between atoms: O4_4  and  C5_5 
REMARK    3  A    between atoms: C5_5  and  C6_6 
ROOT
ATOM      1  C5  ZIN A   1      18.894  -0.115  11.918  0.00  0.00     0.138 C 
ATOM      2  C9  ZIN A   1      19.763   0.619  10.866  0.00  0.00     0.048 C 
ATOM      3  C10 ZIN A   1      19.962  -0.377   9.690  0.00  0.00     0.009 C 
ATOM      4  C11 ZIN A   1      18.758  -1.314   9.827  0.00  0.00     0.005 C 
ATOM      5  C13 ZIN A   1      18.906  -2.681   9.185  0.00  0.00     0.018 C 
ATOM      6  C15 ZIN A   1      19.073  -2.556   7.696  0.00  0.00    -0.021 C 
ATOM      7  C16 ZIN A   1      18.626  -3.497   6.867  0.00  0.00     0.004 C 
ATOM      8  C17 ZIN A   1      17.948  -4.689   7.370  0.00  0.00    -0.046 C 
ATOM      9  C18 ZIN A   1      17.514  -5.635   6.504  0.00  0.00     0.058 C 
ATOM     10  C19 ZIN A   1      16.840  -6.786   6.942  0.00  0.00     0.149 C 
ATOM     11  O20 ZIN A   1      16.480  -7.618   6.133  0.00  0.00    -0.293 OA
ATOM     12  C21 ZIN A   1      16.560  -7.003   8.407  0.00  0.00     0.084 C 
ATOM     13  C22 ZIN A   1      16.446  -5.642   9.101  0.00  0.00     0.022 C 
ATOM     14  C23 ZIN A   1      17.735  -4.855   8.855  0.00  0.00    -0.012 C 
ATOM     15  C24 ZIN A   1      18.920  -5.609   9.461  0.00  0.00     0.021 C 
ATOM     16  C25 ZIN A   1      17.628  -3.473   9.504  0.00  0.00     0.006 C 
ATOM     17  C27 ZIN A   1      17.417  -3.611  11.007  0.00  0.00     0.007 C 
ATOM     18  C28 ZIN A   1      17.408  -2.236  11.696  0.00  0.00     0.013 C 
ATOM     19  C29 ZIN A   1      18.696  -1.522  11.365  0.00  0.00    -0.001 C 
ATOM     20  C30 ZIN A   1      19.887  -2.400  11.755  0.00  0.00     0.019 C 
ENDROOT
BRANCH   1  21
ATOM     21  O4  ZIN A   1      17.613   0.552  12.066  0.00  0.00    -0.302 OA
BRANCH  21  22
ATOM     22  C2  ZIN A   1      17.589   1.878  11.858  0.00  0.00     0.256 C 
ATOM     23  C1  ZIN A   1      17.985   2.821  12.965  0.00  0.00     0.126 C 
ATOM     24  O3  ZIN A   1      17.248   2.315  10.784  0.00  0.00    -0.266 OA
ENDBRANCH  21  22
ENDBRANCH   1  21
BRANCH   1  25
ATOM     25  C6  ZIN A   1      19.611  -0.170  13.242  0.00  0.00     0.158 C 
ATOM     26  C7  ZIN A   1      18.924  -0.762  14.447  0.00  0.00     0.094 C 
ATOM     27  O8  ZIN A   1      20.735   0.260  13.340  0.00  0.00    -0.295 OA
ENDBRANCH   1  25
TORSDOF 3
ENDMDL
MODEL 4
REMARK VINA RESULT:      -8.1      1.784      7.378
REMARK  3 active torsions:
REMARK  status: ('A' for Active; 'I' for Inactive)
REMARK    1  A    between atoms: C2_2  and  O4_4 
REMARK    2  A    between atoms: O4_4  and  C5_5 
REMARK    3  A    between atoms: C5_5  and  C6_6 
ROOT
ATOM      1  C5  ZIN A   1      18.398  -3.315   9.348  0.00  0.00     0.138 C 
ATOM      2  C9  ZIN A   1      19.312  -3.955  10.423  0.00  0.00     0.048 C 
ATOM      3  C10 ZIN A   1      19.849  -2.786  11.294  0.00  0.00     0.009 C 
ATOM      4  C11 ZIN A   1      18.790  -1.696  11.095  0.00  0.00     0.005 C 
ATOM      5  C13 ZIN A   1      19.243  -0.274  11.370  0.00  0.00     0.018 C 
ATOM      6  C15 ZIN A   1      19.636  -0.109  12.812  0.00  0.00    -0.021 C 
ATOM      7  C16 ZIN A   1      19.477   1.052  13.445  0.00  0.00     0.004 C 
ATOM      8  C17 ZIN A   1      18.907   2.213  12.765  0.00  0.00    -0.046 C 
ATOM      9  C18 ZIN A   1      18.768   3.384  13.431  0.00  0.00     0.058 C 
ATOM     10  C19 ZIN A   1      18.209   4.519  12.824  0.00  0.00     0.149 C 
ATOM     11  O20 ZIN A   1      18.115   5.554  13.452  0.00  0.00    -0.293 OA
ATOM     12  C21 ZIN A   1      17.723   4.467  11.398  0.00  0.00     0.084 C 
ATOM     13  C22 ZIN A   1      17.295   3.034  11.067  0.00  0.00     0.022 C 
ATOM     14  C23 ZIN A   1      18.477   2.096  11.324  0.00  0.00    -0.012 C 
ATOM     15  C24 ZIN A   1      19.643   2.477  10.409  0.00  0.00     0.021 C 
ATOM     16  C25 ZIN A   1      18.061   0.651  11.041  0.00  0.00     0.006 C 
ATOM     17  C27 ZIN A   1      17.625   0.503   9.588  0.00  0.00     0.007 C 
ATOM     18  C28 ZIN A   1      17.299  -0.962   9.251  0.00  0.00     0.013 C 
ATOM     19  C29 ZIN A   1      18.504  -1.811   9.573  0.00  0.00    -0.001 C 
ATOM     20  C30 ZIN A   1      19.730  -1.267   8.836  0.00  0.00     0.019 C 
ENDROOT
BRANCH   1  21
ATOM     21  O4  ZIN A   1      17.026  -3.755   9.529  0.00  0.00    -0.302 OA
BRANCH  21  22
ATOM     22  C2  ZIN A   1      16.817  -4.760  10.394  0.00  0.00     0.256 C 
ATOM     23  C1  ZIN A   1      17.085  -6.182   9.974  0.00  0.00     0.126 C 
ATOM     24  O3  ZIN A   1      16.413  -4.524  11.508  0.00  0.00    -0.266 OA
ENDBRANCH  21  22
ENDBRANCH   1  21
BRANCH   1  25
ATOM     25  C6  ZIN A   1      18.884  -3.673   7.968  0.00  0.00     0.158 C 
ATOM     26  C7  ZIN A   1      19.983  -4.690   7.795  0.00  0.00     0.094 C 
ATOM     27  O8  ZIN A   1      18.393  -3.145   6.999  0.00  0.00    -0.295 OA
ENDBRANCH   1  25
TORSDOF 3
ENDMDL
MODEL 5
REMARK VINA RESULT:      -7.9      1.562      2.012
REMARK  3 active torsions:
REMARK  status: ('A' for Active; 'I' for Inactive)
REMARK    1  A    between atoms: C2_2  and  O4_4 
REMARK    2  A    between atoms: O4_4  and  C5_5 
REMARK    3  A    between atoms: C5_5  and  C6_6 
ROOT
ATOM      1  C5  ZIN A   1      18.806   1.808  10.491  0.00  0.00     0.138 C 
ATOM      2  C9  ZIN A   1      19.447   2.447   9.233  0.00  0.00     0.048 C 
ATOM      3  C10 ZIN A   1      19.703   1.284   8.234  0.00  0.00     0.009 C 
ATOM      4  C11 ZIN A   1      18.685   0.225   8.672  0.00  0.00     0.005 C 
ATOM      5  C13 ZIN A   1      18.998  -1.202   8.265  0.00  0.00     0.018 C 
ATOM      6  C15 ZIN A   1      19.012  -1.340   6.768  0.00  0.00    -0.021 C 
ATOM      7  C16 ZIN A   1      18.654  -2.477   6.174  0.00  0.00     0.004 C 
ATOM      8  C17 ZIN A   1      18.227  -3.637   6.953  0.00  0.00    -0.046 C 
ATOM      9  C18 ZIN A   1      17.880  -4.784   6.321  0.00  0.00     0.058 C 
ATOM     10  C19 ZIN A   1      17.446  -5.916   7.029  0.00  0.00     0.149 C 
ATOM     11  O20 ZIN A   1      17.157  -6.929   6.425  0.00  0.00    -0.293 OA
ATOM     12  C21 ZIN A   1      17.334  -5.888   8.532  0.00  0.00     0.084 C 
ATOM     13  C22 ZIN A   1      17.060  -4.450   8.986  0.00  0.00     0.022 C 
ATOM     14  C23 ZIN A   1      18.176  -3.546   8.458  0.00  0.00    -0.012 C 
ATOM     15  C24 ZIN A   1      19.517  -3.991   9.044  0.00  0.00     0.021 C 
ATOM     16  C25 ZIN A   1      17.901  -2.096   8.863  0.00  0.00     0.006 C 
ATOM     17  C27 ZIN A   1      17.848  -1.974  10.382  0.00  0.00     0.007 C 
ATOM     18  C28 ZIN A   1      17.674  -0.509  10.817  0.00  0.00     0.013 C 
ATOM     19  C29 ZIN A   1      18.793   0.307  10.219  0.00  0.00    -0.001 C 
ATOM     20  C30 ZIN A   1      20.142  -0.298  10.615  0.00  0.00     0.019 C 
ENDROOT
BRANCH   1  21
ATOM     21  O4  ZIN A   1      17.451   2.298  10.668  0.00  0.00    -0.302 OA
BRANCH  21  22
ATOM     22  C2  ZIN A   1      17.306   3.602  10.952  0.00  0.00     0.256 C 
ATOM     23  C1  ZIN A   1      17.586   4.638   9.894  0.00  0.00     0.126 C 
ATOM     24  O3  ZIN A   1      16.953   3.945  12.055  0.00  0.00    -0.266 OA
ENDBRANCH  21  22
ENDBRANCH   1  21
BRANCH   1  25
ATOM     25  C6  ZIN A   1      19.635   2.111  11.712  0.00  0.00     0.158 C 
ATOM     26  C7  ZIN A   1      19.308   1.451  13.027  0.00  0.00     0.094 C 
ATOM     27  O8  ZIN A   1      20.561   2.882  11.638  0.00  0.00    -0.295 OA
ENDBRANCH   1  25
TORSDOF 3
ENDMDL
MODEL 6
REMARK VINA RESULT:      -7.8      1.596      7.524
REMARK  3 active torsions:
REMARK  status: ('A' for Active; 'I' for Inactive)
REMARK    1  A    between atoms: C2_2  and  O4_4 
REMARK    2  A    between atoms: O4_4  and  C5_5 
REMARK    3  A    between atoms: C5_5  and  C6_6 
ROOT
ATOM      1  C5  ZIN A   1      18.639  -4.363   9.770  0.00  0.00     0.138 C 
ATOM      2  C9  ZIN A   1      18.138  -4.040   8.340  0.00  0.00     0.048 C 
ATOM      3  C10 ZIN A   1      17.791  -2.525   8.329  0.00  0.00     0.009 C 
ATOM      4  C11 ZIN A   1      18.652  -1.967   9.467  0.00  0.00     0.005 C 
ATOM      5  C13 ZIN A   1      18.189  -0.653  10.066  0.00  0.00     0.018 C 
ATOM      6  C15 ZIN A   1      18.228   0.444   9.039  0.00  0.00    -0.021 C 
ATOM      7  C16 ZIN A   1      18.473   1.707   9.383  0.00  0.00     0.004 C 
ATOM      8  C17 ZIN A   1      18.722   2.079  10.774  0.00  0.00    -0.046 C 
ATOM      9  C18 ZIN A   1      18.957   3.373  11.096  0.00  0.00     0.058 C 
ATOM     10  C19 ZIN A   1      19.220   3.771  12.416  0.00  0.00     0.149 C 
ATOM     11  O20 ZIN A   1      19.412   4.944  12.664  0.00  0.00    -0.293 OA
ATOM     12  C21 ZIN A   1      19.265   2.758  13.531  0.00  0.00     0.084 C 
ATOM     13  C22 ZIN A   1      19.689   1.401  12.957  0.00  0.00     0.022 C 
ATOM     14  C23 ZIN A   1      18.715   1.013  11.842  0.00  0.00    -0.012 C 
ATOM     15  C24 ZIN A   1      17.304   0.875  12.418  0.00  0.00     0.021 C 
ATOM     16  C25 ZIN A   1      19.143  -0.320  11.224  0.00  0.00     0.006 C 
ATOM     17  C27 ZIN A   1      19.140  -1.417  12.281  0.00  0.00     0.007 C 
ATOM     18  C28 ZIN A   1      19.468  -2.787  11.664  0.00  0.00     0.013 C 
ATOM     19  C29 ZIN A   1      18.484  -3.064  10.554  0.00  0.00    -0.001 C 
ATOM     20  C30 ZIN A   1      17.056  -2.956  11.093  0.00  0.00     0.019 C 
ENDROOT
BRANCH   1  21
ATOM     21  O4  ZIN A   1      20.034  -4.765   9.736  0.00  0.00    -0.302 OA
BRANCH  21  22
ATOM     22  C2  ZIN A   1      20.370  -5.723   8.857  0.00  0.00     0.256 C 
ATOM     23  C1  ZIN A   1      20.795  -5.349   7.461  0.00  0.00     0.126 C 
ATOM     24  O3  ZIN A   1      20.331  -6.885   9.187  0.00  0.00    -0.266 OA
ENDBRANCH  21  22
ENDBRANCH   1  21
BRANCH   1  25
ATOM     25  C6  ZIN A   1      17.797  -5.449  10.387  0.00  0.00     0.158 C 
ATOM     26  C7  ZIN A   1      16.733  -6.135   9.569  0.00  0.00     0.094 C 
ATOM     27  O8  ZIN A   1      17.974  -5.770  11.538  0.00  0.00    -0.295 OA
ENDBRANCH   1  25
TORSDOF 3
ENDMDL
MODEL 7
REMARK VINA RESULT:      -7.8      2.780      7.941
REMARK  3 active torsions:
REMARK  status: ('A' for Active; 'I' for Inactive)
REMARK    1  A    between atoms: C2_2  and  O4_4 
REMARK    2  A    between atoms: O4_4  and  C5_5 
REMARK    3  A    between atoms: C5_5  and  C6_6 
ROOT
ATOM      1  C5  ZIN A   1      18.916   0.174  10.995  0.00  0.00     0.138 C 
ATOM      2  C9  ZIN A   1      19.694  -0.668  12.038  0.00  0.00     0.048 C 
ATOM      3  C10 ZIN A   1      19.898   0.248  13.276  0.00  0.00     0.009 C 
ATOM      4  C11 ZIN A   1      18.757   1.262  13.145  0.00  0.00     0.005 C 
ATOM      5  C13 ZIN A   1      18.955   2.579  13.870  0.00  0.00     0.018 C 
ATOM      6  C15 ZIN A   1      19.049   2.362  15.355  0.00  0.00    -0.021 C 
ATOM      7  C16 ZIN A   1      18.621   3.282  16.218  0.00  0.00     0.004 C 
ATOM      8  C17 ZIN A   1      18.035   4.539  15.757  0.00  0.00    -0.046 C 
ATOM      9  C18 ZIN A   1      17.618   5.459  16.658  0.00  0.00     0.058 C 
ATOM     10  C19 ZIN A   1      17.032   6.671  16.261  0.00  0.00     0.149 C 
ATOM     11  O20 ZIN A   1      16.685   7.477  17.101  0.00  0.00    -0.293 OA
ATOM     12  C21 ZIN A   1      16.829   6.985  14.801  0.00  0.00     0.084 C 
ATOM     13  C22 ZIN A   1      16.668   5.674  14.025  0.00  0.00     0.022 C 
ATOM     14  C23 ZIN A   1      17.898   4.798  14.277  0.00  0.00    -0.012 C 
ATOM     15  C24 ZIN A   1      19.150   5.513  13.765  0.00  0.00     0.021 C 
ATOM     16  C25 ZIN A   1      17.740   3.463  13.546  0.00  0.00     0.006 C 
ATOM     17  C27 ZIN A   1      17.604   3.696  12.046  0.00  0.00     0.007 C 
ATOM     18  C28 ZIN A   1      17.546   2.365  11.279  0.00  0.00     0.013 C 
ATOM     19  C29 ZIN A   1      18.775   1.558  11.620  0.00  0.00    -0.001 C 
ATOM     20  C30 ZIN A   1      20.031   2.383  11.331  0.00  0.00     0.019 C 
ENDROOT
BRANCH   1  21
ATOM     21  O4  ZIN A   1      17.607  -0.405  10.757  0.00  0.00    -0.302 OA
BRANCH  21  22
ATOM     22  C2  ZIN A   1      17.499  -1.739  10.875  0.00  0.00     0.256 C 
ATOM     23  C1  ZIN A   1      17.949  -2.633   9.749  0.00  0.00     0.126 C 
ATOM     24  O3  ZIN A   1      17.042  -2.220  11.885  0.00  0.00    -0.266 OA
ENDBRANCH  21  22
ENDBRANCH   1  21
BRANCH   1  25
ATOM     25  C6  ZIN A   1      19.692   0.259   9.707  0.00  0.00     0.158 C 
ATOM     26  C7  ZIN A   1      19.100   0.970   8.516  0.00  0.00     0.094 C 
ATOM     27  O8  ZIN A   1      20.788  -0.241   9.627  0.00  0.00    -0.295 OA
ENDBRANCH   1  25
TORSDOF 3
ENDMDL
MODEL 8
REMARK VINA RESULT:      -7.7      2.482      3.643
REMARK  3 active torsions:
REMARK  status: ('A' for Active; 'I' for Inactive)
REMARK    1  A    between atoms: C2_2  and  O4_4 
REMARK    2  A    between atoms: O4_4  and  C5_5 
REMARK    3  A    between atoms: C5_5  and  C6_6 
ROOT
ATOM      1  C5  ZIN A   1      18.419   3.573  14.149  0.00  0.00     0.138 C 
ATOM      2  C9  ZIN A   1      19.138   4.771  13.481  0.00  0.00     0.048 C 
ATOM      3  C10 ZIN A   1      19.624   4.272  12.092  0.00  0.00     0.009 C 
ATOM      4  C11 ZIN A   1      18.671   3.109  11.793  0.00  0.00     0.005 C 
ATOM      5  C13 ZIN A   1      19.170   2.085  10.791  0.00  0.00     0.018 C 
ATOM      6  C15 ZIN A   1      19.374   2.715   9.441  0.00  0.00    -0.021 C 
ATOM      7  C16 ZIN A   1      19.204   2.019   8.318  0.00  0.00     0.004 C 
ATOM      8  C17 ZIN A   1      18.804   0.614   8.352  0.00  0.00    -0.046 C 
ATOM      9  C18 ZIN A   1      18.650  -0.072   7.195  0.00  0.00     0.058 C 
ATOM     10  C19 ZIN A   1      18.248  -1.417   7.180  0.00  0.00     0.149 C 
ATOM     11  O20 ZIN A   1      18.135  -1.999   6.120  0.00  0.00    -0.293 OA
ATOM     12  C21 ZIN A   1      17.957  -2.147   8.465  0.00  0.00     0.084 C 
ATOM     13  C22 ZIN A   1      17.490  -1.138   9.519  0.00  0.00     0.022 C 
ATOM     14  C23 ZIN A   1      18.566  -0.061   9.680  0.00  0.00    -0.012 C 
ATOM     15  C24 ZIN A   1      19.866  -0.704  10.169  0.00  0.00     0.021 C 
ATOM     16  C25 ZIN A   1      18.103   0.984  10.698  0.00  0.00     0.006 C 
ATOM     17  C27 ZIN A   1      17.859   0.328  12.053  0.00  0.00     0.007 C 
ATOM     18  C28 ZIN A   1      17.490   1.374  13.118  0.00  0.00     0.013 C 
ATOM     19  C29 ZIN A   1      18.587   2.410  13.176  0.00  0.00    -0.001 C 
ATOM     20  C30 ZIN A   1      19.932   1.724  13.424  0.00  0.00     0.019 C 
ENDROOT
BRANCH   1  21
ATOM     21  O4  ZIN A   1      17.010   3.872  14.335  0.00  0.00    -0.302 OA
BRANCH  21  22
ATOM     22  C2  ZIN A   1      16.663   5.168  14.383  0.00  0.00     0.256 C 
ATOM     23  C1  ZIN A   1      16.787   5.934  15.675  0.00  0.00     0.126 C 
ATOM     24  O3  ZIN A   1      16.252   5.720  13.390  0.00  0.00    -0.266 OA
ENDBRANCH  21  22
ENDBRANCH   1  21
BRANCH   1  25
ATOM     25  C6  ZIN A   1      19.063   3.246  15.471  0.00  0.00     0.158 C 
ATOM     26  C7  ZIN A   1      18.527   2.115  16.311  0.00  0.00     0.094 C 
ATOM     27  O8  ZIN A   1      20.008   3.890  15.858  0.00  0.00    -0.295 OA
ENDBRANCH   1  25
TORSDOF 3
ENDMDL
MODEL 9
REMARK VINA RESULT:      -7.6      1.776      2.755
REMARK  3 active torsions:
REMARK  status: ('A' for Active; 'I' for Inactive)
REMARK    1  A    between atoms: C2_2  and  O4_4 
REMARK    2  A    between atoms: O4_4  and  C5_5 
REMARK    3  A    between atoms: C5_5  and  C6_6 
ROOT
ATOM      1  C5  ZIN A   1      18.312   4.506  13.200  0.00  0.00     0.138 C 
ATOM      2  C9  ZIN A   1      17.771   5.113  11.881  0.00  0.00     0.048 C 
ATOM      3  C10 ZIN A   1      17.853   3.986  10.815  0.00  0.00     0.009 C 
ATOM      4  C11 ZIN A   1      17.826   2.709  11.662  0.00  0.00     0.005 C 
ATOM      5  C13 ZIN A   1      18.400   1.467  11.007  0.00  0.00     0.018 C 
ATOM      6  C15 ZIN A   1      17.600   1.087   9.792  0.00  0.00    -0.021 C 
ATOM      7  C16 ZIN A   1      17.473  -0.184   9.416  0.00  0.00     0.004 C 
ATOM      8  C17 ZIN A   1      18.102  -1.264  10.173  0.00  0.00    -0.046 C 
ATOM      9  C18 ZIN A   1      17.965  -2.547   9.760  0.00  0.00     0.058 C 
ATOM     10  C19 ZIN A   1      18.535  -3.616  10.467  0.00  0.00     0.149 C 
ATOM     11  O20 ZIN A   1      18.401  -4.751  10.055  0.00  0.00    -0.293 OA
ATOM     12  C21 ZIN A   1      19.315  -3.373  11.734  0.00  0.00     0.084 C 
ATOM     13  C22 ZIN A   1      18.792  -2.099  12.406  0.00  0.00     0.022 C 
ATOM     14  C23 ZIN A   1      18.899  -0.939  11.412  0.00  0.00    -0.012 C 
ATOM     15  C24 ZIN A   1      20.366  -0.721  11.035  0.00  0.00     0.021 C 
ATOM     16  C25 ZIN A   1      18.342   0.337  12.046  0.00  0.00     0.006 C 
ATOM     17  C27 ZIN A   1      19.134   0.692  13.300  0.00  0.00     0.007 C 
ATOM     18  C28 ZIN A   1      18.659   2.027  13.899  0.00  0.00     0.013 C 
ATOM     19  C29 ZIN A   1      18.764   3.095  12.838  0.00  0.00    -0.001 C 
ATOM     20  C30 ZIN A   1      20.191   3.138  12.289  0.00  0.00     0.019 C 
ENDROOT
BRANCH   1  21
ATOM     21  O4  ZIN A   1      17.259   4.455  14.199  0.00  0.00    -0.302 OA
BRANCH  21  22
ATOM     22  C2  ZIN A   1      16.390   5.479  14.221  0.00  0.00     0.256 C 
ATOM     23  C1  ZIN A   1      16.589   6.614  15.192  0.00  0.00     0.126 C 
ATOM     24  O3  ZIN A   1      15.450   5.490  13.463  0.00  0.00    -0.266 OA
ENDBRANCH  21  22
ENDBRANCH   1  21
BRANCH   1  25
ATOM     25  C6  ZIN A   1      19.477   5.314  13.710  0.00  0.00     0.158 C 
ATOM     26  C7  ZIN A   1      19.879   5.224  15.160  0.00  0.00     0.094 C 
ATOM     27  O8  ZIN A   1      20.088   6.033  12.958  0.00  0.00    -0.295 OA
ENDBRANCH   1  25
TORSDOF 3
ENDMDL
