MODEL 1
REMARK VINA RESULT:      -8.8      0.000      0.000
REMARK  11 active torsions:
REMARK  status: ('A' for Active; 'I' for Inactive)
REMARK    1  A    between atoms: N4_4  and  C5_5 
REMARK    2  A    between atoms: C11_11  and  C12_12 
REMARK    3  A    between atoms: C12_12  and  O14_13 
REMARK    4  A    between atoms: C12_12  and  C38_36 
REMARK    5  A    between atoms: O14_13  and  C15_14 
REMARK    6  A    between atoms: C17_16  and  C18_17 
REMARK    7  A    between atoms: C21_20  and  C22_21 
REMARK    8  A    between atoms: C22_21  and  C23_22 
REMARK    9  A    between atoms: C23_22  and  N25_23 
REMARK   10  A    between atoms: C23_22  and  C29_27 
REMARK   11  A    between atoms: C35_33  and  N36_34 
ROOT
ATOM      1  C15 ZIN A   1      17.591   3.696  12.804  0.00  0.00     0.186 A 
ATOM      2  C16 ZIN A   1      17.870   2.607  11.984  0.00  0.00     0.091 A 
ATOM      3  C17 ZIN A   1      17.835   2.790  10.602  0.00  0.00     0.090 A 
ATOM      4  N34 ZIN A   1      17.539   3.996  10.117  0.00  0.00    -0.062 NA
ATOM      5  C35 ZIN A   1      17.278   5.008  10.930  0.00  0.00     0.723 A 
ATOM      6  N37 ZIN A   1      17.297   4.866  12.247  0.00  0.00    -0.039 NA
ENDROOT
BRANCH   1   7
ATOM      7  O14 ZIN A   1      17.611   3.564  14.152  0.00  0.00    -0.314 OA
BRANCH   7   8
ATOM      8  C12 ZIN A   1      18.876   3.293  14.759  0.00  0.00     0.273 C 
BRANCH   8   9
ATOM      9  C11 ZIN A   1      18.674   2.433  15.980  0.00  0.00     0.009 A 
ATOM     10  C5  ZIN A   1      18.686   1.050  15.866  0.00  0.00     0.068 A 
ATOM     11  C6  ZIN A   1      18.499   0.261  16.993  0.00  0.00     0.056 A 
ATOM     12  C7  ZIN A   1      18.296   0.855  18.224  0.00  0.00     0.036 A 
ATOM     13 Cl8  ZIN A   1      18.063  -0.129  19.635  0.00  0.00    -0.084 Cl
ATOM     14  C9  ZIN A   1      18.280   2.234  18.334  0.00  0.00     0.024 A 
ATOM     15  C10 ZIN A   1      18.465   3.022  17.212  0.00  0.00     0.014 A 
BRANCH  10  16
ATOM     16  N4  ZIN A   1      18.892   0.450  14.616  0.00  0.00    -0.244 N 
ATOM     17  N3  ZIN A   1      20.013   0.623  13.794  0.00  0.00    -0.173 NA
ATOM     18  C2  ZIN A   1      19.843  -0.094  12.712  0.00  0.00     0.052 A 
ATOM     19  C1  ZIN A   1      20.809  -0.200  11.561  0.00  0.00     0.072 C 
ATOM     20  C43 ZIN A   1      18.607  -0.743  12.807  0.00  0.00     0.048 A 
ATOM     21  C42 ZIN A   1      18.045  -0.396  13.988  0.00  0.00     0.121 A 
ENDBRANCH  10  16
ENDBRANCH   8   9
BRANCH   8  22
ATOM     22  C38 ZIN A   1      19.539   4.609  15.166  0.00  0.00     0.418 C 
ATOM     23  F39 ZIN A   1      18.567   5.494  15.646  0.00  0.00    -0.168 F 
ATOM     24  F40 ZIN A   1      20.483   4.365  16.171  0.00  0.00    -0.168 F 
ATOM     25  F41 ZIN A   1      20.177   5.174  14.056  0.00  0.00    -0.168 F 
ENDBRANCH   8  22
ENDBRANCH   7   8
ENDBRANCH   1   7
BRANCH   5  26
ATOM     26  N36 ZIN A   1      16.974   6.245  10.389  0.00  0.00    -0.231 N 
ATOM     27  H57 ZIN A   1      16.100   6.638  10.539  0.00  0.00     0.174 HD
ATOM     28  H58 ZIN A   1      17.635   6.719   9.861  0.00  0.00     0.174 HD
ENDBRANCH   5  26
BRANCH   3  29
ATOM     29  C18 ZIN A   1      18.124   1.661   9.686  0.00  0.00    -0.007 A 
ATOM     30  C33 ZIN A   1      17.326   0.518   9.710  0.00  0.00     0.014 A 
ATOM     31  C32 ZIN A   1      17.596  -0.528   8.851  0.00  0.00     0.008 A 
ATOM     32  C21 ZIN A   1      18.663  -0.448   7.974  0.00  0.00    -0.056 A 
ATOM     33  C20 ZIN A   1      19.462   0.682   7.950  0.00  0.00     0.008 A 
ATOM     34  C19 ZIN A   1      19.198   1.736   8.800  0.00  0.00     0.014 A 
BRANCH  32  35
ATOM     35  C22 ZIN A   1      18.956  -1.595   7.043  0.00  0.00     0.082 C 
BRANCH  35  36
ATOM     36  C23 ZIN A   1      18.074  -1.481   5.799  0.00  0.00     0.287 C 
BRANCH  36  37
ATOM     37  N25 ZIN A   1      17.646  -2.820   5.376  0.00  0.00    -0.065 N 
ATOM     38  H26 ZIN A   1      16.690  -2.973   5.660  0.00  0.00     0.275 HD
ATOM     39  H27 ZIN A   1      17.716  -2.895   4.372  0.00  0.00     0.275 HD
ATOM     40  H28 ZIN A   1      18.240  -3.514   5.806  0.00  0.00     0.275 HD
ENDBRANCH  36  37
BRANCH  36  41
ATOM     41  C29 ZIN A   1      18.856  -0.829   4.687  0.00  0.00     0.204 C 
ATOM     42  O30 ZIN A   1      20.042  -1.074   4.551  0.00  0.00    -0.646 OA
ATOM     43  O31 ZIN A   1      18.301  -0.056   3.925  0.00  0.00    -0.646 OA
ENDBRANCH  36  41
ENDBRANCH  35  36
ENDBRANCH  32  35
ENDBRANCH   3  29
TORSDOF 11
ENDMDL
MODEL 2
REMARK VINA RESULT:      -8.5      3.410      5.225
REMARK  11 active torsions:
REMARK  status: ('A' for Active; 'I' for Inactive)
REMARK    1  A    between atoms: N4_4  and  C5_5 
REMARK    2  A    between atoms: C11_11  and  C12_12 
REMARK    3  A    between atoms: C12_12  and  O14_13 
REMARK    4  A    between atoms: C12_12  and  C38_36 
REMARK    5  A    between atoms: O14_13  and  C15_14 
REMARK    6  A    between atoms: C17_16  and  C18_17 
REMARK    7  A    between atoms: C21_20  and  C22_21 
REMARK    8  A    between atoms: C22_21  and  C23_22 
REMARK    9  A    between atoms: C23_22  and  N25_23 
REMARK   10  A    between atoms: C23_22  and  C29_27 
REMARK   11  A    between atoms: C35_33  and  N36_34 
ROOT
ATOM      1  C15 ZIN A   1      17.812   1.039  12.948  0.00  0.00     0.186 A 
ATOM      2  C16 ZIN A   1      18.058  -0.027  12.087  0.00  0.00     0.091 A 
ATOM      3  C17 ZIN A   1      18.217  -1.299  12.635  0.00  0.00     0.090 A 
ATOM      4  N34 ZIN A   1      18.128  -1.449  13.956  0.00  0.00    -0.062 NA
ATOM      5  C35 ZIN A   1      17.894  -0.411  14.742  0.00  0.00     0.723 A 
ATOM      6  N37 ZIN A   1      17.743   0.812  14.255  0.00  0.00    -0.039 NA
ENDROOT
BRANCH   1   7
ATOM      7  O14 ZIN A   1      17.652   2.293  12.460  0.00  0.00    -0.314 OA
BRANCH   7   8
ATOM      8  C12 ZIN A   1      18.408   3.333  13.082  0.00  0.00     0.273 C 
BRANCH   8   9
ATOM      9  C11 ZIN A   1      17.472   4.399  13.594  0.00  0.00     0.009 A 
ATOM     10  C5  ZIN A   1      17.491   4.753  14.936  0.00  0.00     0.068 A 
ATOM     11  C6  ZIN A   1      16.628   5.734  15.404  0.00  0.00     0.056 A 
ATOM     12  C7  ZIN A   1      15.749   6.351  14.534  0.00  0.00     0.036 A 
ATOM     13 Cl8  ZIN A   1      14.669   7.579  15.117  0.00  0.00    -0.084 Cl
ATOM     14  C9  ZIN A   1      15.729   5.991  13.198  0.00  0.00     0.024 A 
ATOM     15  C10 ZIN A   1      16.588   5.014  12.730  0.00  0.00     0.014 A 
BRANCH  10  16
ATOM     16  N4  ZIN A   1      18.385   4.126  15.815  0.00  0.00    -0.244 N 
ATOM     17  N3  ZIN A   1      18.086   3.062  16.674  0.00  0.00    -0.173 NA
ATOM     18  C2  ZIN A   1      19.172   2.751  17.336  0.00  0.00     0.052 A 
ATOM     19  C1  ZIN A   1      19.296   1.659  18.367  0.00  0.00     0.072 C 
ATOM     20  C43 ZIN A   1      20.196   3.610  16.924  0.00  0.00     0.048 A 
ATOM     21  C42 ZIN A   1      19.688   4.443  15.986  0.00  0.00     0.121 A 
ENDBRANCH  10  16
ENDBRANCH   8   9
BRANCH   8  22
ATOM     22  C38 ZIN A   1      19.368   3.946  12.061  0.00  0.00     0.418 C 
ATOM     23  F39 ZIN A   1      18.685   4.190  10.864  0.00  0.00    -0.168 F 
ATOM     24  F40 ZIN A   1      19.876   5.151  12.562  0.00  0.00    -0.168 F 
ATOM     25  F41 ZIN A   1      20.424   3.060  11.823  0.00  0.00    -0.168 F 
ENDBRANCH   8  22
ENDBRANCH   7   8
ENDBRANCH   1   7
BRANCH   5  26
ATOM     26  N36 ZIN A   1      17.809  -0.606  16.110  0.00  0.00    -0.231 N 
ATOM     27  H57 ZIN A   1      17.356   0.047  16.666  0.00  0.00     0.174 HD
ATOM     28  H58 ZIN A   1      18.201  -1.397  16.512  0.00  0.00     0.174 HD
ENDBRANCH   5  26
BRANCH   3  29
ATOM     29  C18 ZIN A   1      18.481  -2.467  11.761  0.00  0.00    -0.007 A 
ATOM     30  C33 ZIN A   1      17.561  -2.827  10.778  0.00  0.00     0.014 A 
ATOM     31  C32 ZIN A   1      17.815  -3.912   9.963  0.00  0.00     0.008 A 
ATOM     32  C21 ZIN A   1      18.975  -4.648  10.128  0.00  0.00    -0.056 A 
ATOM     33  C20 ZIN A   1      19.889  -4.298  11.106  0.00  0.00     0.008 A 
ATOM     34  C19 ZIN A   1      19.648  -3.212  11.922  0.00  0.00     0.014 A 
BRANCH  32  35
ATOM     35  C22 ZIN A   1      19.243  -5.834   9.239  0.00  0.00     0.082 C 
BRANCH  35  36
ATOM     36  C23 ZIN A   1      19.049  -5.430   7.776  0.00  0.00     0.287 C 
BRANCH  36  37
ATOM     37  N25 ZIN A   1      18.501  -6.565   7.023  0.00  0.00    -0.065 N 
ATOM     38  H26 ZIN A   1      19.256  -7.157   6.709  0.00  0.00     0.275 HD
ATOM     39  H27 ZIN A   1      17.882  -7.096   7.616  0.00  0.00     0.275 HD
ATOM     40  H28 ZIN A   1      17.988  -6.222   6.224  0.00  0.00     0.275 HD
ENDBRANCH  36  37
BRANCH  36  41
ATOM     41  C29 ZIN A   1      20.377  -5.028   7.185  0.00  0.00     0.204 C 
ATOM     42  O30 ZIN A   1      21.369  -5.702   7.403  0.00  0.00    -0.646 OA
ATOM     43  O31 ZIN A   1      20.457  -4.029   6.492  0.00  0.00    -0.646 OA
ENDBRANCH  36  41
ENDBRANCH  35  36
ENDBRANCH  32  35
ENDBRANCH   3  29
TORSDOF 11
ENDMDL
MODEL 3
REMARK VINA RESULT:      -8.4      5.521     10.152
REMARK  11 active torsions:
REMARK  status: ('A' for Active; 'I' for Inactive)
REMARK    1  A    between atoms: N4_4  and  C5_5 
REMARK    2  A    between atoms: C11_11  and  C12_12 
REMARK    3  A    between atoms: C12_12  and  O14_13 
REMARK    4  A    between atoms: C12_12  and  C38_36 
REMARK    5  A    between atoms: O14_13  and  C15_14 
REMARK    6  A    between atoms: C17_16  and  C18_17 
REMARK    7  A    between atoms: C21_20  and  C22_21 
REMARK    8  A    between atoms: C22_21  and  C23_22 
REMARK    9  A    between atoms: C23_22  and  N25_23 
REMARK   10  A    between atoms: C23_22  and  C29_27 
REMARK   11  A    between atoms: C35_33  and  N36_34 
ROOT
ATOM      1  C15 ZIN A   1      17.515  -4.540   9.301  0.00  0.00     0.186 A 
ATOM      2  C16 ZIN A   1      17.533  -3.181   9.601  0.00  0.00     0.091 A 
ATOM      3  C17 ZIN A   1      17.556  -2.798  10.941  0.00  0.00     0.090 A 
ATOM      4  N34 ZIN A   1      17.561  -3.740  11.883  0.00  0.00    -0.062 NA
ATOM      5  C35 ZIN A   1      17.543  -5.023  11.558  0.00  0.00     0.723 A 
ATOM      6  N37 ZIN A   1      17.515  -5.422  10.295  0.00  0.00    -0.039 NA
ENDROOT
BRANCH   1   7
ATOM      7  O14 ZIN A   1      17.491  -4.959   8.013  0.00  0.00    -0.314 OA
BRANCH   7   8
ATOM      8  C12 ZIN A   1      18.221  -4.181   7.063  0.00  0.00     0.273 C 
BRANCH   8   9
ATOM      9  C11 ZIN A   1      17.554  -4.277   5.715  0.00  0.00     0.009 A 
ATOM     10  C5  ZIN A   1      17.578  -3.193   4.848  0.00  0.00     0.068 A 
ATOM     11  C6  ZIN A   1      16.963  -3.285   3.608  0.00  0.00     0.056 A 
ATOM     12  C7  ZIN A   1      16.322  -4.453   3.241  0.00  0.00     0.036 A 
ATOM     13 Cl8  ZIN A   1      15.553  -4.571   1.689  0.00  0.00    -0.084 Cl
ATOM     14  C9  ZIN A   1      16.296  -5.531   4.109  0.00  0.00     0.024 A 
ATOM     15  C10 ZIN A   1      16.908  -5.441   5.346  0.00  0.00     0.014 A 
BRANCH  10  16
ATOM     16  N4  ZIN A   1      18.229  -2.009   5.224  0.00  0.00    -0.244 N 
ATOM     17  N3  ZIN A   1      17.929  -1.223   6.344  0.00  0.00    -0.173 NA
ATOM     18  C2  ZIN A   1      18.748  -0.202   6.359  0.00  0.00     0.052 A 
ATOM     19  C1  ZIN A   1      18.775   0.894   7.393  0.00  0.00     0.072 C 
ATOM     20  C43 ZIN A   1      19.591  -0.301   5.247  0.00  0.00     0.048 A 
ATOM     21  C42 ZIN A   1      19.255  -1.422   4.568  0.00  0.00     0.121 A 
ENDBRANCH  10  16
ENDBRANCH   8   9
BRANCH   8  22
ATOM     22  C38 ZIN A   1      19.652  -4.710   6.962  0.00  0.00     0.418 C 
ATOM     23  F39 ZIN A   1      20.462  -3.752   6.342  0.00  0.00    -0.168 F 
ATOM     24  F40 ZIN A   1      20.144  -4.974   8.246  0.00  0.00    -0.168 F 
ATOM     25  F41 ZIN A   1      19.663  -5.888   6.208  0.00  0.00    -0.168 F 
ENDBRANCH   8  22
ENDBRANCH   7   8
ENDBRANCH   1   7
BRANCH   5  26
ATOM     26  N36 ZIN A   1      17.549  -5.973  12.564  0.00  0.00    -0.231 N 
ATOM     27  H57 ZIN A   1      18.343  -6.506  12.724  0.00  0.00     0.174 HD
ATOM     28  H58 ZIN A   1      16.758  -6.106  13.111  0.00  0.00     0.174 HD
ENDBRANCH   5  26
BRANCH   3  29
ATOM     29  C18 ZIN A   1      17.574  -1.362  11.313  0.00  0.00    -0.007 A 
ATOM     30  C33 ZIN A   1      17.805  -0.984  12.635  0.00  0.00     0.014 A 
ATOM     31  C32 ZIN A   1      17.826   0.353  12.974  0.00  0.00     0.008 A 
ATOM     32  C21 ZIN A   1      17.609   1.318  12.007  0.00  0.00    -0.056 A 
ATOM     33  C20 ZIN A   1      17.374   0.948  10.694  0.00  0.00     0.008 A 
ATOM     34  C19 ZIN A   1      17.356  -0.386  10.343  0.00  0.00     0.014 A 
BRANCH  32  35
ATOM     35  C22 ZIN A   1      17.628   2.776  12.385  0.00  0.00     0.082 C 
BRANCH  35  36
ATOM     36  C23 ZIN A   1      18.302   3.583  11.273  0.00  0.00     0.287 C 
BRANCH  36  37
ATOM     37  N25 ZIN A   1      19.434   4.334  11.830  0.00  0.00    -0.065 N 
ATOM     38  H26 ZIN A   1      19.632   4.002  12.762  0.00  0.00     0.275 HD
ATOM     39  H27 ZIN A   1      20.246   4.203  11.246  0.00  0.00     0.275 HD
ATOM     40  H28 ZIN A   1      19.202   5.316  11.865  0.00  0.00     0.275 HD
ENDBRANCH  36  37
BRANCH  36  41
ATOM     41  C29 ZIN A   1      17.307   4.543  10.674  0.00  0.00     0.204 C 
ATOM     42  O30 ZIN A   1      17.587   5.156   9.658  0.00  0.00    -0.646 OA
ATOM     43  O31 ZIN A   1      16.223   4.709  11.207  0.00  0.00    -0.646 OA
ENDBRANCH  36  41
ENDBRANCH  35  36
ENDBRANCH  32  35
ENDBRANCH   3  29
TORSDOF 11
ENDMDL
MODEL 4
REMARK VINA RESULT:      -8.4      4.483      9.445
REMARK  11 active torsions:
REMARK  status: ('A' for Active; 'I' for Inactive)
REMARK    1  A    between atoms: N4_4  and  C5_5 
REMARK    2  A    between atoms: C11_11  and  C12_12 
REMARK    3  A    between atoms: C12_12  and  O14_13 
REMARK    4  A    between atoms: C12_12  and  C38_36 
REMARK    5  A    between atoms: O14_13  and  C15_14 
REMARK    6  A    between atoms: C17_16  and  C18_17 
REMARK    7  A    between atoms: C21_20  and  C22_21 
REMARK    8  A    between atoms: C22_21  and  C23_22 
REMARK    9  A    between atoms: C23_22  and  N25_23 
REMARK   10  A    between atoms: C23_22  and  C29_27 
REMARK   11  A    between atoms: C35_33  and  N36_34 
ROOT
ATOM      1  C15 ZIN A   1      17.691  -0.728  11.953  0.00  0.00     0.186 A 
ATOM      2  C16 ZIN A   1      17.884  -0.332  13.274  0.00  0.00     0.091 A 
ATOM      3  C17 ZIN A   1      17.989   1.031  13.549  0.00  0.00     0.090 A 
ATOM      4  N34 ZIN A   1      17.901   1.902  12.545  0.00  0.00    -0.062 NA
ATOM      5  C35 ZIN A   1      17.718   1.487  11.302  0.00  0.00     0.723 A 
ATOM      6  N37 ZIN A   1      17.619   0.199  11.004  0.00  0.00    -0.039 NA
ENDROOT
BRANCH   1   7
ATOM      7  O14 ZIN A   1      17.584  -2.041  11.638  0.00  0.00    -0.314 OA
BRANCH   7   8
ATOM      8  C12 ZIN A   1      18.497  -2.552  10.665  0.00  0.00     0.273 C 
BRANCH   8   9
ATOM      9  C11 ZIN A   1      17.928  -3.806  10.052  0.00  0.00     0.009 A 
ATOM     10  C5  ZIN A   1      17.845  -3.928   8.671  0.00  0.00     0.068 A 
ATOM     11  C6  ZIN A   1      17.321  -5.084   8.110  0.00  0.00     0.056 A 
ATOM     12  C7  ZIN A   1      16.878  -6.108   8.926  0.00  0.00     0.036 A 
ATOM     13 Cl8  ZIN A   1      16.223  -7.555   8.227  0.00  0.00    -0.084 Cl
ATOM     14  C9  ZIN A   1      16.958  -5.980  10.302  0.00  0.00     0.024 A 
ATOM     15  C10 ZIN A   1      17.479  -4.829  10.863  0.00  0.00     0.014 A 
BRANCH  10  16
ATOM     16  N4  ZIN A   1      18.295  -2.889   7.846  0.00  0.00    -0.244 N 
ATOM     17  N3  ZIN A   1      17.766  -1.593   7.790  0.00  0.00    -0.173 NA
ATOM     18  C2  ZIN A   1      18.447  -0.911   6.903  0.00  0.00     0.052 A 
ATOM     19  C1  ZIN A   1      18.212   0.529   6.527  0.00  0.00     0.072 C 
ATOM     20  C43 ZIN A   1      19.426  -1.750   6.363  0.00  0.00     0.048 A 
ATOM     21  C42 ZIN A   1      19.316  -2.958   6.962  0.00  0.00     0.121 A 
ENDBRANCH  10  16
ENDBRANCH   8   9
BRANCH   8  22
ATOM     22  C38 ZIN A   1      19.832  -2.873  11.337  0.00  0.00     0.418 C 
ATOM     23  F39 ZIN A   1      20.386  -4.019  10.753  0.00  0.00    -0.168 F 
ATOM     24  F40 ZIN A   1      20.710  -1.795  11.171  0.00  0.00    -0.168 F 
ATOM     25  F41 ZIN A   1      19.626  -3.099  12.702  0.00  0.00    -0.168 F 
ENDBRANCH   8  22
ENDBRANCH   7   8
ENDBRANCH   1   7
BRANCH   5  26
ATOM     26  N36 ZIN A   1      17.632   2.422  10.285  0.00  0.00    -0.231 N 
ATOM     27  H57 ZIN A   1      16.873   3.025  10.244  0.00  0.00     0.174 HD
ATOM     28  H58 ZIN A   1      18.330   2.475   9.614  0.00  0.00     0.174 HD
ENDBRANCH   5  26
BRANCH   3  29
ATOM     29  C18 ZIN A   1      18.196   1.503  14.940  0.00  0.00    -0.007 A 
ATOM     30  C33 ZIN A   1      17.943   0.651  16.013  0.00  0.00     0.014 A 
ATOM     31  C32 ZIN A   1      18.142   1.094  17.305  0.00  0.00     0.008 A 
ATOM     32  C21 ZIN A   1      18.583   2.385  17.536  0.00  0.00    -0.056 A 
ATOM     33  C20 ZIN A   1      18.830   3.237  16.474  0.00  0.00     0.008 A 
ATOM     34  C19 ZIN A   1      18.639   2.803  15.178  0.00  0.00     0.014 A 
BRANCH  32  35
ATOM     35  C22 ZIN A   1      18.793   2.864  18.948  0.00  0.00     0.082 C 
BRANCH  35  36
ATOM     36  C23 ZIN A   1      18.013   4.161  19.168  0.00  0.00     0.287 C 
BRANCH  36  37
ATOM     37  N25 ZIN A   1      18.458   4.795  20.416  0.00  0.00    -0.065 N 
ATOM     38  H26 ZIN A   1      18.631   5.775  20.253  0.00  0.00     0.275 HD
ATOM     39  H27 ZIN A   1      17.742   4.692  21.120  0.00  0.00     0.275 HD
ATOM     40  H28 ZIN A   1      19.306   4.351  20.735  0.00  0.00     0.275 HD
ENDBRANCH  36  37
BRANCH  36  41
ATOM     41  C29 ZIN A   1      16.540   3.854  19.258  0.00  0.00     0.204 C 
ATOM     42  O30 ZIN A   1      15.721   4.684  18.902  0.00  0.00    -0.646 OA
ATOM     43  O31 ZIN A   1      16.167   2.776  19.689  0.00  0.00    -0.646 OA
ENDBRANCH  36  41
ENDBRANCH  35  36
ENDBRANCH  32  35
ENDBRANCH   3  29
TORSDOF 11
ENDMDL
MODEL 5
REMARK VINA RESULT:      -8.4      2.988      4.798
REMARK  11 active torsions:
REMARK  status: ('A' for Active; 'I' for Inactive)
REMARK    1  A    between atoms: N4_4  and  C5_5 
REMARK    2  A    between atoms: C11_11  and  C12_12 
REMARK    3  A    between atoms: C12_12  and  O14_13 
REMARK    4  A    between atoms: C12_12  and  C38_36 
REMARK    5  A    between atoms: O14_13  and  C15_14 
REMARK    6  A    between atoms: C17_16  and  C18_17 
REMARK    7  A    between atoms: C21_20  and  C22_21 
REMARK    8  A    between atoms: C22_21  and  C23_22 
REMARK    9  A    between atoms: C23_22  and  N25_23 
REMARK   10  A    between atoms: C23_22  and  C29_27 
REMARK   11  A    between atoms: C35_33  and  N36_34 
ROOT
ATOM      1  C15 ZIN A   1      17.845   0.777  11.019  0.00  0.00     0.186 A 
ATOM      2  C16 ZIN A   1      17.740   0.452   9.670  0.00  0.00     0.091 A 
ATOM      3  C17 ZIN A   1      18.142  -0.819   9.260  0.00  0.00     0.090 A 
ATOM      4  N34 ZIN A   1      18.609  -1.674  10.170  0.00  0.00    -0.062 NA
ATOM      5  C35 ZIN A   1      18.694  -1.327  11.445  0.00  0.00     0.723 A 
ATOM      6  N37 ZIN A   1      18.326  -0.126  11.867  0.00  0.00    -0.039 NA
ENDROOT
BRANCH   1   7
ATOM      7  O14 ZIN A   1      17.468   2.000  11.462  0.00  0.00    -0.314 OA
BRANCH   7   8
ATOM      8  C12 ZIN A   1      18.380   2.692  12.316  0.00  0.00     0.273 C 
BRANCH   8   9
ATOM      9  C11 ZIN A   1      17.679   3.858  12.963  0.00  0.00     0.009 A 
ATOM     10  C5  ZIN A   1      17.632   3.961  14.347  0.00  0.00     0.068 A 
ATOM     11  C6  ZIN A   1      16.985   5.037  14.939  0.00  0.00     0.056 A 
ATOM     12  C7  ZIN A   1      16.384   5.999  14.150  0.00  0.00     0.036 A 
ATOM     13 Cl8  ZIN A   1      15.575   7.346  14.888  0.00  0.00    -0.084 Cl
ATOM     14  C9  ZIN A   1      16.428   5.891  12.771  0.00  0.00     0.024 A 
ATOM     15  C10 ZIN A   1      17.072   4.820  12.179  0.00  0.00     0.014 A 
BRANCH  10  16
ATOM     16  N4  ZIN A   1      18.242   2.983  15.144  0.00  0.00    -0.244 N 
ATOM     17  N3  ZIN A   1      17.917   1.622  15.173  0.00  0.00    -0.173 NA
ATOM     18  C2  ZIN A   1      18.701   1.031  16.039  0.00  0.00     0.052 A 
ATOM     19  C1  ZIN A   1      18.691  -0.436  16.383  0.00  0.00     0.072 C 
ATOM     20  C43 ZIN A   1      19.548   1.997  16.592  0.00  0.00     0.048 A 
ATOM     21  C42 ZIN A   1      19.249   3.187  16.023  0.00  0.00     0.121 A 
ENDBRANCH  10  16
ENDBRANCH   8   9
BRANCH   8  22
ATOM     22  C38 ZIN A   1      19.564   3.201  11.493  0.00  0.00     0.418 C 
ATOM     23  F39 ZIN A   1      20.587   2.247  11.503  0.00  0.00    -0.168 F 
ATOM     24  F40 ZIN A   1      19.152   3.429  10.174  0.00  0.00    -0.168 F 
ATOM     25  F41 ZIN A   1      20.036   4.397  12.046  0.00  0.00    -0.168 F 
ENDBRANCH   8  22
ENDBRANCH   7   8
ENDBRANCH   1   7
BRANCH   5  26
ATOM     26  N36 ZIN A   1      19.183  -2.242  12.360  0.00  0.00    -0.231 N 
ATOM     27  H57 ZIN A   1      19.355  -3.157  12.088  0.00  0.00     0.174 HD
ATOM     28  H58 ZIN A   1      19.357  -1.969  13.274  0.00  0.00     0.174 HD
ENDBRANCH   5  26
BRANCH   3  29
ATOM     29  C18 ZIN A   1      18.051  -1.214   7.834  0.00  0.00    -0.007 A 
ATOM     30  C33 ZIN A   1      18.395  -2.506   7.442  0.00  0.00     0.014 A 
ATOM     31  C32 ZIN A   1      18.303  -2.870   6.114  0.00  0.00     0.008 A 
ATOM     32  C21 ZIN A   1      17.881  -1.950   5.170  0.00  0.00    -0.056 A 
ATOM     33  C20 ZIN A   1      17.544  -0.664   5.553  0.00  0.00     0.008 A 
ATOM     34  C19 ZIN A   1      17.627  -0.292   6.879  0.00  0.00     0.014 A 
BRANCH  32  35
ATOM     35  C22 ZIN A   1      17.789  -2.352   3.721  0.00  0.00     0.082 C 
BRANCH  35  36
ATOM     36  C23 ZIN A   1      17.554  -3.860   3.624  0.00  0.00     0.287 C 
BRANCH  36  37
ATOM     37  N25 ZIN A   1      18.489  -4.440   2.651  0.00  0.00    -0.065 N 
ATOM     38  H26 ZIN A   1      18.715  -5.385   2.923  0.00  0.00     0.275 HD
ATOM     39  H27 ZIN A   1      18.064  -4.445   1.736  0.00  0.00     0.275 HD
ATOM     40  H28 ZIN A   1      19.333  -3.886   2.625  0.00  0.00     0.275 HD
ENDBRANCH  36  37
BRANCH  36  41
ATOM     41  C29 ZIN A   1      16.138  -4.121   3.177  0.00  0.00     0.204 C 
ATOM     42  O30 ZIN A   1      15.841  -4.010   2.000  0.00  0.00    -0.646 OA
ATOM     43  O31 ZIN A   1      15.291  -4.441   3.993  0.00  0.00    -0.646 OA
ENDBRANCH  36  41
ENDBRANCH  35  36
ENDBRANCH  32  35
ENDBRANCH   3  29
TORSDOF 11
ENDMDL
MODEL 6
REMARK VINA RESULT:      -8.3      4.522      8.981
REMARK  11 active torsions:
REMARK  status: ('A' for Active; 'I' for Inactive)
REMARK    1  A    between atoms: N4_4  and  C5_5 
REMARK    2  A    between atoms: C11_11  and  C12_12 
REMARK    3  A    between atoms: C12_12  and  O14_13 
REMARK    4  A    between atoms: C12_12  and  C38_36 
REMARK    5  A    between atoms: O14_13  and  C15_14 
REMARK    6  A    between atoms: C17_16  and  C18_17 
REMARK    7  A    between atoms: C21_20  and  C22_21 
REMARK    8  A    between atoms: C22_21  and  C23_22 
REMARK    9  A    between atoms: C23_22  and  N25_23 
REMARK   10  A    between atoms: C23_22  and  C29_27 
REMARK   11  A    between atoms: C35_33  and  N36_34 
ROOT
ATOM      1  C15 ZIN A   1      17.911  -0.648   9.578  0.00  0.00     0.186 A 
ATOM      2  C16 ZIN A   1      17.683   0.368  10.502  0.00  0.00     0.091 A 
ATOM      3  C17 ZIN A   1      17.963   1.681  10.125  0.00  0.00     0.090 A 
ATOM      4  N34 ZIN A   1      18.434   1.917   8.901  0.00  0.00    -0.062 NA
ATOM      5  C35 ZIN A   1      18.638   0.923   8.051  0.00  0.00     0.723 A 
ATOM      6  N37 ZIN A   1      18.388  -0.337   8.379  0.00  0.00    -0.039 NA
ENDROOT
BRANCH   1   7
ATOM      7  O14 ZIN A   1      17.655  -1.939   9.901  0.00  0.00    -0.314 OA
BRANCH   7   8
ATOM      8  C12 ZIN A   1      18.712  -2.879   9.704  0.00  0.00     0.273 C 
BRANCH   8   9
ATOM      9  C11 ZIN A   1      18.131  -4.218   9.327  0.00  0.00     0.009 A 
ATOM     10  C5  ZIN A   1      18.028  -4.580   7.991  0.00  0.00     0.068 A 
ATOM     11  C6  ZIN A   1      17.493  -5.814   7.648  0.00  0.00     0.056 A 
ATOM     12  C7  ZIN A   1      17.057  -6.675   8.636  0.00  0.00     0.036 A 
ATOM     13 Cl8  ZIN A   1      16.387  -8.219   8.210  0.00  0.00    -0.084 Cl
ATOM     14  C9  ZIN A   1      17.155  -6.309   9.967  0.00  0.00     0.024 A 
ATOM     15  C10 ZIN A   1      17.689  -5.080  10.311  0.00  0.00     0.014 A 
BRANCH  10  16
ATOM     16  N4  ZIN A   1      18.472  -3.704   6.990  0.00  0.00    -0.244 N 
ATOM     17  N3  ZIN A   1      17.667  -2.846   6.230  0.00  0.00    -0.173 NA
ATOM     18  C2  ZIN A   1      18.438  -2.189   5.400  0.00  0.00     0.052 A 
ATOM     19  C1  ZIN A   1      17.983  -1.160   4.398  0.00  0.00     0.072 C 
ATOM     20  C43 ZIN A   1      19.757  -2.610   5.602  0.00  0.00     0.048 A 
ATOM     21  C42 ZIN A   1      19.752  -3.538   6.587  0.00  0.00     0.121 A 
ENDBRANCH  10  16
ENDBRANCH   8   9
BRANCH   8  22
ATOM     22  C38 ZIN A   1      19.518  -3.019  10.996  0.00  0.00     0.418 C 
ATOM     23  F39 ZIN A   1      18.648  -3.029  12.092  0.00  0.00    -0.168 F 
ATOM     24  F40 ZIN A   1      20.243  -4.216  10.966  0.00  0.00    -0.168 F 
ATOM     25  F41 ZIN A   1      20.403  -1.942  11.113  0.00  0.00    -0.168 F 
ENDBRANCH   8  22
ENDBRANCH   7   8
ENDBRANCH   1   7
BRANCH   5  26
ATOM     26  N36 ZIN A   1      19.128   1.206   6.789  0.00  0.00    -0.231 N 
ATOM     27  H57 ZIN A   1      19.564   0.512   6.270  0.00  0.00     0.174 HD
ATOM     28  H58 ZIN A   1      19.036   2.099   6.421  0.00  0.00     0.174 HD
ENDBRANCH   5  26
BRANCH   3  29
ATOM     29  C18 ZIN A   1      17.738   2.800  11.073  0.00  0.00    -0.007 A 
ATOM     30  C33 ZIN A   1      17.283   4.032  10.607  0.00  0.00     0.014 A 
ATOM     31  C32 ZIN A   1      17.071   5.067  11.494  0.00  0.00     0.008 A 
ATOM     32  C21 ZIN A   1      17.319   4.887  12.843  0.00  0.00    -0.056 A 
ATOM     33  C20 ZIN A   1      17.777   3.668  13.311  0.00  0.00     0.008 A 
ATOM     34  C19 ZIN A   1      17.987   2.624  12.433  0.00  0.00     0.014 A 
BRANCH  32  35
ATOM     35  C22 ZIN A   1      17.091   6.023  13.805  0.00  0.00     0.082 C 
BRANCH  35  36
ATOM     36  C23 ZIN A   1      17.683   5.664  15.169  0.00  0.00     0.287 C 
BRANCH  36  37
ATOM     37  N25 ZIN A   1      16.608   5.586  16.166  0.00  0.00    -0.065 N 
ATOM     38  H26 ZIN A   1      15.742   5.345  15.708  0.00  0.00     0.275 HD
ATOM     39  H27 ZIN A   1      16.834   4.880  16.851  0.00  0.00     0.275 HD
ATOM     40  H28 ZIN A   1      16.509   6.479  16.625  0.00  0.00     0.275 HD
ENDBRANCH  36  37
BRANCH  36  41
ATOM     41  C29 ZIN A   1      18.675   6.721  15.582  0.00  0.00     0.204 C 
ATOM     42  O30 ZIN A   1      18.636   7.187  16.707  0.00  0.00    -0.646 OA
ATOM     43  O31 ZIN A   1      19.515   7.111  14.789  0.00  0.00    -0.646 OA
ENDBRANCH  36  41
ENDBRANCH  35  36
ENDBRANCH  32  35
ENDBRANCH   3  29
TORSDOF 11
ENDMDL
MODEL 7
REMARK VINA RESULT:      -8.2      5.408     10.449
REMARK  11 active torsions:
REMARK  status: ('A' for Active; 'I' for Inactive)
REMARK    1  A    between atoms: N4_4  and  C5_5 
REMARK    2  A    between atoms: C11_11  and  C12_12 
REMARK    3  A    between atoms: C12_12  and  O14_13 
REMARK    4  A    between atoms: C12_12  and  C38_36 
REMARK    5  A    between atoms: O14_13  and  C15_14 
REMARK    6  A    between atoms: C17_16  and  C18_17 
REMARK    7  A    between atoms: C21_20  and  C22_21 
REMARK    8  A    between atoms: C22_21  and  C23_22 
REMARK    9  A    between atoms: C23_22  and  N25_23 
REMARK   10  A    between atoms: C23_22  and  C29_27 
REMARK   11  A    between atoms: C35_33  and  N36_34 
ROOT
ATOM      1  C15 ZIN A   1      18.932  -2.951   9.711  0.00  0.00     0.186 A 
ATOM      2  C16 ZIN A   1      18.756  -2.650  11.058  0.00  0.00     0.091 A 
ATOM      3  C17 ZIN A   1      18.450  -1.335  11.409  0.00  0.00     0.090 A 
ATOM      4  N34 ZIN A   1      18.336  -0.419  10.447  0.00  0.00    -0.062 NA
ATOM      5  C35 ZIN A   1      18.511  -0.745   9.177  0.00  0.00     0.723 A 
ATOM      6  N37 ZIN A   1      18.808  -1.983   8.809  0.00  0.00    -0.039 NA
ENDROOT
BRANCH   1   7
ATOM      7  O14 ZIN A   1      19.232  -4.215   9.323  0.00  0.00    -0.314 OA
BRANCH   7   8
ATOM      8  C12 ZIN A   1      19.087  -4.520   7.936  0.00  0.00     0.273 C 
BRANCH   8   9
ATOM      9  C11 ZIN A   1      17.946  -5.487   7.750  0.00  0.00     0.009 A 
ATOM     10  C5  ZIN A   1      17.200  -5.466   6.579  0.00  0.00     0.068 A 
ATOM     11  C6  ZIN A   1      16.151  -6.358   6.411  0.00  0.00     0.056 A 
ATOM     12  C7  ZIN A   1      15.846  -7.261   7.412  0.00  0.00     0.036 A 
ATOM     13 Cl8  ZIN A   1      14.534  -8.378   7.204  0.00  0.00    -0.084 Cl
ATOM     14  C9  ZIN A   1      16.588  -7.276   8.580  0.00  0.00     0.024 A 
ATOM     15  C10 ZIN A   1      17.635  -6.388   8.749  0.00  0.00     0.014 A 
BRANCH  10  16
ATOM     16  N4  ZIN A   1      17.512  -4.549   5.565  0.00  0.00    -0.244 N 
ATOM     17  N3  ZIN A   1      17.686  -3.169   5.727  0.00  0.00    -0.173 NA
ATOM     18  C2  ZIN A   1      17.965  -2.650   4.558  0.00  0.00     0.052 A 
ATOM     19  C1  ZIN A   1      18.228  -1.194   4.277  0.00  0.00     0.072 C 
ATOM     20  C43 ZIN A   1      17.972  -3.682   3.613  0.00  0.00     0.048 A 
ATOM     21  C42 ZIN A   1      17.696  -4.839   4.258  0.00  0.00     0.121 A 
ENDBRANCH  10  16
ENDBRANCH   8   9
BRANCH   8  22
ATOM     22  C38 ZIN A   1      20.379  -5.150   7.414  0.00  0.00     0.418 C 
ATOM     23  F39 ZIN A   1      20.072  -6.127   6.460  0.00  0.00    -0.168 F 
ATOM     24  F40 ZIN A   1      21.178  -4.161   6.828  0.00  0.00    -0.168 F 
ATOM     25  F41 ZIN A   1      21.073  -5.739   8.477  0.00  0.00    -0.168 F 
ENDBRANCH   8  22
ENDBRANCH   7   8
ENDBRANCH   1   7
BRANCH   5  26
ATOM     26  N36 ZIN A   1      18.384   0.233   8.207  0.00  0.00    -0.231 N 
ATOM     27  H57 ZIN A   1      17.822   1.007   8.368  0.00  0.00     0.174 HD
ATOM     28  H58 ZIN A   1      18.859   0.147   7.365  0.00  0.00     0.174 HD
ENDBRANCH   5  26
BRANCH   3  29
ATOM     29  C18 ZIN A   1      18.254  -0.962  12.831  0.00  0.00    -0.007 A 
ATOM     30  C33 ZIN A   1      17.543   0.190  13.160  0.00  0.00     0.014 A 
ATOM     31  C32 ZIN A   1      17.359   0.530  14.485  0.00  0.00     0.008 A 
ATOM     32  C21 ZIN A   1      17.887  -0.267  15.485  0.00  0.00    -0.056 A 
ATOM     33  C20 ZIN A   1      18.599  -1.409  15.163  0.00  0.00     0.008 A 
ATOM     34  C19 ZIN A   1      18.784  -1.761  13.843  0.00  0.00     0.014 A 
BRANCH  32  35
ATOM     35  C22 ZIN A   1      17.688   0.112  16.929  0.00  0.00     0.082 C 
BRANCH  35  36
ATOM     36  C23 ZIN A   1      19.011   0.611  17.514  0.00  0.00     0.287 C 
BRANCH  36  37
ATOM     37  N25 ZIN A   1      19.601  -0.437  18.355  0.00  0.00    -0.065 N 
ATOM     38  H26 ZIN A   1      20.398  -0.064  18.849  0.00  0.00     0.275 HD
ATOM     39  H27 ZIN A   1      18.915  -0.763  19.019  0.00  0.00     0.275 HD
ATOM     40  H28 ZIN A   1      19.897  -1.208  17.774  0.00  0.00     0.275 HD
ENDBRANCH  36  37
BRANCH  36  41
ATOM     41  C29 ZIN A   1      18.761   1.842  18.346  0.00  0.00     0.204 C 
ATOM     42  O30 ZIN A   1      19.698   2.437  18.851  0.00  0.00    -0.646 OA
ATOM     43  O31 ZIN A   1      17.622   2.242  18.516  0.00  0.00    -0.646 OA
ENDBRANCH  36  41
ENDBRANCH  35  36
ENDBRANCH  32  35
ENDBRANCH   3  29
TORSDOF 11
ENDMDL
MODEL 8
REMARK VINA RESULT:      -8.2      3.008      3.904
REMARK  11 active torsions:
REMARK  status: ('A' for Active; 'I' for Inactive)
REMARK    1  A    between atoms: N4_4  and  C5_5 
REMARK    2  A    between atoms: C11_11  and  C12_12 
REMARK    3  A    between atoms: C12_12  and  O14_13 
REMARK    4  A    between atoms: C12_12  and  C38_36 
REMARK    5  A    between atoms: O14_13  and  C15_14 
REMARK    6  A    between atoms: C17_16  and  C18_17 
REMARK    7  A    between atoms: C21_20  and  C22_21 
REMARK    8  A    between atoms: C22_21  and  C23_22 
REMARK    9  A    between atoms: C23_22  and  N25_23 
REMARK   10  A    between atoms: C23_22  and  C29_27 
REMARK   11  A    between atoms: C35_33  and  N36_34 
ROOT
ATOM      1  C15 ZIN A   1      17.692   4.435  13.615  0.00  0.00     0.186 A 
ATOM      2  C16 ZIN A   1      17.940   3.067  13.556  0.00  0.00     0.091 A 
ATOM      3  C17 ZIN A   1      17.804   2.421  12.328  0.00  0.00     0.090 A 
ATOM      4  N34 ZIN A   1      17.445   3.132  11.259  0.00  0.00    -0.062 NA
ATOM      5  C35 ZIN A   1      17.218   4.432  11.356  0.00  0.00     0.723 A 
ATOM      6  N37 ZIN A   1      17.332   5.076  12.509  0.00  0.00    -0.039 NA
ENDROOT
BRANCH   1   7
ATOM      7  O14 ZIN A   1      17.810   5.104  14.788  0.00  0.00    -0.314 OA
BRANCH   7   8
ATOM      8  C12 ZIN A   1      18.512   4.446  15.843  0.00  0.00     0.273 C 
BRANCH   8   9
ATOM      9  C11 ZIN A   1      17.778   4.654  17.143  0.00  0.00     0.009 A 
ATOM     10  C5  ZIN A   1      17.682   3.617  18.061  0.00  0.00     0.068 A 
ATOM     11  C6  ZIN A   1      17.005   3.812  19.256  0.00  0.00     0.056 A 
ATOM     12  C7  ZIN A   1      16.422   5.036  19.527  0.00  0.00     0.036 A 
ATOM     13 Cl8  ZIN A   1      15.575   5.283  21.022  0.00  0.00    -0.084 Cl
ATOM     14  C9  ZIN A   1      16.515   6.066  18.607  0.00  0.00     0.024 A 
ATOM     15  C10 ZIN A   1      17.189   5.873  17.416  0.00  0.00     0.014 A 
BRANCH  10  16
ATOM     16  N4  ZIN A   1      18.275   2.377  17.783  0.00  0.00    -0.244 N 
ATOM     17  N3  ZIN A   1      18.010   1.568  16.672  0.00  0.00    -0.173 NA
ATOM     18  C2  ZIN A   1      18.753   0.493  16.761  0.00  0.00     0.052 A 
ATOM     19  C1  ZIN A   1      18.783  -0.644  15.773  0.00  0.00     0.072 C 
ATOM     20  C43 ZIN A   1      19.510   0.581  17.934  0.00  0.00     0.048 A 
ATOM     21  C42 ZIN A   1      19.202   1.750  18.542  0.00  0.00     0.121 A 
ENDBRANCH  10  16
ENDBRANCH   8   9
BRANCH   8  22
ATOM     22  C38 ZIN A   1      19.923   5.026  15.957  0.00  0.00     0.418 C 
ATOM     23  F39 ZIN A   1      20.433   5.270  14.677  0.00  0.00    -0.168 F 
ATOM     24  F40 ZIN A   1      19.878   6.226  16.677  0.00  0.00    -0.168 F 
ATOM     25  F41 ZIN A   1      20.750   4.114  16.623  0.00  0.00    -0.168 F 
ENDBRANCH   8  22
ENDBRANCH   7   8
ENDBRANCH   1   7
BRANCH   5  26
ATOM     26  N36 ZIN A   1      16.847   5.137  10.225  0.00  0.00    -0.231 N 
ATOM     27  H57 ZIN A   1      17.442   5.176   9.460  0.00  0.00     0.174 HD
ATOM     28  H58 ZIN A   1      15.991   5.593  10.196  0.00  0.00     0.174 HD
ENDBRANCH   5  26
BRANCH   3  29
ATOM     29  C18 ZIN A   1      18.055   0.964  12.212  0.00  0.00    -0.007 A 
ATOM     30  C33 ZIN A   1      16.991   0.065  12.251  0.00  0.00     0.014 A 
ATOM     31  C32 ZIN A   1      17.230  -1.290  12.138  0.00  0.00     0.008 A 
ATOM     32  C21 ZIN A   1      18.524  -1.756  11.996  0.00  0.00    -0.056 A 
ATOM     33  C20 ZIN A   1      19.585  -0.869  11.962  0.00  0.00     0.008 A 
ATOM     34  C19 ZIN A   1      19.357   0.488  12.069  0.00  0.00     0.014 A 
BRANCH  32  35
ATOM     35  C22 ZIN A   1      18.779  -3.236  11.878  0.00  0.00     0.082 C 
BRANCH  35  36
ATOM     36  C23 ZIN A   1      17.692  -3.874  11.011  0.00  0.00     0.287 C 
BRANCH  36  37
ATOM     37  N25 ZIN A   1      17.295  -5.163  11.591  0.00  0.00    -0.065 N 
ATOM     38  H26 ZIN A   1      16.364  -5.399  11.283  0.00  0.00     0.275 HD
ATOM     39  H27 ZIN A   1      17.940  -5.879  11.294  0.00  0.00     0.275 HD
ATOM     40  H28 ZIN A   1      17.309  -5.097  12.598  0.00  0.00     0.275 HD
ENDBRANCH  36  37
BRANCH  36  41
ATOM     41  C29 ZIN A   1      18.224  -4.093   9.617  0.00  0.00     0.204 C 
ATOM     42  O30 ZIN A   1      17.616  -3.651   8.657  0.00  0.00    -0.646 OA
ATOM     43  O31 ZIN A   1      19.260  -4.712   9.451  0.00  0.00    -0.646 OA
ENDBRANCH  36  41
ENDBRANCH  35  36
ENDBRANCH  32  35
ENDBRANCH   3  29
TORSDOF 11
ENDMDL
MODEL 9
REMARK VINA RESULT:      -8.1      5.899     10.627
REMARK  11 active torsions:
REMARK  status: ('A' for Active; 'I' for Inactive)
REMARK    1  A    between atoms: N4_4  and  C5_5 
REMARK    2  A    between atoms: C11_11  and  C12_12 
REMARK    3  A    between atoms: C12_12  and  O14_13 
REMARK    4  A    between atoms: C12_12  and  C38_36 
REMARK    5  A    between atoms: O14_13  and  C15_14 
REMARK    6  A    between atoms: C17_16  and  C18_17 
REMARK    7  A    between atoms: C21_20  and  C22_21 
REMARK    8  A    between atoms: C22_21  and  C23_22 
REMARK    9  A    between atoms: C23_22  and  N25_23 
REMARK   10  A    between atoms: C23_22  and  C29_27 
REMARK   11  A    between atoms: C35_33  and  N36_34 
ROOT
ATOM      1  C15 ZIN A   1      18.136  -3.047   7.026  0.00  0.00     0.186 A 
ATOM      2  C16 ZIN A   1      18.168  -2.021   7.965  0.00  0.00     0.091 A 
ATOM      3  C17 ZIN A   1      18.317  -0.711   7.511  0.00  0.00     0.090 A 
ATOM      4  N34 ZIN A   1      18.422  -0.489   6.201  0.00  0.00    -0.062 NA
ATOM      5  C35 ZIN A   1      18.389  -1.492   5.339  0.00  0.00     0.723 A 
ATOM      6  N37 ZIN A   1      18.253  -2.749   5.737  0.00  0.00    -0.039 NA
ENDROOT
BRANCH   1   7
ATOM      7  O14 ZIN A   1      17.994  -4.336   7.421  0.00  0.00    -0.314 OA
BRANCH   7   8
ATOM      8  C12 ZIN A   1      17.441  -5.249   6.473  0.00  0.00     0.273 C 
BRANCH   8   9
ATOM      9  C11 ZIN A   1      16.089  -5.713   6.950  0.00  0.00     0.009 A 
ATOM     10  C5  ZIN A   1      15.112  -6.070   6.031  0.00  0.00     0.068 A 
ATOM     11  C6  ZIN A   1      13.868  -6.497   6.474  0.00  0.00     0.056 A 
ATOM     12  C7  ZIN A   1      13.603  -6.560   7.829  0.00  0.00     0.036 A 
ATOM     13 Cl8  ZIN A   1      12.048  -7.094   8.386  0.00  0.00    -0.084 Cl
ATOM     14  C9  ZIN A   1      14.577  -6.198   8.743  0.00  0.00     0.024 A 
ATOM     15  C10 ZIN A   1      15.817  -5.772   8.303  0.00  0.00     0.014 A 
BRANCH  10  16
ATOM     16  N4  ZIN A   1      15.384  -6.006   4.657  0.00  0.00    -0.244 N 
ATOM     17  N3  ZIN A   1      15.525  -4.837   3.899  0.00  0.00    -0.173 NA
ATOM     18  C2  ZIN A   1      15.773  -5.180   2.660  0.00  0.00     0.052 A 
ATOM     19  C1  ZIN A   1      15.994  -4.233   1.509  0.00  0.00     0.072 C 
ATOM     20  C43 ZIN A   1      15.792  -6.576   2.588  0.00  0.00     0.048 A 
ATOM     21  C42 ZIN A   1      15.555  -7.061   3.829  0.00  0.00     0.121 A 
ENDBRANCH  10  16
ENDBRANCH   8   9
BRANCH   8  22
ATOM     22  C38 ZIN A   1      18.370  -6.454   6.323  0.00  0.00     0.418 C 
ATOM     23  F39 ZIN A   1      18.418  -6.844   4.980  0.00  0.00    -0.168 F 
ATOM     24  F40 ZIN A   1      19.656  -6.109   6.754  0.00  0.00    -0.168 F 
ATOM     25  F41 ZIN A   1      17.888  -7.514   7.100  0.00  0.00    -0.168 F 
ENDBRANCH   8  22
ENDBRANCH   7   8
ENDBRANCH   1   7
BRANCH   5  26
ATOM     26  N36 ZIN A   1      18.501  -1.222   3.987  0.00  0.00    -0.231 N 
ATOM     27  H57 ZIN A   1      17.812  -0.710   3.535  0.00  0.00     0.174 HD
ATOM     28  H58 ZIN A   1      19.270  -1.544   3.490  0.00  0.00     0.174 HD
ENDBRANCH   5  26
BRANCH   3  29
ATOM     29  C18 ZIN A   1      18.358   0.418   8.472  0.00  0.00    -0.007 A 
ATOM     30  C33 ZIN A   1      19.074   1.573   8.164  0.00  0.00     0.014 A 
ATOM     31  C32 ZIN A   1      19.104   2.623   9.059  0.00  0.00     0.008 A 
ATOM     32  C21 ZIN A   1      18.433   2.527  10.265  0.00  0.00    -0.056 A 
ATOM     33  C20 ZIN A   1      17.725   1.380  10.578  0.00  0.00     0.008 A 
ATOM     34  C19 ZIN A   1      17.683   0.326   9.688  0.00  0.00     0.014 A 
BRANCH  32  35
ATOM     35  C22 ZIN A   1      18.474   3.674  11.240  0.00  0.00     0.082 C 
BRANCH  35  36
ATOM     36  C23 ZIN A   1      17.113   4.370  11.268  0.00  0.00     0.287 C 
BRANCH  36  37
ATOM     37  N25 ZIN A   1      17.054   5.375  10.199  0.00  0.00    -0.065 N 
ATOM     38  H26 ZIN A   1      17.974   5.500   9.804  0.00  0.00     0.275 HD
ATOM     39  H27 ZIN A   1      16.418   5.065   9.479  0.00  0.00     0.275 HD
ATOM     40  H28 ZIN A   1      16.729   6.252  10.578  0.00  0.00     0.275 HD
ENDBRANCH  36  37
BRANCH  36  41
ATOM     41  C29 ZIN A   1      16.918   5.043  12.602  0.00  0.00     0.204 C 
ATOM     42  O30 ZIN A   1      17.008   4.395  13.630  0.00  0.00    -0.646 OA
ATOM     43  O31 ZIN A   1      16.670   6.235  12.652  0.00  0.00    -0.646 OA
ENDBRANCH  36  41
ENDBRANCH  35  36
ENDBRANCH  32  35
ENDBRANCH   3  29
TORSDOF 11
ENDMDL
