MODEL 1
REMARK VINA RESULT:      -8.3      0.000      0.000
REMARK  6 active torsions:
REMARK  status: ('A' for Active; 'I' for Inactive)
REMARK    1  A    between atoms: C2_2  and  N3_3 
REMARK    2  A    between atoms: N3_3  and  C5_5 
REMARK    3  A    between atoms: N3_3  and  C7_7 
REMARK    4  A    between atoms: C7_7  and  C8_8 
REMARK    5  A    between atoms: C8_8  and  N9_9 
REMARK    6  A    between atoms: C17_17  and  C18_18 
ROOT
ATOM      1  N9  <0> d   1      18.515   0.314  12.515  0.00  0.00    -0.314 N 
ATOM      2  C10 <0> d   1      18.299   1.516  11.858  0.00  0.00     0.050 A 
ATOM      3  C11 <0> d   1      17.738   2.558  12.599  0.00  0.00     0.032 A 
ATOM      4  C12 <0> d   1      17.492   3.782  12.016  0.00  0.00     0.026 A 
ATOM      5  C13 <0> d   1      17.801   3.990  10.681  0.00  0.00     0.035 A 
ATOM      6 Cl14 <0> d   1      17.491   5.532   9.948  0.00  0.00    -0.084 Cl
ATOM      7  C15 <0> d   1      18.356   2.973   9.935  0.00  0.00     0.040 A 
ATOM      8  C16 <0> d   1      18.613   1.723  10.517  0.00  0.00     0.022 A 
ATOM      9  C17 <0> d   1      19.211   0.684   9.663  0.00  0.00     0.077 C 
ATOM     10  N25 <0> d   1      20.130  -0.135  10.036  0.00  0.00    -0.279 NA
ATOM     11  C26 <0> d   1      20.680  -0.114  11.390  0.00  0.00     0.252 C 
ATOM     12  C27 <0> d   1      19.591  -0.456  12.369  0.00  0.00     0.244 C 
ATOM     13  O28 <0> d   1      19.693  -1.463  13.037  0.00  0.00    -0.271 OA
ENDROOT
BRANCH   1  14
ATOM     14  C8  <0> d   1      17.480  -0.143  13.446  0.00  0.00     0.160 C 
BRANCH  14  15
ATOM     15  C7  <0> d   1      17.621   0.605  14.772  0.00  0.00     0.255 C 
BRANCH  15  16
ATOM     16  N3  <0> d   1      18.687  -0.013  15.573  0.00  0.00    -0.070 N 
ATOM     17  H4  <0> d   1      19.479  -0.213  14.980  0.00  0.00     0.279 HD
BRANCH  16  18
ATOM     18  C2  <0> d   1      19.095   0.909  16.641  0.00  0.00     0.230 C 
ATOM     19  C1  <0> d   1      19.157   2.334  16.088  0.00  0.00     0.034 C 
ENDBRANCH  16  18
BRANCH  16  20
ATOM     20  C5  <0> d   1      18.192  -1.263  16.166  0.00  0.00     0.230 C 
ATOM     21  C6  <0> d   1      16.945  -0.971  17.001  0.00  0.00     0.034 C 
ENDBRANCH  16  20
ENDBRANCH  15  16
ENDBRANCH  14  15
ENDBRANCH   1  14
BRANCH   9  22
ATOM     22  C18 <0> d   1      18.718   0.573   8.272  0.00  0.00     0.032 A 
ATOM     23  C23 <0> d   1      17.483  -0.027   8.010  0.00  0.00     0.129 A 
ATOM     24  C22 <0> d   1      17.026  -0.121   6.708  0.00  0.00     0.043 A 
ATOM     25  F24 <0> d   1      16.731  -0.502   9.027  0.00  0.00    -0.205 F 
ATOM     26  C21 <0> d   1      17.795   0.366   5.667  0.00  0.00     0.003 A 
ATOM     27  C20 <0> d   1      19.022   0.956   5.920  0.00  0.00     0.001 A 
ATOM     28  C19 <0> d   1      19.486   1.062   7.215  0.00  0.00     0.017 A 
ENDBRANCH   9  22
TORSDOF 6
ENDMDL
MODEL 2
REMARK VINA RESULT:      -7.9      3.347      7.609
REMARK  6 active torsions:
REMARK  status: ('A' for Active; 'I' for Inactive)
REMARK    1  A    between atoms: C2_2  and  N3_3 
REMARK    2  A    between atoms: N3_3  and  C5_5 
REMARK    3  A    between atoms: N3_3  and  C7_7 
REMARK    4  A    between atoms: C7_7  and  C8_8 
REMARK    5  A    between atoms: C8_8  and  N9_9 
REMARK    6  A    between atoms: C17_17  and  C18_18 
ROOT
ATOM      1  N9  <0> d   1      18.544  -0.633   9.709  0.00  0.00    -0.314 N 
ATOM      2  C10 <0> d   1      18.288  -1.822  10.376  0.00  0.00     0.050 A 
ATOM      3  C11 <0> d   1      17.668  -2.842   9.653  0.00  0.00     0.032 A 
ATOM      4  C12 <0> d   1      17.379  -4.050  10.247  0.00  0.00     0.026 A 
ATOM      5  C13 <0> d   1      17.703  -4.265  11.578  0.00  0.00     0.035 A 
ATOM      6 Cl14 <0> d   1      17.339  -5.788  12.326  0.00  0.00    -0.084 Cl
ATOM      7  C15 <0> d   1      18.316  -3.269  12.307  0.00  0.00     0.040 A 
ATOM      8  C16 <0> d   1      18.617  -2.035  11.713  0.00  0.00     0.022 A 
ATOM      9  C17 <0> d   1      19.275  -1.019  12.549  0.00  0.00     0.077 C 
ATOM     10  N25 <0> d   1      20.222  -0.243  12.156  0.00  0.00    -0.279 NA
ATOM     11  C26 <0> d   1      20.747  -0.296  10.792  0.00  0.00     0.252 C 
ATOM     12  C27 <0> d   1      19.656   0.089   9.830  0.00  0.00     0.244 C 
ATOM     13  O28 <0> d   1      19.789   1.087   9.155  0.00  0.00    -0.271 OA
ENDROOT
BRANCH   1  14
ATOM     14  C8  <0> d   1      17.513  -0.136   8.794  0.00  0.00     0.160 C 
BRANCH  14  15
ATOM     15  C7  <0> d   1      17.525  -0.969   7.511  0.00  0.00     0.255 C 
BRANCH  15  16
ATOM     16  N3  <0> d   1      18.803  -0.774   6.813  0.00  0.00    -0.070 N 
ATOM     17  H4  <0> d   1      19.547  -0.692   7.490  0.00  0.00     0.279 HD
BRANCH  16  18
ATOM     18  C2  <0> d   1      19.062  -1.925   5.937  0.00  0.00     0.230 C 
ATOM     19  C1  <0> d   1      19.711  -3.048   6.749  0.00  0.00     0.034 C 
ENDBRANCH  16  18
BRANCH  16  20
ATOM     20  C5  <0> d   1      18.738   0.452   6.006  0.00  0.00     0.230 C 
ATOM     21  C6  <0> d   1      19.177   0.143   4.574  0.00  0.00     0.034 C 
ENDBRANCH  16  20
ENDBRANCH  15  16
ENDBRANCH  14  15
ENDBRANCH   1  14
BRANCH   9  22
ATOM     22  C18 <0> d   1      18.813  -0.879  13.949  0.00  0.00     0.032 A 
ATOM     23  C23 <0> d   1      17.714  -0.070  14.248  0.00  0.00     0.129 A 
ATOM     24  C22 <0> d   1      17.285   0.052  15.557  0.00  0.00     0.043 A 
ATOM     25  F24 <0> d   1      17.065   0.584  13.260  0.00  0.00    -0.205 F 
ATOM     26  C21 <0> d   1      17.949  -0.618  16.569  0.00  0.00     0.003 A 
ATOM     27  C20 <0> d   1      19.041  -1.417  16.279  0.00  0.00     0.001 A 
ATOM     28  C19 <0> d   1      19.476  -1.550  14.976  0.00  0.00     0.017 A 
ENDBRANCH   9  22
TORSDOF 6
ENDMDL
MODEL 3
REMARK VINA RESULT:      -7.8      3.455      5.273
REMARK  6 active torsions:
REMARK  status: ('A' for Active; 'I' for Inactive)
REMARK    1  A    between atoms: C2_2  and  N3_3 
REMARK    2  A    between atoms: N3_3  and  C5_5 
REMARK    3  A    between atoms: N3_3  and  C7_7 
REMARK    4  A    between atoms: C7_7  and  C8_8 
REMARK    5  A    between atoms: C8_8  and  N9_9 
REMARK    6  A    between atoms: C17_17  and  C18_18 
ROOT
ATOM      1  N9  <0> d   1      18.896   0.760  10.370  0.00  0.00    -0.314 N 
ATOM      2  C10 <0> d   1      18.950   0.127   9.137  0.00  0.00     0.050 A 
ATOM      3  C11 <0> d   1      18.755   0.917   8.003  0.00  0.00     0.032 A 
ATOM      4  C12 <0> d   1      18.792   0.360   6.743  0.00  0.00     0.026 A 
ATOM      5  C13 <0> d   1      19.025  -0.998   6.591  0.00  0.00     0.035 A 
ATOM      6 Cl14 <0> d   1      19.072  -1.698   5.004  0.00  0.00    -0.084 Cl
ATOM      7  C15 <0> d   1      19.221  -1.792   7.700  0.00  0.00     0.040 A 
ATOM      8  C16 <0> d   1      19.186  -1.238   8.987  0.00  0.00     0.022 A 
ATOM      9  C17 <0> d   1      19.407  -2.144  10.126  0.00  0.00     0.077 C 
ATOM     10  N25 <0> d   1      20.104  -1.859  11.168  0.00  0.00    -0.279 NA
ATOM     11  C26 <0> d   1      20.760  -0.562  11.327  0.00  0.00     0.252 C 
ATOM     12  C27 <0> d   1      19.710   0.514  11.394  0.00  0.00     0.244 C 
ATOM     13  O28 <0> d   1      19.600   1.169  12.408  0.00  0.00    -0.271 OA
ENDROOT
BRANCH   1  14
ATOM     14  C8  <0> d   1      17.864   1.783  10.560  0.00  0.00     0.160 C 
BRANCH  14  15
ATOM     15  C7  <0> d   1      18.517   3.165  10.593  0.00  0.00     0.255 C 
BRANCH  15  16
ATOM     16  N3  <0> d   1      18.344   3.757  11.927  0.00  0.00    -0.070 N 
ATOM     17  H4  <0> d   1      18.279   3.021  12.615  0.00  0.00     0.279 HD
BRANCH  16  18
ATOM     18  C2  <0> d   1      19.496   4.615  12.235  0.00  0.00     0.230 C 
ATOM     19  C1  <0> d   1      19.414   5.075  13.692  0.00  0.00     0.034 C 
ENDBRANCH  16  18
BRANCH  16  20
ATOM     20  C5  <0> d   1      17.113   4.559  11.951  0.00  0.00     0.230 C 
ATOM     21  C6  <0> d   1      16.996   5.352  10.648  0.00  0.00     0.034 C 
ENDBRANCH  16  20
ENDBRANCH  15  16
ENDBRANCH  14  15
ENDBRANCH   1  14
BRANCH   9  22
ATOM     22  C18 <0> d   1      18.780  -3.484  10.067  0.00  0.00     0.032 A 
ATOM     23  C23 <0> d   1      17.556  -3.714  10.700  0.00  0.00     0.129 A 
ATOM     24  C22 <0> d   1      16.974  -4.967  10.636  0.00  0.00     0.043 A 
ATOM     25  F24 <0> d   1      16.937  -2.714  11.364  0.00  0.00    -0.205 F 
ATOM     26  C21 <0> d   1      17.607  -5.991   9.956  0.00  0.00     0.003 A 
ATOM     27  C20 <0> d   1      18.822  -5.770   9.332  0.00  0.00     0.001 A 
ATOM     28  C19 <0> d   1      19.411  -4.523   9.383  0.00  0.00     0.017 A 
ENDBRANCH   9  22
TORSDOF 6
ENDMDL
MODEL 4
REMARK VINA RESULT:      -7.6      2.837      4.067
REMARK  6 active torsions:
REMARK  status: ('A' for Active; 'I' for Inactive)
REMARK    1  A    between atoms: C2_2  and  N3_3 
REMARK    2  A    between atoms: N3_3  and  C5_5 
REMARK    3  A    between atoms: N3_3  and  C7_7 
REMARK    4  A    between atoms: C7_7  and  C8_8 
REMARK    5  A    between atoms: C8_8  and  N9_9 
REMARK    6  A    between atoms: C17_17  and  C18_18 
ROOT
ATOM      1  N9  <0> d   1      18.552  -0.103  12.777  0.00  0.00    -0.314 N 
ATOM      2  C10 <0> d   1      18.804  -1.199  11.966  0.00  0.00     0.050 A 
ATOM      3  C11 <0> d   1      19.535  -2.251  12.521  0.00  0.00     0.032 A 
ATOM      4  C12 <0> d   1      19.827  -3.374  11.777  0.00  0.00     0.026 A 
ATOM      5  C13 <0> d   1      19.396  -3.468  10.463  0.00  0.00     0.035 A 
ATOM      6 Cl14 <0> d   1      19.765  -4.882   9.527  0.00  0.00    -0.084 Cl
ATOM      7  C15 <0> d   1      18.673  -2.439   9.900  0.00  0.00     0.040 A 
ATOM      8  C16 <0> d   1      18.368  -1.291  10.646  0.00  0.00     0.022 A 
ATOM      9  C17 <0> d   1      17.589  -0.234   9.983  0.00  0.00     0.077 C 
ATOM     10  N25 <0> d   1      16.645   0.442  10.536  0.00  0.00    -0.279 NA
ATOM     11  C26 <0> d   1      16.248   0.218  11.925  0.00  0.00     0.252 C 
ATOM     12  C27 <0> d   1      17.401   0.564  12.828  0.00  0.00     0.244 C 
ATOM     13  O28 <0> d   1      17.280   1.477  13.616  0.00  0.00    -0.271 OA
ENDROOT
BRANCH   1  14
ATOM     14  C8  <0> d   1      19.635   0.355  13.651  0.00  0.00     0.160 C 
BRANCH  14  15
ATOM     15  C7  <0> d   1      19.486  -0.290  15.030  0.00  0.00     0.255 C 
BRANCH  15  16
ATOM     16  N3  <0> d   1      18.576   0.520  15.852  0.00  0.00    -0.070 N 
ATOM     17  H4  <0> d   1      17.943   1.028  15.253  0.00  0.00     0.279 HD
BRANCH  16  18
ATOM     18  C2  <0> d   1      17.808  -0.361  16.743  0.00  0.00     0.230 C 
ATOM     19  C1  <0> d   1      17.943  -1.809  16.268  0.00  0.00     0.034 C 
ENDBRANCH  16  18
BRANCH  16  20
ATOM     20  C5  <0> d   1      19.358   1.469  16.657  0.00  0.00     0.230 C 
ATOM     21  C6  <0> d   1      19.257   1.088  18.134  0.00  0.00     0.034 C 
ENDBRANCH  16  20
ENDBRANCH  15  16
ENDBRANCH  14  15
ENDBRANCH   1  14
BRANCH   9  22
ATOM     22  C18 <0> d   1      17.917   0.076   8.573  0.00  0.00     0.032 A 
ATOM     23  C23 <0> d   1      18.967   0.947   8.271  0.00  0.00     0.129 A 
ATOM     24  C22 <0> d   1      19.271   1.227   6.952  0.00  0.00     0.043 A 
ATOM     25  F24 <0> d   1      19.692   1.505   9.266  0.00  0.00    -0.205 F 
ATOM     26  C21 <0> d   1      18.530   0.656   5.933  0.00  0.00     0.003 A 
ATOM     27  C20 <0> d   1      17.485  -0.203   6.227  0.00  0.00     0.001 A 
ATOM     28  C19 <0> d   1      17.175  -0.495   7.539  0.00  0.00     0.017 A 
ENDBRANCH   9  22
TORSDOF 6
ENDMDL
MODEL 5
REMARK VINA RESULT:      -7.5      3.185      4.418
REMARK  6 active torsions:
REMARK  status: ('A' for Active; 'I' for Inactive)
REMARK    1  A    between atoms: C2_2  and  N3_3 
REMARK    2  A    between atoms: N3_3  and  C5_5 
REMARK    3  A    between atoms: N3_3  and  C7_7 
REMARK    4  A    between atoms: C7_7  and  C8_8 
REMARK    5  A    between atoms: C8_8  and  N9_9 
REMARK    6  A    between atoms: C17_17  and  C18_18 
ROOT
ATOM      1  N9  <0> d   1      19.281   0.760  10.750  0.00  0.00    -0.314 N 
ATOM      2  C10 <0> d   1      18.888   0.202   9.543  0.00  0.00     0.050 A 
ATOM      3  C11 <0> d   1      18.456   1.076   8.544  0.00  0.00     0.032 A 
ATOM      4  C12 <0> d   1      18.049   0.597   7.318  0.00  0.00     0.026 A 
ATOM      5  C13 <0> d   1      18.063  -0.766   7.065  0.00  0.00     0.035 A 
ATOM      6 Cl14 <0> d   1      17.549  -1.368   5.521  0.00  0.00    -0.084 Cl
ATOM      7  C15 <0> d   1      18.487  -1.643   8.040  0.00  0.00     0.040 A 
ATOM      8  C16 <0> d   1      18.906  -1.168   9.291  0.00  0.00     0.022 A 
ATOM      9  C17 <0> d   1      19.349  -2.161  10.283  0.00  0.00     0.077 C 
ATOM     10  N25 <0> d   1      20.355  -2.015  11.071  0.00  0.00    -0.279 NA
ATOM     11  C26 <0> d   1      21.177  -0.805  11.058  0.00  0.00     0.252 C 
ATOM     12  C27 <0> d   1      20.330   0.368  11.470  0.00  0.00     0.244 C 
ATOM     13  O28 <0> d   1      20.607   0.967  12.487  0.00  0.00    -0.271 OA
ENDROOT
BRANCH   1  14
ATOM     14  C8  <0> d   1      18.482   1.871  11.273  0.00  0.00     0.160 C 
BRANCH  14  15
ATOM     15  C7  <0> d   1      17.501   1.344  12.321  0.00  0.00     0.255 C 
BRANCH  15  16
ATOM     16  N3  <0> d   1      18.112   1.436  13.654  0.00  0.00    -0.070 N 
ATOM     17  H4  <0> d   1      19.096   1.220  13.588  0.00  0.00     0.279 HD
BRANCH  16  18
ATOM     18  C2  <0> d   1      17.944   2.799  14.177  0.00  0.00     0.230 C 
ATOM     19  C1  <0> d   1      18.813   2.977  15.423  0.00  0.00     0.034 C 
ENDBRANCH  16  18
BRANCH  16  20
ATOM     20  C5  <0> d   1      17.460   0.479  14.558  0.00  0.00     0.230 C 
ATOM     21  C6  <0> d   1      18.218  -0.849  14.527  0.00  0.00     0.034 C 
ENDBRANCH  16  20
ENDBRANCH  15  16
ENDBRANCH  14  15
ENDBRANCH   1  14
BRANCH   9  22
ATOM     22  C18 <0> d   1      18.580  -3.421  10.382  0.00  0.00     0.032 A 
ATOM     23  C23 <0> d   1      17.393  -3.464  11.119  0.00  0.00     0.129 A 
ATOM     24  C22 <0> d   1      16.677  -4.644  11.201  0.00  0.00     0.043 A 
ATOM     25  F24 <0> d   1      16.940  -2.352  11.739  0.00  0.00    -0.205 F 
ATOM     26  C21 <0> d   1      17.140  -5.782  10.567  0.00  0.00     0.003 A 
ATOM     27  C20 <0> d   1      18.317  -5.747   9.840  0.00  0.00     0.001 A 
ATOM     28  C19 <0> d   1      19.038  -4.574   9.744  0.00  0.00     0.017 A 
ENDBRANCH   9  22
TORSDOF 6
ENDMDL
MODEL 6
REMARK VINA RESULT:      -7.5      2.569      6.042
REMARK  6 active torsions:
REMARK  status: ('A' for Active; 'I' for Inactive)
REMARK    1  A    between atoms: C2_2  and  N3_3 
REMARK    2  A    between atoms: N3_3  and  C5_5 
REMARK    3  A    between atoms: N3_3  and  C7_7 
REMARK    4  A    between atoms: C7_7  and  C8_8 
REMARK    5  A    between atoms: C8_8  and  N9_9 
REMARK    6  A    between atoms: C17_17  and  C18_18 
ROOT
ATOM      1  N9  <0> d   1      19.302  -0.827  12.153  0.00  0.00    -0.314 N 
ATOM      2  C10 <0> d   1      18.860  -0.385  13.391  0.00  0.00     0.050 A 
ATOM      3  C11 <0> d   1      18.449  -1.354  14.308  0.00  0.00     0.032 A 
ATOM      4  C12 <0> d   1      17.996  -0.993  15.558  0.00  0.00     0.026 A 
ATOM      5  C13 <0> d   1      17.943   0.346  15.917  0.00  0.00     0.035 A 
ATOM      6 Cl14 <0> d   1      17.371   0.799  17.492  0.00  0.00    -0.084 Cl
ATOM      7  C15 <0> d   1      18.345   1.315  15.025  0.00  0.00     0.040 A 
ATOM      8  C16 <0> d   1      18.809   0.961  13.750  0.00  0.00     0.022 A 
ATOM      9  C17 <0> d   1      19.226   2.047  12.850  0.00  0.00     0.077 C 
ATOM     10  N25 <0> d   1      20.254   2.010  12.077  0.00  0.00    -0.279 NA
ATOM     11  C26 <0> d   1      21.129   0.840  12.014  0.00  0.00     0.252 C 
ATOM     12  C27 <0> d   1      20.346  -0.333  11.491  0.00  0.00     0.244 C 
ATOM     13  O28 <0> d   1      20.670  -0.837  10.437  0.00  0.00    -0.271 OA
ENDROOT
BRANCH   1  14
ATOM     14  C8  <0> d   1      18.565  -1.928  11.526  0.00  0.00     0.160 C 
BRANCH  14  15
ATOM     15  C7  <0> d   1      17.540  -1.360  10.544  0.00  0.00     0.255 C 
BRANCH  15  16
ATOM     16  N3  <0> d   1      18.102  -1.374   9.187  0.00  0.00    -0.070 N 
ATOM     17  H4  <0> d   1      19.088  -1.165   9.229  0.00  0.00     0.279 HD
BRANCH  16  18
ATOM     18  C2  <0> d   1      17.908  -2.704   8.591  0.00  0.00     0.230 C 
ATOM     19  C1  <0> d   1      19.117  -3.054   7.722  0.00  0.00     0.034 C 
ENDBRANCH  16  18
BRANCH  16  20
ATOM     20  C5  <0> d   1      17.421  -0.365   8.364  0.00  0.00     0.230 C 
ATOM     21  C6  <0> d   1      18.368   0.810   8.113  0.00  0.00     0.034 C 
ENDBRANCH  16  20
ENDBRANCH  15  16
ENDBRANCH  14  15
ENDBRANCH   1  14
BRANCH   9  22
ATOM     22  C18 <0> d   1      18.402   3.277  12.832  0.00  0.00     0.032 A 
ATOM     23  C23 <0> d   1      17.492   3.497  11.795  0.00  0.00     0.129 A 
ATOM     24  C22 <0> d   1      16.721   4.645  11.789  0.00  0.00     0.043 A 
ATOM     25  F24 <0> d   1      17.357   2.586  10.806  0.00  0.00    -0.205 F 
ATOM     26  C21 <0> d   1      16.859   5.578  12.800  0.00  0.00     0.003 A 
ATOM     27  C20 <0> d   1      17.762   5.367  13.827  0.00  0.00     0.001 A 
ATOM     28  C19 <0> d   1      18.533   4.223  13.848  0.00  0.00     0.017 A 
ENDBRANCH   9  22
TORSDOF 6
ENDMDL
MODEL 7
REMARK VINA RESULT:      -7.5      3.410      5.956
REMARK  6 active torsions:
REMARK  status: ('A' for Active; 'I' for Inactive)
REMARK    1  A    between atoms: C2_2  and  N3_3 
REMARK    2  A    between atoms: N3_3  and  C5_5 
REMARK    3  A    between atoms: N3_3  and  C7_7 
REMARK    4  A    between atoms: C7_7  and  C8_8 
REMARK    5  A    between atoms: C8_8  and  N9_9 
REMARK    6  A    between atoms: C17_17  and  C18_18 
ROOT
ATOM      1  N9  <0> d   1      18.570  -0.744  12.366  0.00  0.00    -0.314 N 
ATOM      2  C10 <0> d   1      18.448  -0.259  13.659  0.00  0.00     0.050 A 
ATOM      3  C11 <0> d   1      18.063  -1.164  14.649  0.00  0.00     0.032 A 
ATOM      4  C12 <0> d   1      17.919  -0.757  15.958  0.00  0.00     0.026 A 
ATOM      5  C13 <0> d   1      18.157   0.565  16.304  0.00  0.00     0.035 A 
ATOM      6 Cl14 <0> d   1      17.976   1.077  17.952  0.00  0.00    -0.084 Cl
ATOM      7  C15 <0> d   1      18.539   1.471  15.339  0.00  0.00     0.040 A 
ATOM      8  C16 <0> d   1      18.690   1.069  14.004  0.00  0.00     0.022 A 
ATOM      9  C17 <0> d   1      19.104   2.089  13.027  0.00  0.00     0.077 C 
ATOM     10  N25 <0> d   1      19.946   1.897  12.075  0.00  0.00    -0.279 NA
ATOM     11  C26 <0> d   1      20.588   0.601  11.863  0.00  0.00     0.252 C 
ATOM     12  C27 <0> d   1      19.537  -0.417  11.512  0.00  0.00     0.244 C 
ATOM     13  O28 <0> d   1      19.569  -0.947  10.422  0.00  0.00    -0.271 OA
ENDROOT
BRANCH   1  14
ATOM     14  C8  <0> d   1      17.556  -1.696  11.903  0.00  0.00     0.160 C 
BRANCH  14  15
ATOM     15  C7  <0> d   1      18.109  -3.119  12.004  0.00  0.00     0.255 C 
BRANCH  15  16
ATOM     16  N3  <0> d   1      18.003  -3.779  10.696  0.00  0.00    -0.070 N 
ATOM     17  H4  <0> d   1      17.897  -3.081   9.975  0.00  0.00     0.279 HD
BRANCH  16  18
ATOM     18  C2  <0> d   1      19.220  -4.563  10.444  0.00  0.00     0.230 C 
ATOM     19  C1  <0> d   1      20.298  -4.171  11.456  0.00  0.00     0.034 C 
ENDBRANCH  16  18
BRANCH  16  20
ATOM     20  C5  <0> d   1      16.835  -4.670  10.690  0.00  0.00     0.230 C 
ATOM     21  C6  <0> d   1      17.297  -6.113  10.480  0.00  0.00     0.034 C 
ENDBRANCH  16  20
ENDBRANCH  15  16
ENDBRANCH  14  15
ENDBRANCH   1  14
BRANCH   9  22
ATOM     22  C18 <0> d   1      18.506   3.438  13.151  0.00  0.00     0.032 A 
ATOM     23  C23 <0> d   1      17.466   3.825  12.302  0.00  0.00     0.129 A 
ATOM     24  C22 <0> d   1      16.909   5.085  12.427  0.00  0.00     0.043 A 
ATOM     25  F24 <0> d   1      16.998   2.967  11.369  0.00  0.00    -0.205 F 
ATOM     26  C21 <0> d   1      17.388   5.963  13.381  0.00  0.00     0.003 A 
ATOM     27  C20 <0> d   1      18.421   5.587  14.221  0.00  0.00     0.001 A 
ATOM     28  C19 <0> d   1      18.982   4.330  14.111  0.00  0.00     0.017 A 
ENDBRANCH   9  22
TORSDOF 6
ENDMDL
MODEL 8
REMARK VINA RESULT:      -7.3      3.594      5.500
REMARK  6 active torsions:
REMARK  status: ('A' for Active; 'I' for Inactive)
REMARK    1  A    between atoms: C2_2  and  N3_3 
REMARK    2  A    between atoms: N3_3  and  C5_5 
REMARK    3  A    between atoms: N3_3  and  C7_7 
REMARK    4  A    between atoms: C7_7  and  C8_8 
REMARK    5  A    between atoms: C8_8  and  N9_9 
REMARK    6  A    between atoms: C17_17  and  C18_18 
ROOT
ATOM      1  N9  <0> d   1      18.588   1.552  12.028  0.00  0.00    -0.314 N 
ATOM      2  C10 <0> d   1      18.683   0.736  13.146  0.00  0.00     0.050 A 
ATOM      3  C11 <0> d   1      19.147   1.320  14.326  0.00  0.00     0.032 A 
ATOM      4  C12 <0> d   1      19.270   0.574  15.478  0.00  0.00     0.026 A 
ATOM      5  C13 <0> d   1      18.932  -0.770  15.475  0.00  0.00     0.035 A 
ATOM      6 Cl14 <0> d   1      19.088  -1.708  16.927  0.00  0.00    -0.084 Cl
ATOM      7  C15 <0> d   1      18.472  -1.362  14.319  0.00  0.00     0.040 A 
ATOM      8  C16 <0> d   1      18.341  -0.614  13.140  0.00  0.00     0.022 A 
ATOM      9  C17 <0> d   1      17.840  -1.310  11.944  0.00  0.00     0.077 C 
ATOM     10  N25 <0> d   1      17.007  -0.813  11.099  0.00  0.00    -0.279 NA
ATOM     11  C26 <0> d   1      16.466   0.537  11.251  0.00  0.00     0.252 C 
ATOM     12  C27 <0> d   1      17.590   1.531  11.147  0.00  0.00     0.244 C 
ATOM     13  O28 <0> d   1      17.591   2.329  10.235  0.00  0.00    -0.271 OA
ENDROOT
BRANCH   1  14
ATOM     14  C8  <0> d   1      19.669   2.514  11.800  0.00  0.00     0.160 C 
BRANCH  14  15
ATOM     15  C7  <0> d   1      19.110   3.936  11.874  0.00  0.00     0.255 C 
BRANCH  15  16
ATOM     16  N3  <0> d   1      18.935   4.321  13.281  0.00  0.00    -0.070 N 
ATOM     17  H4  <0> d   1      19.129   3.527  13.874  0.00  0.00     0.279 HD
BRANCH  16  18
ATOM     18  C2  <0> d   1      19.860   5.414  13.608  0.00  0.00     0.230 C 
ATOM     19  C1  <0> d   1      19.952   5.567  15.127  0.00  0.00     0.034 C 
ENDBRANCH  16  18
BRANCH  16  20
ATOM     20  C5  <0> d   1      17.551   4.766  13.498  0.00  0.00     0.230 C 
ATOM     21  C6  <0> d   1      16.939   5.195  12.164  0.00  0.00     0.034 C 
ENDBRANCH  16  20
ENDBRANCH  15  16
ENDBRANCH  14  15
ENDBRANCH   1  14
BRANCH   9  22
ATOM     22  C18 <0> d   1      18.331  -2.684  11.694  0.00  0.00     0.032 A 
ATOM     23  C23 <0> d   1      19.663  -2.897  11.330  0.00  0.00     0.129 A 
ATOM     24  C22 <0> d   1      20.117  -4.184  11.104  0.00  0.00     0.043 A 
ATOM     25  F24 <0> d   1      20.510  -1.851  11.212  0.00  0.00    -0.205 F 
ATOM     26  C21 <0> d   1      19.251  -5.255  11.225  0.00  0.00     0.003 A 
ATOM     27  C20 <0> d   1      17.929  -5.049  11.580  0.00  0.00     0.001 A 
ATOM     28  C19 <0> d   1      17.466  -3.770  11.814  0.00  0.00     0.017 A 
ENDBRANCH   9  22
TORSDOF 6
ENDMDL
MODEL 9
REMARK VINA RESULT:      -7.3      5.465      7.997
REMARK  6 active torsions:
REMARK  status: ('A' for Active; 'I' for Inactive)
REMARK    1  A    between atoms: C2_2  and  N3_3 
REMARK    2  A    between atoms: N3_3  and  C5_5 
REMARK    3  A    between atoms: N3_3  and  C7_7 
REMARK    4  A    between atoms: C7_7  and  C8_8 
REMARK    5  A    between atoms: C8_8  and  N9_9 
REMARK    6  A    between atoms: C17_17  and  C18_18 
ROOT
ATOM      1  N9  <0> d   1      17.848  -5.731   7.594  0.00  0.00    -0.314 N 
ATOM      2  C10 <0> d   1      17.778  -4.816   8.634  0.00  0.00     0.050 A 
ATOM      3  C11 <0> d   1      17.115  -5.216   9.796  0.00  0.00     0.032 A 
ATOM      4  C12 <0> d   1      17.002  -4.363  10.871  0.00  0.00     0.026 A 
ATOM      5  C13 <0> d   1      17.550  -3.091  10.808  0.00  0.00     0.035 A 
ATOM      6 Cl14 <0> d   1      17.407  -2.016  12.164  0.00  0.00    -0.084 Cl
ATOM      7  C15 <0> d   1      18.209  -2.679   9.670  0.00  0.00     0.040 A 
ATOM      8  C16 <0> d   1      18.331  -3.539   8.569  0.00  0.00     0.022 A 
ATOM      9  C17 <0> d   1      19.050  -3.036   7.388  0.00  0.00     0.077 C 
ATOM     10  N25 <0> d   1      19.871  -3.725   6.677  0.00  0.00    -0.279 NA
ATOM     11  C26 <0> d   1      20.171  -5.123   6.983  0.00  0.00     0.252 C 
ATOM     12  C27 <0> d   1      18.917  -5.940   6.829  0.00  0.00     0.244 C 
ATOM     13  O28 <0> d   1      18.877  -6.806   5.981  0.00  0.00    -0.271 OA
ENDROOT
BRANCH   1  14
ATOM     14  C8  <0> d   1      16.654  -6.534   7.320  0.00  0.00     0.160 C 
BRANCH  14  15
ATOM     15  C7  <0> d   1      15.926  -5.964   6.102  0.00  0.00     0.255 C 
BRANCH  15  16
ATOM     16  N3  <0> d   1      14.486  -5.888   6.383  0.00  0.00    -0.070 N 
ATOM     17  H4  <0> d   1      14.195  -4.921   6.392  0.00  0.00     0.279 HD
BRANCH  16  18
ATOM     18  C2  <0> d   1      13.745  -6.613   5.342  0.00  0.00     0.230 C 
ATOM     19  C1  <0> d   1      14.219  -6.149   3.963  0.00  0.00     0.034 C 
ENDBRANCH  16  18
BRANCH  16  20
ATOM     20  C5  <0> d   1      14.210  -6.494   7.693  0.00  0.00     0.230 C 
ATOM     21  C6  <0> d   1      12.777  -6.168   8.114  0.00  0.00     0.034 C 
ENDBRANCH  16  20
ENDBRANCH  15  16
ENDBRANCH  14  15
ENDBRANCH   1  14
BRANCH   9  22
ATOM     22  C18 <0> d   1      18.812  -1.630   6.988  0.00  0.00     0.032 A 
ATOM     23  C23 <0> d   1      18.133  -1.344   5.802  0.00  0.00     0.129 A 
ATOM     24  C22 <0> d   1      17.909  -0.028   5.438  0.00  0.00     0.043 A 
ATOM     25  F24 <0> d   1      17.685  -2.348   5.017  0.00  0.00    -0.205 F 
ATOM     26  C21 <0> d   1      18.367   1.000   6.240  0.00  0.00     0.003 A 
ATOM     27  C20 <0> d   1      19.046   0.722   7.414  0.00  0.00     0.001 A 
ATOM     28  C19 <0> d   1      19.270  -0.586   7.792  0.00  0.00     0.017 A 
ENDBRANCH   9  22
TORSDOF 6
ENDMDL
