MODEL 1
REMARK VINA RESULT:      -7.3      0.000      0.000
REMARK  4 active torsions:
REMARK  status: ('A' for Active; 'I' for Inactive)
REMARK    1  A    between atoms: O2_2  and  C3_3 
REMARK    2  A    between atoms: C8_8  and  O9_9 
REMARK    3  A    between atoms: C16_15  and  C18_16 
REMARK    4  A    between atoms: C18_16  and  C19_17 
ROOT
ATOM      1  C3  ZIN A   1      17.969  -0.041   8.637  0.00  0.00     0.102 A 
ATOM      2  C4  ZIN A   1      17.701   1.199   9.190  0.00  0.00     0.047 A 
ATOM      3  C5  ZIN A   1      18.474   1.682  10.235  0.00  0.00    -0.045 A 
ATOM      4  C6  ZIN A   1      19.519   0.925  10.727  0.00  0.00    -0.018 A 
ATOM      5  C7  ZIN A   1      19.789  -0.318  10.176  0.00  0.00     0.049 A 
ATOM      6  C8  ZIN A   1      19.017  -0.807   9.137  0.00  0.00     0.102 A 
ATOM      7  C11 ZIN A   1      20.382   1.428  11.849  0.00  0.00     0.228 C 
ATOM      8  C13 ZIN A   1      20.814   0.283  12.759  0.00  0.00     0.116 C 
ATOM      9  C14 ZIN A   1      19.615  -0.188  13.557  0.00  0.00     0.135 C 
ATOM     10  O15 ZIN A   1      19.345  -1.361  13.652  0.00  0.00    -0.297 OA
ATOM     11  C16 ZIN A   1      18.770   0.875  14.230  0.00  0.00     0.081 C 
ATOM     12  C22 ZIN A   1      18.444   1.948  13.187  0.00  0.00     0.247 C 
ATOM     13  N23 ZIN A   1      19.681   2.462  12.613  0.00  0.00    -0.061 N 
ATOM     14  H24 ZIN A   1      20.275   2.827  13.343  0.00  0.00     0.280 HD
ATOM     15  C25 ZIN A   1      19.328   3.536  11.662  0.00  0.00     0.240 C 
ATOM     16  C26 ZIN A   1      18.145   3.035  10.813  0.00  0.00     0.067 C 
ENDROOT
BRANCH  11  17
ATOM     17  C18 ZIN A   1      17.475   0.251  14.754  0.00  0.00     0.017 C 
BRANCH  17  18
ATOM     18  C19 ZIN A   1      17.520   0.191  16.282  0.00  0.00    -0.022 C 
ATOM     19  C20 ZIN A   1      17.608  -1.268  16.733  0.00  0.00     0.009 C 
ATOM     20  C21 ZIN A   1      18.745   0.957  16.787  0.00  0.00     0.009 C 
ENDBRANCH  17  18
ENDBRANCH  11  17
BRANCH   6  21
ATOM     21  O9  ZIN A   1      19.287  -2.027   8.601  0.00  0.00    -0.353 OA
ATOM     22  C10 ZIN A   1      18.864  -3.171   9.345  0.00  0.00     0.210 C 
ENDBRANCH   6  21
BRANCH   1  23
ATOM     23  O2  ZIN A   1      17.208  -0.509   7.612  0.00  0.00    -0.353 OA
ATOM     24  C1  ZIN A   1      17.468   0.027   6.313  0.00  0.00     0.210 C 
ENDBRANCH   1  23
TORSDOF 4
ENDMDL
MODEL 2
REMARK VINA RESULT:      -7.0      2.395      4.718
REMARK  4 active torsions:
REMARK  status: ('A' for Active; 'I' for Inactive)
REMARK    1  A    between atoms: O2_2  and  C3_3 
REMARK    2  A    between atoms: C8_8  and  O9_9 
REMARK    3  A    between atoms: C16_15  and  C18_16 
REMARK    4  A    between atoms: C18_16  and  C19_17 
ROOT
ATOM      1  C3  ZIN A   1      17.585   3.072  11.318  0.00  0.00     0.102 A 
ATOM      2  C4  ZIN A   1      17.539   2.481  12.568  0.00  0.00     0.047 A 
ATOM      3  C5  ZIN A   1      18.438   1.479  12.902  0.00  0.00    -0.045 A 
ATOM      4  C6  ZIN A   1      19.386   1.069  11.985  0.00  0.00    -0.018 A 
ATOM      5  C7  ZIN A   1      19.433   1.658  10.731  0.00  0.00     0.049 A 
ATOM      6  C8  ZIN A   1      18.535   2.654  10.391  0.00  0.00     0.102 A 
ATOM      7  C11 ZIN A   1      20.381  -0.005  12.324  0.00  0.00     0.228 C 
ATOM      8  C13 ZIN A   1      20.691  -0.865  11.103  0.00  0.00     0.116 C 
ATOM      9  C14 ZIN A   1      19.486  -1.729  10.794  0.00  0.00     0.135 C 
ATOM     10  O15 ZIN A   1      19.049  -1.820   9.672  0.00  0.00    -0.297 OA
ATOM     11  C16 ZIN A   1      18.852  -2.473  11.951  0.00  0.00     0.081 C 
ATOM     12  C22 ZIN A   1      18.627  -1.473  13.089  0.00  0.00     0.247 C 
ATOM     13  N23 ZIN A   1      19.890  -0.831  13.429  0.00  0.00    -0.061 N 
ATOM     14  H24 ZIN A   1      20.575  -1.527  13.682  0.00  0.00     0.280 HD
ATOM     15  C25 ZIN A   1      19.645   0.076  14.570  0.00  0.00     0.240 C 
ATOM     16  C26 ZIN A   1      18.351   0.857  14.273  0.00  0.00     0.067 C 
ENDROOT
BRANCH  11  17
ATOM     17  C18 ZIN A   1      17.512  -3.068  11.511  0.00  0.00     0.017 C 
BRANCH  17  18
ATOM     18  C19 ZIN A   1      17.721  -4.514  11.058  0.00  0.00    -0.022 C 
ATOM     19  C20 ZIN A   1      17.387  -5.463  12.210  0.00  0.00     0.009 C 
ATOM     20  C21 ZIN A   1      16.804  -4.813   9.869  0.00  0.00     0.009 C 
ENDBRANCH  17  18
ENDBRANCH  11  17
BRANCH   6  21
ATOM     21  O9  ZIN A   1      18.587   3.228   9.159  0.00  0.00    -0.353 OA
ATOM     22  C10 ZIN A   1      18.940   2.383   8.063  0.00  0.00     0.210 C 
ENDBRANCH   6  21
BRANCH   1  23
ATOM     23  O2  ZIN A   1      16.702   4.055  10.996  0.00  0.00    -0.353 OA
ATOM     24  C1  ZIN A   1      16.692   5.217  11.828  0.00  0.00     0.210 C 
ENDBRANCH   1  23
TORSDOF 4
ENDMDL
MODEL 3
REMARK VINA RESULT:      -6.9      2.099      6.587
REMARK  4 active torsions:
REMARK  status: ('A' for Active; 'I' for Inactive)
REMARK    1  A    between atoms: O2_2  and  C3_3 
REMARK    2  A    between atoms: C8_8  and  O9_9 
REMARK    3  A    between atoms: C16_15  and  C18_16 
REMARK    4  A    between atoms: C18_16  and  C19_17 
ROOT
ATOM      1  C3  ZIN A   1      17.972   0.024  14.343  0.00  0.00     0.102 A 
ATOM      2  C4  ZIN A   1      17.731  -1.222  13.791  0.00  0.00     0.047 A 
ATOM      3  C5  ZIN A   1      18.521  -1.695  12.755  0.00  0.00    -0.045 A 
ATOM      4  C6  ZIN A   1      19.558  -0.921  12.271  0.00  0.00    -0.018 A 
ATOM      5  C7  ZIN A   1      19.801   0.328  12.819  0.00  0.00     0.049 A 
ATOM      6  C8  ZIN A   1      19.011   0.806  13.849  0.00  0.00     0.102 A 
ATOM      7  C11 ZIN A   1      20.439  -1.413  11.158  0.00  0.00     0.228 C 
ATOM      8  C13 ZIN A   1      20.860  -0.263  10.247  0.00  0.00     0.116 C 
ATOM      9  C14 ZIN A   1      19.661   0.184   9.437  0.00  0.00     0.135 C 
ATOM     10  O15 ZIN A   1      19.371   1.352   9.336  0.00  0.00    -0.297 OA
ATOM     11  C16 ZIN A   1      18.840  -0.895   8.761  0.00  0.00     0.081 C 
ATOM     12  C22 ZIN A   1      18.523  -1.971   9.804  0.00  0.00     0.247 C 
ATOM     13  N23 ZIN A   1      19.763  -2.461  10.390  0.00  0.00    -0.061 N 
ATOM     14  H24 ZIN A   1      20.370  -2.818   9.668  0.00  0.00     0.280 HD
ATOM     15  C25 ZIN A   1      19.421  -3.539  11.342  0.00  0.00     0.240 C 
ATOM     16  C26 ZIN A   1      18.221  -3.055  12.179  0.00  0.00     0.067 C 
ENDROOT
BRANCH  11  17
ATOM     17  C18 ZIN A   1      17.540  -0.295   8.223  0.00  0.00     0.017 C 
BRANCH  17  18
ATOM     18  C19 ZIN A   1      17.546  -0.352   6.694  0.00  0.00    -0.022 C 
ATOM     19  C20 ZIN A   1      18.272   0.875   6.140  0.00  0.00     0.009 C 
ATOM     20  C21 ZIN A   1      18.265  -1.622   6.234  0.00  0.00     0.009 C 
ENDBRANCH  17  18
ENDBRANCH  11  17
BRANCH   6  21
ATOM     21  O9  ZIN A   1      19.256   2.033  14.384  0.00  0.00    -0.353 OA
ATOM     22  C10 ZIN A   1      18.795   3.166  13.646  0.00  0.00     0.210 C 
ENDBRANCH   6  21
BRANCH   1  23
ATOM     23  O2  ZIN A   1      17.194   0.482  15.360  0.00  0.00    -0.353 OA
ATOM     24  C1  ZIN A   1      17.256  -0.231  16.597  0.00  0.00     0.210 C 
ENDBRANCH   1  23
TORSDOF 4
ENDMDL
MODEL 4
REMARK VINA RESULT:      -6.4      4.476      7.699
REMARK  4 active torsions:
REMARK  status: ('A' for Active; 'I' for Inactive)
REMARK    1  A    between atoms: O2_2  and  C3_3 
REMARK    2  A    between atoms: C8_8  and  O9_9 
REMARK    3  A    between atoms: C16_15  and  C18_16 
REMARK    4  A    between atoms: C18_16  and  C19_17 
ROOT
ATOM      1  C3  ZIN A   1      18.670  -1.462   7.922  0.00  0.00     0.102 A 
ATOM      2  C4  ZIN A   1      18.117  -1.796   9.146  0.00  0.00     0.047 A 
ATOM      3  C5  ZIN A   1      18.065  -3.121   9.553  0.00  0.00    -0.045 A 
ATOM      4  C6  ZIN A   1      18.567  -4.113   8.735  0.00  0.00    -0.018 A 
ATOM      5  C7  ZIN A   1      19.120  -3.782   7.507  0.00  0.00     0.049 A 
ATOM      6  C8  ZIN A   1      19.169  -2.463   7.095  0.00  0.00     0.102 A 
ATOM      7  C11 ZIN A   1      18.536  -5.556   9.155  0.00  0.00     0.228 C 
ATOM      8  C13 ZIN A   1      18.298  -6.468   7.955  0.00  0.00     0.116 C 
ATOM      9  C14 ZIN A   1      16.863  -6.309   7.497  0.00  0.00     0.135 C 
ATOM     10  O15 ZIN A   1      16.590  -6.145   6.332  0.00  0.00    -0.297 OA
ATOM     11  C16 ZIN A   1      15.786  -6.364   8.561  0.00  0.00     0.081 C 
ATOM     12  C22 ZIN A   1      16.189  -5.412   9.691  0.00  0.00     0.247 C 
ATOM     13  N23 ZIN A   1      17.514  -5.771  10.181  0.00  0.00    -0.061 N 
ATOM     14  H24 ZIN A   1      17.519  -6.731  10.490  0.00  0.00     0.280 HD
ATOM     15  C25 ZIN A   1      17.839  -4.873  11.309  0.00  0.00     0.240 C 
ATOM     16  C26 ZIN A   1      17.450  -3.443  10.891  0.00  0.00     0.067 C 
ENDROOT
BRANCH  11  17
ATOM     17  C18 ZIN A   1      14.447  -5.925   7.965  0.00  0.00     0.017 C 
BRANCH  17  18
ATOM     18  C19 ZIN A   1      13.498  -7.123   7.902  0.00  0.00    -0.022 C 
ATOM     19  C20 ZIN A   1      12.108  -6.698   8.377  0.00  0.00     0.009 C 
ATOM     20  C21 ZIN A   1      13.412  -7.630   6.461  0.00  0.00     0.009 C 
ENDBRANCH  17  18
ENDBRANCH  11  17
BRANCH   6  21
ATOM     21  O9  ZIN A   1      19.713  -2.144   5.890  0.00  0.00    -0.353 OA
ATOM     22  C10 ZIN A   1      18.991  -2.547   4.725  0.00  0.00     0.210 C 
ENDBRANCH   6  21
BRANCH   1  23
ATOM     23  O2  ZIN A   1      18.720  -0.161   7.529  0.00  0.00    -0.353 OA
ATOM     24  C1  ZIN A   1      19.237   0.782   8.470  0.00  0.00     0.210 C 
ENDBRANCH   1  23
TORSDOF 4
ENDMDL
MODEL 5
REMARK VINA RESULT:      -6.1      2.668      3.916
REMARK  4 active torsions:
REMARK  status: ('A' for Active; 'I' for Inactive)
REMARK    1  A    between atoms: O2_2  and  C3_3 
REMARK    2  A    between atoms: C8_8  and  O9_9 
REMARK    3  A    between atoms: C16_15  and  C18_16 
REMARK    4  A    between atoms: C18_16  and  C19_17 
ROOT
ATOM      1  C3  ZIN A   1      17.744  -2.938   9.574  0.00  0.00     0.102 A 
ATOM      2  C4  ZIN A   1      17.657  -1.896   8.667  0.00  0.00     0.047 A 
ATOM      3  C5  ZIN A   1      18.502  -0.802   8.773  0.00  0.00    -0.045 A 
ATOM      4  C6  ZIN A   1      19.437  -0.749   9.788  0.00  0.00    -0.018 A 
ATOM      5  C7  ZIN A   1      19.526  -1.789  10.700  0.00  0.00     0.049 A 
ATOM      6  C8  ZIN A   1      18.681  -2.881  10.600  0.00  0.00     0.102 A 
ATOM      7  C11 ZIN A   1      20.374   0.418   9.920  0.00  0.00     0.228 C 
ATOM      8  C13 ZIN A   1      20.654   0.729  11.388  0.00  0.00     0.116 C 
ATOM      9  C14 ZIN A   1      19.410   1.335  12.005  0.00  0.00     0.135 C 
ATOM     10  O15 ZIN A   1      18.981   0.945  13.064  0.00  0.00    -0.297 OA
ATOM     11  C16 ZIN A   1      18.728   2.450  11.238  0.00  0.00     0.081 C 
ATOM     12  C22 ZIN A   1      18.542   1.982   9.791  0.00  0.00     0.247 C 
ATOM     13  N23 ZIN A   1      19.832   1.594   9.236  0.00  0.00    -0.061 N 
ATOM     14  H24 ZIN A   1      20.479   2.366   9.292  0.00  0.00     0.280 HD
ATOM     15  C25 ZIN A   1      19.622   1.211   7.824  0.00  0.00     0.240 C 
ATOM     16  C26 ZIN A   1      18.371   0.314   7.768  0.00  0.00     0.067 C 
ENDROOT
BRANCH  11  17
ATOM     17  C18 ZIN A   1      17.366   2.750  11.865  0.00  0.00     0.017 C 
BRANCH  17  18
ATOM     18  C19 ZIN A   1      17.247   4.252  12.132  0.00  0.00    -0.022 C 
ATOM     19  C20 ZIN A   1      18.585   4.786  12.645  0.00  0.00     0.009 C 
ATOM     20  C21 ZIN A   1      16.873   4.973  10.835  0.00  0.00     0.009 C 
ENDBRANCH  17  18
ENDBRANCH  11  17
BRANCH   6  21
ATOM     21  O9  ZIN A   1      18.774  -3.899  11.498  0.00  0.00    -0.353 OA
ATOM     22  C10 ZIN A   1      19.911  -4.756  11.393  0.00  0.00     0.210 C 
ENDBRANCH   6  21
BRANCH   1  23
ATOM     23  O2  ZIN A   1      16.914  -4.009   9.464  0.00  0.00    -0.353 OA
ATOM     24  C1  ZIN A   1      17.210  -4.957   8.436  0.00  0.00     0.210 C 
ENDBRANCH   1  23
TORSDOF 4
ENDMDL
MODEL 6
REMARK VINA RESULT:      -6.0      4.326      6.100
REMARK  4 active torsions:
REMARK  status: ('A' for Active; 'I' for Inactive)
REMARK    1  A    between atoms: O2_2  and  C3_3 
REMARK    2  A    between atoms: C8_8  and  O9_9 
REMARK    3  A    between atoms: C16_15  and  C18_16 
REMARK    4  A    between atoms: C18_16  and  C19_17 
ROOT
ATOM      1  C3  ZIN A   1      18.019   2.818  12.908  0.00  0.00     0.102 A 
ATOM      2  C4  ZIN A   1      18.697   4.024  12.867  0.00  0.00     0.047 A 
ATOM      3  C5  ZIN A   1      19.309   4.523  14.007  0.00  0.00    -0.045 A 
ATOM      4  C6  ZIN A   1      19.245   3.813  15.190  0.00  0.00    -0.018 A 
ATOM      5  C7  ZIN A   1      18.566   2.606  15.236  0.00  0.00     0.049 A 
ATOM      6  C8  ZIN A   1      17.949   2.107  14.102  0.00  0.00     0.102 A 
ATOM      7  C11 ZIN A   1      19.911   4.323  16.437  0.00  0.00     0.228 C 
ATOM      8  C13 ZIN A   1      19.091   3.969  17.675  0.00  0.00     0.116 C 
ATOM      9  C14 ZIN A   1      17.839   4.823  17.693  0.00  0.00     0.135 C 
ATOM     10  O15 ZIN A   1      16.751   4.338  17.895  0.00  0.00    -0.297 OA
ATOM     11  C16 ZIN A   1      18.009   6.308  17.445  0.00  0.00     0.081 C 
ATOM     12  C22 ZIN A   1      18.865   6.481  16.187  0.00  0.00     0.247 C 
ATOM     13  N23 ZIN A   1      20.125   5.769  16.353  0.00  0.00    -0.061 N 
ATOM     14  H24 ZIN A   1      20.606   6.104  17.174  0.00  0.00     0.280 HD
ATOM     15  C25 ZIN A   1      20.947   6.012  15.149  0.00  0.00     0.240 C 
ATOM     16  C26 ZIN A   1      20.033   5.843  13.921  0.00  0.00     0.067 C 
ENDROOT
BRANCH  11  17
ATOM     17  C18 ZIN A   1      16.639   6.957  17.234  0.00  0.00     0.017 C 
BRANCH  17  18
ATOM     18  C19 ZIN A   1      16.431   7.236  15.745  0.00  0.00    -0.022 C 
ATOM     19  C20 ZIN A   1      15.413   6.246  15.177  0.00  0.00     0.009 C 
ATOM     20  C21 ZIN A   1      15.911   8.664  15.562  0.00  0.00     0.009 C 
ENDBRANCH  17  18
ENDBRANCH  11  17
BRANCH   6  21
ATOM     21  O9  ZIN A   1      17.283   0.922  14.153  0.00  0.00    -0.353 OA
ATOM     22  C10 ZIN A   1      17.751  -0.046  15.093  0.00  0.00     0.210 C 
ENDBRANCH   6  21
BRANCH   1  23
ATOM     23  O2  ZIN A   1      17.422   2.333  11.787  0.00  0.00    -0.353 OA
ATOM     24  C1  ZIN A   1      17.759   2.961  10.548  0.00  0.00     0.210 C 
ENDBRANCH   1  23
TORSDOF 4
ENDMDL
MODEL 7
REMARK VINA RESULT:      -6.0      2.597      5.424
REMARK  4 active torsions:
REMARK  status: ('A' for Active; 'I' for Inactive)
REMARK    1  A    between atoms: O2_2  and  C3_3 
REMARK    2  A    between atoms: C8_8  and  O9_9 
REMARK    3  A    between atoms: C16_15  and  C18_16 
REMARK    4  A    between atoms: C18_16  and  C19_17 
ROOT
ATOM      1  C3  ZIN A   1      19.594   3.253  12.061  0.00  0.00     0.102 A 
ATOM      2  C4  ZIN A   1      19.694   2.774  10.767  0.00  0.00     0.047 A 
ATOM      3  C5  ZIN A   1      18.837   1.780  10.320  0.00  0.00    -0.045 A 
ATOM      4  C6  ZIN A   1      17.878   1.264  11.168  0.00  0.00    -0.018 A 
ATOM      5  C7  ZIN A   1      17.776   1.739  12.466  0.00  0.00     0.049 A 
ATOM      6  C8  ZIN A   1      18.632   2.728  12.918  0.00  0.00     0.102 A 
ATOM      7  C11 ZIN A   1      16.927   0.195  10.707  0.00  0.00     0.228 C 
ATOM      8  C13 ZIN A   1      16.610  -0.777  11.840  0.00  0.00     0.116 C 
ATOM      9  C14 ZIN A   1      17.833  -1.629  12.111  0.00  0.00     0.135 C 
ATOM     10  O15 ZIN A   1      18.240  -1.805  13.234  0.00  0.00    -0.297 OA
ATOM     11  C16 ZIN A   1      18.523  -2.251  10.914  0.00  0.00     0.081 C 
ATOM     12  C22 ZIN A   1      18.748  -1.149   9.874  0.00  0.00     0.247 C 
ATOM     13  N23 ZIN A   1      17.475  -0.517   9.551  0.00  0.00    -0.061 N 
ATOM     14  H24 ZIN A   1      16.820  -1.209   9.218  0.00  0.00     0.280 HD
ATOM     15  C25 ZIN A   1      17.723   0.493   8.501  0.00  0.00     0.240 C 
ATOM     16  C26 ZIN A   1      18.983   1.282   8.904  0.00  0.00     0.067 C 
ENDROOT
BRANCH  11  17
ATOM     17  C18 ZIN A   1      19.868  -2.842  11.342  0.00  0.00     0.017 C 
BRANCH  17  18
ATOM     18  C19 ZIN A   1      19.830  -4.363  11.183  0.00  0.00    -0.022 C 
ATOM     19  C20 ZIN A   1      18.508  -4.901  11.734  0.00  0.00     0.009 C 
ATOM     20  C21 ZIN A   1      19.949  -4.725   9.701  0.00  0.00     0.009 C 
ENDBRANCH  17  18
ENDBRANCH  11  17
BRANCH   6  21
ATOM     21  O9  ZIN A   1      18.527   3.191  14.193  0.00  0.00    -0.353 OA
ATOM     22  C10 ZIN A   1      18.658   2.233  15.245  0.00  0.00     0.210 C 
ENDBRANCH   6  21
BRANCH   1  23
ATOM     23  O2  ZIN A   1      20.436   4.229  12.494  0.00  0.00    -0.353 OA
ATOM     24  C1  ZIN A   1      19.838   5.409  13.037  0.00  0.00     0.210 C 
ENDBRANCH   1  23
TORSDOF 4
ENDMDL
MODEL 8
REMARK VINA RESULT:      -5.9      4.424      7.012
REMARK  4 active torsions:
REMARK  status: ('A' for Active; 'I' for Inactive)
REMARK    1  A    between atoms: O2_2  and  C3_3 
REMARK    2  A    between atoms: C8_8  and  O9_9 
REMARK    3  A    between atoms: C16_15  and  C18_16 
REMARK    4  A    between atoms: C18_16  and  C19_17 
ROOT
ATOM      1  C3  ZIN A   1      18.568   1.066  15.511  0.00  0.00     0.102 A 
ATOM      2  C4  ZIN A   1      18.111   1.463  14.267  0.00  0.00     0.047 A 
ATOM      3  C5  ZIN A   1      18.255   2.779  13.854  0.00  0.00    -0.045 A 
ATOM      4  C6  ZIN A   1      18.860   3.700  14.687  0.00  0.00    -0.018 A 
ATOM      5  C7  ZIN A   1      19.317   3.307  15.935  0.00  0.00     0.049 A 
ATOM      6  C8  ZIN A   1      19.170   1.996  16.353  0.00  0.00     0.102 A 
ATOM      7  C11 ZIN A   1      19.043   5.129  14.261  0.00  0.00     0.228 C 
ATOM      8  C13 ZIN A   1      18.889   6.075  15.449  0.00  0.00     0.116 C 
ATOM      9  C14 ZIN A   1      17.430   6.119  15.855  0.00  0.00     0.135 C 
ATOM     10  O15 ZIN A   1      17.095   6.004  17.009  0.00  0.00    -0.297 OA
ATOM     11  C16 ZIN A   1      16.410   6.313  14.751  0.00  0.00     0.081 C 
ATOM     12  C22 ZIN A   1      16.719   5.305  13.640  0.00  0.00     0.247 C 
ATOM     13  N23 ZIN A   1      18.097   5.475  13.198  0.00  0.00    -0.061 N 
ATOM     14  H24 ZIN A   1      18.245   6.423  12.886  0.00  0.00     0.280 HD
ATOM     15  C25 ZIN A   1      18.336   4.532  12.086  0.00  0.00     0.240 C 
ATOM     16  C26 ZIN A   1      17.739   3.172  12.493  0.00  0.00     0.067 C 
ENDROOT
BRANCH  11  17
ATOM     17  C18 ZIN A   1      15.003   6.066  15.299  0.00  0.00     0.017 C 
BRANCH  17  18
ATOM     18  C19 ZIN A   1      14.190   7.359  15.221  0.00  0.00    -0.022 C 
ATOM     19  C20 ZIN A   1      12.713   7.022  15.015  0.00  0.00     0.009 C 
ATOM     20  C21 ZIN A   1      14.357   8.146  16.522  0.00  0.00     0.009 C 
ENDBRANCH  17  18
ENDBRANCH  11  17
BRANCH   6  21
ATOM     21  O9  ZIN A   1      19.621   1.616  17.579  0.00  0.00    -0.353 OA
ATOM     22  C10 ZIN A   1      19.013   2.232  18.715  0.00  0.00     0.210 C 
ENDBRANCH   6  21
BRANCH   1  23
ATOM     23  O2  ZIN A   1      18.424  -0.226  15.910  0.00  0.00    -0.353 OA
ATOM     24  C1  ZIN A   1      17.218  -0.563  16.599  0.00  0.00     0.210 C 
ENDBRANCH   1  23
TORSDOF 4
ENDMDL
MODEL 9
REMARK VINA RESULT:      -5.9      1.484      2.232
REMARK  4 active torsions:
REMARK  status: ('A' for Active; 'I' for Inactive)
REMARK    1  A    between atoms: O2_2  and  C3_3 
REMARK    2  A    between atoms: C8_8  and  O9_9 
REMARK    3  A    between atoms: C16_15  and  C18_16 
REMARK    4  A    between atoms: C18_16  and  C19_17 
ROOT
ATOM      1  C3  ZIN A   1      18.059  -2.577   9.496  0.00  0.00     0.102 A 
ATOM      2  C4  ZIN A   1      17.446  -1.337   9.479  0.00  0.00     0.047 A 
ATOM      3  C5  ZIN A   1      18.058  -0.244  10.073  0.00  0.00    -0.045 A 
ATOM      4  C6  ZIN A   1      19.287  -0.392  10.687  0.00  0.00    -0.018 A 
ATOM      5  C7  ZIN A   1      19.903  -1.634  10.708  0.00  0.00     0.049 A 
ATOM      6  C8  ZIN A   1      19.293  -2.728  10.120  0.00  0.00     0.102 A 
ATOM      7  C11 ZIN A   1      19.980   0.777  11.328  0.00  0.00     0.228 C 
ATOM      8  C13 ZIN A   1      20.744   0.340  12.575  0.00  0.00     0.116 C 
ATOM      9  C14 ZIN A   1      19.748   0.009  13.667  0.00  0.00     0.135 C 
ATOM     10  O15 ZIN A   1      19.836  -1.010  14.310  0.00  0.00    -0.297 OA
ATOM     11  C16 ZIN A   1      18.638   1.008  13.920  0.00  0.00     0.081 C 
ATOM     12  C22 ZIN A   1      17.995   1.349  12.572  0.00  0.00     0.247 C 
ATOM     13  N23 ZIN A   1      19.017   1.831  11.653  0.00  0.00    -0.061 N 
ATOM     14  H24 ZIN A   1      19.488   2.631  12.048  0.00  0.00     0.280 HD
ATOM     15  C25 ZIN A   1      18.350   2.209  10.389  0.00  0.00     0.240 C 
ATOM     16  C26 ZIN A   1      17.354   1.089  10.037  0.00  0.00     0.067 C 
ENDROOT
BRANCH  11  17
ATOM     17  C18 ZIN A   1      17.592   0.395  14.853  0.00  0.00     0.017 C 
BRANCH  17  18
ATOM     18  C19 ZIN A   1      18.094   0.463  16.297  0.00  0.00    -0.022 C 
ATOM     19  C20 ZIN A   1      18.547   1.889  16.613  0.00  0.00     0.009 C 
ATOM     20  C21 ZIN A   1      16.964   0.063  17.249  0.00  0.00     0.009 C 
ENDBRANCH  17  18
ENDBRANCH  11  17
BRANCH   6  21
ATOM     21  O9  ZIN A   1      19.902  -3.943  10.144  0.00  0.00    -0.353 OA
ATOM     22  C10 ZIN A   1      20.003  -4.595  11.412  0.00  0.00     0.210 C 
ENDBRANCH   6  21
BRANCH   1  23
ATOM     23  O2  ZIN A   1      17.454  -3.645   8.910  0.00  0.00    -0.353 OA
ATOM     24  C1  ZIN A   1      16.737  -4.537   9.766  0.00  0.00     0.210 C 
ENDBRANCH   1  23
TORSDOF 4
ENDMDL
