MODEL 1
REMARK VINA RESULT:      -9.5      0.000      0.000
REMARK  5 active torsions:
REMARK  status: ('A' for Active; 'I' for Inactive)
REMARK    1  A    between atoms: C4_4  and  O6_5 
REMARK    2  A    between atoms: C25_22  and  O26_23 
REMARK    3  A    between atoms: C25_22  and  C27_24 
REMARK    4  A    between atoms: C27_24  and  C29_26 
REMARK    5  A    between atoms: C29_26  and  O30_27 
ROOT
ATOM      1  C1  <0> d   1      17.325   0.320  12.145  0.00  0.00     0.019 C 
ATOM      2  C2  <0> d   1      18.846   0.195  12.249  0.00  0.00     0.001 C 
ATOM      3  C3  <0> d   1      19.509   1.247  11.379  0.00  0.00     0.048 C 
ATOM      4  C4  <0> d   1      18.936   1.090   9.962  0.00  0.00     0.160 C 
ATOM      5  C7  <0> d   1      19.161  -0.317   9.414  0.00  0.00     0.144 C 
ATOM      6  F8  <0> d   1      20.533  -0.523   9.238  0.00  0.00    -0.239 F 
ATOM      7  C9  <0> d   1      18.624  -1.393  10.369  0.00  0.00     0.034 C 
ATOM      8  C11 <0> d   1      18.970  -2.775   9.806  0.00  0.00     0.013 C 
ATOM      9  C12 <0> d   1      18.220  -2.983   8.489  0.00  0.00     0.036 C 
ATOM     10  C13 <0> d   1      18.555  -1.838   7.550  0.00  0.00    -0.065 C 
ATOM     11  C14 <0> d   1      18.919  -2.143   6.305  0.00  0.00     0.053 C 
ATOM     12  C15 <0> d   1      19.237  -1.076   5.351  0.00  0.00     0.149 C 
ATOM     13  O16 <0> d   1      19.920  -1.279   4.369  0.00  0.00    -0.293 OA
ATOM     14  C17 <0> d   1      18.666   0.296   5.657  0.00  0.00     0.084 C 
ATOM     15  C18 <0> d   1      19.001   0.614   7.113  0.00  0.00     0.025 C 
ATOM     16  C19 <0> d   1      18.459  -0.445   8.056  0.00  0.00     0.019 C 
ATOM     17  C20 <0> d   1      16.977  -0.154   8.295  0.00  0.00     0.023 C 
ATOM     18  C21 <0> d   1      19.298  -1.190  11.714  0.00  0.00     0.005 C 
ATOM     19  C23 <0> d   1      18.848  -2.137  12.833  0.00  0.00     0.009 C 
ATOM     20  C24 <0> d   1      19.213  -1.351  14.121  0.00  0.00     0.047 C 
ATOM     21  C25 <0> d   1      19.263   0.158  13.715  0.00  0.00     0.128 C 
ENDROOT
BRANCH  21  22
ATOM     22  O26 <0> d   1      20.591   0.668  13.864  0.00  0.00    -0.381 OA
ATOM     23  H53 <0> d   1      20.690   1.302  14.587  0.00  0.00     0.211 HD
ENDBRANCH  21  22
BRANCH  21  24
ATOM     24  C27 <0> d   1      18.300   0.957  14.555  0.00  0.00     0.184 C 
ATOM     25  O28 <0> d   1      17.419   0.396  15.160  0.00  0.00    -0.292 OA
BRANCH  24  26
ATOM     26  C29 <0> d   1      18.436   2.456  14.637  0.00  0.00     0.245 C 
BRANCH  26  27
ATOM     27  O30 <0> d   1      19.576   2.787  15.432  0.00  0.00    -0.393 OA
ATOM     28  H56 <0> d   1      20.278   2.122  15.408  0.00  0.00     0.209 HD
ENDBRANCH  26  27
ENDBRANCH  24  26
ENDBRANCH  21  24
BRANCH   4  29
ATOM     29  O6  <0> d   1      17.532   1.357   9.995  0.00  0.00    -0.392 OA
ATOM     30  H36 <0> d   1      17.202   1.618  10.865  0.00  0.00     0.210 HD
ENDBRANCH   4  29
TORSDOF 5
ENDMDL
MODEL 2
REMARK VINA RESULT:      -9.2      2.119      7.290
REMARK  5 active torsions:
REMARK  status: ('A' for Active; 'I' for Inactive)
REMARK    1  A    between atoms: C4_4  and  O6_5 
REMARK    2  A    between atoms: C25_22  and  O26_23 
REMARK    3  A    between atoms: C25_22  and  C27_24 
REMARK    4  A    between atoms: C27_24  and  C29_26 
REMARK    5  A    between atoms: C29_26  and  O30_27 
ROOT
ATOM      1  C1  <0> d   1      17.351  -0.026  10.754  0.00  0.00     0.019 C 
ATOM      2  C2  <0> d   1      18.873   0.094  10.658  0.00  0.00     0.001 C 
ATOM      3  C3  <0> d   1      19.527  -1.008  11.470  0.00  0.00     0.048 C 
ATOM      4  C4  <0> d   1      18.954  -0.924  12.893  0.00  0.00     0.160 C 
ATOM      5  C7  <0> d   1      19.188   0.448  13.517  0.00  0.00     0.144 C 
ATOM      6  F8  <0> d   1      20.562   0.635  13.705  0.00  0.00    -0.239 F 
ATOM      7  C9  <0> d   1      18.660   1.579  12.622  0.00  0.00     0.034 C 
ATOM      8  C11 <0> d   1      19.015   2.926  13.259  0.00  0.00     0.013 C 
ATOM      9  C12 <0> d   1      18.265   3.067  14.586  0.00  0.00     0.036 C 
ATOM     10  C13 <0> d   1      18.591   1.870  15.461  0.00  0.00    -0.065 C 
ATOM     11  C14 <0> d   1      18.956   2.104  16.721  0.00  0.00     0.053 C 
ATOM     12  C15 <0> d   1      19.265   0.984  17.615  0.00  0.00     0.149 C 
ATOM     13  O16 <0> d   1      19.949   1.129  18.608  0.00  0.00    -0.293 OA
ATOM     14  C17 <0> d   1      18.685  -0.364  17.235  0.00  0.00     0.084 C 
ATOM     15  C18 <0> d   1      19.020  -0.605  15.764  0.00  0.00     0.025 C 
ATOM     16  C19 <0> d   1      18.486   0.507  14.879  0.00  0.00     0.019 C 
ATOM     17  C20 <0> d   1      17.002   0.240  14.624  0.00  0.00     0.023 C 
ATOM     18  C21 <0> d   1      19.334   1.445  11.268  0.00  0.00     0.005 C 
ATOM     19  C23 <0> d   1      18.892   2.454  10.202  0.00  0.00     0.009 C 
ATOM     20  C24 <0> d   1      19.253   1.737   8.873  0.00  0.00     0.047 C 
ATOM     21  C25 <0> d   1      19.292   0.208   9.197  0.00  0.00     0.128 C 
ENDROOT
BRANCH  21  22
ATOM     22  O26 <0> d   1      20.616  -0.302   9.021  0.00  0.00    -0.381 OA
ATOM     23  H53 <0> d   1      20.706  -1.243   9.224  0.00  0.00     0.211 HD
ENDBRANCH  21  22
BRANCH  21  24
ATOM     24  C27 <0> d   1      18.324  -0.537   8.314  0.00  0.00     0.184 C 
ATOM     25  O28 <0> d   1      17.516   0.072   7.656  0.00  0.00    -0.292 OA
BRANCH  24  26
ATOM     26  C29 <0> d   1      18.365  -2.043   8.254  0.00  0.00     0.245 C 
BRANCH  26  27
ATOM     27  O30 <0> d   1      19.627  -2.464   7.733  0.00  0.00    -0.393 OA
ATOM     28  H56 <0> d   1      19.653  -3.395   7.472  0.00  0.00     0.209 HD
ENDBRANCH  26  27
ENDBRANCH  24  26
ENDBRANCH  21  24
BRANCH   4  29
ATOM     29  O6  <0> d   1      17.549  -1.179  12.845  0.00  0.00    -0.392 OA
ATOM     30  H36 <0> d   1      17.295  -2.047  13.187  0.00  0.00     0.210 HD
ENDBRANCH   4  29
TORSDOF 5
ENDMDL
MODEL 3
REMARK VINA RESULT:      -8.7      1.646      6.807
REMARK  5 active torsions:
REMARK  status: ('A' for Active; 'I' for Inactive)
REMARK    1  A    between atoms: C4_4  and  O6_5 
REMARK    2  A    between atoms: C25_22  and  O26_23 
REMARK    3  A    between atoms: C25_22  and  C27_24 
REMARK    4  A    between atoms: C27_24  and  C29_26 
REMARK    5  A    between atoms: C29_26  and  O30_27 
ROOT
ATOM      1  C1  <0> d   1      19.923  -0.158   9.028  0.00  0.00     0.019 C 
ATOM      2  C2  <0> d   1      18.398  -0.289   9.054  0.00  0.00     0.001 C 
ATOM      3  C3  <0> d   1      17.782   0.989   9.589  0.00  0.00     0.048 C 
ATOM      4  C4  <0> d   1      18.436   1.272  10.950  0.00  0.00     0.160 C 
ATOM      5  C7  <0> d   1      18.250   0.109  11.920  0.00  0.00     0.144 C 
ATOM      6  F8  <0> d   1      16.891  -0.014  12.228  0.00  0.00    -0.239 F 
ATOM      7  C9  <0> d   1      18.737  -1.218  11.319  0.00  0.00     0.034 C 
ATOM      8  C11 <0> d   1      18.430  -2.352  12.301  0.00  0.00     0.013 C 
ATOM      9  C12 <0> d   1      19.256  -2.150  13.574  0.00  0.00     0.036 C 
ATOM     10  C13 <0> d   1      18.970  -0.766  14.128  0.00  0.00    -0.065 C 
ATOM     11  C14 <0> d   1      18.680  -0.664  15.425  0.00  0.00     0.053 C 
ATOM     12  C15 <0> d   1      18.412   0.651  16.015  0.00  0.00     0.149 C 
ATOM     13  O16 <0> d   1      17.787   0.772  17.049  0.00  0.00    -0.293 OA
ATOM     14  C17 <0> d   1      18.957   1.852  15.266  0.00  0.00     0.084 C 
ATOM     15  C18 <0> d   1      18.538   1.706  13.805  0.00  0.00     0.025 C 
ATOM     16  C19 <0> d   1      19.029   0.400  13.208  0.00  0.00     0.019 C 
ATOM     17  C20 <0> d   1      20.494   0.582  12.808  0.00  0.00     0.023 C 
ATOM     18  C21 <0> d   1      17.985  -1.433  10.017  0.00  0.00     0.005 C 
ATOM     19  C23 <0> d   1      18.374  -2.687   9.225  0.00  0.00     0.009 C 
ATOM     20  C24 <0> d   1      17.932  -2.335   7.779  0.00  0.00     0.047 C 
ATOM     21  C25 <0> d   1      17.898  -0.774   7.698  0.00  0.00     0.128 C 
ENDROOT
BRANCH  21  22
ATOM     22  O26 <0> d   1      16.562  -0.318   7.473  0.00  0.00    -0.381 OA
ATOM     23  H53 <0> d   1      15.895  -0.779   7.999  0.00  0.00     0.211 HD
ENDBRANCH  21  22
BRANCH  21  24
ATOM     24  C27 <0> d   1      18.807  -0.289   6.598  0.00  0.00     0.184 C 
ATOM     25  O28 <0> d   1      19.031   0.892   6.478  0.00  0.00    -0.292 OA
BRANCH  24  26
ATOM     26  C29 <0> d   1      19.436  -1.276   5.649  0.00  0.00     0.245 C 
BRANCH  26  27
ATOM     27  O30 <0> d   1      20.058  -0.571   4.573  0.00  0.00    -0.393 OA
ATOM     28  H56 <0> d   1      20.988  -0.801   4.439  0.00  0.00     0.209 HD
ENDBRANCH  26  27
ENDBRANCH  24  26
ENDBRANCH  21  24
BRANCH   4  29
ATOM     29  O6  <0> d   1      19.834   1.497  10.757  0.00  0.00    -0.392 OA
ATOM     30  H36 <0> d   1      20.217   0.992  10.028  0.00  0.00     0.210 HD
ENDBRANCH   4  29
TORSDOF 5
ENDMDL
MODEL 4
REMARK VINA RESULT:      -8.4      2.935      6.570
REMARK  5 active torsions:
REMARK  status: ('A' for Active; 'I' for Inactive)
REMARK    1  A    between atoms: C4_4  and  O6_5 
REMARK    2  A    between atoms: C25_22  and  O26_23 
REMARK    3  A    between atoms: C25_22  and  C27_24 
REMARK    4  A    between atoms: C27_24  and  C29_26 
REMARK    5  A    between atoms: C29_26  and  O30_27 
ROOT
ATOM      1  C1  <0> d   1      19.660  -4.042   9.484  0.00  0.00     0.019 C 
ATOM      2  C2  <0> d   1      18.140  -3.872   9.538  0.00  0.00     0.001 C 
ATOM      3  C3  <0> d   1      17.730  -2.664   8.717  0.00  0.00     0.048 C 
ATOM      4  C4  <0> d   1      18.540  -1.466   9.237  0.00  0.00     0.160 C 
ATOM      5  C7  <0> d   1      18.316  -1.236  10.729  0.00  0.00     0.144 C 
ATOM      6  F8  <0> d   1      16.988  -0.847  10.934  0.00  0.00    -0.239 F 
ATOM      7  C9  <0> d   1      18.586  -2.505  11.549  0.00  0.00     0.034 C 
ATOM      8  C11 <0> d   1      18.247  -2.232  13.017  0.00  0.00     0.013 C 
ATOM      9  C12 <0> d   1      19.209  -1.176  13.566  0.00  0.00     0.036 C 
ATOM     10  C13 <0> d   1      19.139   0.056  12.681  0.00  0.00    -0.065 C 
ATOM     11  C14 <0> d   1      18.988   1.239  13.276  0.00  0.00     0.053 C 
ATOM     12  C15 <0> d   1      18.932   2.463  12.470  0.00  0.00     0.149 C 
ATOM     13  O16 <0> d   1      18.428   3.483  12.892  0.00  0.00    -0.293 OA
ATOM     14  C17 <0> d   1      19.537   2.386  11.082  0.00  0.00     0.084 C 
ATOM     15  C18 <0> d   1      18.965   1.143  10.403  0.00  0.00     0.025 C 
ATOM     16  C19 <0> d   1      19.243  -0.113  11.208  0.00  0.00     0.019 C 
ATOM     17  C20 <0> d   1      20.674  -0.562  10.908  0.00  0.00     0.023 C 
ATOM     18  C21 <0> d   1      17.692  -3.604  11.000  0.00  0.00     0.005 C 
ATOM     19  C23 <0> d   1      17.857  -4.982  11.651  0.00  0.00     0.009 C 
ATOM     20  C24 <0> d   1      17.321  -5.948  10.560  0.00  0.00     0.047 C 
ATOM     21  C25 <0> d   1      17.459  -5.193   9.198  0.00  0.00     0.128 C 
ENDROOT
BRANCH  21  22
ATOM     22  O26 <0> d   1      16.169  -4.952   8.632  0.00  0.00    -0.381 OA
ATOM     23  H53 <0> d   1      15.441  -5.033   9.262  0.00  0.00     0.211 HD
ENDBRANCH  21  22
BRANCH  21  24
ATOM     24  C27 <0> d   1      18.308  -5.990   8.243  0.00  0.00     0.184 C 
ATOM     25  O28 <0> d   1      19.070  -6.827   8.666  0.00  0.00    -0.292 OA
BRANCH  24  26
ATOM     26  C29 <0> d   1      18.209  -5.743   6.759  0.00  0.00     0.245 C 
BRANCH  26  27
ATOM     27  O30 <0> d   1      19.397  -6.210   6.118  0.00  0.00    -0.393 OA
ATOM     28  H56 <0> d   1      19.502  -7.172   6.138  0.00  0.00     0.209 HD
ENDBRANCH  26  27
ENDBRANCH  24  26
ENDBRANCH  21  24
BRANCH   4  29
ATOM     29  O6  <0> d   1      19.930  -1.710   9.008  0.00  0.00    -0.392 OA
ATOM     30  H36 <0> d   1      20.518  -1.138   9.519  0.00  0.00     0.210 HD
ENDBRANCH   4  29
TORSDOF 5
ENDMDL
MODEL 5
REMARK VINA RESULT:      -8.1      2.015      6.755
REMARK  5 active torsions:
REMARK  status: ('A' for Active; 'I' for Inactive)
REMARK    1  A    between atoms: C4_4  and  O6_5 
REMARK    2  A    between atoms: C25_22  and  O26_23 
REMARK    3  A    between atoms: C25_22  and  C27_24 
REMARK    4  A    between atoms: C27_24  and  C29_26 
REMARK    5  A    between atoms: C29_26  and  O30_27 
ROOT
ATOM      1  C1  <0> d   1      20.024  -0.225   8.942  0.00  0.00     0.019 C 
ATOM      2  C2  <0> d   1      18.504  -0.193   8.776  0.00  0.00     0.001 C 
ATOM      3  C3  <0> d   1      18.046   1.229   8.513  0.00  0.00     0.048 C 
ATOM      4  C4  <0> d   1      18.597   2.101   9.651  0.00  0.00     0.160 C 
ATOM      5  C7  <0> d   1      18.134   1.605  11.018  0.00  0.00     0.144 C 
ATOM      6  F8  <0> d   1      16.749   1.772  11.118  0.00  0.00    -0.239 F 
ATOM      7  C9  <0> d   1      18.463   0.120  11.227  0.00  0.00     0.034 C 
ATOM      8  C11 <0> d   1      17.885  -0.334  12.571  0.00  0.00     0.013 C 
ATOM      9  C12 <0> d   1      18.600   0.408  13.702  0.00  0.00     0.036 C 
ATOM     10  C13 <0> d   1      18.482   1.902  13.458  0.00  0.00    -0.065 C 
ATOM     11  C14 <0> d   1      18.083   2.667  14.473  0.00  0.00     0.053 C 
ATOM     12  C15 <0> d   1      17.968   4.118  14.297  0.00  0.00     0.149 C 
ATOM     13  O16 <0> d   1      17.270   4.796  15.022  0.00  0.00    -0.293 OA
ATOM     14  C17 <0> d   1      18.768   4.726  13.161  0.00  0.00     0.084 C 
ATOM     15  C18 <0> d   1      18.479   3.902  11.908  0.00  0.00     0.025 C 
ATOM     16  C19 <0> d   1      18.816   2.436  12.112  0.00  0.00     0.019 C 
ATOM     17  C20 <0> d   1      20.324   2.265  11.922  0.00  0.00     0.023 C 
ATOM     18  C21 <0> d   1      17.820  -0.656  10.091  0.00  0.00     0.005 C 
ATOM     19  C23 <0> d   1      18.085  -2.166  10.084  0.00  0.00     0.009 C 
ATOM     20  C24 <0> d   1      17.851  -2.553   8.598  0.00  0.00     0.047 C 
ATOM     21  C25 <0> d   1      18.071  -1.249   7.765  0.00  0.00     0.128 C 
ENDROOT
BRANCH  21  22
ATOM     22  O26 <0> d   1      16.853  -0.855   7.129  0.00  0.00    -0.381 OA
ATOM     23  H53 <0> d   1      16.944  -0.091   6.544  0.00  0.00     0.211 HD
ENDBRANCH  21  22
BRANCH  21  24
ATOM     24  C27 <0> d   1      19.151  -1.463   6.736  0.00  0.00     0.184 C 
ATOM     25  O28 <0> d   1      19.892  -2.412   6.827  0.00  0.00    -0.292 OA
BRANCH  24  26
ATOM     26  C29 <0> d   1      19.308  -0.492   5.594  0.00  0.00     0.245 C 
BRANCH  26  27
ATOM     27  O30 <0> d   1      19.891  -1.163   4.475  0.00  0.00    -0.393 OA
ATOM     28  H56 <0> d   1      20.399  -0.584   3.891  0.00  0.00     0.209 HD
ENDBRANCH  26  27
ENDBRANCH  24  26
ENDBRANCH  21  24
BRANCH   4  29
ATOM     29  O6  <0> d   1      20.025   2.077   9.608  0.00  0.00    -0.392 OA
ATOM     30  H36 <0> d   1      20.409   2.687   8.964  0.00  0.00     0.210 HD
ENDBRANCH   4  29
TORSDOF 5
ENDMDL
MODEL 6
REMARK VINA RESULT:      -7.9      2.773      4.694
REMARK  5 active torsions:
REMARK  status: ('A' for Active; 'I' for Inactive)
REMARK    1  A    between atoms: C4_4  and  O6_5 
REMARK    2  A    between atoms: C25_22  and  O26_23 
REMARK    3  A    between atoms: C25_22  and  C27_24 
REMARK    4  A    between atoms: C27_24  and  C29_26 
REMARK    5  A    between atoms: C29_26  and  O30_27 
ROOT
ATOM      1  C1  <0> d   1      17.751   4.916  14.303  0.00  0.00     0.019 C 
ATOM      2  C2  <0> d   1      19.136   4.339  14.606  0.00  0.00     0.001 C 
ATOM      3  C3  <0> d   1      20.094   4.690  13.483  0.00  0.00     0.048 C 
ATOM      4  C4  <0> d   1      19.456   4.204  12.173  0.00  0.00     0.160 C 
ATOM      5  C7  <0> d   1      19.157   2.707  12.211  0.00  0.00     0.144 C 
ATOM      6  F8  <0> d   1      20.365   2.004  12.269  0.00  0.00    -0.239 F 
ATOM      7  C9  <0> d   1      18.311   2.326  13.434  0.00  0.00     0.034 C 
ATOM      8  C11 <0> d   1      18.134   0.805  13.463  0.00  0.00     0.013 C 
ATOM      9  C12 <0> d   1      17.315   0.372  12.244  0.00  0.00     0.036 C 
ATOM     10  C13 <0> d   1      17.997   0.886  10.989  0.00  0.00    -0.065 C 
ATOM     11  C14 <0> d   1      18.190   0.024   9.991  0.00  0.00     0.053 C 
ATOM     12  C15 <0> d   1      18.828   0.472   8.749  0.00  0.00     0.149 C 
ATOM     13  O16 <0> d   1      19.365  -0.308   7.989  0.00  0.00    -0.293 OA
ATOM     14  C17 <0> d   1      18.783   1.961   8.464  0.00  0.00     0.084 C 
ATOM     15  C18 <0> d   1      19.256   2.681   9.726  0.00  0.00     0.025 C 
ATOM     16  C19 <0> d   1      18.410   2.312  10.931  0.00  0.00     0.019 C 
ATOM     17  C20 <0> d   1      17.131   3.149  10.888  0.00  0.00     0.023 C 
ATOM     18  C21 <0> d   1      19.058   2.790  14.671  0.00  0.00     0.005 C 
ATOM     19  C23 <0> d   1      18.344   2.554  16.007  0.00  0.00     0.009 C 
ATOM     20  C24 <0> d   1      19.003   3.603  16.944  0.00  0.00     0.047 C 
ATOM     21  C25 <0> d   1      19.562   4.730  16.016  0.00  0.00     0.128 C 
ENDROOT
BRANCH  21  22
ATOM     22  O26 <0> d   1      20.988   4.782  16.104  0.00  0.00    -0.381 OA
ATOM     23  H53 <0> d   1      21.418   5.153  15.322  0.00  0.00     0.211 HD
ENDBRANCH  21  22
BRANCH  21  24
ATOM     24  C27 <0> d   1      18.967   6.062  16.394  0.00  0.00     0.184 C 
ATOM     25  O28 <0> d   1      19.337   7.068  15.838  0.00  0.00    -0.292 OA
BRANCH  24  26
ATOM     26  C29 <0> d   1      17.911   6.138  17.467  0.00  0.00     0.245 C 
BRANCH  26  27
ATOM     27  O30 <0> d   1      18.412   6.888  18.575  0.00  0.00    -0.393 OA
ATOM     28  H56 <0> d   1      18.008   7.762  18.673  0.00  0.00     0.209 HD
ENDBRANCH  26  27
ENDBRANCH  24  26
ENDBRANCH  21  24
BRANCH   4  29
ATOM     29  O6  <0> d   1      18.235   4.915  11.957  0.00  0.00    -0.392 OA
ATOM     30  H36 <0> d   1      18.211   5.788  12.372  0.00  0.00     0.210 HD
ENDBRANCH   4  29
TORSDOF 5
ENDMDL
MODEL 7
REMARK VINA RESULT:      -7.9      2.851      6.501
REMARK  5 active torsions:
REMARK  status: ('A' for Active; 'I' for Inactive)
REMARK    1  A    between atoms: C4_4  and  O6_5 
REMARK    2  A    between atoms: C25_22  and  O26_23 
REMARK    3  A    between atoms: C25_22  and  C27_24 
REMARK    4  A    between atoms: C27_24  and  C29_26 
REMARK    5  A    between atoms: C29_26  and  O30_27 
ROOT
ATOM      1  C1  <0> d   1      17.467  -3.517   8.925  0.00  0.00     0.019 C 
ATOM      2  C2  <0> d   1      18.996  -3.552   8.887  0.00  0.00     0.001 C 
ATOM      3  C3  <0> d   1      19.548  -3.384  10.290  0.00  0.00     0.048 C 
ATOM      4  C4  <0> d   1      18.938  -2.097  10.866  0.00  0.00     0.160 C 
ATOM      5  C7  <0> d   1      19.245  -0.885   9.992  0.00  0.00     0.144 C 
ATOM      6  F8  <0> d   1      20.622  -0.638  10.023  0.00  0.00    -0.239 F 
ATOM      7  C9  <0> d   1      18.823  -1.112   8.533  0.00  0.00     0.034 C 
ATOM      8  C11 <0> d   1      19.250   0.098   7.696  0.00  0.00     0.013 C 
ATOM      9  C12 <0> d   1      18.470   1.330   8.162  0.00  0.00     0.036 C 
ATOM     10  C13 <0> d   1      18.686   1.510   9.654  0.00  0.00    -0.065 C 
ATOM     11  C14 <0> d   1      19.027   2.722  10.090  0.00  0.00     0.053 C 
ATOM     12  C15 <0> d   1      19.231   2.955  11.523  0.00  0.00     0.149 C 
ATOM     13  O16 <0> d   1      19.892   3.888  11.930  0.00  0.00    -0.293 OA
ATOM     14  C17 <0> d   1      18.573   1.970  12.469  0.00  0.00     0.084 C 
ATOM     15  C18 <0> d   1      18.935   0.566  11.988  0.00  0.00     0.025 C 
ATOM     16  C19 <0> d   1      18.507   0.338  10.550  0.00  0.00     0.019 C 
ATOM     17  C20 <0> d   1      17.017  -0.006  10.548  0.00  0.00     0.023 C 
ATOM     18  C21 <0> d   1      19.529  -2.364   8.042  0.00  0.00     0.005 C 
ATOM     19  C23 <0> d   1      19.190  -2.801   6.612  0.00  0.00     0.009 C 
ATOM     20  C24 <0> d   1      19.542  -4.313   6.617  0.00  0.00     0.047 C 
ATOM     21  C25 <0> d   1      19.467  -4.776   8.109  0.00  0.00     0.128 C 
ENDROOT
BRANCH  21  22
ATOM     22  O26 <0> d   1      20.758  -5.185   8.567  0.00  0.00    -0.381 OA
ATOM     23  H53 <0> d   1      20.854  -5.181   9.528  0.00  0.00     0.211 HD
ENDBRANCH  21  22
BRANCH  21  24
ATOM     24  C27 <0> d   1      18.478  -5.903   8.256  0.00  0.00     0.184 C 
ATOM     25  O28 <0> d   1      18.316  -6.426   9.333  0.00  0.00    -0.292 OA
BRANCH  24  26
ATOM     26  C29 <0> d   1      17.694  -6.380   7.061  0.00  0.00     0.245 C 
BRANCH  26  27
ATOM     27  O30 <0> d   1      18.199  -7.646   6.634  0.00  0.00    -0.393 OA
ATOM     28  H56 <0> d   1      17.690  -8.050   5.917  0.00  0.00     0.209 HD
ENDBRANCH  26  27
ENDBRANCH  24  26
ENDBRANCH  21  24
BRANCH   4  29
ATOM     29  O6  <0> d   1      17.520  -2.255  10.960  0.00  0.00    -0.392 OA
ATOM     30  H36 <0> d   1      17.199  -2.397  11.860  0.00  0.00     0.210 HD
ENDBRANCH   4  29
TORSDOF 5
ENDMDL
MODEL 8
REMARK VINA RESULT:      -7.9      1.555      7.255
REMARK  5 active torsions:
REMARK  status: ('A' for Active; 'I' for Inactive)
REMARK    1  A    between atoms: C4_4  and  O6_5 
REMARK    2  A    between atoms: C25_22  and  O26_23 
REMARK    3  A    between atoms: C25_22  and  C27_24 
REMARK    4  A    between atoms: C27_24  and  C29_26 
REMARK    5  A    between atoms: C29_26  and  O30_27 
ROOT
ATOM      1  C1  <0> d   1      17.018  -0.870   6.808  0.00  0.00     0.019 C 
ATOM      2  C2  <0> d   1      18.533  -1.060   6.712  0.00  0.00     0.001 C 
ATOM      3  C3  <0> d   1      18.978  -2.137   7.684  0.00  0.00     0.048 C 
ATOM      4  C4  <0> d   1      18.456  -1.738   9.073  0.00  0.00     0.160 C 
ATOM      5  C7  <0> d   1      18.960  -0.359   9.492  0.00  0.00     0.144 C 
ATOM      6  F8  <0> d   1      20.347  -0.416   9.666  0.00  0.00    -0.239 F 
ATOM      7  C9  <0> d   1      18.643   0.709   8.435  0.00  0.00     0.034 C 
ATOM      8  C11 <0> d   1      19.261   2.040   8.872  0.00  0.00     0.013 C 
ATOM      9  C12 <0> d   1      18.575   2.515  10.155  0.00  0.00     0.036 C 
ATOM     10  C13 <0> d   1      18.681   1.419  11.200  0.00  0.00    -0.065 C 
ATOM     11  C14 <0> d   1      19.106   1.760  12.416  0.00  0.00     0.053 C 
ATOM     12  C15 <0> d   1      19.210   0.744  13.468  0.00  0.00     0.149 C 
ATOM     13  O16 <0> d   1      19.926   0.897  14.436  0.00  0.00    -0.293 OA
ATOM     14  C17 <0> d   1      18.376  -0.509  13.283  0.00  0.00     0.084 C 
ATOM     15  C18 <0> d   1      18.632  -1.021  11.867  0.00  0.00     0.025 C 
ATOM     16  C19 <0> d   1      18.306   0.031  10.823  0.00  0.00     0.019 C 
ATOM     17  C20 <0> d   1      16.794   0.021  10.593  0.00  0.00     0.023 C 
ATOM     18  C21 <0> d   1      19.256   0.251   7.123  0.00  0.00     0.005 C 
ATOM     19  C23 <0> d   1      18.997   1.160   5.916  0.00  0.00     0.009 C 
ATOM     20  C24 <0> d   1      19.190   0.201   4.710  0.00  0.00     0.047 C 
ATOM     21  C25 <0> d   1      18.940  -1.243   5.255  0.00  0.00     0.128 C 
ENDROOT
BRANCH  21  22
ATOM     22  O26 <0> d   1      20.139  -2.019   5.171  0.00  0.00    -0.381 OA
ATOM     23  H53 <0> d   1      20.943  -1.491   5.071  0.00  0.00     0.211 HD
ENDBRANCH  21  22
BRANCH  21  24
ATOM     24  C27 <0> d   1      17.832  -1.909   4.480  0.00  0.00     0.184 C 
ATOM     25  O28 <0> d   1      17.023  -1.238   3.888  0.00  0.00    -0.292 OA
BRANCH  24  26
ATOM     26  C29 <0> d   1      17.734  -3.413   4.447  0.00  0.00     0.245 C 
BRANCH  26  27
ATOM     27  O30 <0> d   1      18.567  -3.921   3.404  0.00  0.00    -0.393 OA
ATOM     28  H56 <0> d   1      18.246  -3.723   2.513  0.00  0.00     0.209 HD
ENDBRANCH  26  27
ENDBRANCH  24  26
ENDBRANCH  21  24
BRANCH   4  29
ATOM     29  O6  <0> d   1      17.027  -1.722   9.047  0.00  0.00    -0.392 OA
ATOM     30  H36 <0> d   1      16.616  -2.257   9.740  0.00  0.00     0.210 HD
ENDBRANCH   4  29
TORSDOF 5
ENDMDL
MODEL 9
REMARK VINA RESULT:      -7.9      2.750      6.909
REMARK  5 active torsions:
REMARK  status: ('A' for Active; 'I' for Inactive)
REMARK    1  A    between atoms: C4_4  and  O6_5 
REMARK    2  A    between atoms: C25_22  and  O26_23 
REMARK    3  A    between atoms: C25_22  and  C27_24 
REMARK    4  A    between atoms: C27_24  and  C29_26 
REMARK    5  A    between atoms: C29_26  and  O30_27 
ROOT
ATOM      1  C1  <0> d   1      17.929  -0.171  11.725  0.00  0.00     0.019 C 
ATOM      2  C2  <0> d   1      19.240   0.352  11.134  0.00  0.00     0.001 C 
ATOM      3  C3  <0> d   1      20.236   0.614  12.247  0.00  0.00     0.048 C 
ATOM      4  C4  <0> d   1      19.554   1.553  13.254  0.00  0.00     0.160 C 
ATOM      5  C7  <0> d   1      19.092   2.850  12.595  0.00  0.00     0.144 C 
ATOM      6  F8  <0> d   1      20.214   3.574  12.180  0.00  0.00    -0.239 F 
ATOM      7  C9  <0> d   1      18.203   2.582  11.372  0.00  0.00     0.034 C 
ATOM      8  C11 <0> d   1      17.859   3.917  10.704  0.00  0.00     0.013 C 
ATOM      9  C12 <0> d   1      17.003   4.751  11.660  0.00  0.00     0.036 C 
ATOM     10  C13 <0> d   1      17.743   4.897  12.978  0.00  0.00    -0.065 C 
ATOM     11  C14 <0> d   1      17.844   6.119  13.500  0.00  0.00     0.053 C 
ATOM     12  C15 <0> d   1      18.534   6.315  14.780  0.00  0.00     0.149 C 
ATOM     13  O16 <0> d   1      18.984   7.394  15.104  0.00  0.00    -0.293 OA
ATOM     14  C17 <0> d   1      18.654   5.098  15.676  0.00  0.00     0.084 C 
ATOM     15  C18 <0> d   1      19.198   3.954  14.821  0.00  0.00     0.025 C 
ATOM     16  C19 <0> d   1      18.312   3.683  13.619  0.00  0.00     0.019 C 
ATOM     17  C20 <0> d   1      17.133   2.826  14.082  0.00  0.00     0.023 C 
ATOM     18  C21 <0> d   1      18.992   1.705  10.416  0.00  0.00     0.005 C 
ATOM     19  C23 <0> d   1      18.249   1.271   9.146  0.00  0.00     0.009 C 
ATOM     20  C24 <0> d   1      19.016  -0.008   8.715  0.00  0.00     0.047 C 
ATOM     21  C25 <0> d   1      19.700  -0.565  10.006  0.00  0.00     0.128 C 
ENDROOT
BRANCH  21  22
ATOM     22  O26 <0> d   1      21.123  -0.510   9.875  0.00  0.00    -0.381 OA
ATOM     23  H53 <0> d   1      21.437   0.180   9.276  0.00  0.00     0.211 HD
ENDBRANCH  21  22
BRANCH  21  24
ATOM     24  C27 <0> d   1      19.254  -1.981  10.265  0.00  0.00     0.184 C 
ATOM     25  O28 <0> d   1      18.496  -2.524   9.498  0.00  0.00    -0.292 OA
BRANCH  24  26
ATOM     26  C29 <0> d   1      19.752  -2.717  11.482  0.00  0.00     0.245 C 
BRANCH  26  27
ATOM     27  O30 <0> d   1      21.127  -3.061  11.300  0.00  0.00    -0.393 OA
ATOM     28  H56 <0> d   1      21.710  -2.298  11.181  0.00  0.00     0.209 HD
ENDBRANCH  26  27
ENDBRANCH  24  26
ENDBRANCH  21  24
BRANCH   4  29
ATOM     29  O6  <0> d   1      18.420   0.888  13.816  0.00  0.00    -0.392 OA
ATOM     30  H36 <0> d   1      18.464  -0.076  13.764  0.00  0.00     0.210 HD
ENDBRANCH   4  29
TORSDOF 5
ENDMDL
