MODEL 1
REMARK VINA RESULT:      -7.7      0.000      0.000
REMARK  5 active torsions:
REMARK  status: ('A' for Active; 'I' for Inactive)
REMARK    1  A    between atoms: O2_2  and  C3_3 
REMARK    2  A    between atoms: C6_6  and  C7_7 
REMARK    3  A    between atoms: C12_12  and  O13_13 
REMARK    4  A    between atoms: C15_15  and  O16_16 
REMARK    5  A    between atoms: C21_21  and  O22_22 
ROOT
ATOM      1  C7  <0> d   1      19.061   0.583   8.392  0.00  0.00     0.090 A 
ATOM      2  C8  <0> d   1      19.148   1.058   7.120  0.00  0.00     0.094 A 
ATOM      3  C9  <0> d   1      19.223   0.147   6.040  0.00  0.00     0.190 A 
ATOM      4  O10 <0> d   1      19.302   0.537   4.886  0.00  0.00    -0.287 OA
ATOM      5  C11 <0> d   1      19.200  -1.290   6.361  0.00  0.00     0.081 A 
ATOM      6  C12 <0> d   1      19.270  -2.262   5.356  0.00  0.00     0.085 A 
ATOM      7  C14 <0> d   1      19.248  -3.600   5.700  0.00  0.00     0.074 A 
ATOM      8  C15 <0> d   1      19.156  -3.977   7.035  0.00  0.00     0.071 A 
ATOM      9  C17 <0> d   1      19.087  -3.020   8.036  0.00  0.00     0.075 A 
ATOM     10  C18 <0> d   1      19.108  -1.673   7.711  0.00  0.00     0.095 A 
ATOM     11  O19 <0> d   1      19.048  -0.729   8.674  0.00  0.00    -0.309 OA
ENDROOT
BRANCH   1  12
ATOM     12  C6  <0> d   1      18.985   1.548   9.505  0.00  0.00     0.001 A 
ATOM     13  C5  <0> d   1      18.432   2.815   9.298  0.00  0.00     0.017 A 
ATOM     14  C4  <0> d   1      18.362   3.715  10.339  0.00  0.00     0.040 A 
ATOM     15  C3  <0> d   1      18.840   3.367  11.595  0.00  0.00     0.101 A 
ATOM     16  C21 <0> d   1      19.397   2.107  11.808  0.00  0.00     0.099 A 
ATOM     17  C20 <0> d   1      19.466   1.198  10.770  0.00  0.00     0.053 A 
BRANCH  15  18
ATOM     18  O2  <0> d   1      18.767   4.258  12.618  0.00  0.00    -0.353 OA
ATOM     19  C1  <0> d   1      17.463   4.693  13.009  0.00  0.00     0.210 C 
ENDBRANCH  15  18
BRANCH  16  20
ATOM     20  O22 <0> d   1      19.865   1.769  13.040  0.00  0.00    -0.358 OA
ATOM     21  H34 <0> d   1      20.426   0.982  13.045  0.00  0.00     0.217 HD
ENDBRANCH  16  20
ENDBRANCH   1  12
BRANCH   6  22
ATOM     22  O13 <0> d   1      19.360  -1.891   4.053  0.00  0.00    -0.360 OA
ATOM     23  H29 <0> d   1      19.560  -2.620   3.450  0.00  0.00     0.217 HD
ENDBRANCH   6  22
BRANCH   8  24
ATOM     24  O16 <0> d   1      19.135  -5.295   7.361  0.00  0.00    -0.361 OA
ATOM     25  H31 <0> d   1      18.692  -5.485   8.200  0.00  0.00     0.217 HD
ENDBRANCH   8  24
TORSDOF 5
ENDMDL
MODEL 2
REMARK VINA RESULT:      -7.5      1.379      3.002
REMARK  5 active torsions:
REMARK  status: ('A' for Active; 'I' for Inactive)
REMARK    1  A    between atoms: O2_2  and  C3_3 
REMARK    2  A    between atoms: C6_6  and  C7_7 
REMARK    3  A    between atoms: C12_12  and  O13_13 
REMARK    4  A    between atoms: C15_15  and  O16_16 
REMARK    5  A    between atoms: C21_21  and  O22_22 
ROOT
ATOM      1  C7  <0> d   1      18.761   1.294   9.899  0.00  0.00     0.090 A 
ATOM      2  C8  <0> d   1      18.975   0.067  10.444  0.00  0.00     0.094 A 
ATOM      3  C9  <0> d   1      19.196  -1.044   9.596  0.00  0.00     0.190 A 
ATOM      4  O10 <0> d   1      19.392  -2.160  10.049  0.00  0.00    -0.287 OA
ATOM      5  C11 <0> d   1      19.182  -0.801   8.143  0.00  0.00     0.081 A 
ATOM      6  C12 <0> d   1      19.391  -1.841   7.229  0.00  0.00     0.085 A 
ATOM      7  C14 <0> d   1      19.368  -1.571   5.874  0.00  0.00     0.074 A 
ATOM      8  C15 <0> d   1      19.140  -0.275   5.422  0.00  0.00     0.071 A 
ATOM      9  C17 <0> d   1      18.932   0.759   6.322  0.00  0.00     0.075 A 
ATOM     10  C18 <0> d   1      18.951   0.509   7.685  0.00  0.00     0.095 A 
ATOM     11  O19 <0> d   1      18.744   1.503   8.574  0.00  0.00    -0.309 OA
ENDROOT
BRANCH   1  12
ATOM     12  C6  <0> d   1      18.532   2.440  10.800  0.00  0.00     0.001 A 
ATOM     13  C5  <0> d   1      17.744   3.515  10.380  0.00  0.00     0.017 A 
ATOM     14  C4  <0> d   1      17.531   4.584  11.223  0.00  0.00     0.040 A 
ATOM     15  C3  <0> d   1      18.098   4.597  12.490  0.00  0.00     0.101 A 
ATOM     16  C21 <0> d   1      18.888   3.530  12.914  0.00  0.00     0.099 A 
ATOM     17  C20 <0> d   1      19.102   2.453  12.076  0.00  0.00     0.053 A 
BRANCH  15  18
ATOM     18  O2  <0> d   1      17.884   5.653  13.317  0.00  0.00    -0.353 OA
ATOM     19  C1  <0> d   1      16.524   6.011  13.574  0.00  0.00     0.210 C 
ENDBRANCH  15  18
BRANCH  16  20
ATOM     20  O22 <0> d   1      19.443   3.546  14.157  0.00  0.00    -0.358 OA
ATOM     21  H34 <0> d   1      19.444   2.685  14.597  0.00  0.00     0.217 HD
ENDBRANCH  16  20
ENDBRANCH   1  12
BRANCH   6  22
ATOM     22  O13 <0> d   1      19.613  -3.105   7.672  0.00  0.00    -0.360 OA
ATOM     23  H29 <0> d   1      19.077  -3.776   7.228  0.00  0.00     0.217 HD
ENDBRANCH   6  22
BRANCH   8  24
ATOM     24  O16 <0> d   1      19.120  -0.022   4.089  0.00  0.00    -0.361 OA
ATOM     25  H31 <0> d   1      18.232   0.002   3.707  0.00  0.00     0.217 HD
ENDBRANCH   8  24
TORSDOF 5
ENDMDL
MODEL 3
REMARK VINA RESULT:      -7.5      1.177      1.699
REMARK  5 active torsions:
REMARK  status: ('A' for Active; 'I' for Inactive)
REMARK    1  A    between atoms: O2_2  and  C3_3 
REMARK    2  A    between atoms: C6_6  and  C7_7 
REMARK    3  A    between atoms: C12_12  and  O13_13 
REMARK    4  A    between atoms: C15_15  and  O16_16 
REMARK    5  A    between atoms: C21_21  and  O22_22 
ROOT
ATOM      1  C7  <0> d   1      18.523   0.874   8.653  0.00  0.00     0.090 A 
ATOM      2  C8  <0> d   1      18.827   1.327   7.407  0.00  0.00     0.094 A 
ATOM      3  C9  <0> d   1      19.137   0.399   6.384  0.00  0.00     0.190 A 
ATOM      4  O10 <0> d   1      19.414   0.769   5.255  0.00  0.00    -0.287 OA
ATOM      5  C11 <0> d   1      19.111  -1.031   6.736  0.00  0.00     0.081 A 
ATOM      6  C12 <0> d   1      19.404  -2.019   5.788  0.00  0.00     0.085 A 
ATOM      7  C14 <0> d   1      19.370  -3.350   6.158  0.00  0.00     0.074 A 
ATOM      8  C15 <0> d   1      19.046  -3.704   7.463  0.00  0.00     0.071 A 
ATOM      9  C17 <0> d   1      18.754  -2.732   8.407  0.00  0.00     0.075 A 
ATOM     10  C18 <0> d   1      18.784  -1.391   8.055  0.00  0.00     0.095 A 
ATOM     11  O19 <0> d   1      18.508  -0.432   8.964  0.00  0.00    -0.309 OA
ENDROOT
BRANCH   1  12
ATOM     12  C6  <0> d   1      18.204   1.857   9.706  0.00  0.00     0.001 A 
ATOM     13  C5  <0> d   1      18.003   1.432  11.022  0.00  0.00     0.017 A 
ATOM     14  C4  <0> d   1      17.704   2.351  12.005  0.00  0.00     0.040 A 
ATOM     15  C3  <0> d   1      17.602   3.700  11.691  0.00  0.00     0.101 A 
ATOM     16  C21 <0> d   1      17.797   4.129  10.379  0.00  0.00     0.099 A 
ATOM     17  C20 <0> d   1      18.101   3.214   9.390  0.00  0.00     0.053 A 
BRANCH  15  18
ATOM     18  O2  <0> d   1      17.309   4.602  12.663  0.00  0.00    -0.353 OA
ATOM     19  C1  <0> d   1      17.647   4.243  14.005  0.00  0.00     0.210 C 
ENDBRANCH  15  18
BRANCH  16  20
ATOM     20  O22 <0> d   1      17.695   5.451  10.074  0.00  0.00    -0.358 OA
ATOM     21  H34 <0> d   1      17.424   5.625   9.162  0.00  0.00     0.217 HD
ENDBRANCH  16  20
ENDBRANCH   1  12
BRANCH   6  22
ATOM     22  O13 <0> d   1      19.721  -1.671   4.514  0.00  0.00    -0.360 OA
ATOM     23  H29 <0> d   1      19.999  -2.414   3.961  0.00  0.00     0.217 HD
ENDBRANCH   6  22
BRANCH   8  24
ATOM     24  O16 <0> d   1      19.015  -5.015   7.816  0.00  0.00    -0.361 OA
ATOM     25  H31 <0> d   1      18.433  -5.207   8.564  0.00  0.00     0.217 HD
ENDBRANCH   8  24
TORSDOF 5
ENDMDL
MODEL 4
REMARK VINA RESULT:      -7.4      2.204      7.518
REMARK  5 active torsions:
REMARK  status: ('A' for Active; 'I' for Inactive)
REMARK    1  A    between atoms: O2_2  and  C3_3 
REMARK    2  A    between atoms: C6_6  and  C7_7 
REMARK    3  A    between atoms: C12_12  and  O13_13 
REMARK    4  A    between atoms: C15_15  and  O16_16 
REMARK    5  A    between atoms: C21_21  and  O22_22 
ROOT
ATOM      1  C7  <0> d   1      18.761   1.750  10.846  0.00  0.00     0.090 A 
ATOM      2  C8  <0> d   1      19.308   2.983  11.025  0.00  0.00     0.094 A 
ATOM      3  C9  <0> d   1      19.434   3.506  12.333  0.00  0.00     0.190 A 
ATOM      4  O10 <0> d   1      19.920   4.608  12.531  0.00  0.00    -0.287 OA
ATOM      5  C11 <0> d   1      18.957   2.669  13.448  0.00  0.00     0.081 A 
ATOM      6  C12 <0> d   1      19.042   3.107  14.775  0.00  0.00     0.085 A 
ATOM      7  C14 <0> d   1      18.582   2.291  15.791  0.00  0.00     0.074 A 
ATOM      8  C15 <0> d   1      18.038   1.046  15.497  0.00  0.00     0.071 A 
ATOM      9  C17 <0> d   1      17.951   0.606  14.185  0.00  0.00     0.075 A 
ATOM     10  C18 <0> d   1      18.407   1.409  13.151  0.00  0.00     0.095 A 
ATOM     11  O19 <0> d   1      18.323   0.999  11.868  0.00  0.00    -0.309 OA
ENDROOT
BRANCH   1  12
ATOM     12  C6  <0> d   1      18.637   1.222   9.474  0.00  0.00     0.001 A 
ATOM     13  C5  <0> d   1      19.122   1.962   8.392  0.00  0.00     0.017 A 
ATOM     14  C4  <0> d   1      19.005   1.467   7.111  0.00  0.00     0.040 A 
ATOM     15  C3  <0> d   1      18.407   0.234   6.892  0.00  0.00     0.101 A 
ATOM     16  C21 <0> d   1      17.917  -0.507   7.966  0.00  0.00     0.099 A 
ATOM     17  C20 <0> d   1      18.035  -0.020   9.253  0.00  0.00     0.053 A 
BRANCH  15  18
ATOM     18  O2  <0> d   1      18.295  -0.250   5.627  0.00  0.00    -0.353 OA
ATOM     19  C1  <0> d   1      19.379   0.014   4.734  0.00  0.00     0.210 C 
ENDBRANCH  15  18
BRANCH  16  20
ATOM     20  O22 <0> d   1      17.330  -1.715   7.748  0.00  0.00    -0.358 OA
ATOM     21  H34 <0> d   1      16.386  -1.737   7.955  0.00  0.00     0.217 HD
ENDBRANCH  16  20
ENDBRANCH   1  12
BRANCH   6  22
ATOM     22  O13 <0> d   1      19.573   4.323  15.060  0.00  0.00    -0.360 OA
ATOM     23  H29 <0> d   1      19.109   5.062  14.643  0.00  0.00     0.217 HD
ENDBRANCH   6  22
BRANCH   8  24
ATOM     24  O16 <0> d   1      17.589   0.253  16.503  0.00  0.00    -0.361 OA
ATOM     25  H31 <0> d   1      16.721  -0.138  16.337  0.00  0.00     0.217 HD
ENDBRANCH   8  24
TORSDOF 5
ENDMDL
MODEL 5
REMARK VINA RESULT:      -7.4      3.466      5.122
REMARK  5 active torsions:
REMARK  status: ('A' for Active; 'I' for Inactive)
REMARK    1  A    between atoms: O2_2  and  C3_3 
REMARK    2  A    between atoms: C6_6  and  C7_7 
REMARK    3  A    between atoms: C12_12  and  O13_13 
REMARK    4  A    between atoms: C15_15  and  O16_16 
REMARK    5  A    between atoms: C21_21  and  O22_22 
ROOT
ATOM      1  C7  <0> d   1      18.461  -0.723  12.473  0.00  0.00     0.090 A 
ATOM      2  C8  <0> d   1      18.011  -1.979  12.204  0.00  0.00     0.094 A 
ATOM      3  C9  <0> d   1      17.817  -2.377  10.860  0.00  0.00     0.190 A 
ATOM      4  O10 <0> d   1      17.415  -3.495  10.582  0.00  0.00    -0.287 OA
ATOM      5  C11 <0> d   1      18.120  -1.390   9.810  0.00  0.00     0.081 A 
ATOM      6  C12 <0> d   1      17.956  -1.697   8.454  0.00  0.00     0.085 A 
ATOM      7  C14 <0> d   1      18.251  -0.743   7.499  0.00  0.00     0.074 A 
ATOM      8  C15 <0> d   1      18.706   0.514   7.884  0.00  0.00     0.071 A 
ATOM      9  C17 <0> d   1      18.870   0.825   9.225  0.00  0.00     0.075 A 
ATOM     10  C18 <0> d   1      18.580  -0.119  10.197  0.00  0.00     0.095 A 
ATOM     11  O19 <0> d   1      18.728   0.171  11.507  0.00  0.00    -0.309 OA
ENDROOT
BRANCH   1  12
ATOM     12  C6  <0> d   1      18.656  -0.326  13.880  0.00  0.00     0.001 A 
ATOM     13  C5  <0> d   1      18.457  -1.255  14.904  0.00  0.00     0.017 A 
ATOM     14  C4  <0> d   1      18.640  -0.883  16.219  0.00  0.00     0.040 A 
ATOM     15  C3  <0> d   1      19.023   0.415  16.528  0.00  0.00     0.101 A 
ATOM     16  C21 <0> d   1      19.219   1.349  15.512  0.00  0.00     0.099 A 
ATOM     17  C20 <0> d   1      19.041   0.981  14.192  0.00  0.00     0.053 A 
BRANCH  15  18
ATOM     18  O2  <0> d   1      19.203   0.777  17.825  0.00  0.00    -0.353 OA
ATOM     19  C1  <0> d   1      18.027   0.952  18.619  0.00  0.00     0.210 C 
ENDBRANCH  15  18
BRANCH  16  20
ATOM     20  O22 <0> d   1      19.592   2.621  15.819  0.00  0.00    -0.358 OA
ATOM     21  H34 <0> d   1      20.235   2.679  16.539  0.00  0.00     0.217 HD
ENDBRANCH  16  20
ENDBRANCH   1  12
BRANCH   6  22
ATOM     22  O13 <0> d   1      17.511  -2.924   8.080  0.00  0.00    -0.360 OA
ATOM     23  H29 <0> d   1      16.758  -3.243   8.595  0.00  0.00     0.217 HD
ENDBRANCH   6  22
BRANCH   8  24
ATOM     24  O16 <0> d   1      18.992   1.444   6.937  0.00  0.00    -0.361 OA
ATOM     25  H31 <0> d   1      19.049   2.347   7.278  0.00  0.00     0.217 HD
ENDBRANCH   8  24
TORSDOF 5
ENDMDL
MODEL 6
REMARK VINA RESULT:      -7.4      3.838      5.071
REMARK  5 active torsions:
REMARK  status: ('A' for Active; 'I' for Inactive)
REMARK    1  A    between atoms: O2_2  and  C3_3 
REMARK    2  A    between atoms: C6_6  and  C7_7 
REMARK    3  A    between atoms: C12_12  and  O13_13 
REMARK    4  A    between atoms: C15_15  and  O16_16 
REMARK    5  A    between atoms: C21_21  and  O22_22 
ROOT
ATOM      1  C7  <0> d   1      19.039  -1.211  13.120  0.00  0.00     0.090 A 
ATOM      2  C8  <0> d   1      19.621  -0.595  12.057  0.00  0.00     0.094 A 
ATOM      3  C9  <0> d   1      19.650  -1.250  10.802  0.00  0.00     0.190 A 
ATOM      4  O10 <0> d   1      20.165  -0.727   9.827  0.00  0.00    -0.287 OA
ATOM      5  C11 <0> d   1      19.035  -2.585  10.720  0.00  0.00     0.081 A 
ATOM      6  C12 <0> d   1      19.019  -3.306   9.519  0.00  0.00     0.085 A 
ATOM      7  C14 <0> d   1      18.432  -4.557   9.484  0.00  0.00     0.074 A 
ATOM      8  C15 <0> d   1      17.863  -5.095  10.633  0.00  0.00     0.071 A 
ATOM      9  C17 <0> d   1      17.876  -4.387  11.826  0.00  0.00     0.075 A 
ATOM     10  C18 <0> d   1      18.460  -3.131  11.881  0.00  0.00     0.095 A 
ATOM     11  O19 <0> d   1      18.486  -2.432  13.035  0.00  0.00    -0.309 OA
ENDROOT
BRANCH   1  12
ATOM     12  C6  <0> d   1      19.019  -0.514  14.420  0.00  0.00     0.001 A 
ATOM     13  C5  <0> d   1      18.687  -1.211  15.584  0.00  0.00     0.017 A 
ATOM     14  C4  <0> d   1      18.668  -0.558  16.798  0.00  0.00     0.040 A 
ATOM     15  C3  <0> d   1      18.979   0.793  16.867  0.00  0.00     0.101 A 
ATOM     16  C21 <0> d   1      19.307   1.496  15.709  0.00  0.00     0.099 A 
ATOM     17  C20 <0> d   1      19.331   0.847  14.490  0.00  0.00     0.053 A 
BRANCH  15  18
ATOM     18  O2  <0> d   1      18.961   1.432  18.066  0.00  0.00    -0.353 OA
ATOM     19  C1  <0> d   1      17.681   1.655  18.663  0.00  0.00     0.210 C 
ENDBRANCH  15  18
BRANCH  16  20
ATOM     20  O22 <0> d   1      19.610   2.821  15.780  0.00  0.00    -0.358 OA
ATOM     21  H34 <0> d   1      20.362   3.022  16.353  0.00  0.00     0.217 HD
ENDBRANCH  16  20
ENDBRANCH   1  12
BRANCH   6  22
ATOM     22  O13 <0> d   1      19.575  -2.779   8.399  0.00  0.00    -0.360 OA
ATOM     23  H29 <0> d   1      19.890  -3.441   7.768  0.00  0.00     0.217 HD
ENDBRANCH   6  22
BRANCH   8  24
ATOM     24  O16 <0> d   1      17.291  -6.325  10.587  0.00  0.00    -0.361 OA
ATOM     25  H31 <0> d   1      16.385  -6.324  10.249  0.00  0.00     0.217 HD
ENDBRANCH   8  24
TORSDOF 5
ENDMDL
MODEL 7
REMARK VINA RESULT:      -7.4      3.872      9.346
REMARK  5 active torsions:
REMARK  status: ('A' for Active; 'I' for Inactive)
REMARK    1  A    between atoms: O2_2  and  C3_3 
REMARK    2  A    between atoms: C6_6  and  C7_7 
REMARK    3  A    between atoms: C12_12  and  O13_13 
REMARK    4  A    between atoms: C15_15  and  O16_16 
REMARK    5  A    between atoms: C21_21  and  O22_22 
ROOT
ATOM      1  C7  <0> d   1      18.946   0.069  14.106  0.00  0.00     0.090 A 
ATOM      2  C8  <0> d   1      18.907  -0.794  15.157  0.00  0.00     0.094 A 
ATOM      3  C9  <0> d   1      18.947  -0.287  16.477  0.00  0.00     0.190 A 
ATOM      4  O10 <0> d   1      18.914  -1.032  17.443  0.00  0.00    -0.287 OA
ATOM      5  C11 <0> d   1      19.030   1.174  16.641  0.00  0.00     0.081 A 
ATOM      6  C12 <0> d   1      19.075   1.763  17.910  0.00  0.00     0.085 A 
ATOM      7  C14 <0> d   1      19.153   3.138  18.021  0.00  0.00     0.074 A 
ATOM      8  C15 <0> d   1      19.187   3.930  16.878  0.00  0.00     0.071 A 
ATOM      9  C17 <0> d   1      19.143   3.354  15.618  0.00  0.00     0.075 A 
ATOM     10  C18 <0> d   1      19.065   1.976  15.487  0.00  0.00     0.095 A 
ATOM     11  O19 <0> d   1      19.028   1.400  14.267  0.00  0.00    -0.309 OA
ENDROOT
BRANCH   1  12
ATOM     12  C6  <0> d   1      18.904  -0.478  12.737  0.00  0.00     0.001 A 
ATOM     13  C5  <0> d   1      17.842  -1.294  12.341  0.00  0.00     0.017 A 
ATOM     14  C4  <0> d   1      17.803  -1.805  11.062  0.00  0.00     0.040 A 
ATOM     15  C3  <0> d   1      18.819  -1.509  10.163  0.00  0.00     0.101 A 
ATOM     16  C21 <0> d   1      19.884  -0.699  10.552  0.00  0.00     0.099 A 
ATOM     17  C20 <0> d   1      19.927  -0.180  11.832  0.00  0.00     0.053 A 
BRANCH  15  18
ATOM     18  O2  <0> d   1      18.776  -2.014   8.902  0.00  0.00    -0.353 OA
ATOM     19  C1  <0> d   1      18.156  -3.291   8.735  0.00  0.00     0.210 C 
ENDBRANCH  15  18
BRANCH  16  20
ATOM     20  O22 <0> d   1      20.879  -0.412   9.669  0.00  0.00    -0.358 OA
ATOM     21  H34 <0> d   1      21.266   0.467   9.785  0.00  0.00     0.217 HD
ENDBRANCH  16  20
ENDBRANCH   1  12
BRANCH   6  22
ATOM     22  O13 <0> d   1      19.042   0.987  19.025  0.00  0.00    -0.360 OA
ATOM     23  H29 <0> d   1      18.291   0.380  19.059  0.00  0.00     0.217 HD
ENDBRANCH   6  22
BRANCH   8  24
ATOM     24  O16 <0> d   1      19.265   5.280  16.999  0.00  0.00    -0.361 OA
ATOM     25  H31 <0> d   1      19.362   5.745  16.156  0.00  0.00     0.217 HD
ENDBRANCH   8  24
TORSDOF 5
ENDMDL
MODEL 8
REMARK VINA RESULT:      -7.3      2.701      7.304
REMARK  5 active torsions:
REMARK  status: ('A' for Active; 'I' for Inactive)
REMARK    1  A    between atoms: O2_2  and  C3_3 
REMARK    2  A    between atoms: C6_6  and  C7_7 
REMARK    3  A    between atoms: C12_12  and  O13_13 
REMARK    4  A    between atoms: C15_15  and  O16_16 
REMARK    5  A    between atoms: C21_21  and  O22_22 
ROOT
ATOM      1  C7  <0> d   1      18.175   0.146  10.672  0.00  0.00     0.090 A 
ATOM      2  C8  <0> d   1      17.893   1.460  10.879  0.00  0.00     0.094 A 
ATOM      3  C9  <0> d   1      17.786   1.950  12.203  0.00  0.00     0.190 A 
ATOM      4  O10 <0> d   1      17.535   3.123  12.426  0.00  0.00    -0.287 OA
ATOM      5  C11 <0> d   1      17.989   0.988  13.300  0.00  0.00     0.081 A 
ATOM      6  C12 <0> d   1      17.901   1.385  14.640  0.00  0.00     0.085 A 
ATOM      7  C14 <0> d   1      18.098   0.451  15.640  0.00  0.00     0.074 A 
ATOM      8  C15 <0> d   1      18.381  -0.871  15.317  0.00  0.00     0.071 A 
ATOM      9  C17 <0> d   1      18.470  -1.270  13.992  0.00  0.00     0.075 A 
ATOM     10  C18 <0> d   1      18.276  -0.349  12.974  0.00  0.00     0.095 A 
ATOM     11  O19 <0> d   1      18.352  -0.723  11.680  0.00  0.00    -0.309 OA
ENDROOT
BRANCH   1  12
ATOM     12  C6  <0> d   1      18.282  -0.346   9.285  0.00  0.00     0.001 A 
ATOM     13  C5  <0> d   1      17.582   0.293   8.259  0.00  0.00     0.017 A 
ATOM     14  C4  <0> d   1      17.683  -0.168   6.964  0.00  0.00     0.040 A 
ATOM     15  C3  <0> d   1      18.480  -1.267   6.676  0.00  0.00     0.101 A 
ATOM     16  C21 <0> d   1      19.178  -1.912   7.695  0.00  0.00     0.099 A 
ATOM     17  C20 <0> d   1      19.085  -1.453   8.994  0.00  0.00     0.053 A 
BRANCH  15  18
ATOM     18  O2  <0> d   1      18.578  -1.716   5.397  0.00  0.00    -0.353 OA
ATOM     19  C1  <0> d   1      18.517  -0.737   4.358  0.00  0.00     0.210 C 
ENDBRANCH  15  18
BRANCH  16  20
ATOM     20  O22 <0> d   1      19.959  -2.990   7.409  0.00  0.00    -0.358 OA
ATOM     21  H34 <0> d   1      20.858  -2.763   7.136  0.00  0.00     0.217 HD
ENDBRANCH  16  20
ENDBRANCH   1  12
BRANCH   6  22
ATOM     22  O13 <0> d   1      17.624   2.676  14.954  0.00  0.00    -0.360 OA
ATOM     23  H29 <0> d   1      17.627   3.275  14.194  0.00  0.00     0.217 HD
ENDBRANCH   6  22
BRANCH   8  24
ATOM     24  O16 <0> d   1      18.572  -1.779  16.307  0.00  0.00    -0.361 OA
ATOM     25  H31 <0> d   1      19.489  -2.071  16.401  0.00  0.00     0.217 HD
ENDBRANCH   8  24
TORSDOF 5
ENDMDL
MODEL 9
REMARK VINA RESULT:      -7.3      2.277      2.619
REMARK  5 active torsions:
REMARK  status: ('A' for Active; 'I' for Inactive)
REMARK    1  A    between atoms: O2_2  and  C3_3 
REMARK    2  A    between atoms: C6_6  and  C7_7 
REMARK    3  A    between atoms: C12_12  and  O13_13 
REMARK    4  A    between atoms: C15_15  and  O16_16 
REMARK    5  A    between atoms: C21_21  and  O22_22 
ROOT
ATOM      1  C7  <0> d   1      18.840  -0.933   9.034  0.00  0.00     0.090 A 
ATOM      2  C8  <0> d   1      18.986   0.156   8.233  0.00  0.00     0.094 A 
ATOM      3  C9  <0> d   1      19.030  -0.013   6.828  0.00  0.00     0.190 A 
ATOM      4  O10 <0> d   1      19.160   0.941   6.079  0.00  0.00    -0.287 OA
ATOM      5  C11 <0> d   1      18.912  -1.385   6.306  0.00  0.00     0.081 A 
ATOM      6  C12 <0> d   1      18.946  -1.646   4.931  0.00  0.00     0.085 A 
ATOM      7  C14 <0> d   1      18.833  -2.948   4.482  0.00  0.00     0.074 A 
ATOM      8  C15 <0> d   1      18.687  -3.991   5.390  0.00  0.00     0.071 A 
ATOM      9  C17 <0> d   1      18.653  -3.740   6.753  0.00  0.00     0.075 A 
ATOM     10  C18 <0> d   1      18.765  -2.440   7.223  0.00  0.00     0.095 A 
ATOM     11  O19 <0> d   1      18.740  -2.180   8.548  0.00  0.00    -0.309 OA
ENDROOT
BRANCH   1  12
ATOM     12  C6  <0> d   1      18.797  -0.737  10.496  0.00  0.00     0.001 A 
ATOM     13  C5  <0> d   1      17.627  -1.020  11.206  0.00  0.00     0.017 A 
ATOM     14  C4  <0> d   1      17.588  -0.836  12.572  0.00  0.00     0.040 A 
ATOM     15  C3  <0> d   1      18.710  -0.371  13.244  0.00  0.00     0.101 A 
ATOM     16  C21 <0> d   1      19.879  -0.082  12.542  0.00  0.00     0.099 A 
ATOM     17  C20 <0> d   1      19.926  -0.268  11.173  0.00  0.00     0.053 A 
BRANCH  15  18
ATOM     18  O2  <0> d   1      18.667  -0.192  14.590  0.00  0.00    -0.353 OA
ATOM     19  C1  <0> d   1      17.575   0.570  15.109  0.00  0.00     0.210 C 
ENDBRANCH  15  18
BRANCH  16  20
ATOM     20  O22 <0> d   1      20.976   0.375  13.204  0.00  0.00    -0.358 OA
ATOM     21  H34 <0> d   1      21.243   1.269  12.951  0.00  0.00     0.217 HD
ENDBRANCH  16  20
ENDBRANCH   1  12
BRANCH   6  22
ATOM     22  O13 <0> d   1      19.089  -0.626   4.046  0.00  0.00    -0.360 OA
ATOM     23  H29 <0> d   1      18.674  -0.790   3.188  0.00  0.00     0.217 HD
ENDBRANCH   6  22
BRANCH   8  24
ATOM     24  O16 <0> d   1      18.578  -5.266   4.938  0.00  0.00    -0.361 OA
ATOM     25  H31 <0> d   1      17.675  -5.612   4.954  0.00  0.00     0.217 HD
ENDBRANCH   8  24
TORSDOF 5
ENDMDL
