MODEL 1
REMARK VINA RESULT:      -4.8      0.000      0.000
REMARK  6 active torsions:
REMARK  status: ('A' for Active; 'I' for Inactive)
REMARK    1  A    between atoms: C2_2  and  C4_4 
REMARK    2  A    between atoms: C4_4  and  C5_5 
REMARK    3  A    between atoms: C5_5  and  C7_6 
REMARK    4  A    between atoms: C5_5  and  C12_11 
REMARK    5  A    between atoms: C7_6  and  N8_7 
REMARK    6  A    between atoms: C12_11  and  C13_12 
ROOT
ATOM      1  C5  <0> d   1      19.312   0.276  10.522  0.00  0.00     0.021 C 
ENDROOT
BRANCH   1   2
ATOM      2  C4  <0> d   1      19.750  -0.297   9.172  0.00  0.00     0.010 C 
BRANCH   2   3
ATOM      3  C2  <0> d   1      19.290   0.636   8.050  0.00  0.00    -0.022 C 
ATOM      4  C1  <0> d   1      17.910   0.195   7.555  0.00  0.00     0.009 C 
ATOM      5  C3  <0> d   1      19.208   2.069   8.580  0.00  0.00     0.009 C 
ENDBRANCH   2   3
ENDBRANCH   1   2
BRANCH   1   6
ATOM      6  C7  <0> d   1      20.467   0.172  11.519  0.00  0.00     0.234 C 
BRANCH   6   7
ATOM      7  N8  <0> d   1      21.565  -0.597  10.920  0.00  0.00    -0.079 N 
ATOM      8  H9  <0> d   1      21.749  -1.415  11.481  0.00  0.00     0.274 HD
ATOM      9  H10 <0> d   1      21.306  -0.882   9.986  0.00  0.00     0.274 HD
ATOM     10  H11 <0> d   1      22.395  -0.024  10.878  0.00  0.00     0.274 HD
ENDBRANCH   6   7
ENDBRANCH   1   6
BRANCH   1  11
ATOM     11  C12 <0> d   1      18.111  -0.513  11.047  0.00  0.00     0.119 C 
BRANCH  11  12
ATOM     12  C13 <0> d   1      16.977   0.433  11.341  0.00  0.00     0.172 C 
ATOM     13  O14 <0> d   1      15.875  -0.006  11.625  0.00  0.00    -0.648 OA
ATOM     14  O15 <0> d   1      17.160   1.637  11.295  0.00  0.00    -0.648 OA
ENDBRANCH  11  12
ENDBRANCH   1  11
TORSDOF 6
ENDMDL
MODEL 2
REMARK VINA RESULT:      -4.8      1.909      2.575
REMARK  6 active torsions:
REMARK  status: ('A' for Active; 'I' for Inactive)
REMARK    1  A    between atoms: C2_2  and  C4_4 
REMARK    2  A    between atoms: C4_4  and  C5_5 
REMARK    3  A    between atoms: C5_5  and  C7_6 
REMARK    4  A    between atoms: C5_5  and  C12_11 
REMARK    5  A    between atoms: C7_6  and  N8_7 
REMARK    6  A    between atoms: C12_11  and  C13_12 
ROOT
ATOM      1  C5  <0> d   1      19.236   1.134   8.660  0.00  0.00     0.021 C 
ENDROOT
BRANCH   1   2
ATOM      2  C4  <0> d   1      18.928   1.423   7.189  0.00  0.00     0.010 C 
BRANCH   2   3
ATOM      3  C2  <0> d   1      18.642   0.108   6.461  0.00  0.00    -0.022 C 
ATOM      4  C1  <0> d   1      17.134  -0.038   6.246  0.00  0.00     0.009 C 
ATOM      5  C3  <0> d   1      19.352   0.113   5.105  0.00  0.00     0.009 C 
ENDBRANCH   2   3
ENDBRANCH   1   2
BRANCH   1   6
ATOM      6  C7  <0> d   1      19.746  -0.301   8.802  0.00  0.00     0.234 C 
BRANCH   6   7
ATOM      7  N8  <0> d   1      20.801  -0.348   9.821  0.00  0.00    -0.079 N 
ATOM      8  H9  <0> d   1      21.461   0.397   9.658  0.00  0.00     0.274 HD
ATOM      9  H10 <0> d   1      20.390  -0.239  10.737  0.00  0.00     0.274 HD
ATOM     10  H11 <0> d   1      21.279  -1.237   9.772  0.00  0.00     0.274 HD
ENDBRANCH   6   7
ENDBRANCH   1   6
BRANCH   1  11
ATOM     11  C12 <0> d   1      17.965   1.309   9.493  0.00  0.00     0.119 C 
BRANCH  11  12
ATOM     12  C13 <0> d   1      18.113   2.510  10.389  0.00  0.00     0.172 C 
ATOM     13  O14 <0> d   1      17.153   2.923  11.019  0.00  0.00    -0.648 OA
ATOM     14  O15 <0> d   1      19.191   3.070  10.487  0.00  0.00    -0.648 OA
ENDBRANCH  11  12
ENDBRANCH   1  11
TORSDOF 6
ENDMDL
MODEL 3
REMARK VINA RESULT:      -4.8      1.515      2.158
REMARK  6 active torsions:
REMARK  status: ('A' for Active; 'I' for Inactive)
REMARK    1  A    between atoms: C2_2  and  C4_4 
REMARK    2  A    between atoms: C4_4  and  C5_5 
REMARK    3  A    between atoms: C5_5  and  C7_6 
REMARK    4  A    between atoms: C5_5  and  C12_11 
REMARK    5  A    between atoms: C7_6  and  N8_7 
REMARK    6  A    between atoms: C12_11  and  C13_12 
ROOT
ATOM      1  C5  <0> d   1      19.049   0.879  11.846  0.00  0.00     0.021 C 
ENDROOT
BRANCH   1   2
ATOM      2  C4  <0> d   1      19.580   1.969  10.912  0.00  0.00     0.010 C 
BRANCH   2   3
ATOM      3  C2  <0> d   1      18.499   2.341   9.896  0.00  0.00    -0.022 C 
ATOM      4  C1  <0> d   1      18.055   3.786  10.130  0.00  0.00     0.009 C 
ATOM      5  C3  <0> d   1      19.062   2.204   8.480  0.00  0.00     0.009 C 
ENDBRANCH   2   3
ENDBRANCH   1   2
BRANCH   1   6
ATOM      6  C7  <0> d   1      20.171   0.411  12.775  0.00  0.00     0.234 C 
BRANCH   6   7
ATOM      7  N8  <0> d   1      21.467   0.597  12.110  0.00  0.00    -0.079 N 
ATOM      8  H9  <0> d   1      21.629   1.580  11.956  0.00  0.00     0.274 HD
ATOM      9  H10 <0> d   1      22.201   0.223  12.694  0.00  0.00     0.274 HD
ATOM     10  H11 <0> d   1      21.464   0.113  11.224  0.00  0.00     0.274 HD
ENDBRANCH   6   7
ENDBRANCH   1   6
BRANCH   1  11
ATOM     11  C12 <0> d   1      18.546  -0.304  11.017  0.00  0.00     0.119 C 
BRANCH  11  12
ATOM     12  C13 <0> d   1      17.191  -0.729  11.517  0.00  0.00     0.172 C 
ATOM     13  O14 <0> d   1      16.991  -1.892  11.823  0.00  0.00    -0.648 OA
ATOM     14  O15 <0> d   1      16.293   0.090  11.617  0.00  0.00    -0.648 OA
ENDBRANCH  11  12
ENDBRANCH   1  11
TORSDOF 6
ENDMDL
MODEL 4
REMARK VINA RESULT:      -4.7      2.704      4.469
REMARK  6 active torsions:
REMARK  status: ('A' for Active; 'I' for Inactive)
REMARK    1  A    between atoms: C2_2  and  C4_4 
REMARK    2  A    between atoms: C4_4  and  C5_5 
REMARK    3  A    between atoms: C5_5  and  C7_6 
REMARK    4  A    between atoms: C5_5  and  C12_11 
REMARK    5  A    between atoms: C7_6  and  N8_7 
REMARK    6  A    between atoms: C12_11  and  C13_12 
ROOT
ATOM      1  C5  <0> d   1      19.312  -0.358  12.580  0.00  0.00     0.021 C 
ENDROOT
BRANCH   1   2
ATOM      2  C4  <0> d   1      19.886  -0.058  13.967  0.00  0.00     0.010 C 
BRANCH   2   3
ATOM      3  C2  <0> d   1      18.749  -0.009  14.989  0.00  0.00    -0.022 C 
ATOM      4  C1  <0> d   1      18.713  -1.321  15.776  0.00  0.00     0.009 C 
ATOM      5  C3  <0> d   1      18.982   1.157  15.953  0.00  0.00     0.009 C 
ENDBRANCH   2   3
ENDBRANCH   1   2
BRANCH   1   6
ATOM      6  C7  <0> d   1      20.363  -0.043  11.514  0.00  0.00     0.234 C 
BRANCH   6   7
ATOM      7  N8  <0> d   1      21.529   0.585  12.146  0.00  0.00    -0.079 N 
ATOM      8  H9  <0> d   1      21.392   0.624  13.144  0.00  0.00     0.274 HD
ATOM      9  H10 <0> d   1      22.356   0.042  11.942  0.00  0.00     0.274 HD
ATOM     10  H11 <0> d   1      21.645   1.521  11.786  0.00  0.00     0.274 HD
ENDBRANCH   6   7
ENDBRANCH   1   6
BRANCH   1  11
ATOM     11  C12 <0> d   1      18.070   0.504  12.344  0.00  0.00     0.119 C 
BRANCH  11  12
ATOM     12  C13 <0> d   1      16.933  -0.368  11.883  0.00  0.00     0.172 C 
ATOM     13  O14 <0> d   1      15.890   0.139  11.506  0.00  0.00    -0.648 OA
ATOM     14  O15 <0> d   1      17.055  -1.581  11.885  0.00  0.00    -0.648 OA
ENDBRANCH  11  12
ENDBRANCH   1  11
TORSDOF 6
ENDMDL
MODEL 5
REMARK VINA RESULT:      -4.6      2.044      2.831
REMARK  6 active torsions:
REMARK  status: ('A' for Active; 'I' for Inactive)
REMARK    1  A    between atoms: C2_2  and  C4_4 
REMARK    2  A    between atoms: C4_4  and  C5_5 
REMARK    3  A    between atoms: C5_5  and  C7_6 
REMARK    4  A    between atoms: C5_5  and  C12_11 
REMARK    5  A    between atoms: C7_6  and  N8_7 
REMARK    6  A    between atoms: C12_11  and  C13_12 
ROOT
ATOM      1  C5  <0> d   1      19.169   0.666  11.252  0.00  0.00     0.021 C 
ENDROOT
BRANCH   1   2
ATOM      2  C4  <0> d   1      19.438   2.029  10.610  0.00  0.00     0.010 C 
BRANCH   2   3
ATOM      3  C2  <0> d   1      18.638   3.106  11.346  0.00  0.00    -0.022 C 
ATOM      4  C1  <0> d   1      19.598   4.023  12.106  0.00  0.00     0.009 C 
ATOM      5  C3  <0> d   1      17.841   3.930  10.333  0.00  0.00     0.009 C 
ENDBRANCH   2   3
ENDBRANCH   1   2
BRANCH   1   6
ATOM      6  C7  <0> d   1      20.470  -0.136  11.311  0.00  0.00     0.234 C 
BRANCH   6   7
ATOM      7  N8  <0> d   1      21.469   0.606  12.091  0.00  0.00    -0.079 N 
ATOM      8  H9  <0> d   1      22.115  -0.043  12.515  0.00  0.00     0.274 HD
ATOM      9  H10 <0> d   1      21.974   1.233  11.482  0.00  0.00     0.274 HD
ATOM     10  H11 <0> d   1      21.005   1.139  12.812  0.00  0.00     0.274 HD
ENDBRANCH   6   7
ENDBRANCH   1   6
BRANCH   1  11
ATOM     11  C12 <0> d   1      18.136  -0.096  10.420  0.00  0.00     0.119 C 
BRANCH  11  12
ATOM     12  C13 <0> d   1      17.014  -0.558  11.311  0.00  0.00     0.172 C 
ATOM     13  O14 <0> d   1      16.087   0.194  11.562  0.00  0.00    -0.648 OA
ATOM     14  O15 <0> d   1      17.031  -1.682  11.781  0.00  0.00    -0.648 OA
ENDBRANCH  11  12
ENDBRANCH   1  11
TORSDOF 6
ENDMDL
MODEL 6
REMARK VINA RESULT:      -4.6      4.311      5.968
REMARK  6 active torsions:
REMARK  status: ('A' for Active; 'I' for Inactive)
REMARK    1  A    between atoms: C2_2  and  C4_4 
REMARK    2  A    between atoms: C4_4  and  C5_5 
REMARK    3  A    between atoms: C5_5  and  C7_6 
REMARK    4  A    between atoms: C5_5  and  C12_11 
REMARK    5  A    between atoms: C7_6  and  N8_7 
REMARK    6  A    between atoms: C12_11  and  C13_12 
ROOT
ATOM      1  C5  <0> d   1      19.433  -1.257  14.418  0.00  0.00     0.021 C 
ENDROOT
BRANCH   1   2
ATOM      2  C4  <0> d   1      19.012  -1.577  15.854  0.00  0.00     0.010 C 
BRANCH   2   3
ATOM      3  C2  <0> d   1      18.570  -0.291  16.555  0.00  0.00    -0.022 C 
ATOM      4  C1  <0> d   1      17.052  -0.310  16.747  0.00  0.00     0.009 C 
ATOM      5  C3  <0> d   1      19.256  -0.193  17.919  0.00  0.00     0.009 C 
ENDBRANCH   2   3
ENDBRANCH   1   2
BRANCH   1   6
ATOM      6  C7  <0> d   1      19.742   0.236  14.298  0.00  0.00     0.234 C 
BRANCH   6   7
ATOM      7  N8  <0> d   1      20.748   0.446  13.249  0.00  0.00    -0.079 N 
ATOM      8  H9  <0> d   1      21.057  -0.447  12.896  0.00  0.00     0.274 HD
ATOM      9  H10 <0> d   1      20.341   0.982  12.496  0.00  0.00     0.274 HD
ATOM     10  H11 <0> d   1      21.535   0.949  13.632  0.00  0.00     0.274 HD
ENDBRANCH   6   7
ENDBRANCH   1   6
BRANCH   1  11
ATOM     11  C12 <0> d   1      18.297  -1.622  13.460  0.00  0.00     0.119 C 
BRANCH  11  12
ATOM     12  C13 <0> d   1      18.831  -2.501  12.359  0.00  0.00     0.172 C 
ATOM     13  O14 <0> d   1      18.291  -3.566  12.114  0.00  0.00    -0.648 OA
ATOM     14  O15 <0> d   1      19.803  -2.147  11.714  0.00  0.00    -0.648 OA
ENDBRANCH  11  12
ENDBRANCH   1  11
TORSDOF 6
ENDMDL
MODEL 7
REMARK VINA RESULT:      -4.5      2.400      3.090
REMARK  6 active torsions:
REMARK  status: ('A' for Active; 'I' for Inactive)
REMARK    1  A    between atoms: C2_2  and  C4_4 
REMARK    2  A    between atoms: C4_4  and  C5_5 
REMARK    3  A    between atoms: C5_5  and  C7_6 
REMARK    4  A    between atoms: C5_5  and  C12_11 
REMARK    5  A    between atoms: C7_6  and  N8_7 
REMARK    6  A    between atoms: C12_11  and  C13_12 
ROOT
ATOM      1  C5  <0> d   1      19.197  -0.379  12.569  0.00  0.00     0.021 C 
ENDROOT
BRANCH   1   2
ATOM      2  C4  <0> d   1      19.312  -1.858  12.944  0.00  0.00     0.010 C 
BRANCH   2   3
ATOM      3  C2  <0> d   1      19.115  -2.717  11.694  0.00  0.00    -0.022 C 
ATOM      4  C1  <0> d   1      17.688  -3.270  11.676  0.00  0.00     0.009 C 
ATOM      5  C3  <0> d   1      19.346  -1.862  10.447  0.00  0.00     0.009 C 
ENDBRANCH   2   3
ENDBRANCH   1   2
BRANCH   1   6
ATOM      6  C7  <0> d   1      20.374   0.393  13.168  0.00  0.00     0.234 C 
BRANCH   6   7
ATOM      7  N8  <0> d   1      21.431   0.534  12.160  0.00  0.00    -0.079 N 
ATOM      8  H9  <0> d   1      22.170   1.116  12.526  0.00  0.00     0.274 HD
ATOM      9  H10 <0> d   1      21.803  -0.377  11.931  0.00  0.00     0.274 HD
ATOM     10  H11 <0> d   1      21.049   0.959  11.327  0.00  0.00     0.274 HD
ENDBRANCH   6   7
ENDBRANCH   1   6
BRANCH   1  11
ATOM     11  C12 <0> d   1      17.884   0.186  13.116  0.00  0.00     0.119 C 
BRANCH  11  12
ATOM     12  C13 <0> d   1      17.018   0.644  11.972  0.00  0.00     0.172 C 
ATOM     13  O14 <0> d   1      16.112  -0.068  11.572  0.00  0.00    -0.648 OA
ATOM     14  O15 <0> d   1      17.221   1.725  11.448  0.00  0.00    -0.648 OA
ENDBRANCH  11  12
ENDBRANCH   1  11
TORSDOF 6
ENDMDL
MODEL 8
REMARK VINA RESULT:      -4.5      1.392      1.876
REMARK  6 active torsions:
REMARK  status: ('A' for Active; 'I' for Inactive)
REMARK    1  A    between atoms: C2_2  and  C4_4 
REMARK    2  A    between atoms: C4_4  and  C5_5 
REMARK    3  A    between atoms: C5_5  and  C7_6 
REMARK    4  A    between atoms: C5_5  and  C12_11 
REMARK    5  A    between atoms: C7_6  and  N8_7 
REMARK    6  A    between atoms: C12_11  and  C13_12 
ROOT
ATOM      1  C5  <0> d   1      19.608   0.572  10.559  0.00  0.00     0.021 C 
ENDROOT
BRANCH   1   2
ATOM      2  C4  <0> d   1      19.343  -0.112   9.215  0.00  0.00     0.010 C 
BRANCH   2   3
ATOM      3  C2  <0> d   1      18.332   0.712   8.415  0.00  0.00    -0.022 C 
ATOM      4  C1  <0> d   1      19.067   1.517   7.341  0.00  0.00     0.009 C 
ATOM      5  C3  <0> d   1      17.324  -0.226   7.748  0.00  0.00     0.009 C 
ENDBRANCH   2   3
ENDBRANCH   1   2
BRANCH   1   6
ATOM      6  C7  <0> d   1      20.589  -0.271  11.375  0.00  0.00     0.234 C 
BRANCH   6   7
ATOM      7  N8  <0> d   1      21.491   0.614  12.123  0.00  0.00    -0.079 N 
ATOM      8  H9  <0> d   1      21.280   0.554  13.108  0.00  0.00     0.274 HD
ATOM      9  H10 <0> d   1      22.448   0.331  11.967  0.00  0.00     0.274 HD
ATOM     10  H11 <0> d   1      21.367   1.565  11.810  0.00  0.00     0.274 HD
ENDBRANCH   6   7
ENDBRANCH   1   6
BRANCH   1  11
ATOM     11  C12 <0> d   1      18.293   0.713  11.329  0.00  0.00     0.119 C 
BRANCH  11  12
ATOM     12  C13 <0> d   1      18.147   2.130  11.817  0.00  0.00     0.172 C 
ATOM     13  O14 <0> d   1      17.174   2.789  11.492  0.00  0.00    -0.648 OA
ATOM     14  O15 <0> d   1      19.000   2.618  12.538  0.00  0.00    -0.648 OA
ENDBRANCH  11  12
ENDBRANCH   1  11
TORSDOF 6
ENDMDL
MODEL 9
REMARK VINA RESULT:      -4.4      2.185      2.493
REMARK  6 active torsions:
REMARK  status: ('A' for Active; 'I' for Inactive)
REMARK    1  A    between atoms: C2_2  and  C4_4 
REMARK    2  A    between atoms: C4_4  and  C5_5 
REMARK    3  A    between atoms: C5_5  and  C7_6 
REMARK    4  A    between atoms: C5_5  and  C12_11 
REMARK    5  A    between atoms: C7_6  and  N8_7 
REMARK    6  A    between atoms: C12_11  and  C13_12 
ROOT
ATOM      1  C5  <0> d   1      19.163   0.283  11.537  0.00  0.00     0.021 C 
ENDROOT
BRANCH   1   2
ATOM      2  C4  <0> d   1      18.413   0.730  10.280  0.00  0.00     0.010 C 
BRANCH   2   3
ATOM      3  C2  <0> d   1      19.132   1.928   9.657  0.00  0.00    -0.022 C 
ATOM      4  C1  <0> d   1      19.193   1.753   8.138  0.00  0.00     0.009 C 
ATOM      5  C3  <0> d   1      18.368   3.211   9.991  0.00  0.00     0.009 C 
ENDBRANCH   2   3
ENDBRANCH   1   2
BRANCH   1   6
ATOM      6  C7  <0> d   1      20.595  -0.105  11.165  0.00  0.00     0.234 C 
BRANCH   6   7
ATOM      7  N8  <0> d   1      21.531   0.506  12.117  0.00  0.00    -0.079 N 
ATOM      8  H9  <0> d   1      21.715  -0.140  12.870  0.00  0.00     0.274 HD
ATOM      9  H10 <0> d   1      22.396   0.726  11.644  0.00  0.00     0.274 HD
ATOM     10  H11 <0> d   1      21.128   1.353  12.491  0.00  0.00     0.274 HD
ENDBRANCH   6   7
ENDBRANCH   1   6
BRANCH   1  11
ATOM     11  C12 <0> d   1      18.451  -0.922  12.155  0.00  0.00     0.119 C 
BRANCH  11  12
ATOM     12  C13 <0> d   1      18.615  -0.890  13.652  0.00  0.00     0.172 C 
ATOM     13  O14 <0> d   1      19.648  -1.293  14.160  0.00  0.00    -0.648 OA
ATOM     14  O15 <0> d   1      17.717  -0.460  14.354  0.00  0.00    -0.648 OA
ENDBRANCH  11  12
ENDBRANCH   1  11
TORSDOF 6
ENDMDL
