MODEL 1
REMARK VINA RESULT:      -4.9      0.000      0.000
REMARK  1 active torsions:
REMARK  status: ('A' for Active; 'I' for Inactive)
REMARK    1  A    between atoms: C2_2  and  C3_3 
ROOT
ATOM      1  C3  ZIN A   1      18.353  -0.189   6.548  0.00  0.00     0.045 A 
ATOM      2  C4  ZIN A   1      17.031  -0.098   5.783  0.00  0.00     0.026 C 
ATOM      3  C5  ZIN A   1      18.130  -0.784   7.953  0.00  0.00     0.122 A 
ATOM      4  C6  ZIN A   1      18.959  -2.050   7.938  0.00  0.00     0.225 A 
ATOM      5  O7  ZIN A   1      19.065  -2.831   8.860  0.00  0.00    -0.273 OA
ATOM      6  N8  ZIN A   1      19.553  -2.173   6.746  0.00  0.00    -0.297 N 
ATOM      7  C9  ZIN A   1      19.283  -1.183   5.886  0.00  0.00     0.233 A 
ATOM      8  O10 ZIN A   1      19.715  -1.096   4.757  0.00  0.00    -0.272 OA
ATOM      9  H21 ZIN A   1      20.134  -2.918   6.522  0.00  0.00     0.171 HD
ENDROOT
BRANCH   1  10
ATOM     10  C2  ZIN A   1      19.015   1.187   6.643  0.00  0.00     0.015 C 
ATOM     11  C1  ZIN A   1      19.144   1.590   8.114  0.00  0.00     0.006 C 
ENDBRANCH   1  10
TORSDOF 1
ENDMDL
MODEL 2
REMARK VINA RESULT:      -4.7      4.160      5.446
REMARK  1 active torsions:
REMARK  status: ('A' for Active; 'I' for Inactive)
REMARK    1  A    between atoms: C2_2  and  C3_3 
ROOT
ATOM      1  C3  ZIN A   1      18.861   1.829  10.085  0.00  0.00     0.045 A 
ATOM      2  C4  ZIN A   1      17.520   1.113  10.263  0.00  0.00     0.026 C 
ATOM      3  C5  ZIN A   1      18.756   3.301  10.531  0.00  0.00     0.122 A 
ATOM      4  C6  ZIN A   1      19.750   3.399  11.669  0.00  0.00     0.225 A 
ATOM      5  O7  ZIN A   1      19.985   4.399  12.311  0.00  0.00    -0.273 OA
ATOM      6  N8  ZIN A   1      20.326   2.205  11.854  0.00  0.00    -0.297 N 
ATOM      7  C9  ZIN A   1      19.902   1.248  11.019  0.00  0.00     0.233 A 
ATOM      8  O10 ZIN A   1      20.289   0.100  11.012  0.00  0.00    -0.272 OA
ATOM      9  H21 ZIN A   1      20.997   2.046  12.536  0.00  0.00     0.171 HD
ENDROOT
BRANCH   1  10
ATOM     10  C2  ZIN A   1      19.330   1.737   8.632  0.00  0.00     0.015 C 
ATOM     11  C1  ZIN A   1      18.490   0.695   7.890  0.00  0.00     0.006 C 
ENDBRANCH   1  10
TORSDOF 1
ENDMDL
MODEL 3
REMARK VINA RESULT:      -4.7      3.471      5.037
REMARK  1 active torsions:
REMARK  status: ('A' for Active; 'I' for Inactive)
REMARK    1  A    between atoms: C2_2  and  C3_3 
ROOT
ATOM      1  C3  ZIN A   1      18.579   2.628  10.242  0.00  0.00     0.045 A 
ATOM      2  C4  ZIN A   1      19.673   2.672  11.311  0.00  0.00     0.026 C 
ATOM      3  C5  ZIN A   1      19.176   2.278   8.865  0.00  0.00     0.122 A 
ATOM      4  C6  ZIN A   1      18.489   0.981   8.498  0.00  0.00     0.225 A 
ATOM      5  O7  ZIN A   1      18.673   0.353   7.478  0.00  0.00    -0.273 OA
ATOM      6  N8  ZIN A   1      17.648   0.636   9.480  0.00  0.00    -0.297 N 
ATOM      7  C9  ZIN A   1      17.617   1.491  10.511  0.00  0.00     0.233 A 
ATOM      8  O10 ZIN A   1      16.929   1.372  11.501  0.00  0.00    -0.272 OA
ATOM      9  H21 ZIN A   1      17.103  -0.166   9.448  0.00  0.00     0.171 HD
ENDROOT
BRANCH   1  10
ATOM     10  C2  ZIN A   1      17.832   3.962  10.184  0.00  0.00     0.015 C 
ATOM     11  C1  ZIN A   1      18.093   4.749  11.470  0.00  0.00     0.006 C 
ENDBRANCH   1  10
TORSDOF 1
ENDMDL
MODEL 4
REMARK VINA RESULT:      -4.6      1.960      2.967
REMARK  1 active torsions:
REMARK  status: ('A' for Active; 'I' for Inactive)
REMARK    1  A    between atoms: C2_2  and  C3_3 
ROOT
ATOM      1  C3  ZIN A   1      18.601   0.504   8.674  0.00  0.00     0.045 A 
ATOM      2  C4  ZIN A   1      19.222   1.827   8.221  0.00  0.00     0.026 C 
ATOM      3  C5  ZIN A   1      17.873  -0.186   7.504  0.00  0.00     0.122 A 
ATOM      4  C6  ZIN A   1      18.616  -1.495   7.346  0.00  0.00     0.225 A 
ATOM      5  O7  ZIN A   1      18.363  -2.351   6.525  0.00  0.00    -0.273 OA
ATOM      6  N8  ZIN A   1      19.596  -1.557   8.254  0.00  0.00    -0.297 N 
ATOM      7  C9  ZIN A   1      19.680  -0.487   9.055  0.00  0.00     0.233 A 
ATOM      8  O10 ZIN A   1      20.492  -0.337   9.942  0.00  0.00    -0.272 OA
ATOM      9  H21 ZIN A   1      20.197  -2.316   8.328  0.00  0.00     0.171 HD
ENDROOT
BRANCH   1  10
ATOM     10  C2  ZIN A   1      17.644   0.733   9.846  0.00  0.00     0.015 C 
ATOM     11  C1  ZIN A   1      17.833   2.151  10.389  0.00  0.00     0.006 C 
ENDBRANCH   1  10
TORSDOF 1
ENDMDL
MODEL 5
REMARK VINA RESULT:      -4.5      2.100      3.013
REMARK  1 active torsions:
REMARK  status: ('A' for Active; 'I' for Inactive)
REMARK    1  A    between atoms: C2_2  and  C3_3 
ROOT
ATOM      1  C3  ZIN A   1      18.766  -0.366   7.655  0.00  0.00     0.045 A 
ATOM      2  C4  ZIN A   1      17.324  -0.392   8.165  0.00  0.00     0.026 C 
ATOM      3  C5  ZIN A   1      19.021  -1.533   6.680  0.00  0.00     0.122 A 
ATOM      4  C6  ZIN A   1      19.382  -0.840   5.384  0.00  0.00     0.225 A 
ATOM      5  O7  ZIN A   1      19.660  -1.398   4.344  0.00  0.00    -0.273 OA
ATOM      6  N8  ZIN A   1      19.343   0.485   5.567  0.00  0.00    -0.297 N 
ATOM      7  C9  ZIN A   1      19.009   0.864   6.807  0.00  0.00     0.233 A 
ATOM      8  O10 ZIN A   1      18.914   2.010   7.189  0.00  0.00    -0.272 OA
ATOM      9  H21 ZIN A   1      19.543   1.119   4.861  0.00  0.00     0.171 HD
ENDROOT
BRANCH   1  10
ATOM     10  C2  ZIN A   1      19.750  -0.416   8.825  0.00  0.00     0.015 C 
ATOM     11  C1  ZIN A   1      19.209  -1.353   9.907  0.00  0.00     0.006 C 
ENDBRANCH   1  10
TORSDOF 1
ENDMDL
MODEL 6
REMARK VINA RESULT:      -4.4      1.112      3.024
REMARK  1 active torsions:
REMARK  status: ('A' for Active; 'I' for Inactive)
REMARK    1  A    between atoms: C2_2  and  C3_3 
ROOT
ATOM      1  C3  ZIN A   1      18.738  -0.220   7.859  0.00  0.00     0.045 A 
ATOM      2  C4  ZIN A   1      19.731   0.387   8.852  0.00  0.00     0.026 C 
ATOM      3  C5  ZIN A   1      18.840   0.480   6.489  0.00  0.00     0.122 A 
ATOM      4  C6  ZIN A   1      19.251  -0.634   5.550  0.00  0.00     0.225 A 
ATOM      5  O7  ZIN A   1      19.445  -0.513   4.360  0.00  0.00    -0.273 OA
ATOM      6  N8  ZIN A   1      19.369  -1.772   6.244  0.00  0.00    -0.297 N 
ATOM      7  C9  ZIN A   1      19.103  -1.656   7.551  0.00  0.00     0.233 A 
ATOM      8  O10 ZIN A   1      19.149  -2.558   8.359  0.00  0.00    -0.272 OA
ATOM      9  H21 ZIN A   1      19.624  -2.613   5.833  0.00  0.00     0.171 HD
ENDROOT
BRANCH   1  10
ATOM     10  C2  ZIN A   1      17.311  -0.133   8.404  0.00  0.00     0.015 C 
ATOM     11  C1  ZIN A   1      17.354   0.244   9.887  0.00  0.00     0.006 C 
ENDBRANCH   1  10
TORSDOF 1
ENDMDL
MODEL 7
REMARK VINA RESULT:      -4.4      5.183      5.871
REMARK  1 active torsions:
REMARK  status: ('A' for Active; 'I' for Inactive)
REMARK    1  A    between atoms: C2_2  and  C3_3 
ROOT
ATOM      1  C3  ZIN A   1      18.701  -1.557  12.641  0.00  0.00     0.045 A 
ATOM      2  C4  ZIN A   1      17.415  -0.856  12.200  0.00  0.00     0.026 C 
ATOM      3  C5  ZIN A   1      18.640  -3.064  12.319  0.00  0.00     0.122 A 
ATOM      4  C6  ZIN A   1      19.790  -3.269  11.358  0.00  0.00     0.225 A 
ATOM      5  O7  ZIN A   1      20.102  -4.325  10.851  0.00  0.00    -0.273 OA
ATOM      6  N8  ZIN A   1      20.408  -2.099  11.154  0.00  0.00    -0.297 N 
ATOM      7  C9  ZIN A   1      19.880  -1.068  11.827  0.00  0.00     0.233 A 
ATOM      8  O10 ZIN A   1      20.281   0.075  11.788  0.00  0.00    -0.272 OA
ATOM      9  H21 ZIN A   1      21.176  -2.005  10.569  0.00  0.00     0.171 HD
ENDROOT
BRANCH   1  10
ATOM     10  C2  ZIN A   1      18.949  -1.334  14.134  0.00  0.00     0.015 C 
ATOM     11  C1  ZIN A   1      17.901  -0.366  14.686  0.00  0.00     0.006 C 
ENDBRANCH   1  10
TORSDOF 1
ENDMDL
MODEL 8
REMARK VINA RESULT:      -4.4      4.113      5.050
REMARK  1 active torsions:
REMARK  status: ('A' for Active; 'I' for Inactive)
REMARK    1  A    between atoms: C2_2  and  C3_3 
ROOT
ATOM      1  C3  ZIN A   1      18.254   2.731  10.934  0.00  0.00     0.045 A 
ATOM      2  C4  ZIN A   1      17.478   4.028  10.700  0.00  0.00     0.026 C 
ATOM      3  C5  ZIN A   1      17.484   1.799  11.892  0.00  0.00     0.122 A 
ATOM      4  C6  ZIN A   1      17.222   0.567  11.053  0.00  0.00     0.225 A 
ATOM      5  O7  ZIN A   1      16.634  -0.425  11.428  0.00  0.00    -0.273 OA
ATOM      6  N8  ZIN A   1      17.742   0.746   9.833  0.00  0.00    -0.297 N 
ATOM      7  C9  ZIN A   1      18.346   1.927   9.655  0.00  0.00     0.233 A 
ATOM      8  O10 ZIN A   1      18.881   2.294   8.631  0.00  0.00    -0.272 OA
ATOM      9  H21 ZIN A   1      17.687   0.074   9.135  0.00  0.00     0.171 HD
ENDROOT
BRANCH   1  10
ATOM     10  C2  ZIN A   1      19.650   3.032  11.482  0.00  0.00     0.015 C 
ATOM     11  C1  ZIN A   1      19.627   4.365  12.234  0.00  0.00     0.006 C 
ENDBRANCH   1  10
TORSDOF 1
ENDMDL
MODEL 9
REMARK VINA RESULT:      -4.4      5.313      6.029
REMARK  1 active torsions:
REMARK  status: ('A' for Active; 'I' for Inactive)
REMARK    1  A    between atoms: C2_2  and  C3_3 
ROOT
ATOM      1  C3  ZIN A   1      18.329   2.864  11.076  0.00  0.00     0.045 A 
ATOM      2  C4  ZIN A   1      18.629   2.875   9.576  0.00  0.00     0.026 C 
ATOM      3  C5  ZIN A   1      17.760   1.498  11.509  0.00  0.00     0.122 A 
ATOM      4  C6  ZIN A   1      18.777   0.990  12.509  0.00  0.00     0.225 A 
ATOM      5  O7  ZIN A   1      18.714  -0.066  13.099  0.00  0.00    -0.273 OA
ATOM      6  N8  ZIN A   1      19.759   1.892  12.634  0.00  0.00    -0.297 N 
ATOM      7  C9  ZIN A   1      19.609   2.985  11.876  0.00  0.00     0.233 A 
ATOM      8  O10 ZIN A   1      20.377   3.921  11.835  0.00  0.00    -0.272 OA
ATOM      9  H21 ZIN A   1      20.516   1.765  13.228  0.00  0.00     0.171 HD
ENDROOT
BRANCH   1  10
ATOM     10  C2  ZIN A   1      17.361   3.992  11.438  0.00  0.00     0.015 C 
ATOM     11  C1  ZIN A   1      17.381   5.055  10.338  0.00  0.00     0.006 C 
ENDBRANCH   1  10
TORSDOF 1
ENDMDL
