MODEL 1
REMARK VINA RESULT:      -7.2      0.000      0.000
REMARK  6 active torsions:
REMARK  status: ('A' for Active; 'I' for Inactive)
REMARK    1  A    between atoms: C3_3  and  C4_4 
REMARK    2  A    between atoms: C4_4  and  O5_5 
REMARK    3  A    between atoms: O5_5  and  C6_6 
REMARK    4  A    between atoms: C6_6  and  C8_7 
REMARK    5  A    between atoms: C6_6  and  C14_13 
REMARK    6  A    between atoms: C8_7  and  N9_8 
ROOT
ATOM      1  C6  <0> d   1      18.769   2.042  11.092  0.00  0.00     0.174 C 
ENDROOT
BRANCH   1   2
ATOM      2  O5  <0> d   1      20.078   1.688  11.546  0.00  0.00    -0.375 OA
BRANCH   2   3
ATOM      3  C4  <0> d   1      20.217   0.312  11.905  0.00  0.00     0.209 C 
BRANCH   3   4
ATOM      4  C3  <0> d   1      19.597   0.082  13.258  0.00  0.00    -0.005 A 
ATOM      5  C2  <0> d   1      18.993  -1.063  13.587  0.00  0.00     0.083 A 
ATOM      6 Cl1  <0> d   1      18.826  -2.441  12.544  0.00  0.00    -0.076 Cl
ATOM      7  S24 <0> d   1      18.389  -0.959  15.235  0.00  0.00    -0.089 SA
ATOM      8  C23 <0> d   1      19.015   0.677  15.394  0.00  0.00     0.052 A 
ATOM      9  C22 <0> d   1      19.608   1.042  14.257  0.00  0.00     0.019 A 
ENDBRANCH   3   4
ENDBRANCH   2   3
ENDBRANCH   1   2
BRANCH   1  10
ATOM     10  C8  <0> d   1      18.649   3.565  11.016  0.00  0.00     0.166 C 
BRANCH  10  11
ATOM     11  N9  <0> d   1      18.668   4.124  12.371  0.00  0.00    -0.347 N 
ATOM     12  C13 <0> d   1      17.689   4.021  13.295  0.00  0.00     0.209 A 
ATOM     13  N12 <0> d   1      18.069   4.643  14.378  0.00  0.00    -0.255 NA
ATOM     14  C11 <0> d   1      19.287   5.168  14.182  0.00  0.00     0.135 A 
ATOM     15  C10 <0> d   1      19.680   4.854  12.933  0.00  0.00     0.111 A 
ENDBRANCH  10  11
ENDBRANCH   1  10
BRANCH   1  16
ATOM     16  C14 <0> d   1      18.534   1.451   9.725  0.00  0.00    -0.006 A 
ATOM     17  C20 <0> d   1      17.581   0.462   9.554  0.00  0.00     0.044 A 
ATOM     18  C19 <0> d   1      17.362  -0.076   8.299  0.00  0.00     0.048 A 
ATOM     19 Cl21 <0> d   1      16.652  -0.093  10.911  0.00  0.00    -0.084 Cl
ATOM     20  C17 <0> d   1      18.104   0.367   7.218  0.00  0.00     0.035 A 
ATOM     21  C16 <0> d   1      19.060   1.352   7.392  0.00  0.00     0.024 A 
ATOM     22 Cl18 <0> d   1      17.834  -0.313   5.643  0.00  0.00    -0.084 Cl
ATOM     23  C15 <0> d   1      19.275   1.893   8.645  0.00  0.00     0.013 A 
ENDBRANCH   1  16
TORSDOF 6
ENDMDL
MODEL 2
REMARK VINA RESULT:      -7.1      1.547      2.168
REMARK  6 active torsions:
REMARK  status: ('A' for Active; 'I' for Inactive)
REMARK    1  A    between atoms: C3_3  and  C4_4 
REMARK    2  A    between atoms: C4_4  and  O5_5 
REMARK    3  A    between atoms: O5_5  and  C6_6 
REMARK    4  A    between atoms: C6_6  and  C8_7 
REMARK    5  A    between atoms: C6_6  and  C14_13 
REMARK    6  A    between atoms: C8_7  and  N9_8 
ROOT
ATOM      1  C6  <0> d   1      19.101   1.776  11.087  0.00  0.00     0.174 C 
ENDROOT
BRANCH   1   2
ATOM      2  O5  <0> d   1      20.278   1.093  11.526  0.00  0.00    -0.375 OA
BRANCH   2   3
ATOM      3  C4  <0> d   1      20.088   0.305  12.703  0.00  0.00     0.209 C 
BRANCH   3   4
ATOM      4  C3  <0> d   1      19.629  -1.076  12.314  0.00  0.00    -0.005 A 
ATOM      5  C2  <0> d   1      18.813  -1.805  13.080  0.00  0.00     0.083 A 
ATOM      6 Cl1  <0> d   1      18.160  -1.301  14.607  0.00  0.00    -0.076 Cl
ATOM      7  S24 <0> d   1      18.507  -3.355  12.308  0.00  0.00    -0.089 SA
ATOM      8  C23 <0> d   1      19.527  -2.912  10.944  0.00  0.00     0.052 A 
ATOM      9  C22 <0> d   1      20.023  -1.688  11.136  0.00  0.00     0.019 A 
ENDBRANCH   3   4
ENDBRANCH   2   3
ENDBRANCH   1   2
BRANCH   1  10
ATOM     10  C8  <0> d   1      19.374   3.279  11.031  0.00  0.00     0.166 C 
BRANCH  10  11
ATOM     11  N9  <0> d   1      18.182   4.010  11.471  0.00  0.00    -0.347 N 
ATOM     12  C13 <0> d   1      17.135   4.375  10.700  0.00  0.00     0.209 A 
ATOM     13  N12 <0> d   1      16.268   5.005  11.445  0.00  0.00    -0.255 NA
ATOM     14  C11 <0> d   1      16.729   5.071  12.702  0.00  0.00     0.135 A 
ATOM     15  C10 <0> d   1      17.925   4.454  12.740  0.00  0.00     0.111 A 
ENDBRANCH  10  11
ENDBRANCH   1  10
BRANCH   1  16
ATOM     16  C14 <0> d   1      18.716   1.283   9.715  0.00  0.00    -0.006 A 
ATOM     17  C20 <0> d   1      17.612   0.463   9.560  0.00  0.00     0.044 A 
ATOM     18  C19 <0> d   1      17.256   0.015   8.301  0.00  0.00     0.048 A 
ATOM     19 Cl21 <0> d   1      16.668   0.006  10.943  0.00  0.00    -0.084 Cl
ATOM     20  C17 <0> d   1      18.010   0.379   7.199  0.00  0.00     0.035 A 
ATOM     21  C16 <0> d   1      19.115   1.195   7.357  0.00  0.00     0.024 A 
ATOM     22 Cl18 <0> d   1      17.566  -0.187   5.619  0.00  0.00    -0.084 Cl
ATOM     23  C15 <0> d   1      19.468   1.646   8.615  0.00  0.00     0.013 A 
ENDBRANCH   1  16
TORSDOF 6
ENDMDL
MODEL 3
REMARK VINA RESULT:      -6.9      3.818      6.848
REMARK  6 active torsions:
REMARK  status: ('A' for Active; 'I' for Inactive)
REMARK    1  A    between atoms: C3_3  and  C4_4 
REMARK    2  A    between atoms: C4_4  and  O5_5 
REMARK    3  A    between atoms: O5_5  and  C6_6 
REMARK    4  A    between atoms: C6_6  and  C8_7 
REMARK    5  A    between atoms: C6_6  and  C14_13 
REMARK    6  A    between atoms: C8_7  and  N9_8 
ROOT
ATOM      1  C6  <0> d   1      19.102  -1.605  11.891  0.00  0.00     0.174 C 
ENDROOT
BRANCH   1   2
ATOM      2  O5  <0> d   1      20.279  -0.905  11.479  0.00  0.00    -0.375 OA
BRANCH   2   3
ATOM      3  C4  <0> d   1      20.158  -0.260  10.210  0.00  0.00     0.209 C 
BRANCH   3   4
ATOM      4  C3  <0> d   1      19.574   1.116  10.400  0.00  0.00    -0.005 A 
ATOM      5  C2  <0> d   1      18.761   1.682   9.505  0.00  0.00     0.083 A 
ATOM      6 Cl1  <0> d   1      18.251   0.951   8.015  0.00  0.00    -0.076 Cl
ATOM      7  S24 <0> d   1      18.290   3.282  10.062  0.00  0.00    -0.089 SA
ATOM      8  C23 <0> d   1      19.244   3.084  11.527  0.00  0.00     0.052 A 
ATOM      9  C22 <0> d   1      19.840   1.891  11.516  0.00  0.00     0.019 A 
ENDBRANCH   3   4
ENDBRANCH   2   3
ENDBRANCH   1   2
BRANCH   1  10
ATOM     10  C8  <0> d   1      19.377  -3.109  11.891  0.00  0.00     0.166 C 
BRANCH  10  11
ATOM     11  N9  <0> d   1      18.317  -3.800  11.152  0.00  0.00    -0.347 N 
ATOM     12  C13 <0> d   1      17.288  -4.493  11.686  0.00  0.00     0.209 A 
ATOM     13  N12 <0> d   1      16.551  -4.961  10.716  0.00  0.00    -0.255 NA
ATOM     14  C11 <0> d   1      17.083  -4.596   9.540  0.00  0.00     0.135 A 
ATOM     15  C10 <0> d   1      18.188  -3.869   9.791  0.00  0.00     0.111 A 
ENDBRANCH  10  11
ENDBRANCH   1  10
BRANCH   1  16
ATOM     16  C14 <0> d   1      18.715  -1.164  13.279  0.00  0.00    -0.006 A 
ATOM     17  C20 <0> d   1      17.615  -0.346  13.463  0.00  0.00     0.044 A 
ATOM     18  C19 <0> d   1      17.257   0.054  14.738  0.00  0.00     0.048 A 
ATOM     19 Cl21 <0> d   1      16.677   0.169  12.096  0.00  0.00    -0.084 Cl
ATOM     20  C17 <0> d   1      18.005  -0.356  15.827  0.00  0.00     0.035 A 
ATOM     21  C16 <0> d   1      19.108  -1.170  15.641  0.00  0.00     0.024 A 
ATOM     22 Cl18 <0> d   1      17.559   0.151  17.426  0.00  0.00    -0.084 Cl
ATOM     23  C15 <0> d   1      19.463  -1.573  14.367  0.00  0.00     0.013 A 
ENDBRANCH   1  16
TORSDOF 6
ENDMDL
MODEL 4
REMARK VINA RESULT:      -6.9      1.574      2.045
REMARK  6 active torsions:
REMARK  status: ('A' for Active; 'I' for Inactive)
REMARK    1  A    between atoms: C3_3  and  C4_4 
REMARK    2  A    between atoms: C4_4  and  O5_5 
REMARK    3  A    between atoms: O5_5  and  C6_6 
REMARK    4  A    between atoms: C6_6  and  C8_7 
REMARK    5  A    between atoms: C6_6  and  C14_13 
REMARK    6  A    between atoms: C8_7  and  N9_8 
ROOT
ATOM      1  C6  <0> d   1      19.068   1.432  10.948  0.00  0.00     0.174 C 
ENDROOT
BRANCH   1   2
ATOM      2  O5  <0> d   1      20.158   0.638  11.421  0.00  0.00    -0.375 OA
BRANCH   2   3
ATOM      3  C4  <0> d   1      20.562   0.941  12.758  0.00  0.00     0.209 C 
BRANCH   3   4
ATOM      4  C3  <0> d   1      19.639   0.253  13.729  0.00  0.00    -0.005 A 
ATOM      5  C2  <0> d   1      19.020   0.904  14.718  0.00  0.00     0.083 A 
ATOM      6 Cl1  <0> d   1      19.167   2.603  15.042  0.00  0.00    -0.076 Cl
ATOM      7  S24 <0> d   1      18.039  -0.224  15.644  0.00  0.00    -0.089 SA
ATOM      8  C23 <0> d   1      18.530  -1.554  14.602  0.00  0.00     0.052 A 
ATOM      9  C22 <0> d   1      19.368  -1.104  13.667  0.00  0.00     0.019 A 
ENDBRANCH   3   4
ENDBRANCH   2   3
ENDBRANCH   1   2
BRANCH   1  10
ATOM     10  C8  <0> d   1      19.483   2.904  10.921  0.00  0.00     0.166 C 
BRANCH  10  11
ATOM     11  N9  <0> d   1      18.296   3.749  11.084  0.00  0.00    -0.347 N 
ATOM     12  C13 <0> d   1      17.501   3.815  12.173  0.00  0.00     0.209 A 
ATOM     13  N12 <0> d   1      16.550   4.679  11.945  0.00  0.00    -0.255 NA
ATOM     14  C11 <0> d   1      16.697   5.184  10.712  0.00  0.00     0.135 A 
ATOM     15  C10 <0> d   1      17.784   4.615  10.156  0.00  0.00     0.111 A 
ENDBRANCH  10  11
ENDBRANCH   1  10
BRANCH   1  16
ATOM     16  C14 <0> d   1      18.691   0.991   9.557  0.00  0.00    -0.006 A 
ATOM     17  C20 <0> d   1      17.754  -0.013   9.380  0.00  0.00     0.044 A 
ATOM     18  C19 <0> d   1      17.405  -0.414   8.103  0.00  0.00     0.048 A 
ATOM     19 Cl21 <0> d   1      17.010  -0.759  10.758  0.00  0.00    -0.084 Cl
ATOM     20  C17 <0> d   1      18.000   0.182   7.004  0.00  0.00     0.035 A 
ATOM     21  C16 <0> d   1      18.939   1.181   7.183  0.00  0.00     0.024 A 
ATOM     22 Cl18 <0> d   1      17.565  -0.325   5.402  0.00  0.00    -0.084 Cl
ATOM     23  C15 <0> d   1      19.284   1.585   8.460  0.00  0.00     0.013 A 
ENDBRANCH   1  16
TORSDOF 6
ENDMDL
MODEL 5
REMARK VINA RESULT:      -6.8      3.227      5.252
REMARK  6 active torsions:
REMARK  status: ('A' for Active; 'I' for Inactive)
REMARK    1  A    between atoms: C3_3  and  C4_4 
REMARK    2  A    between atoms: C4_4  and  O5_5 
REMARK    3  A    between atoms: O5_5  and  C6_6 
REMARK    4  A    between atoms: C6_6  and  C8_7 
REMARK    5  A    between atoms: C6_6  and  C14_13 
REMARK    6  A    between atoms: C8_7  and  N9_8 
ROOT
ATOM      1  C6  <0> d   1      19.122   0.842  14.151  0.00  0.00     0.174 C 
ENDROOT
BRANCH   1   2
ATOM      2  O5  <0> d   1      19.202   2.195  13.698  0.00  0.00    -0.375 OA
BRANCH   2   3
ATOM      3  C4  <0> d   1      17.945   2.874  13.667  0.00  0.00     0.209 C 
BRANCH   3   4
ATOM      4  C3  <0> d   1      17.774   3.553  12.334  0.00  0.00    -0.005 A 
ATOM      5  C2  <0> d   1      17.081   4.685  12.187  0.00  0.00     0.083 A 
ATOM      6 Cl1  <0> d   1      16.283   5.542  13.468  0.00  0.00    -0.076 Cl
ATOM      7  S24 <0> d   1      17.094   5.171  10.496  0.00  0.00    -0.089 SA
ATOM      8  C23 <0> d   1      18.077   3.775  10.072  0.00  0.00     0.052 A 
ATOM      9  C22 <0> d   1      18.324   3.052  11.165  0.00  0.00     0.019 A 
ENDBRANCH   3   4
ENDBRANCH   2   3
ENDBRANCH   1   2
BRANCH   1  10
ATOM     10  C8  <0> d   1      18.008   0.718  15.193  0.00  0.00     0.166 C 
BRANCH  10  11
ATOM     11  N9  <0> d   1      18.599   0.631  16.531  0.00  0.00    -0.347 N 
ATOM     12  C13 <0> d   1      19.202   1.631  17.208  0.00  0.00     0.209 A 
ATOM     13  N12 <0> d   1      19.599   1.174  18.365  0.00  0.00    -0.255 NA
ATOM     14  C11 <0> d   1      19.274  -0.124  18.463  0.00  0.00     0.135 A 
ATOM     15  C10 <0> d   1      18.648  -0.483  17.326  0.00  0.00     0.111 A 
ENDBRANCH  10  11
ENDBRANCH   1  10
BRANCH   1  16
ATOM     16  C14 <0> d   1      18.820  -0.062  12.983  0.00  0.00    -0.006 A 
ATOM     17  C20 <0> d   1      19.763  -0.242  11.987  0.00  0.00     0.044 A 
ATOM     18  C19 <0> d   1      19.488  -1.076  10.918  0.00  0.00     0.048 A 
ATOM     19 Cl21 <0> d   1      21.295   0.568  12.084  0.00  0.00    -0.084 Cl
ATOM     20  C17 <0> d   1      18.267  -1.721  10.841  0.00  0.00     0.035 A 
ATOM     21  C16 <0> d   1      17.323  -1.536  11.836  0.00  0.00     0.024 A 
ATOM     22 Cl18 <0> d   1      17.919  -2.763   9.497  0.00  0.00    -0.084 Cl
ATOM     23  C15 <0> d   1      17.600  -0.707  12.906  0.00  0.00     0.013 A 
ENDBRANCH   1  16
TORSDOF 6
ENDMDL
MODEL 6
REMARK VINA RESULT:      -6.8      4.199      7.338
REMARK  6 active torsions:
REMARK  status: ('A' for Active; 'I' for Inactive)
REMARK    1  A    between atoms: C3_3  and  C4_4 
REMARK    2  A    between atoms: C4_4  and  O5_5 
REMARK    3  A    between atoms: O5_5  and  C6_6 
REMARK    4  A    between atoms: C6_6  and  C8_7 
REMARK    5  A    between atoms: C6_6  and  C14_13 
REMARK    6  A    between atoms: C8_7  and  N9_8 
ROOT
ATOM      1  C6  <0> d   1      18.780  -1.912  11.667  0.00  0.00     0.174 C 
ENDROOT
BRANCH   1   2
ATOM      2  O5  <0> d   1      20.024  -1.480  11.111  0.00  0.00    -0.375 OA
BRANCH   2   3
ATOM      3  C4  <0> d   1      20.013  -0.133  10.636  0.00  0.00     0.209 C 
BRANCH   3   4
ATOM      4  C3  <0> d   1      19.543  -0.109   9.205  0.00  0.00    -0.005 A 
ATOM      5  C2  <0> d   1      19.080   0.997   8.618  0.00  0.00     0.083 A 
ATOM      6 Cl1  <0> d   1      18.944   2.551   9.380  0.00  0.00    -0.076 Cl
ATOM      7  S24 <0> d   1      18.621   0.638   6.959  0.00  0.00    -0.089 SA
ATOM      8  C23 <0> d   1      19.107  -1.041   7.156  0.00  0.00     0.052 A 
ATOM      9  C22 <0> d   1      19.558  -1.234   8.397  0.00  0.00     0.019 A 
ENDBRANCH   3   4
ENDBRANCH   2   3
ENDBRANCH   1   2
BRANCH   1  10
ATOM     10  C8  <0> d   1      18.789  -3.434  11.818  0.00  0.00     0.166 C 
BRANCH  10  11
ATOM     11  N9  <0> d   1      18.620  -4.057  10.502  0.00  0.00    -0.347 N 
ATOM     12  C13 <0> d   1      19.515  -4.842   9.865  0.00  0.00     0.209 A 
ATOM     13  N12 <0> d   1      19.009  -5.209   8.719  0.00  0.00    -0.255 NA
ATOM     14  C11 <0> d   1      17.790  -4.669   8.580  0.00  0.00     0.135 A 
ATOM     15  C10 <0> d   1      17.527  -3.945   9.685  0.00  0.00     0.111 A 
ENDBRANCH  10  11
ENDBRANCH   1  10
BRANCH   1  16
ATOM     16  C14 <0> d   1      18.585  -1.274  13.019  0.00  0.00    -0.006 A 
ATOM     17  C20 <0> d   1      17.622  -0.295  13.189  0.00  0.00     0.044 A 
ATOM     18  C19 <0> d   1      17.440   0.286  14.431  0.00  0.00     0.048 A 
ATOM     19 Cl21 <0> d   1      16.634   0.193  11.848  0.00  0.00    -0.084 Cl
ATOM     20  C17 <0> d   1      18.228  -0.104  15.499  0.00  0.00     0.035 A 
ATOM     21  C16 <0> d   1      19.194  -1.079  15.326  0.00  0.00     0.024 A 
ATOM     22 Cl18 <0> d   1      18.004   0.629  17.056  0.00  0.00    -0.084 Cl
ATOM     23  C15 <0> d   1      19.372  -1.664  14.085  0.00  0.00     0.013 A 
ENDBRANCH   1  16
TORSDOF 6
ENDMDL
MODEL 7
REMARK VINA RESULT:      -6.7      2.811      4.458
REMARK  6 active torsions:
REMARK  status: ('A' for Active; 'I' for Inactive)
REMARK    1  A    between atoms: C3_3  and  C4_4 
REMARK    2  A    between atoms: C4_4  and  O5_5 
REMARK    3  A    between atoms: O5_5  and  C6_6 
REMARK    4  A    between atoms: C6_6  and  C8_7 
REMARK    5  A    between atoms: C6_6  and  C14_13 
REMARK    6  A    between atoms: C8_7  and  N9_8 
ROOT
ATOM      1  C6  <0> d   1      19.267  -0.699  12.573  0.00  0.00     0.174 C 
ENDROOT
BRANCH   1   2
ATOM      2  O5  <0> d   1      19.648  -0.954  13.927  0.00  0.00    -0.375 OA
BRANCH   2   3
ATOM      3  C4  <0> d   1      18.545  -1.107  14.822  0.00  0.00     0.209 C 
BRANCH   3   4
ATOM      4  C3  <0> d   1      18.776  -0.267  16.051  0.00  0.00    -0.005 A 
ATOM      5  C2  <0> d   1      18.633   1.061  16.051  0.00  0.00     0.083 A 
ATOM      6 Cl1  <0> d   1      18.171   2.017  14.677  0.00  0.00    -0.076 Cl
ATOM      7  S24 <0> d   1      18.992   1.694  17.652  0.00  0.00    -0.089 SA
ATOM      8  C23 <0> d   1      19.316   0.073  18.253  0.00  0.00     0.052 A 
ATOM      9  C22 <0> d   1      19.153  -0.811  17.267  0.00  0.00     0.019 A 
ENDBRANCH   3   4
ENDBRANCH   2   3
ENDBRANCH   1   2
BRANCH   1  10
ATOM     10  C8  <0> d   1      20.414   0.004  11.844  0.00  0.00     0.166 C 
BRANCH  10  11
ATOM     11  N9  <0> d   1      19.865   0.933  10.852  0.00  0.00    -0.347 N 
ATOM     12  C13 <0> d   1      19.387   2.173  11.092  0.00  0.00     0.209 A 
ATOM     13  N12 <0> d   1      18.990   2.694   9.963  0.00  0.00    -0.255 NA
ATOM     14  C11 <0> d   1      19.188   1.811   8.974  0.00  0.00     0.135 A 
ATOM     15  C10 <0> d   1      19.736   0.703   9.509  0.00  0.00     0.111 A 
ENDBRANCH  10  11
ENDBRANCH   1  10
BRANCH   1  16
ATOM     16  C14 <0> d   1      18.958  -2.003  11.883  0.00  0.00    -0.006 A 
ATOM     17  C20 <0> d   1      17.830  -2.114  11.089  0.00  0.00     0.044 A 
ATOM     18  C19 <0> d   1      17.549  -3.309  10.452  0.00  0.00     0.048 A 
ATOM     19 Cl21 <0> d   1      16.775  -0.752  10.883  0.00  0.00    -0.084 Cl
ATOM     20  C17 <0> d   1      18.391  -4.395  10.618  0.00  0.00     0.035 A 
ATOM     21  C16 <0> d   1      19.515  -4.284  11.416  0.00  0.00     0.024 A 
ATOM     22 Cl18 <0> d   1      18.035  -5.897   9.823  0.00  0.00    -0.084 Cl
ATOM     23  C15 <0> d   1      19.798  -3.087  12.048  0.00  0.00     0.013 A 
ENDBRANCH   1  16
TORSDOF 6
ENDMDL
MODEL 8
REMARK VINA RESULT:      -6.7      3.448      5.556
REMARK  6 active torsions:
REMARK  status: ('A' for Active; 'I' for Inactive)
REMARK    1  A    between atoms: C3_3  and  C4_4 
REMARK    2  A    between atoms: C4_4  and  O5_5 
REMARK    3  A    between atoms: O5_5  and  C6_6 
REMARK    4  A    between atoms: C6_6  and  C8_7 
REMARK    5  A    between atoms: C6_6  and  C14_13 
REMARK    6  A    between atoms: C8_7  and  N9_8 
ROOT
ATOM      1  C6  <0> d   1      19.000  -0.791  10.640  0.00  0.00     0.174 C 
ENDROOT
BRANCH   1   2
ATOM      2  O5  <0> d   1      19.355  -1.348   9.372  0.00  0.00    -0.375 OA
BRANCH   2   3
ATOM      3  C4  <0> d   1      18.236  -1.747   8.578  0.00  0.00     0.209 C 
BRANCH   3   4
ATOM      4  C3  <0> d   1      18.418  -1.249   7.169  0.00  0.00    -0.005 A 
ATOM      5  C2  <0> d   1      19.118  -1.922   6.252  0.00  0.00     0.083 A 
ATOM      6 Cl1  <0> d   1      19.915  -3.441   6.520  0.00  0.00    -0.076 Cl
ATOM      7  S24 <0> d   1      19.117  -1.031   4.736  0.00  0.00    -0.089 SA
ATOM      8  C23 <0> d   1      18.128   0.238   5.448  0.00  0.00     0.052 A 
ATOM      9  C22 <0> d   1      17.871  -0.057   6.723  0.00  0.00     0.019 A 
ENDBRANCH   3   4
ENDBRANCH   2   3
ENDBRANCH   1   2
BRANCH   1  10
ATOM     10  C8  <0> d   1      20.167  -0.957  11.615  0.00  0.00     0.166 C 
BRANCH  10  11
ATOM     11  N9  <0> d   1      19.676  -0.828  12.991  0.00  0.00    -0.347 N 
ATOM     12  C13 <0> d   1      18.941  -1.736  13.668  0.00  0.00     0.209 A 
ATOM     13  N12 <0> d   1      18.698  -1.270  14.862  0.00  0.00    -0.255 NA
ATOM     14  C11 <0> d   1      19.256  -0.056  14.986  0.00  0.00     0.135 A 
ATOM     15  C10 <0> d   1      19.873   0.238  13.826  0.00  0.00     0.111 A 
ENDBRANCH  10  11
ENDBRANCH   1  10
BRANCH   1  16
ATOM     16  C14 <0> d   1      18.687   0.674  10.476  0.00  0.00    -0.006 A 
ATOM     17  C20 <0> d   1      17.610   1.230  11.143  0.00  0.00     0.044 A 
ATOM     18  C19 <0> d   1      17.326   2.575  10.996  0.00  0.00     0.048 A 
ATOM     19 Cl21 <0> d   1      16.623   0.242  12.174  0.00  0.00    -0.084 Cl
ATOM     20  C17 <0> d   1      18.113   3.362  10.173  0.00  0.00     0.035 A 
ATOM     21  C16 <0> d   1      19.186   2.804   9.503  0.00  0.00     0.024 A 
ATOM     22 Cl18 <0> d   1      17.753   5.050   9.984  0.00  0.00    -0.084 Cl
ATOM     23  C15 <0> d   1      19.472   1.460   9.654  0.00  0.00     0.013 A 
ENDBRANCH   1  16
TORSDOF 6
ENDMDL
MODEL 9
REMARK VINA RESULT:      -6.6      3.464      5.281
REMARK  6 active torsions:
REMARK  status: ('A' for Active; 'I' for Inactive)
REMARK    1  A    between atoms: C3_3  and  C4_4 
REMARK    2  A    between atoms: C4_4  and  O5_5 
REMARK    3  A    between atoms: O5_5  and  C6_6 
REMARK    4  A    between atoms: C6_6  and  C8_7 
REMARK    5  A    between atoms: C6_6  and  C14_13 
REMARK    6  A    between atoms: C8_7  and  N9_8 
ROOT
ATOM      1  C6  <0> d   1      19.131  -0.463  12.323  0.00  0.00     0.174 C 
ENDROOT
BRANCH   1   2
ATOM      2  O5  <0> d   1      19.529  -0.230  13.677  0.00  0.00    -0.375 OA
BRANCH   2   3
ATOM      3  C4  <0> d   1      18.646  -0.796  14.648  0.00  0.00     0.209 C 
BRANCH   3   4
ATOM      4  C3  <0> d   1      18.531   0.137  15.825  0.00  0.00    -0.005 A 
ATOM      5  C2  <0> d   1      17.756  -0.128  16.880  0.00  0.00     0.083 A 
ATOM      6 Cl1  <0> d   1      16.778  -1.550  17.070  0.00  0.00    -0.076 Cl
ATOM      7  S24 <0> d   1      17.872   1.185  18.043  0.00  0.00    -0.089 SA
ATOM      8  C23 <0> d   1      19.007   2.042  17.008  0.00  0.00     0.052 A 
ATOM      9  C22 <0> d   1      19.221   1.336  15.897  0.00  0.00     0.019 A 
ENDBRANCH   3   4
ENDBRANCH   2   3
ENDBRANCH   1   2
BRANCH   1  10
ATOM     10  C8  <0> d   1      17.916  -1.391  12.301  0.00  0.00     0.166 C 
BRANCH  10  11
ATOM     11  N9  <0> d   1      18.315  -2.706  11.792  0.00  0.00    -0.347 N 
ATOM     12  C13 <0> d   1      19.572  -3.196  11.736  0.00  0.00     0.209 A 
ATOM     13  N12 <0> d   1      19.530  -4.396  11.224  0.00  0.00    -0.255 NA
ATOM     14  C11 <0> d   1      18.260  -4.708  10.929  0.00  0.00     0.135 A 
ATOM     15  C10 <0> d   1      17.484  -3.664  11.277  0.00  0.00     0.111 A 
ENDBRANCH  10  11
ENDBRANCH   1  10
BRANCH   1  16
ATOM     16  C14 <0> d   1      18.773   0.849  11.672  0.00  0.00    -0.006 A 
ATOM     17  C20 <0> d   1      19.162   1.103  10.369  0.00  0.00     0.044 A 
ATOM     18  C19 <0> d   1      18.828   2.304   9.770  0.00  0.00     0.048 A 
ATOM     19 Cl21 <0> d   1      20.057  -0.091   9.482  0.00  0.00    -0.084 Cl
ATOM     20  C17 <0> d   1      18.115   3.255  10.478  0.00  0.00     0.035 A 
ATOM     21  C16 <0> d   1      17.731   3.002  11.783  0.00  0.00     0.024 A 
ATOM     22 Cl18 <0> d   1      17.702   4.765   9.728  0.00  0.00    -0.084 Cl
ATOM     23  C15 <0> d   1      18.060   1.799  12.379  0.00  0.00     0.013 A 
ENDBRANCH   1  16
TORSDOF 6
ENDMDL
