MODEL 1
REMARK VINA RESULT:      -7.2      0.000      0.000
REMARK  6 active torsions:
REMARK  status: ('A' for Active; 'I' for Inactive)
REMARK    1  A    between atoms: C11_9  and  O13_10 
REMARK    2  A    between atoms: O13_10  and  C14_11 
REMARK    3  A    between atoms: C14_11  and  C16_13 
REMARK    4  A    between atoms: C16_13  and  C18_14 
REMARK    5  A    between atoms: C16_13  and  C20_16 
REMARK    6  A    between atoms: C18_14  and  O19_15 
ROOT
ATOM      1  C14 ZIN A   1      19.183  -1.413  12.211  0.00  0.00     0.270 C 
ATOM      2  O15 ZIN A   1      18.872  -2.579  12.275  0.00  0.00    -0.264 OA
ENDROOT
BRANCH   1   3
ATOM      3  O13 ZIN A   1      18.876  -0.695  11.119  0.00  0.00    -0.315 OA
BRANCH   3   4
ATOM      4  C11 ZIN A   1      19.284  -1.241   9.837  0.00  0.00     0.136 C 
ATOM      5  C10 ZIN A   1      20.144  -0.212   9.095  0.00  0.00     0.065 C 
ATOM      6  C8  ZIN A   1      19.273   1.005   8.745  0.00  0.00     0.190 C 
ATOM      7  N2  ZIN A   1      18.222   0.549   7.798  0.00  0.00    -0.066 N 
ATOM      8  C7  ZIN A   1      18.489   1.406  10.018  0.00  0.00     0.035 C 
ATOM      9  C1  ZIN A   1      18.805  -0.295   6.746  0.00  0.00     0.270 C 
ATOM     10  H3  ZIN A   1      17.741   1.338   7.394  0.00  0.00     0.280 HD
ATOM     11  C4  ZIN A   1      17.300  -0.243   8.654  0.00  0.00     0.190 C 
ATOM     12  C26 ZIN A   1      18.008  -1.567   8.983  0.00  0.00     0.065 C 
ATOM     13  C6  ZIN A   1      17.185   0.583   9.955  0.00  0.00     0.035 C 
ENDBRANCH   3   4
ENDBRANCH   1   3
BRANCH   1  14
ATOM     14  C16 ZIN A   1      19.915  -0.764  13.358  0.00  0.00     0.142 C 
BRANCH  14  15
ATOM     15  C18 ZIN A   1      20.382   0.632  12.940  0.00  0.00     0.183 C 
BRANCH  15  16
ATOM     16  O19 ZIN A   1      21.588   0.522  12.182  0.00  0.00    -0.400 OA
ATOM     17  H38 ZIN A   1      22.144  -0.229  12.432  0.00  0.00     0.209 HD
ENDBRANCH  15  16
ENDBRANCH  14  15
BRANCH  14  18
ATOM     18  C20 ZIN A   1      18.992  -0.652  14.543  0.00  0.00    -0.043 A 
ATOM     19  C25 ZIN A   1      18.003   0.314  14.562  0.00  0.00     0.008 A 
ATOM     20  C24 ZIN A   1      17.154   0.414  15.648  0.00  0.00     0.001 A 
ATOM     21  C23 ZIN A   1      17.299  -0.447  16.720  0.00  0.00     0.000 A 
ATOM     22  C22 ZIN A   1      18.291  -1.409  16.705  0.00  0.00     0.001 A 
ATOM     23  C21 ZIN A   1      19.138  -1.512  15.617  0.00  0.00     0.008 A 
ENDBRANCH  14  18
ENDBRANCH   1  14
TORSDOF 6
ENDMDL
MODEL 2
REMARK VINA RESULT:      -7.1      3.207      6.146
REMARK  6 active torsions:
REMARK  status: ('A' for Active; 'I' for Inactive)
REMARK    1  A    between atoms: C11_9  and  O13_10 
REMARK    2  A    between atoms: O13_10  and  C14_11 
REMARK    3  A    between atoms: C14_11  and  C16_13 
REMARK    4  A    between atoms: C16_13  and  C18_14 
REMARK    5  A    between atoms: C16_13  and  C20_16 
REMARK    6  A    between atoms: C18_14  and  O19_15 
ROOT
ATOM      1  C14 ZIN A   1      17.036   0.618  11.182  0.00  0.00     0.270 C 
ATOM      2  O15 ZIN A   1      15.973   0.122  11.470  0.00  0.00    -0.264 OA
ENDROOT
BRANCH   1   3
ATOM      3  O13 ZIN A   1      17.273   1.909  11.466  0.00  0.00    -0.315 OA
BRANCH   3   4
ATOM      4  C11 ZIN A   1      18.157   2.185  12.583  0.00  0.00     0.136 C 
ATOM      5  C10 ZIN A   1      17.526   3.256  13.480  0.00  0.00     0.065 C 
ATOM      6  C8  ZIN A   1      17.454   4.578  12.700  0.00  0.00     0.190 C 
ATOM      7  N2  ZIN A   1      18.848   5.011  12.417  0.00  0.00    -0.066 N 
ATOM      8  C7  ZIN A   1      16.860   4.272  11.304  0.00  0.00     0.035 C 
ATOM      9  C1  ZIN A   1      19.684   4.883  13.619  0.00  0.00     0.270 C 
ATOM     10  H3  ZIN A   1      18.863   5.959  12.074  0.00  0.00     0.280 HD
ATOM     11  C4  ZIN A   1      19.300   4.065  11.362  0.00  0.00     0.190 C 
ATOM     12  C26 ZIN A   1      19.534   2.705  12.039  0.00  0.00     0.065 C 
ATOM     13  C6  ZIN A   1      18.080   3.936  10.420  0.00  0.00     0.035 C 
ENDBRANCH   3   4
ENDBRANCH   1   3
BRANCH   1  14
ATOM     14  C16 ZIN A   1      18.097  -0.212  10.505  0.00  0.00     0.142 C 
BRANCH  14  15
ATOM     15  C18 ZIN A   1      17.750  -1.695  10.645  0.00  0.00     0.183 C 
BRANCH  15  16
ATOM     16  O19 ZIN A   1      17.704  -2.044  12.030  0.00  0.00    -0.400 OA
ATOM     17  H38 ZIN A   1      18.000  -1.339  12.624  0.00  0.00     0.209 HD
ENDBRANCH  15  16
ENDBRANCH  14  15
BRANCH  14  18
ATOM     18  C20 ZIN A   1      18.165   0.153   9.045  0.00  0.00    -0.043 A 
ATOM     19  C25 ZIN A   1      19.107   1.061   8.602  0.00  0.00     0.008 A 
ATOM     20  C24 ZIN A   1      19.172   1.392   7.262  0.00  0.00     0.001 A 
ATOM     21  C23 ZIN A   1      18.287   0.822   6.365  0.00  0.00     0.000 A 
ATOM     22  C22 ZIN A   1      17.341  -0.083   6.809  0.00  0.00     0.001 A 
ATOM     23  C21 ZIN A   1      17.279  -0.417   8.149  0.00  0.00     0.008 A 
ENDBRANCH  14  18
ENDBRANCH   1  14
TORSDOF 6
ENDMDL
MODEL 3
REMARK VINA RESULT:      -7.0      1.729      3.356
REMARK  6 active torsions:
REMARK  status: ('A' for Active; 'I' for Inactive)
REMARK    1  A    between atoms: C11_9  and  O13_10 
REMARK    2  A    between atoms: O13_10  and  C14_11 
REMARK    3  A    between atoms: C14_11  and  C16_13 
REMARK    4  A    between atoms: C16_13  and  C18_14 
REMARK    5  A    between atoms: C16_13  and  C20_16 
REMARK    6  A    between atoms: C18_14  and  O19_15 
ROOT
ATOM      1  C14 ZIN A   1      19.989  -0.231  11.988  0.00  0.00     0.270 C 
ATOM      2  O15 ZIN A   1      21.018   0.374  12.177  0.00  0.00    -0.264 OA
ENDROOT
BRANCH   1   3
ATOM      3  O13 ZIN A   1      19.264   0.007  10.884  0.00  0.00    -0.315 OA
BRANCH   3   4
ATOM      4  C11 ZIN A   1      19.920  -0.203   9.607  0.00  0.00     0.136 C 
ATOM      5  C10 ZIN A   1      19.877   1.093   8.791  0.00  0.00     0.065 C 
ATOM      6  C8  ZIN A   1      18.415   1.407   8.434  0.00  0.00     0.190 C 
ATOM      7  N2  ZIN A   1      17.924   0.317   7.550  0.00  0.00    -0.066 N 
ATOM      8  C7  ZIN A   1      17.571   1.260   9.723  0.00  0.00     0.035 C 
ATOM      9  C1  ZIN A   1      18.912   0.012   6.506  0.00  0.00     0.270 C 
ATOM     10  H3  ZIN A   1      17.038   0.566   7.138  0.00  0.00     0.280 HD
ATOM     11  C4  ZIN A   1      17.765  -0.838   8.474  0.00  0.00     0.190 C 
ATOM     12  C26 ZIN A   1      19.175  -1.340   8.822  0.00  0.00     0.065 C 
ATOM     13  C6  ZIN A   1      17.140  -0.222   9.748  0.00  0.00     0.035 C 
ENDBRANCH   3   4
ENDBRANCH   1   3
BRANCH   1  14
ATOM     14  C16 ZIN A   1      19.520  -1.253  12.992  0.00  0.00     0.142 C 
BRANCH  14  15
ATOM     15  C18 ZIN A   1      18.301  -0.711  13.741  0.00  0.00     0.183 C 
BRANCH  15  16
ATOM     16  O19 ZIN A   1      18.107   0.663  13.402  0.00  0.00    -0.400 OA
ATOM     17  H38 ZIN A   1      18.711   0.990  12.720  0.00  0.00     0.209 HD
ENDBRANCH  15  16
ENDBRANCH  14  15
BRANCH  14  18
ATOM     18  C20 ZIN A   1      19.145  -2.525  12.275  0.00  0.00    -0.043 A 
ATOM     19  C25 ZIN A   1      20.131  -3.352  11.773  0.00  0.00     0.008 A 
ATOM     20  C24 ZIN A   1      19.787  -4.521  11.119  0.00  0.00     0.001 A 
ATOM     21  C23 ZIN A   1      18.456  -4.857  10.960  0.00  0.00     0.000 A 
ATOM     22  C22 ZIN A   1      17.469  -4.027  11.458  0.00  0.00     0.001 A 
ATOM     23  C21 ZIN A   1      17.813  -2.861  12.115  0.00  0.00     0.008 A 
ENDBRANCH  14  18
ENDBRANCH   1  14
TORSDOF 6
ENDMDL
MODEL 4
REMARK VINA RESULT:      -7.0      1.787      2.718
REMARK  6 active torsions:
REMARK  status: ('A' for Active; 'I' for Inactive)
REMARK    1  A    between atoms: C11_9  and  O13_10 
REMARK    2  A    between atoms: O13_10  and  C14_11 
REMARK    3  A    between atoms: C14_11  and  C16_13 
REMARK    4  A    between atoms: C16_13  and  C18_14 
REMARK    5  A    between atoms: C16_13  and  C20_16 
REMARK    6  A    between atoms: C18_14  and  O19_15 
ROOT
ATOM      1  C14 ZIN A   1      17.254   0.689  11.102  0.00  0.00     0.270 C 
ATOM      2  O15 ZIN A   1      16.189   0.242  11.457  0.00  0.00    -0.264 OA
ENDROOT
BRANCH   1   3
ATOM      3  O13 ZIN A   1      17.600   0.651   9.805  0.00  0.00    -0.315 OA
BRANCH   3   4
ATOM      4  C11 ZIN A   1      17.205  -0.526   9.053  0.00  0.00     0.136 C 
ATOM      5  C10 ZIN A   1      18.278  -1.610   9.203  0.00  0.00     0.065 C 
ATOM      6  C8  ZIN A   1      19.571  -1.126   8.525  0.00  0.00     0.190 C 
ATOM      7  N2  ZIN A   1      19.292  -0.984   7.072  0.00  0.00    -0.066 N 
ATOM      8  C7  ZIN A   1      19.842   0.321   9.003  0.00  0.00     0.035 C 
ATOM      9  C1  ZIN A   1      18.563  -2.156   6.568  0.00  0.00     0.270 C 
ATOM     10  H3  ZIN A   1      20.149  -0.850   6.557  0.00  0.00     0.280 HD
ATOM     11  C4  ZIN A   1      18.441   0.234   6.997  0.00  0.00     0.190 C 
ATOM     12  C26 ZIN A   1      17.053  -0.146   7.538  0.00  0.00     0.065 C 
ATOM     13  C6  ZIN A   1      19.097   1.218   7.992  0.00  0.00     0.035 C 
ENDBRANCH   3   4
ENDBRANCH   1   3
BRANCH   1  14
ATOM     14  C16 ZIN A   1      18.194   1.292  12.115  0.00  0.00     0.142 C 
BRANCH  14  15
ATOM     15  C18 ZIN A   1      17.721   2.701  12.475  0.00  0.00     0.183 C 
BRANCH  15  16
ATOM     16  O19 ZIN A   1      16.975   3.246  11.384  0.00  0.00    -0.400 OA
ATOM     17  H38 ZIN A   1      17.464   3.896  10.859  0.00  0.00     0.209 HD
ENDBRANCH  15  16
ENDBRANCH  14  15
BRANCH  14  18
ATOM     18  C20 ZIN A   1      18.214   0.436  13.354  0.00  0.00    -0.043 A 
ATOM     19  C25 ZIN A   1      18.889  -0.770  13.351  0.00  0.00     0.008 A 
ATOM     20  C24 ZIN A   1      18.910  -1.553  14.490  0.00  0.00     0.001 A 
ATOM     21  C23 ZIN A   1      18.248  -1.135  15.629  0.00  0.00     0.000 A 
ATOM     22  C22 ZIN A   1      17.568   0.069  15.631  0.00  0.00     0.001 A 
ATOM     23  C21 ZIN A   1      17.551   0.854  14.493  0.00  0.00     0.008 A 
ENDBRANCH  14  18
ENDBRANCH   1  14
TORSDOF 6
ENDMDL
MODEL 5
REMARK VINA RESULT:      -6.9      2.567      3.741
REMARK  6 active torsions:
REMARK  status: ('A' for Active; 'I' for Inactive)
REMARK    1  A    between atoms: C11_9  and  O13_10 
REMARK    2  A    between atoms: O13_10  and  C14_11 
REMARK    3  A    between atoms: C14_11  and  C16_13 
REMARK    4  A    between atoms: C16_13  and  C18_14 
REMARK    5  A    between atoms: C16_13  and  C20_16 
REMARK    6  A    between atoms: C18_14  and  O19_15 
ROOT
ATOM      1  C14 ZIN A   1      17.211  -0.763  11.848  0.00  0.00     0.270 C 
ATOM      2  O15 ZIN A   1      16.141  -0.267  11.582  0.00  0.00    -0.264 OA
ENDROOT
BRANCH   1   3
ATOM      3  O13 ZIN A   1      17.467  -2.034  11.498  0.00  0.00    -0.315 OA
BRANCH   3   4
ATOM      4  C11 ZIN A   1      18.465  -2.244  10.465  0.00  0.00     0.136 C 
ATOM      5  C10 ZIN A   1      17.848  -3.050   9.317  0.00  0.00     0.065 C 
ATOM      6  C8  ZIN A   1      17.507  -4.459   9.826  0.00  0.00     0.190 C 
ATOM      7  N2  ZIN A   1      18.784  -5.127  10.193  0.00  0.00    -0.066 N 
ATOM      8  C7  ZIN A   1      16.758  -4.308  11.172  0.00  0.00     0.035 C 
ATOM      9  C1  ZIN A   1      19.794  -4.921   9.146  0.00  0.00     0.270 C 
ATOM     10  H3  ZIN A   1      18.636  -6.111  10.355  0.00  0.00     0.280 HD
ATOM     11  C4  ZIN A   1      19.187  -4.443  11.451  0.00  0.00     0.190 C 
ATOM     12  C26 ZIN A   1      19.676  -3.037  11.069  0.00  0.00     0.065 C 
ATOM     13  C6  ZIN A   1      17.868  -4.300  12.244  0.00  0.00     0.035 C 
ENDBRANCH   3   4
ENDBRANCH   1   3
BRANCH   1  14
ATOM     14  C16 ZIN A   1      18.258   0.045  12.571  0.00  0.00     0.142 C 
BRANCH  14  15
ATOM     15  C18 ZIN A   1      17.955   1.536  12.407  0.00  0.00     0.183 C 
BRANCH  15  16
ATOM     16  O19 ZIN A   1      17.923   1.865  11.016  0.00  0.00    -0.400 OA
ATOM     17  H38 ZIN A   1      18.496   1.311  10.468  0.00  0.00     0.209 HD
ENDBRANCH  15  16
ENDBRANCH  14  15
BRANCH  14  18
ATOM     18  C20 ZIN A   1      18.247  -0.312  14.034  0.00  0.00    -0.043 A 
ATOM     19  C25 ZIN A   1      19.077  -1.310  14.509  0.00  0.00     0.008 A 
ATOM     20  C24 ZIN A   1      19.070  -1.634  15.852  0.00  0.00     0.001 A 
ATOM     21  C23 ZIN A   1      18.225  -0.967  16.721  0.00  0.00     0.000 A 
ATOM     22  C22 ZIN A   1      17.391   0.028  16.245  0.00  0.00     0.001 A 
ATOM     23  C21 ZIN A   1      17.402   0.355  14.902  0.00  0.00     0.008 A 
ENDBRANCH  14  18
ENDBRANCH   1  14
TORSDOF 6
ENDMDL
MODEL 6
REMARK VINA RESULT:      -6.9      3.270      6.051
REMARK  6 active torsions:
REMARK  status: ('A' for Active; 'I' for Inactive)
REMARK    1  A    between atoms: C11_9  and  O13_10 
REMARK    2  A    between atoms: O13_10  and  C14_11 
REMARK    3  A    between atoms: C14_11  and  C16_13 
REMARK    4  A    between atoms: C16_13  and  C18_14 
REMARK    5  A    between atoms: C16_13  and  C20_16 
REMARK    6  A    between atoms: C18_14  and  O19_15 
ROOT
ATOM      1  C14 ZIN A   1      19.383  -0.569  10.429  0.00  0.00     0.270 C 
ATOM      2  O15 ZIN A   1      20.410  -0.104  10.864  0.00  0.00    -0.264 OA
ENDROOT
BRANCH   1   3
ATOM      3  O13 ZIN A   1      19.249  -1.898  10.300  0.00  0.00    -0.315 OA
BRANCH   3   4
ATOM      4  C11 ZIN A   1      18.913  -2.646  11.498  0.00  0.00     0.136 C 
ATOM      5  C10 ZIN A   1      19.753  -3.926  11.553  0.00  0.00     0.065 C 
ATOM      6  C8  ZIN A   1      19.340  -4.842  10.390  0.00  0.00     0.190 C 
ATOM      7  N2  ZIN A   1      17.924  -5.238  10.609  0.00  0.00    -0.066 N 
ATOM      8  C7  ZIN A   1      19.298  -3.983   9.103  0.00  0.00     0.035 C 
ATOM      9  C1  ZIN A   1      17.710  -5.641  12.006  0.00  0.00     0.270 C 
ATOM     10  H3  ZIN A   1      17.661  -5.982   9.981  0.00  0.00     0.280 HD
ATOM     11  C4  ZIN A   1      17.162  -3.998  10.300  0.00  0.00     0.190 C 
ATOM     12  C26 ZIN A   1      17.390  -3.021  11.464  0.00  0.00     0.065 C 
ATOM     13  C6  ZIN A   1      17.859  -3.428   9.043  0.00  0.00     0.035 C 
ENDBRANCH   3   4
ENDBRANCH   1   3
BRANCH   1  14
ATOM     14  C16 ZIN A   1      18.250   0.344  10.033  0.00  0.00     0.142 C 
BRANCH  14  15
ATOM     15  C18 ZIN A   1      18.493   1.740  10.612  0.00  0.00     0.183 C 
BRANCH  15  16
ATOM     16  O19 ZIN A   1      17.240   2.346  10.933  0.00  0.00    -0.400 OA
ATOM     17  H38 ZIN A   1      16.860   2.045  11.770  0.00  0.00     0.209 HD
ENDBRANCH  15  16
ENDBRANCH  14  15
BRANCH  14  18
ATOM     18  C20 ZIN A   1      18.175   0.429   8.531  0.00  0.00    -0.043 A 
ATOM     19  C25 ZIN A   1      19.120   1.155   7.830  0.00  0.00     0.008 A 
ATOM     20  C24 ZIN A   1      19.053   1.229   6.452  0.00  0.00     0.001 A 
ATOM     21  C23 ZIN A   1      18.036   0.584   5.773  0.00  0.00     0.000 A 
ATOM     22  C22 ZIN A   1      17.088  -0.139   6.474  0.00  0.00     0.001 A 
ATOM     23  C21 ZIN A   1      17.157  -0.216   7.852  0.00  0.00     0.008 A 
ENDBRANCH  14  18
ENDBRANCH   1  14
TORSDOF 6
ENDMDL
MODEL 7
REMARK VINA RESULT:      -6.9      1.916      2.837
REMARK  6 active torsions:
REMARK  status: ('A' for Active; 'I' for Inactive)
REMARK    1  A    between atoms: C11_9  and  O13_10 
REMARK    2  A    between atoms: O13_10  and  C14_11 
REMARK    3  A    between atoms: C14_11  and  C16_13 
REMARK    4  A    between atoms: C16_13  and  C18_14 
REMARK    5  A    between atoms: C16_13  and  C20_16 
REMARK    6  A    between atoms: C18_14  and  O19_15 
ROOT
ATOM      1  C14 ZIN A   1      18.113   1.505  11.959  0.00  0.00     0.270 C 
ATOM      2  O15 ZIN A   1      17.082   2.096  11.744  0.00  0.00    -0.264 OA
ENDROOT
BRANCH   1   3
ATOM      3  O13 ZIN A   1      18.565   0.601  11.075  0.00  0.00    -0.315 OA
BRANCH   3   4
ATOM      4  C11 ZIN A   1      17.628  -0.417  10.637  0.00  0.00     0.136 C 
ATOM      5  C10 ZIN A   1      17.996  -1.760  11.277  0.00  0.00     0.065 C 
ATOM      6  C8  ZIN A   1      19.356  -2.216  10.727  0.00  0.00     0.190 C 
ATOM      7  N2  ZIN A   1      19.195  -2.456   9.269  0.00  0.00    -0.066 N 
ATOM      8  C7  ZIN A   1      20.327  -1.014  10.809  0.00  0.00     0.035 C 
ATOM      9  C1  ZIN A   1      17.972  -3.226   9.003  0.00  0.00     0.270 C 
ATOM     10  H3  ZIN A   1      20.002  -2.933   8.896  0.00  0.00     0.280 HD
ATOM     11  C4  ZIN A   1      19.087  -1.087   8.699  0.00  0.00     0.190 C 
ATOM     12  C26 ZIN A   1      17.697  -0.546   9.074  0.00  0.00     0.065 C 
ATOM     13  C6  ZIN A   1      20.150  -0.270   9.468  0.00  0.00     0.035 C 
ENDBRANCH   3   4
ENDBRANCH   1   3
BRANCH   1  14
ATOM     14  C16 ZIN A   1      18.894   1.783  13.218  0.00  0.00     0.142 C 
BRANCH  14  15
ATOM     15  C18 ZIN A   1      18.418   3.100  13.834  0.00  0.00     0.183 C 
BRANCH  15  16
ATOM     16  O19 ZIN A   1      19.500   3.716  14.534  0.00  0.00    -0.400 OA
ATOM     17  H38 ZIN A   1      19.782   4.562  14.157  0.00  0.00     0.209 HD
ENDBRANCH  15  16
ENDBRANCH  14  15
BRANCH  14  18
ATOM     18  C20 ZIN A   1      18.678   0.661  14.201  0.00  0.00    -0.043 A 
ATOM     19  C25 ZIN A   1      17.587   0.686  15.050  0.00  0.00     0.008 A 
ATOM     20  C24 ZIN A   1      17.387  -0.345  15.948  0.00  0.00     0.001 A 
ATOM     21  C23 ZIN A   1      18.283  -1.397  16.005  0.00  0.00     0.000 A 
ATOM     22  C22 ZIN A   1      19.377  -1.419  15.160  0.00  0.00     0.001 A 
ATOM     23  C21 ZIN A   1      19.574  -0.390  14.259  0.00  0.00     0.008 A 
ENDBRANCH  14  18
ENDBRANCH   1  14
TORSDOF 6
ENDMDL
MODEL 8
REMARK VINA RESULT:      -6.9      2.614      5.297
REMARK  6 active torsions:
REMARK  status: ('A' for Active; 'I' for Inactive)
REMARK    1  A    between atoms: C11_9  and  O13_10 
REMARK    2  A    between atoms: O13_10  and  C14_11 
REMARK    3  A    between atoms: C14_11  and  C16_13 
REMARK    4  A    between atoms: C16_13  and  C18_14 
REMARK    5  A    between atoms: C16_13  and  C20_16 
REMARK    6  A    between atoms: C18_14  and  O19_15 
ROOT
ATOM      1  C14 ZIN A   1      19.701   0.494  10.043  0.00  0.00     0.270 C 
ATOM      2  O15 ZIN A   1      20.342  -0.386   9.519  0.00  0.00    -0.264 OA
ENDROOT
BRANCH   1   3
ATOM      3  O13 ZIN A   1      19.084   0.268  11.214  0.00  0.00    -0.315 OA
BRANCH   3   4
ATOM      4  C11 ZIN A   1      19.887  -0.295  12.284  0.00  0.00     0.136 C 
ATOM      5  C10 ZIN A   1      19.373  -1.698  12.624  0.00  0.00     0.065 C 
ATOM      6  C8  ZIN A   1      17.959  -1.579  13.215  0.00  0.00     0.190 C 
ATOM      7  N2  ZIN A   1      18.068  -0.831  14.495  0.00  0.00    -0.066 N 
ATOM      8  C7  ZIN A   1      17.139  -0.642  12.296  0.00  0.00     0.035 C 
ATOM      9  C1  ZIN A   1      19.187  -1.341  15.299  0.00  0.00     0.270 C 
ATOM     10  H3  ZIN A   1      17.204  -0.886  15.013  0.00  0.00     0.280 HD
ATOM     11  C4  ZIN A   1      18.329   0.568  14.061  0.00  0.00     0.190 C 
ATOM     12  C26 ZIN A   1      19.778   0.623  13.552  0.00  0.00     0.065 C 
ATOM     13  C6  ZIN A   1      17.382   0.775  12.857  0.00  0.00     0.035 C 
ENDBRANCH   3   4
ENDBRANCH   1   3
BRANCH   1  14
ATOM     14  C16 ZIN A   1      19.595   1.846   9.384  0.00  0.00     0.142 C 
BRANCH  14  15
ATOM     15  C18 ZIN A   1      18.628   1.762   8.202  0.00  0.00     0.183 C 
BRANCH  15  16
ATOM     16  O19 ZIN A   1      19.172   0.900   7.202  0.00  0.00    -0.400 OA
ATOM     17  H38 ZIN A   1      18.537   0.638   6.520  0.00  0.00     0.209 HD
ENDBRANCH  15  16
ENDBRANCH  14  15
BRANCH  14  18
ATOM     18  C20 ZIN A   1      19.085   2.852  10.382  0.00  0.00    -0.043 A 
ATOM     19  C25 ZIN A   1      17.781   3.305  10.304  0.00  0.00     0.008 A 
ATOM     20  C24 ZIN A   1      17.312   4.225  11.222  0.00  0.00     0.001 A 
ATOM     21  C23 ZIN A   1      18.150   4.701  12.214  0.00  0.00     0.000 A 
ATOM     22  C22 ZIN A   1      19.455   4.252  12.290  0.00  0.00     0.001 A 
ATOM     23  C21 ZIN A   1      19.923   3.329  11.374  0.00  0.00     0.008 A 
ENDBRANCH  14  18
ENDBRANCH   1  14
TORSDOF 6
ENDMDL
MODEL 9
REMARK VINA RESULT:      -6.5      2.985      5.683
REMARK  6 active torsions:
REMARK  status: ('A' for Active; 'I' for Inactive)
REMARK    1  A    between atoms: C11_9  and  O13_10 
REMARK    2  A    between atoms: O13_10  and  C14_11 
REMARK    3  A    between atoms: C14_11  and  C16_13 
REMARK    4  A    between atoms: C16_13  and  C18_14 
REMARK    5  A    between atoms: C16_13  and  C20_16 
REMARK    6  A    between atoms: C18_14  and  O19_15 
ROOT
ATOM      1  C14 ZIN A   1      19.259  -0.027  11.175  0.00  0.00     0.270 C 
ATOM      2  O15 ZIN A   1      20.297   0.497  11.505  0.00  0.00    -0.264 OA
ENDROOT
BRANCH   1   3
ATOM      3  O13 ZIN A   1      19.093  -1.349  11.340  0.00  0.00    -0.315 OA
BRANCH   3   4
ATOM      4  C11 ZIN A   1      19.976  -2.223  10.588  0.00  0.00     0.136 C 
ATOM      5  C10 ZIN A   1      19.252  -2.722   9.333  0.00  0.00     0.065 C 
ATOM      6  C8  ZIN A   1      18.080  -3.621   9.760  0.00  0.00     0.190 C 
ATOM      7  N2  ZIN A   1      18.652  -4.814  10.440  0.00  0.00    -0.066 N 
ATOM      8  C7  ZIN A   1      17.302  -2.885  10.877  0.00  0.00     0.035 C 
ATOM      9  C1  ZIN A   1      19.783  -5.354   9.673  0.00  0.00     0.270 C 
ATOM     10  H3  ZIN A   1      17.944  -5.520  10.573  0.00  0.00     0.280 HD
ATOM     11  C4  ZIN A   1      19.113  -4.282  11.750  0.00  0.00     0.190 C 
ATOM     12  C26 ZIN A   1      20.377  -3.448  11.483  0.00  0.00     0.065 C 
ATOM     13  C6  ZIN A   1      17.983  -3.323  12.190  0.00  0.00     0.035 C 
ENDBRANCH   3   4
ENDBRANCH   1   3
BRANCH   1  14
ATOM     14  C16 ZIN A   1      18.151   0.803  10.580  0.00  0.00     0.142 C 
BRANCH  14  15
ATOM     15  C18 ZIN A   1      18.299   2.255  11.038  0.00  0.00     0.183 C 
BRANCH  15  16
ATOM     16  O19 ZIN A   1      17.009   2.865  11.108  0.00  0.00    -0.400 OA
ATOM     17  H38 ZIN A   1      16.409   2.600  10.397  0.00  0.00     0.209 HD
ENDBRANCH  15  16
ENDBRANCH  14  15
BRANCH  14  18
ATOM     18  C20 ZIN A   1      18.228   0.740   9.076  0.00  0.00    -0.043 A 
ATOM     19  C25 ZIN A   1      17.367  -0.081   8.373  0.00  0.00     0.008 A 
ATOM     20  C24 ZIN A   1      17.435  -0.135   6.994  0.00  0.00     0.001 A 
ATOM     21  C23 ZIN A   1      18.372   0.624   6.317  0.00  0.00     0.000 A 
ATOM     22  C22 ZIN A   1      19.237   1.441   7.021  0.00  0.00     0.001 A 
ATOM     23  C21 ZIN A   1      19.166   1.499   8.400  0.00  0.00     0.008 A 
ENDBRANCH  14  18
ENDBRANCH   1  14
TORSDOF 6
ENDMDL
