MODEL 1
REMARK VINA RESULT:      -3.7      0.000      0.000
REMARK  0 active torsions:
REMARK  status: ('A' for Active; 'I' for Inactive)
ROOT
ATOM      1  C1  <0> d   1      17.063  -0.706  16.921  0.00  0.00     0.051 C 
ATOM      2  C2  <0> d   1      17.955   0.238  17.686  0.00  0.00    -0.026 A 
ATOM      3  C3  <0> d   1      17.545   1.289  18.435  0.00  0.00     0.117 A 
ATOM      4  N4  <0> d   1      18.644   1.878  18.952  0.00  0.00    -0.289 N 
ATOM      5  N5  <0> d   1      19.765   1.164  18.508  0.00  0.00    -0.187 NA
ATOM      6  C6  <0> d   1      19.350   0.179  17.755  0.00  0.00     0.146 A 
ATOM      7  H11 <0> d   1      18.655   2.656  19.530  0.00  0.00     0.188 HD
ENDROOT
TORSDOF 0
ENDMDL
MODEL 2
REMARK VINA RESULT:      -3.5     11.818     12.373
REMARK  0 active torsions:
REMARK  status: ('A' for Active; 'I' for Inactive)
ROOT
ATOM      1  C1  <0> d   1      17.585  -0.476   7.657  0.00  0.00     0.051 C 
ATOM      2  C2  <0> d   1      18.476  -0.398   6.444  0.00  0.00    -0.026 A 
ATOM      3  C3  <0> d   1      18.867   0.735   5.816  0.00  0.00     0.117 A 
ATOM      4  N4  <0> d   1      19.656   0.379   4.780  0.00  0.00    -0.289 N 
ATOM      5  N5  <0> d   1      19.752  -1.019   4.772  0.00  0.00    -0.187 NA
ATOM      6  C6  <0> d   1      19.050  -1.482   5.773  0.00  0.00     0.146 A 
ATOM      7  H11 <0> d   1      20.080   0.984   4.153  0.00  0.00     0.188 HD
ENDROOT
TORSDOF 0
ENDMDL
MODEL 3
REMARK VINA RESULT:      -3.4      1.448      1.916
REMARK  0 active torsions:
REMARK  status: ('A' for Active; 'I' for Inactive)
ROOT
ATOM      1  C1  <0> d   1      17.777   0.510  15.266  0.00  0.00     0.051 C 
ATOM      2  C2  <0> d   1      18.567   0.436  16.547  0.00  0.00    -0.026 A 
ATOM      3  C3  <0> d   1      18.885  -0.693  17.222  0.00  0.00     0.117 A 
ATOM      4  N4  <0> d   1      19.596  -0.334  18.312  0.00  0.00    -0.289 N 
ATOM      5  N5  <0> d   1      19.719   1.061  18.306  0.00  0.00    -0.187 NA
ATOM      6  C6  <0> d   1      19.107   1.521  17.245  0.00  0.00     0.146 A 
ATOM      7  H11 <0> d   1      19.958  -0.937  18.980  0.00  0.00     0.188 HD
ENDROOT
TORSDOF 0
ENDMDL
MODEL 4
REMARK VINA RESULT:      -3.2     10.581     11.070
REMARK  0 active torsions:
REMARK  status: ('A' for Active; 'I' for Inactive)
ROOT
ATOM      1  C1  <0> d   1      19.406   1.706   8.597  0.00  0.00     0.051 C 
ATOM      2  C2  <0> d   1      18.516   0.870   7.714  0.00  0.00    -0.026 A 
ATOM      3  C3  <0> d   1      17.517   0.058   8.132  0.00  0.00     0.117 A 
ATOM      4  N4  <0> d   1      16.964  -0.510   7.039  0.00  0.00    -0.289 N 
ATOM      5  N5  <0> d   1      17.645  -0.029   5.912  0.00  0.00    -0.187 NA
ATOM      6  C6  <0> d   1      18.570   0.802   6.318  0.00  0.00     0.146 A 
ATOM      7  H11 <0> d   1      16.226  -1.138   7.035  0.00  0.00     0.188 HD
ENDROOT
TORSDOF 0
ENDMDL
MODEL 5
REMARK VINA RESULT:      -3.2      8.051      8.328
REMARK  0 active torsions:
REMARK  status: ('A' for Active; 'I' for Inactive)
ROOT
ATOM      1  C1  <0> d   1      19.267   1.745   8.280  0.00  0.00     0.051 C 
ATOM      2  C2  <0> d   1      18.471   2.130   9.500  0.00  0.00    -0.026 A 
ATOM      3  C3  <0> d   1      18.297   3.386   9.972  0.00  0.00     0.117 A 
ATOM      4  N4  <0> d   1      17.525   3.307  11.077  0.00  0.00    -0.289 N 
ATOM      5  N5  <0> d   1      17.214   1.957  11.290  0.00  0.00    -0.187 NA
ATOM      6  C6  <0> d   1      17.777   1.254  10.341  0.00  0.00     0.146 A 
ATOM      7  H11 <0> d   1      17.236   4.052  11.626  0.00  0.00     0.188 HD
ENDROOT
TORSDOF 0
ENDMDL
MODEL 6
REMARK VINA RESULT:      -3.1      2.906      3.299
REMARK  0 active torsions:
REMARK  status: ('A' for Active; 'I' for Inactive)
ROOT
ATOM      1  C1  <0> d   1      19.398  -1.379  14.136  0.00  0.00     0.051 C 
ATOM      2  C2  <0> d   1      18.422  -0.827  15.144  0.00  0.00    -0.026 A 
ATOM      3  C3  <0> d   1      17.768   0.354  15.055  0.00  0.00     0.117 A 
ATOM      4  N4  <0> d   1      16.992   0.479  16.152  0.00  0.00    -0.289 N 
ATOM      5  N5  <0> d   1      17.174  -0.665  16.941  0.00  0.00    -0.187 NA
ATOM      6  C6  <0> d   1      18.026  -1.449  16.333  0.00  0.00     0.146 A 
ATOM      7  H11 <0> d   1      16.410   1.227  16.357  0.00  0.00     0.188 HD
ENDROOT
TORSDOF 0
ENDMDL
MODEL 7
REMARK VINA RESULT:      -3.0      7.965      8.190
REMARK  0 active torsions:
REMARK  status: ('A' for Active; 'I' for Inactive)
ROOT
ATOM      1  C1  <0> d   1      17.366   4.738  10.393  0.00  0.00     0.051 C 
ATOM      2  C2  <0> d   1      18.370   3.617  10.473  0.00  0.00    -0.026 A 
ATOM      3  C3  <0> d   1      19.307   3.455  11.436  0.00  0.00     0.117 A 
ATOM      4  N4  <0> d   1      20.004   2.335  11.147  0.00  0.00    -0.289 N 
ATOM      5  N5  <0> d   1      19.475   1.791   9.970  0.00  0.00    -0.187 NA
ATOM      6  C6  <0> d   1      18.493   2.556   9.570  0.00  0.00     0.146 A 
ATOM      7  H11 <0> d   1      20.739   1.972  11.665  0.00  0.00     0.188 HD
ENDROOT
TORSDOF 0
ENDMDL
MODEL 8
REMARK VINA RESULT:      -3.0      3.307      3.567
REMARK  0 active torsions:
REMARK  status: ('A' for Active; 'I' for Inactive)
ROOT
ATOM      1  C1  <0> d   1      18.023  -1.332  16.358  0.00  0.00     0.051 C 
ATOM      2  C2  <0> d   1      18.773  -0.425  15.416  0.00  0.00    -0.026 A 
ATOM      3  C3  <0> d   1      18.871   0.921  15.515  0.00  0.00     0.117 A 
ATOM      4  N4  <0> d   1      19.624   1.356  14.483  0.00  0.00    -0.289 N 
ATOM      5  N5  <0> d   1      20.002   0.240  13.725  0.00  0.00    -0.187 NA
ATOM      6  C6  <0> d   1      19.497  -0.827  14.288  0.00  0.00     0.146 A 
ATOM      7  H11 <0> d   1      19.862   2.278  14.300  0.00  0.00     0.188 HD
ENDROOT
TORSDOF 0
ENDMDL
MODEL 9
REMARK VINA RESULT:      -3.0      6.956      7.431
REMARK  0 active torsions:
REMARK  status: ('A' for Active; 'I' for Inactive)
ROOT
ATOM      1  C1  <0> d   1      18.129   1.121  10.088  0.00  0.00     0.051 C 
ATOM      2  C2  <0> d   1      19.429   0.694  10.720  0.00  0.00    -0.026 A 
ATOM      3  C3  <0> d   1      20.247  -0.287  10.273  0.00  0.00     0.117 A 
ATOM      4  N4  <0> d   1      21.301  -0.358  11.114  0.00  0.00    -0.289 N 
ATOM      5  N5  <0> d   1      21.125   0.612  12.109  0.00  0.00    -0.187 NA
ATOM      6  C6  <0> d   1      20.006   1.246  11.869  0.00  0.00     0.146 A 
ATOM      7  H11 <0> d   1      22.048  -0.972  11.041  0.00  0.00     0.188 HD
ENDROOT
TORSDOF 0
ENDMDL
