MODEL 1
REMARK VINA RESULT:      -6.6      0.000      0.000
REMARK  4 active torsions:
REMARK  status: ('A' for Active; 'I' for Inactive)
REMARK    1  A    between atoms: O2_2  and  C3_3 
REMARK    2  A    between atoms: C3_3  and  C5_5 
REMARK    3  A    between atoms: C5_5  and  C7_6 
REMARK    4  A    between atoms: C5_5  and  C13_12 
ROOT
ATOM      1  C5  <0> d   1      18.295   0.874   9.980  0.00  0.00     0.149 C 
ENDROOT
BRANCH   1   2
ATOM      2  C3  <0> d   1      19.238  -0.153  10.550  0.00  0.00     0.269 C 
ATOM      3  O4  <0> d   1      20.293  -0.375  10.002  0.00  0.00    -0.264 OA
BRANCH   2   4
ATOM      4  O2  <0> d   1      18.909  -0.821  11.667  0.00  0.00    -0.326 OA
ATOM      5  C1  <0> d   1      17.496  -0.916  11.986  0.00  0.00     0.213 C 
ENDBRANCH   2   4
ENDBRANCH   1   2
BRANCH   1   6
ATOM      6  C7  <0> d   1      18.226   0.717   8.483  0.00  0.00    -0.043 A 
ATOM      7  C12 <0> d   1      19.087   1.431   7.672  0.00  0.00     0.008 A 
ATOM      8  C11 <0> d   1      19.026   1.284   6.298  0.00  0.00     0.001 A 
ATOM      9  C10 <0> d   1      18.097   0.428   5.736  0.00  0.00     0.000 A 
ATOM     10  C9  <0> d   1      17.233  -0.283   6.548  0.00  0.00     0.001 A 
ATOM     11  C8  <0> d   1      17.297  -0.138   7.921  0.00  0.00     0.008 A 
ENDBRANCH   1   6
BRANCH   1  12
ATOM     12  C13 <0> d   1      18.800   2.277  10.323  0.00  0.00     0.203 C 
ATOM     13  N19 <0> d   1      19.807   2.188  11.387  0.00  0.00    -0.070 N 
ATOM     14  C18 <0> d   1      20.353   3.521  11.669  0.00  0.00     0.232 C 
ATOM     15  H20 <0> d   1      19.380   1.817  12.223  0.00  0.00     0.277 HD
ATOM     16  H21 <0> d   1      20.552   1.575  11.092  0.00  0.00     0.277 HD
ATOM     17  C17 <0> d   1      19.241   4.431  12.193  0.00  0.00     0.027 C 
ATOM     18  C16 <0> d   1      18.139   4.543  11.136  0.00  0.00     0.004 C 
ATOM     19  C15 <0> d   1      17.629   3.140  10.795  0.00  0.00     0.034 C 
ENDBRANCH   1  12
TORSDOF 4
ENDMDL
MODEL 2
REMARK VINA RESULT:      -6.5      2.029      3.545
REMARK  4 active torsions:
REMARK  status: ('A' for Active; 'I' for Inactive)
REMARK    1  A    between atoms: O2_2  and  C3_3 
REMARK    2  A    between atoms: C3_3  and  C5_5 
REMARK    3  A    between atoms: C5_5  and  C7_6 
REMARK    4  A    between atoms: C5_5  and  C13_12 
ROOT
ATOM      1  C5  <0> d   1      19.123   1.460  10.634  0.00  0.00     0.149 C 
ENDROOT
BRANCH   1   2
ATOM      2  C3  <0> d   1      18.608   2.839  10.955  0.00  0.00     0.269 C 
ATOM      3  O4  <0> d   1      19.362   3.680  11.387  0.00  0.00    -0.264 OA
BRANCH   2   4
ATOM      4  O2  <0> d   1      17.314   3.135  10.762  0.00  0.00    -0.326 OA
ATOM      5  C1  <0> d   1      16.937   4.535  10.850  0.00  0.00     0.213 C 
ENDBRANCH   2   4
ENDBRANCH   1   2
BRANCH   1   6
ATOM      6  C7  <0> d   1      18.683   1.070   9.247  0.00  0.00    -0.043 A 
ATOM      7  C12 <0> d   1      19.304   1.623   8.143  0.00  0.00     0.008 A 
ATOM      8  C11 <0> d   1      18.904   1.262   6.870  0.00  0.00     0.001 A 
ATOM      9  C10 <0> d   1      17.876   0.353   6.701  0.00  0.00     0.000 A 
ATOM     10  C9  <0> d   1      17.252  -0.197   7.805  0.00  0.00     0.001 A 
ATOM     11  C8  <0> d   1      17.655   0.162   9.078  0.00  0.00     0.008 A 
ENDBRANCH   1   6
BRANCH   1  12
ATOM     12  C13 <0> d   1      18.566   0.458  11.647  0.00  0.00     0.203 C 
ATOM     13  N19 <0> d   1      18.143   1.172  12.858  0.00  0.00    -0.070 N 
ATOM     14  C18 <0> d   1      17.536   0.228  13.805  0.00  0.00     0.232 C 
ATOM     15  H20 <0> d   1      18.945   1.609  13.288  0.00  0.00     0.277 HD
ATOM     16  H21 <0> d   1      17.469   1.880  12.610  0.00  0.00     0.277 HD
ATOM     17  C17 <0> d   1      18.578  -0.801  14.244  0.00  0.00     0.027 C 
ATOM     18  C16 <0> d   1      19.085  -1.563  13.017  0.00  0.00     0.004 C 
ATOM     19  C15 <0> d   1      19.648  -0.563  12.004  0.00  0.00     0.034 C 
ENDBRANCH   1  12
TORSDOF 4
ENDMDL
MODEL 3
REMARK VINA RESULT:      -6.4      3.379      7.003
REMARK  4 active torsions:
REMARK  status: ('A' for Active; 'I' for Inactive)
REMARK    1  A    between atoms: O2_2  and  C3_3 
REMARK    2  A    between atoms: C3_3  and  C5_5 
REMARK    3  A    between atoms: C5_5  and  C7_6 
REMARK    4  A    between atoms: C5_5  and  C13_12 
ROOT
ATOM      1  C5  <0> d   1      18.344  -0.904  12.995  0.00  0.00     0.149 C 
ENDROOT
BRANCH   1   2
ATOM      2  C3  <0> d   1      19.353   0.042  12.399  0.00  0.00     0.269 C 
ATOM      3  O4  <0> d   1      20.338   0.351  13.030  0.00  0.00    -0.264 OA
BRANCH   2   4
ATOM      4  O2  <0> d   1      19.161   0.543  11.169  0.00  0.00    -0.326 OA
ATOM      5  C1  <0> d   1      17.806   0.932  10.820  0.00  0.00     0.213 C 
ENDBRANCH   2   4
ENDBRANCH   1   2
BRANCH   1   6
ATOM      6  C7  <0> d   1      18.339  -0.756  14.494  0.00  0.00    -0.043 A 
ATOM      7  C12 <0> d   1      17.581   0.234  15.090  0.00  0.00     0.008 A 
ATOM      8  C11 <0> d   1      17.573   0.367  16.466  0.00  0.00     0.001 A 
ATOM      9  C10 <0> d   1      18.332  -0.485  17.246  0.00  0.00     0.000 A 
ATOM     10  C9  <0> d   1      19.094  -1.473  16.650  0.00  0.00     0.001 A 
ATOM     11  C8  <0> d   1      19.098  -1.608  15.275  0.00  0.00     0.008 A 
ENDBRANCH   1   6
BRANCH   1  12
ATOM     12  C13 <0> d   1      18.711  -2.342  12.625  0.00  0.00     0.203 C 
ATOM     13  N19 <0> d   1      19.966  -2.345  11.864  0.00  0.00    -0.070 N 
ATOM     14  C18 <0> d   1      20.367  -3.727  11.571  0.00  0.00     0.232 C 
ATOM     15  H20 <0> d   1      19.835  -1.843  10.998  0.00  0.00     0.277 HD
ATOM     16  H21 <0> d   1      20.687  -1.894  12.407  0.00  0.00     0.277 HD
ATOM     17  C17 <0> d   1      19.314  -4.389  10.681  0.00  0.00     0.027 C 
ATOM     18  C16 <0> d   1      17.966  -4.391  11.409  0.00  0.00     0.004 C 
ATOM     19  C15 <0> d   1      17.594  -2.952  11.775  0.00  0.00     0.034 C 
ENDBRANCH   1  12
TORSDOF 4
ENDMDL
MODEL 4
REMARK VINA RESULT:      -6.4      1.796      4.897
REMARK  4 active torsions:
REMARK  status: ('A' for Active; 'I' for Inactive)
REMARK    1  A    between atoms: O2_2  and  C3_3 
REMARK    2  A    between atoms: C3_3  and  C5_5 
REMARK    3  A    between atoms: C5_5  and  C7_6 
REMARK    4  A    between atoms: C5_5  and  C13_12 
ROOT
ATOM      1  C5  <0> d   1      18.132   1.099  10.903  0.00  0.00     0.149 C 
ENDROOT
BRANCH   1   2
ATOM      2  C3  <0> d   1      17.208   0.083  11.522  0.00  0.00     0.269 C 
ATOM      3  O4  <0> d   1      16.011   0.249  11.478  0.00  0.00    -0.264 OA
BRANCH   2   4
ATOM      4  O2  <0> d   1      17.713  -1.007  12.121  0.00  0.00    -0.326 OA
ATOM      5  C1  <0> d   1      19.139  -1.008  12.395  0.00  0.00     0.213 C 
ENDBRANCH   2   4
ENDBRANCH   1   2
BRANCH   1   6
ATOM      6  C7  <0> d   1      17.813   2.467  11.448  0.00  0.00    -0.043 A 
ATOM      7  C12 <0> d   1      17.394   3.471  10.596  0.00  0.00     0.008 A 
ATOM      8  C11 <0> d   1      17.097   4.725  11.097  0.00  0.00     0.001 A 
ATOM      9  C10 <0> d   1      17.228   4.978  12.450  0.00  0.00     0.000 A 
ATOM     10  C9  <0> d   1      17.652   3.974  13.301  0.00  0.00     0.001 A 
ATOM     11  C8  <0> d   1      17.944   2.719  12.801  0.00  0.00     0.008 A 
ENDBRANCH   1   6
BRANCH   1  12
ATOM     12  C13 <0> d   1      17.947   1.100   9.384  0.00  0.00     0.203 C 
ATOM     13  N19 <0> d   1      17.455  -0.214   8.952  0.00  0.00    -0.070 N 
ATOM     14  C18 <0> d   1      17.200  -0.198   7.506  0.00  0.00     0.232 C 
ATOM     15  H20 <0> d   1      18.146  -0.918   9.163  0.00  0.00     0.277 HD
ATOM     16  H21 <0> d   1      16.599  -0.426   9.441  0.00  0.00     0.277 HD
ATOM     17  C17 <0> d   1      18.512   0.046   6.757  0.00  0.00     0.027 C 
ATOM     18  C16 <0> d   1      19.096   1.394   7.188  0.00  0.00     0.004 C 
ATOM     19  C15 <0> d   1      19.287   1.394   8.707  0.00  0.00     0.034 C 
ENDBRANCH   1  12
TORSDOF 4
ENDMDL
MODEL 5
REMARK VINA RESULT:      -6.3      2.719      5.688
REMARK  4 active torsions:
REMARK  status: ('A' for Active; 'I' for Inactive)
REMARK    1  A    between atoms: O2_2  and  C3_3 
REMARK    2  A    between atoms: C3_3  and  C5_5 
REMARK    3  A    between atoms: C5_5  and  C7_6 
REMARK    4  A    between atoms: C5_5  and  C13_12 
ROOT
ATOM      1  C5  <0> d   1      18.979  -0.532  12.667  0.00  0.00     0.149 C 
ENDROOT
BRANCH   1   2
ATOM      2  C3  <0> d   1      18.176  -1.556  11.909  0.00  0.00     0.269 C 
ATOM      3  O4  <0> d   1      16.975  -1.604  12.045  0.00  0.00    -0.264 OA
BRANCH   2   4
ATOM      4  O2  <0> d   1      18.792  -2.417  11.084  0.00  0.00    -0.326 OA
ATOM      5  C1  <0> d   1      19.869  -3.213  11.645  0.00  0.00     0.213 C 
ENDBRANCH   2   4
ENDBRANCH   1   2
BRANCH   1   6
ATOM      6  C7  <0> d   1      18.605  -0.577  14.125  0.00  0.00    -0.043 A 
ATOM      7  C12 <0> d   1      19.165  -1.530  14.955  0.00  0.00     0.008 A 
ATOM      8  C11 <0> d   1      18.825  -1.569  16.294  0.00  0.00     0.001 A 
ATOM      9  C10 <0> d   1      17.916  -0.659  16.803  0.00  0.00     0.000 A 
ATOM     10  C9  <0> d   1      17.352   0.292  15.972  0.00  0.00     0.001 A 
ATOM     11  C8  <0> d   1      17.696   0.333  14.634  0.00  0.00     0.008 A 
ENDBRANCH   1   6
BRANCH   1  12
ATOM     12  C13 <0> d   1      18.687   0.862  12.107  0.00  0.00     0.203 C 
ATOM     13  N19 <0> d   1      18.042   0.736  10.795  0.00  0.00    -0.070 N 
ATOM     14  C18 <0> d   1      17.688   2.066  10.285  0.00  0.00     0.232 C 
ATOM     15  H20 <0> d   1      18.677   0.288  10.150  0.00  0.00     0.277 HD
ATOM     16  H21 <0> d   1      17.207   0.178  10.886  0.00  0.00     0.277 HD
ATOM     17  C17 <0> d   1      18.959   2.889  10.071  0.00  0.00     0.027 C 
ATOM     18  C16 <0> d   1      19.699   3.033  11.405  0.00  0.00     0.004 C 
ATOM     19  C15 <0> d   1      19.997   1.640  11.964  0.00  0.00     0.034 C 
ENDBRANCH   1  12
TORSDOF 4
ENDMDL
MODEL 6
REMARK VINA RESULT:      -6.2      2.530      5.524
REMARK  4 active torsions:
REMARK  status: ('A' for Active; 'I' for Inactive)
REMARK    1  A    between atoms: O2_2  and  C3_3 
REMARK    2  A    between atoms: C3_3  and  C5_5 
REMARK    3  A    between atoms: C5_5  and  C7_6 
REMARK    4  A    between atoms: C5_5  and  C13_12 
ROOT
ATOM      1  C5  <0> d   1      18.927  -1.242  11.829  0.00  0.00     0.149 C 
ENDROOT
BRANCH   1   2
ATOM      2  C3  <0> d   1      18.222  -2.518  11.451  0.00  0.00     0.269 C 
ATOM      3  O4  <0> d   1      17.036  -2.636  11.655  0.00  0.00    -0.264 OA
BRANCH   2   4
ATOM      4  O2  <0> d   1      18.909  -3.524  10.889  0.00  0.00    -0.326 OA
ATOM      5  C1  <0> d   1      20.196  -3.853  11.475  0.00  0.00     0.213 C 
ENDBRANCH   2   4
ENDBRANCH   1   2
BRANCH   1   6
ATOM      6  C7  <0> d   1      18.577  -0.875  13.248  0.00  0.00    -0.043 A 
ATOM      7  C12 <0> d   1      17.702   0.166  13.498  0.00  0.00     0.008 A 
ATOM      8  C11 <0> d   1      17.377   0.500  14.799  0.00  0.00     0.001 A 
ATOM      9  C10 <0> d   1      17.935  -0.201  15.852  0.00  0.00     0.000 A 
ATOM     10  C9  <0> d   1      18.813  -1.239  15.602  0.00  0.00     0.001 A 
ATOM     11  C8  <0> d   1      19.135  -1.575  14.301  0.00  0.00     0.008 A 
ENDBRANCH   1   6
BRANCH   1  12
ATOM     12  C13 <0> d   1      18.489  -0.118  10.888  0.00  0.00     0.203 C 
ATOM     13  N19 <0> d   1      18.166  -0.681   9.572  0.00  0.00    -0.070 N 
ATOM     14  C18 <0> d   1      17.670   0.379   8.686  0.00  0.00     0.232 C 
ATOM     15  H20 <0> d   1      18.995  -1.093   9.170  0.00  0.00     0.277 HD
ATOM     16  H21 <0> d   1      17.457  -1.390   9.677  0.00  0.00     0.277 HD
ATOM     17  C17 <0> d   1      18.772   1.416   8.460  0.00  0.00     0.027 C 
ATOM     18  C16 <0> d   1      19.178   2.024   9.806  0.00  0.00     0.004 C 
ATOM     19  C15 <0> d   1      19.622   0.901  10.747  0.00  0.00     0.034 C 
ENDBRANCH   1  12
TORSDOF 4
ENDMDL
MODEL 7
REMARK VINA RESULT:      -6.1      3.144      5.369
REMARK  4 active torsions:
REMARK  status: ('A' for Active; 'I' for Inactive)
REMARK    1  A    between atoms: O2_2  and  C3_3 
REMARK    2  A    between atoms: C3_3  and  C5_5 
REMARK    3  A    between atoms: C5_5  and  C7_6 
REMARK    4  A    between atoms: C5_5  and  C13_12 
ROOT
ATOM      1  C5  <0> d   1      19.666  -1.428  12.910  0.00  0.00     0.149 C 
ENDROOT
BRANCH   1   2
ATOM      2  C3  <0> d   1      19.875  -0.304  11.929  0.00  0.00     0.269 C 
ATOM      3  O4  <0> d   1      20.889   0.353  11.970  0.00  0.00    -0.264 OA
BRANCH   2   4
ATOM      4  O2  <0> d   1      18.936  -0.031  11.010  0.00  0.00    -0.326 OA
ATOM      5  C1  <0> d   1      19.211   1.057  10.089  0.00  0.00     0.213 C 
ENDBRANCH   2   4
ENDBRANCH   1   2
BRANCH   1   6
ATOM      6  C7  <0> d   1      19.201  -2.658  12.174  0.00  0.00    -0.043 A 
ATOM      7  C12 <0> d   1      17.853  -2.956  12.106  0.00  0.00     0.008 A 
ATOM      8  C11 <0> d   1      17.427  -4.082  11.427  0.00  0.00     0.001 A 
ATOM      9  C10 <0> d   1      18.349  -4.916  10.823  0.00  0.00     0.000 A 
ATOM     10  C9  <0> d   1      19.698  -4.620  10.895  0.00  0.00     0.001 A 
ATOM     11  C8  <0> d   1      20.124  -3.492  11.570  0.00  0.00     0.008 A 
ENDBRANCH   1   6
BRANCH   1  12
ATOM     12  C13 <0> d   1      18.609  -1.019  13.938  0.00  0.00     0.203 C 
ATOM     13  N19 <0> d   1      18.512   0.444  13.983  0.00  0.00    -0.070 N 
ATOM     14  C18 <0> d   1      17.446   0.844  14.910  0.00  0.00     0.232 C 
ATOM     15  H20 <0> d   1      19.390   0.830  14.295  0.00  0.00     0.277 HD
ATOM     16  H21 <0> d   1      18.302   0.793  13.060  0.00  0.00     0.277 HD
ATOM     17  C17 <0> d   1      17.799   0.385  16.326  0.00  0.00     0.027 C 
ATOM     18  C16 <0> d   1      17.945  -1.139  16.342  0.00  0.00     0.004 C 
ATOM     19  C15 <0> d   1      19.006  -1.550  15.317  0.00  0.00     0.034 C 
ENDBRANCH   1  12
TORSDOF 4
ENDMDL
MODEL 8
REMARK VINA RESULT:      -6.1      3.553      6.313
REMARK  4 active torsions:
REMARK  status: ('A' for Active; 'I' for Inactive)
REMARK    1  A    between atoms: O2_2  and  C3_3 
REMARK    2  A    between atoms: C3_3  and  C5_5 
REMARK    3  A    between atoms: C5_5  and  C7_6 
REMARK    4  A    between atoms: C5_5  and  C13_12 
ROOT
ATOM      1  C5  <0> d   1      17.774   1.823  14.100  0.00  0.00     0.149 C 
ENDROOT
BRANCH   1   2
ATOM      2  C3  <0> d   1      18.330   3.002  14.855  0.00  0.00     0.269 C 
ATOM      3  O4  <0> d   1      17.738   4.057  14.850  0.00  0.00    -0.264 OA
BRANCH   2   4
ATOM      4  O2  <0> d   1      19.483   2.883  15.532  0.00  0.00    -0.326 OA
ATOM      5  C1  <0> d   1      19.627   3.686  16.733  0.00  0.00     0.213 C 
ENDBRANCH   2   4
ENDBRANCH   1   2
BRANCH   1   6
ATOM      6  C7  <0> d   1      18.041   0.559  14.875  0.00  0.00    -0.043 A 
ATOM      7  C12 <0> d   1      17.323   0.287  16.024  0.00  0.00     0.008 A 
ATOM      8  C11 <0> d   1      17.565  -0.876  16.733  0.00  0.00     0.001 A 
ATOM      9  C10 <0> d   1      18.532  -1.762  16.297  0.00  0.00     0.000 A 
ATOM     10  C9  <0> d   1      19.253  -1.487  15.150  0.00  0.00     0.001 A 
ATOM     11  C8  <0> d   1      19.008  -0.327  14.439  0.00  0.00     0.008 A 
ENDBRANCH   1   6
BRANCH   1  12
ATOM     12  C13 <0> d   1      18.444   1.732  12.728  0.00  0.00     0.203 C 
ATOM     13  N19 <0> d   1      19.181   2.973  12.461  0.00  0.00    -0.070 N 
ATOM     14  C18 <0> d   1      19.892   2.864  11.181  0.00  0.00     0.232 C 
ATOM     15  H20 <0> d   1      18.535   3.746  12.421  0.00  0.00     0.277 HD
ATOM     16  H21 <0> d   1      19.847   3.131  13.202  0.00  0.00     0.277 HD
ATOM     17  C17 <0> d   1      18.880   2.704  10.045  0.00  0.00     0.027 C 
ATOM     18  C16 <0> d   1      18.053   1.436  10.280  0.00  0.00     0.004 C 
ATOM     19  C15 <0> d   1      17.377   1.527  11.651  0.00  0.00     0.034 C 
ENDBRANCH   1  12
TORSDOF 4
ENDMDL
MODEL 9
REMARK VINA RESULT:      -6.0      1.331      4.594
REMARK  4 active torsions:
REMARK  status: ('A' for Active; 'I' for Inactive)
REMARK    1  A    between atoms: O2_2  and  C3_3 
REMARK    2  A    between atoms: C3_3  and  C5_5 
REMARK    3  A    between atoms: C5_5  and  C7_6 
REMARK    4  A    between atoms: C5_5  and  C13_12 
ROOT
ATOM      1  C5  <0> d   1      19.436   1.029  10.169  0.00  0.00     0.149 C 
ENDROOT
BRANCH   1   2
ATOM      2  C3  <0> d   1      19.126  -0.073  11.148  0.00  0.00     0.269 C 
ATOM      3  O4  <0> d   1      20.025  -0.709  11.646  0.00  0.00    -0.264 OA
BRANCH   2   4
ATOM      4  O2  <0> d   1      17.852  -0.349  11.469  0.00  0.00    -0.326 OA
ATOM      5  C1  <0> d   1      17.559  -1.704  11.901  0.00  0.00     0.213 C 
ENDBRANCH   2   4
ENDBRANCH   1   2
BRANCH   1   6
ATOM      6  C7  <0> d   1      18.973   2.348  10.733  0.00  0.00    -0.043 A 
ATOM      7  C12 <0> d   1      19.779   3.045  11.614  0.00  0.00     0.008 A 
ATOM      8  C11 <0> d   1      19.356   4.257  12.128  0.00  0.00     0.001 A 
ATOM      9  C10 <0> d   1      18.123   4.767  11.769  0.00  0.00     0.000 A 
ATOM     10  C9  <0> d   1      17.315   4.068  10.892  0.00  0.00     0.001 A 
ATOM     11  C8  <0> d   1      17.740   2.859  10.374  0.00  0.00     0.008 A 
ENDBRANCH   1   6
BRANCH   1  12
ATOM     12  C13 <0> d   1      18.713   0.758   8.849  0.00  0.00     0.203 C 
ATOM     13  N19 <0> d   1      18.742  -0.682   8.563  0.00  0.00    -0.070 N 
ATOM     14  C18 <0> d   1      17.984  -0.961   7.338  0.00  0.00     0.232 C 
ATOM     15  H20 <0> d   1      19.698  -0.981   8.442  0.00  0.00     0.277 HD
ATOM     16  H21 <0> d   1      18.329  -1.183   9.335  0.00  0.00     0.277 HD
ATOM     17  C17 <0> d   1      18.653  -0.266   6.151  0.00  0.00     0.027 C 
ATOM     18  C16 <0> d   1      18.683   1.245   6.400  0.00  0.00     0.004 C 
ATOM     19  C15 <0> d   1      19.410   1.519   7.719  0.00  0.00     0.034 C 
ENDBRANCH   1  12
TORSDOF 4
ENDMDL
