MODEL 1
REMARK VINA RESULT:      -6.9      0.000      0.000
REMARK  7 active torsions:
REMARK  status: ('A' for Active; 'I' for Inactive)
REMARK    1  A    between atoms: C2_2  and  N5_5 
REMARK    2  A    between atoms: N5_5  and  C8_8 
REMARK    3  A    between atoms: C8_8  and  C9_9 
REMARK    4  A    between atoms: C9_9  and  O11_10 
REMARK    5  A    between atoms: C9_9  and  C12_11 
REMARK    6  A    between atoms: C12_11  and  O13_12 
REMARK    7  A    between atoms: O13_12  and  C14_13 
ROOT
ATOM      1  O13 <0> d   1      19.608  -1.301   8.857  0.00  0.00    -0.348 OA
ENDROOT
BRANCH   1   2
ATOM      2  C12 <0> d   1      19.386  -0.453   9.986  0.00  0.00     0.209 C 
BRANCH   2   3
ATOM      3  C9  <0> d   1      20.223  -0.949  11.167  0.00  0.00     0.168 C 
BRANCH   3   4
ATOM      4  C8  <0> d   1      20.029  -2.458  11.330  0.00  0.00     0.267 C 
BRANCH   4   5
ATOM      5  N5  <0> d   1      18.593  -2.762  11.399  0.00  0.00    -0.065 N 
ATOM      6  H6  <0> d   1      18.077  -2.067  10.880  0.00  0.00     0.278 HD
ATOM      7  H7  <0> d   1      18.294  -2.754  12.362  0.00  0.00     0.278 HD
BRANCH   5   8
ATOM      8  C2  <0> d   1      18.346  -4.089  10.819  0.00  0.00     0.115 C 
ATOM      9  C1  <0> d   1      19.673  -4.709  10.378  0.00  0.00     0.045 C 
ATOM     10  C3  <0> d   1      17.419  -3.953   9.609  0.00  0.00     0.045 C 
ATOM     11  C4  <0> d   1      17.686  -4.988  11.867  0.00  0.00     0.045 C 
ENDBRANCH   5   8
ENDBRANCH   4   5
ENDBRANCH   3   4
BRANCH   3  12
ATOM     12  O11 <0> d   1      21.603  -0.670  10.924  0.00  0.00    -0.392 OA
ATOM     13  H36 <0> d   1      22.210  -1.144  11.509  0.00  0.00     0.210 HD
ENDBRANCH   3  12
ENDBRANCH   2   3
ENDBRANCH   1   2
BRANCH   1  14
ATOM     14  C14 <0> d   1      19.275  -0.803   7.637  0.00  0.00     0.077 A 
ATOM     15  C19 <0> d   1      19.176  -1.650   6.545  0.00  0.00     0.002 A 
ATOM     16  C18 <0> d   1      18.830  -1.141   5.302  0.00  0.00     0.043 A 
ATOM     17  C20 <0> d   1      19.433  -3.126   6.706  0.00  0.00     0.053 C 
ATOM     18  C17 <0> d   1      18.594   0.220   5.152  0.00  0.00     0.030 A 
ATOM     19  N24 <0> d   1      18.725  -1.998   4.201  0.00  0.00    -0.327 N 
ATOM     20  C16 <0> d   1      18.700   1.063   6.241  0.00  0.00     0.005 A 
ATOM     21  C15 <0> d   1      19.039   0.556   7.482  0.00  0.00     0.037 A 
ATOM     22  C22 <0> d   1      18.577  -3.324   4.383  0.00  0.00     0.222 C 
ATOM     23  H46 <0> d   1      18.752  -1.634   3.303  0.00  0.00     0.169 HD
ATOM     24  C21 <0> d   1      18.514  -3.910   5.767  0.00  0.00     0.108 C 
ATOM     25  O23 <0> d   1      18.497  -4.055   3.418  0.00  0.00    -0.273 OA
ENDBRANCH   1  14
TORSDOF 7
ENDMDL
MODEL 2
REMARK VINA RESULT:      -6.9      5.341      9.575
REMARK  7 active torsions:
REMARK  status: ('A' for Active; 'I' for Inactive)
REMARK    1  A    between atoms: C2_2  and  N5_5 
REMARK    2  A    between atoms: N5_5  and  C8_8 
REMARK    3  A    between atoms: C8_8  and  C9_9 
REMARK    4  A    between atoms: C9_9  and  O11_10 
REMARK    5  A    between atoms: C9_9  and  C12_11 
REMARK    6  A    between atoms: C12_11  and  O13_12 
REMARK    7  A    between atoms: O13_12  and  C14_13 
ROOT
ATOM      1  O13 <0> d   1      19.883   0.237  13.827  0.00  0.00    -0.348 OA
ENDROOT
BRANCH   1   2
ATOM      2  C12 <0> d   1      19.572  -0.614  12.721  0.00  0.00     0.209 C 
BRANCH   2   3
ATOM      3  C9  <0> d   1      20.340  -0.142  11.485  0.00  0.00     0.168 C 
BRANCH   3   4
ATOM      4  C8  <0> d   1      19.570   0.995  10.810  0.00  0.00     0.267 C 
BRANCH   4   5
ATOM      5  N5  <0> d   1      19.994   2.279  11.383  0.00  0.00    -0.065 N 
ATOM      6  H6  <0> d   1      20.702   2.693  10.795  0.00  0.00     0.278 HD
ATOM      7  H7  <0> d   1      20.369   2.128  12.306  0.00  0.00     0.278 HD
BRANCH   5   8
ATOM      8  C2  <0> d   1      18.838   3.183  11.466  0.00  0.00     0.115 C 
ATOM      9  C1  <0> d   1      19.247   4.468  12.190  0.00  0.00     0.045 C 
ATOM     10  C3  <0> d   1      17.709   2.498  12.240  0.00  0.00     0.045 C 
ATOM     11  C4  <0> d   1      18.355   3.524  10.055  0.00  0.00     0.045 C 
ENDBRANCH   5   8
ENDBRANCH   4   5
ENDBRANCH   3   4
BRANCH   3  12
ATOM     12  O11 <0> d   1      21.633   0.325  11.876  0.00  0.00    -0.392 OA
ATOM     13  H36 <0> d   1      22.242   0.460  11.137  0.00  0.00     0.210 HD
ENDBRANCH   3  12
ENDBRANCH   2   3
ENDBRANCH   1   2
BRANCH   1  14
ATOM     14  C14 <0> d   1      19.155   0.066  14.961  0.00  0.00     0.077 A 
ATOM     15  C19 <0> d   1      18.940   1.135  15.816  0.00  0.00     0.002 A 
ATOM     16  C18 <0> d   1      18.191   0.959  16.970  0.00  0.00     0.043 A 
ATOM     17  C20 <0> d   1      19.508   2.492  15.490  0.00  0.00     0.053 C 
ATOM     18  C17 <0> d   1      17.667  -0.292  17.273  0.00  0.00     0.030 A 
ATOM     19  N24 <0> d   1      17.970   2.039  17.831  0.00  0.00    -0.327 N 
ATOM     20  C16 <0> d   1      17.888  -1.357  16.421  0.00  0.00     0.005 A 
ATOM     21  C15 <0> d   1      18.630  -1.182  15.268  0.00  0.00     0.037 A 
ATOM     22  C22 <0> d   1      18.132   3.302  17.392  0.00  0.00     0.222 C 
ATOM     23  H46 <0> d   1      17.691   1.879  18.746  0.00  0.00     0.169 HD
ATOM     24  C21 <0> d   1      18.545   3.578  15.972  0.00  0.00     0.108 C 
ATOM     25  O23 <0> d   1      17.945   4.229  18.152  0.00  0.00    -0.273 OA
ENDBRANCH   1  14
TORSDOF 7
ENDMDL
MODEL 3
REMARK VINA RESULT:      -6.9      5.513      7.319
REMARK  7 active torsions:
REMARK  status: ('A' for Active; 'I' for Inactive)
REMARK    1  A    between atoms: C2_2  and  N5_5 
REMARK    2  A    between atoms: N5_5  and  C8_8 
REMARK    3  A    between atoms: C8_8  and  C9_9 
REMARK    4  A    between atoms: C9_9  and  O11_10 
REMARK    5  A    between atoms: C9_9  and  C12_11 
REMARK    6  A    between atoms: C12_11  and  O13_12 
REMARK    7  A    between atoms: O13_12  and  C14_13 
ROOT
ATOM      1  O13 <0> d   1      19.214   4.215  14.152  0.00  0.00    -0.348 OA
ENDROOT
BRANCH   1   2
ATOM      2  C12 <0> d   1      18.652   4.478  15.440  0.00  0.00     0.209 C 
BRANCH   2   3
ATOM      3  C9  <0> d   1      19.432   3.703  16.504  0.00  0.00     0.168 C 
BRANCH   3   4
ATOM      4  C8  <0> d   1      19.313   2.202  16.230  0.00  0.00     0.267 C 
BRANCH   4   5
ATOM      5  N5  <0> d   1      18.064   1.935  15.506  0.00  0.00    -0.065 N 
ATOM      6  H6  <0> d   1      17.867   2.700  14.878  0.00  0.00     0.278 HD
ATOM      7  H7  <0> d   1      17.307   1.837  16.165  0.00  0.00     0.278 HD
BRANCH   5   8
ATOM      8  C2  <0> d   1      18.203   0.693  14.732  0.00  0.00     0.115 C 
ATOM      9  C1  <0> d   1      17.345   0.780  13.468  0.00  0.00     0.045 C 
ATOM     10  C3  <0> d   1      17.740  -0.492  15.583  0.00  0.00     0.045 C 
ATOM     11  C4  <0> d   1      19.669   0.497  14.341  0.00  0.00     0.045 C 
ENDBRANCH   5   8
ENDBRANCH   4   5
ENDBRANCH   3   4
BRANCH   3  12
ATOM     12  O11 <0> d   1      20.807   4.088  16.461  0.00  0.00    -0.392 OA
ATOM     13  H36 <0> d   1      21.398   3.491  16.940  0.00  0.00     0.210 HD
ENDBRANCH   3  12
ENDBRANCH   2   3
ENDBRANCH   1   2
BRANCH   1  14
ATOM     14  C14 <0> d   1      18.418   4.439  13.074  0.00  0.00     0.077 A 
ATOM     15  C19 <0> d   1      18.727   3.864  11.851  0.00  0.00     0.002 A 
ATOM     16  C18 <0> d   1      17.910   4.090  10.754  0.00  0.00     0.043 A 
ATOM     17  C20 <0> d   1      19.943   2.986  11.713  0.00  0.00     0.053 C 
ATOM     18  C17 <0> d   1      16.788   4.901  10.879  0.00  0.00     0.030 A 
ATOM     19  N24 <0> d   1      18.220   3.506   9.521  0.00  0.00    -0.327 N 
ATOM     20  C16 <0> d   1      16.486   5.477  12.098  0.00  0.00     0.005 A 
ATOM     21  C15 <0> d   1      17.297   5.248  13.194  0.00  0.00     0.037 A 
ATOM     22  C22 <0> d   1      19.051   2.448   9.460  0.00  0.00     0.222 C 
ATOM     23  H46 <0> d   1      17.828   3.860   8.708  0.00  0.00     0.169 HD
ATOM     24  C21 <0> d   1      19.655   1.869  10.710  0.00  0.00     0.108 C 
ATOM     25  O23 <0> d   1      19.317   1.957   8.382  0.00  0.00    -0.273 OA
ENDBRANCH   1  14
TORSDOF 7
ENDMDL
MODEL 4
REMARK VINA RESULT:      -6.7      4.261      8.472
REMARK  7 active torsions:
REMARK  status: ('A' for Active; 'I' for Inactive)
REMARK    1  A    between atoms: C2_2  and  N5_5 
REMARK    2  A    between atoms: N5_5  and  C8_8 
REMARK    3  A    between atoms: C8_8  and  C9_9 
REMARK    4  A    between atoms: C9_9  and  O11_10 
REMARK    5  A    between atoms: C9_9  and  C12_11 
REMARK    6  A    between atoms: C12_11  and  O13_12 
REMARK    7  A    between atoms: O13_12  and  C14_13 
ROOT
ATOM      1  O13 <0> d   1      19.345  -0.164  12.417  0.00  0.00    -0.348 OA
ENDROOT
BRANCH   1   2
ATOM      2  C12 <0> d   1      19.536  -1.455  11.833  0.00  0.00     0.209 C 
BRANCH   2   3
ATOM      3  C9  <0> d   1      20.515  -1.344  10.663  0.00  0.00     0.168 C 
BRANCH   3   4
ATOM      4  C8  <0> d   1      19.834  -0.628   9.495  0.00  0.00     0.267 C 
BRANCH   4   5
ATOM      5  N5  <0> d   1      19.992   0.824   9.652  0.00  0.00    -0.065 N 
ATOM      6  H6  <0> d   1      20.811   1.130   9.149  0.00  0.00     0.278 HD
ATOM      7  H7  <0> d   1      20.096   1.047  10.630  0.00  0.00     0.278 HD
BRANCH   5   8
ATOM      8  C2  <0> d   1      18.806   1.506   9.117  0.00  0.00     0.115 C 
ATOM      9  C1  <0> d   1      17.567   0.642   9.362  0.00  0.00     0.045 C 
ATOM     10  C3  <0> d   1      18.982   1.732   7.614  0.00  0.00     0.045 C 
ATOM     11  C4  <0> d   1      18.634   2.855   9.818  0.00  0.00     0.045 C 
ENDBRANCH   5   8
ENDBRANCH   4   5
ENDBRANCH   3   4
BRANCH   3  12
ATOM     12  O11 <0> d   1      21.665  -0.600  11.073  0.00  0.00    -0.392 OA
ATOM     13  H36 <0> d   1      22.340  -0.510  10.386  0.00  0.00     0.210 HD
ENDBRANCH   3  12
ENDBRANCH   2   3
ENDBRANCH   1   2
BRANCH   1  14
ATOM     14  C14 <0> d   1      19.175  -0.115  13.764  0.00  0.00     0.077 A 
ATOM     15  C19 <0> d   1      19.047   1.107  14.404  0.00  0.00     0.002 A 
ATOM     16  C18 <0> d   1      18.868   1.154  15.779  0.00  0.00     0.043 A 
ATOM     17  C20 <0> d   1      19.091   2.386  13.609  0.00  0.00     0.053 C 
ATOM     18  C17 <0> d   1      18.828  -0.024  16.513  0.00  0.00     0.030 A 
ATOM     19  N24 <0> d   1      18.734   2.388  16.423  0.00  0.00    -0.327 N 
ATOM     20  C16 <0> d   1      18.962  -1.241  15.873  0.00  0.00     0.005 A 
ATOM     21  C15 <0> d   1      19.135  -1.290  14.503  0.00  0.00     0.037 A 
ATOM     22  C22 <0> d   1      18.396   3.488  15.723  0.00  0.00     0.222 C 
ATOM     23  H46 <0> d   1      18.877   2.451  17.380  0.00  0.00     0.169 HD
ATOM     24  C21 <0> d   1      18.150   3.413  14.241  0.00  0.00     0.108 C 
ATOM     25  O23 <0> d   1      18.292   4.553  16.295  0.00  0.00    -0.273 OA
ENDBRANCH   1  14
TORSDOF 7
ENDMDL
MODEL 5
REMARK VINA RESULT:      -6.6      3.040      5.422
REMARK  7 active torsions:
REMARK  status: ('A' for Active; 'I' for Inactive)
REMARK    1  A    between atoms: C2_2  and  N5_5 
REMARK    2  A    between atoms: N5_5  and  C8_8 
REMARK    3  A    between atoms: C8_8  and  C9_9 
REMARK    4  A    between atoms: C9_9  and  O11_10 
REMARK    5  A    between atoms: C9_9  and  C12_11 
REMARK    6  A    between atoms: C12_11  and  O13_12 
REMARK    7  A    between atoms: O13_12  and  C14_13 
ROOT
ATOM      1  O13 <0> d   1      17.123  -2.026  11.508  0.00  0.00    -0.348 OA
ENDROOT
BRANCH   1   2
ATOM      2  C12 <0> d   1      17.698  -1.187  12.512  0.00  0.00     0.209 C 
BRANCH   2   3
ATOM      3  C9  <0> d   1      17.043   0.195  12.457  0.00  0.00     0.168 C 
BRANCH   3   4
ATOM      4  C8  <0> d   1      18.097   1.244  12.097  0.00  0.00     0.267 C 
BRANCH   4   5
ATOM      5  N5  <0> d   1      17.440   2.407  11.485  0.00  0.00    -0.065 N 
ATOM      6  H6  <0> d   1      17.099   3.021  12.209  0.00  0.00     0.278 HD
ATOM      7  H7  <0> d   1      16.668   2.096  10.916  0.00  0.00     0.278 HD
BRANCH   5   8
ATOM      8  C2  <0> d   1      18.406   3.130  10.646  0.00  0.00     0.115 C 
ATOM      9  C1  <0> d   1      19.682   3.392  11.449  0.00  0.00     0.045 C 
ATOM     10  C3  <0> d   1      17.799   4.462  10.202  0.00  0.00     0.045 C 
ATOM     11  C4  <0> d   1      18.743   2.287   9.415  0.00  0.00     0.045 C 
ENDBRANCH   5   8
ENDBRANCH   4   5
ENDBRANCH   3   4
BRANCH   3  12
ATOM     12  O11 <0> d   1      16.013   0.195  11.466  0.00  0.00    -0.392 OA
ATOM     13  H36 <0> d   1      15.162   0.526  11.784  0.00  0.00     0.210 HD
ENDBRANCH   3  12
ENDBRANCH   2   3
ENDBRANCH   1   2
BRANCH   1  14
ATOM     14  C14 <0> d   1      17.938  -2.949  10.934  0.00  0.00     0.077 A 
ATOM     15  C19 <0> d   1      18.310  -2.817   9.606  0.00  0.00     0.002 A 
ATOM     16  C18 <0> d   1      19.147  -3.757   9.024  0.00  0.00     0.043 A 
ATOM     17  C20 <0> d   1      17.817  -1.647   8.795  0.00  0.00     0.053 C 
ATOM     18  C17 <0> d   1      19.603  -4.837   9.771  0.00  0.00     0.030 A 
ATOM     19  N24 <0> d   1      19.527  -3.620   7.685  0.00  0.00    -0.327 N 
ATOM     20  C16 <0> d   1      19.225  -4.969  11.093  0.00  0.00     0.005 A 
ATOM     21  C15 <0> d   1      18.395  -4.030  11.676  0.00  0.00     0.037 A 
ATOM     22  C22 <0> d   1      19.419  -2.428   7.066  0.00  0.00     0.222 C 
ATOM     23  H46 <0> d   1      19.876  -4.385   7.202  0.00  0.00     0.169 HD
ATOM     24  C21 <0> d   1      18.898  -1.223   7.800  0.00  0.00     0.108 C 
ATOM     25  O23 <0> d   1      19.744  -2.327   5.901  0.00  0.00    -0.273 OA
ENDBRANCH   1  14
TORSDOF 7
ENDMDL
MODEL 6
REMARK VINA RESULT:      -6.6      4.957      7.909
REMARK  7 active torsions:
REMARK  status: ('A' for Active; 'I' for Inactive)
REMARK    1  A    between atoms: C2_2  and  N5_5 
REMARK    2  A    between atoms: N5_5  and  C8_8 
REMARK    3  A    between atoms: C8_8  and  C9_9 
REMARK    4  A    between atoms: C9_9  and  O11_10 
REMARK    5  A    between atoms: C9_9  and  C12_11 
REMARK    6  A    between atoms: C12_11  and  O13_12 
REMARK    7  A    between atoms: O13_12  and  C14_13 
ROOT
ATOM      1  O13 <0> d   1      19.618   2.080  12.174  0.00  0.00    -0.348 OA
ENDROOT
BRANCH   1   2
ATOM      2  C12 <0> d   1      19.127   0.737  12.153  0.00  0.00     0.209 C 
BRANCH   2   3
ATOM      3  C9  <0> d   1      20.264  -0.214  11.774  0.00  0.00     0.168 C 
BRANCH   3   4
ATOM      4  C8  <0> d   1      20.061  -0.703  10.338  0.00  0.00     0.267 C 
BRANCH   4   5
ATOM      5  N5  <0> d   1      20.014   0.451   9.431  0.00  0.00    -0.065 N 
ATOM      6  H6  <0> d   1      20.920   0.585   9.007  0.00  0.00     0.278 HD
ATOM      7  H7  <0> d   1      19.761   1.278   9.951  0.00  0.00     0.278 HD
BRANCH   5   8
ATOM      8  C2  <0> d   1      19.015   0.209   8.381  0.00  0.00     0.115 C 
ATOM      9  C1  <0> d   1      17.615   0.210   8.999  0.00  0.00     0.045 C 
ATOM     10  C3  <0> d   1      19.283  -1.148   7.726  0.00  0.00     0.045 C 
ATOM     11  C4  <0> d   1      19.107   1.311   7.325  0.00  0.00     0.045 C 
ENDBRANCH   5   8
ENDBRANCH   4   5
ENDBRANCH   3   4
BRANCH   3  12
ATOM     12  O11 <0> d   1      21.513   0.473  11.871  0.00  0.00    -0.392 OA
ATOM     13  H36 <0> d   1      22.241   0.034  11.409  0.00  0.00     0.210 HD
ENDBRANCH   3  12
ENDBRANCH   2   3
ENDBRANCH   1   2
BRANCH   1  14
ATOM     14  C14 <0> d   1      18.752   3.059  11.804  0.00  0.00     0.077 A 
ATOM     15  C19 <0> d   1      17.983   3.703  12.759  0.00  0.00     0.002 A 
ATOM     16  C18 <0> d   1      17.103   4.706  12.380  0.00  0.00     0.043 A 
ATOM     17  C20 <0> d   1      18.106   3.324  14.212  0.00  0.00     0.053 C 
ATOM     18  C17 <0> d   1      16.988   5.057  11.040  0.00  0.00     0.030 A 
ATOM     19  N24 <0> d   1      16.331   5.360  13.345  0.00  0.00    -0.327 N 
ATOM     20  C16 <0> d   1      17.752   4.408  10.089  0.00  0.00     0.005 A 
ATOM     21  C15 <0> d   1      18.632   3.412  10.466  0.00  0.00     0.037 A 
ATOM     22  C22 <0> d   1      16.684   5.313  14.644  0.00  0.00     0.222 C 
ATOM     23  H46 <0> d   1      15.541   5.855  13.077  0.00  0.00     0.169 HD
ATOM     24  C21 <0> d   1      17.914   4.567  15.082  0.00  0.00     0.108 C 
ATOM     25  O23 <0> d   1      15.998   5.877  15.471  0.00  0.00    -0.273 OA
ENDBRANCH   1  14
TORSDOF 7
ENDMDL
MODEL 7
REMARK VINA RESULT:      -6.5      2.864      3.943
REMARK  7 active torsions:
REMARK  status: ('A' for Active; 'I' for Inactive)
REMARK    1  A    between atoms: C2_2  and  N5_5 
REMARK    2  A    between atoms: N5_5  and  C8_8 
REMARK    3  A    between atoms: C8_8  and  C9_9 
REMARK    4  A    between atoms: C9_9  and  O11_10 
REMARK    5  A    between atoms: C9_9  and  C12_11 
REMARK    6  A    between atoms: C12_11  and  O13_12 
REMARK    7  A    between atoms: O13_12  and  C14_13 
ROOT
ATOM      1  O13 <0> d   1      19.630   1.489  10.033  0.00  0.00    -0.348 OA
ENDROOT
BRANCH   1   2
ATOM      2  C12 <0> d   1      18.916   2.686  10.349  0.00  0.00     0.209 C 
BRANCH   2   3
ATOM      3  C9  <0> d   1      19.433   3.252  11.674  0.00  0.00     0.168 C 
BRANCH   3   4
ATOM      4  C8  <0> d   1      18.773   2.509  12.837  0.00  0.00     0.267 C 
BRANCH   4   5
ATOM      5  N5  <0> d   1      19.237   1.115  12.853  0.00  0.00    -0.065 N 
ATOM      6  H6  <0> d   1      20.022   1.028  13.480  0.00  0.00     0.278 HD
ATOM      7  H7  <0> d   1      19.517   0.843  11.923  0.00  0.00     0.278 HD
BRANCH   5   8
ATOM      8  C2  <0> d   1      18.147   0.242  13.310  0.00  0.00     0.115 C 
ATOM      9  C1  <0> d   1      17.049   0.196  12.246  0.00  0.00     0.045 C 
ATOM     10  C3  <0> d   1      17.568   0.790  14.617  0.00  0.00     0.045 C 
ATOM     11  C4  <0> d   1      18.689  -1.169  13.546  0.00  0.00     0.045 C 
ENDBRANCH   5   8
ENDBRANCH   4   5
ENDBRANCH   3   4
BRANCH   3  12
ATOM     12  O11 <0> d   1      20.850   3.083  11.743  0.00  0.00    -0.392 OA
ATOM     13  H36 <0> d   1      21.266   3.545  12.485  0.00  0.00     0.210 HD
ENDBRANCH   3  12
ENDBRANCH   2   3
ENDBRANCH   1   2
BRANCH   1  14
ATOM     14  C14 <0> d   1      19.371   0.917   8.828  0.00  0.00     0.077 A 
ATOM     15  C19 <0> d   1      19.324  -0.463   8.710  0.00  0.00     0.002 A 
ATOM     16  C18 <0> d   1      19.055  -1.045   7.480  0.00  0.00     0.043 A 
ATOM     17  C20 <0> d   1      19.555  -1.334   9.917  0.00  0.00     0.053 C 
ATOM     18  C17 <0> d   1      18.843  -0.242   6.366  0.00  0.00     0.030 A 
ATOM     19  N24 <0> d   1      19.003  -2.437   7.363  0.00  0.00    -0.327 N 
ATOM     20  C16 <0> d   1      18.896   1.133   6.485  0.00  0.00     0.005 A 
ATOM     21  C15 <0> d   1      19.159   1.714   7.712  0.00  0.00     0.037 A 
ATOM     22  C22 <0> d   1      18.830  -3.206   8.455  0.00  0.00     0.222 C 
ATOM     23  H46 <0> d   1      19.084  -2.851   6.490  0.00  0.00     0.169 HD
ATOM     24  C21 <0> d   1      18.682  -2.586   9.818  0.00  0.00     0.108 C 
ATOM     25  O23 <0> d   1      18.796  -4.413   8.339  0.00  0.00    -0.273 OA
ENDBRANCH   1  14
TORSDOF 7
ENDMDL
MODEL 8
REMARK VINA RESULT:      -6.5      3.976      5.378
REMARK  7 active torsions:
REMARK  status: ('A' for Active; 'I' for Inactive)
REMARK    1  A    between atoms: C2_2  and  N5_5 
REMARK    2  A    between atoms: N5_5  and  C8_8 
REMARK    3  A    between atoms: C8_8  and  C9_9 
REMARK    4  A    between atoms: C9_9  and  O11_10 
REMARK    5  A    between atoms: C9_9  and  C12_11 
REMARK    6  A    between atoms: C12_11  and  O13_12 
REMARK    7  A    between atoms: O13_12  and  C14_13 
ROOT
ATOM      1  O13 <0> d   1      17.329   1.740  11.871  0.00  0.00    -0.348 OA
ENDROOT
BRANCH   1   2
ATOM      2  C12 <0> d   1      17.799   2.875  12.602  0.00  0.00     0.209 C 
BRANCH   2   3
ATOM      3  C9  <0> d   1      18.600   2.402  13.816  0.00  0.00     0.168 C 
BRANCH   3   4
ATOM      4  C8  <0> d   1      17.816   1.313  14.551  0.00  0.00     0.267 C 
BRANCH   4   5
ATOM      5  N5  <0> d   1      18.106   1.387  15.989  0.00  0.00    -0.065 N 
ATOM      6  H6  <0> d   1      17.350   1.858  16.463  0.00  0.00     0.278 HD
ATOM      7  H7  <0> d   1      18.963   1.899  16.133  0.00  0.00     0.278 HD
BRANCH   5   8
ATOM      8  C2  <0> d   1      18.252   0.028  16.530  0.00  0.00     0.115 C 
ATOM      9  C1  <0> d   1      18.912  -0.870  15.482  0.00  0.00     0.045 C 
ATOM     10  C3  <0> d   1      16.872  -0.530  16.884  0.00  0.00     0.045 C 
ATOM     11  C4  <0> d   1      19.122   0.070  17.787  0.00  0.00     0.045 C 
ENDBRANCH   5   8
ENDBRANCH   4   5
ENDBRANCH   3   4
BRANCH   3  12
ATOM     12  O11 <0> d   1      19.855   1.874  13.382  0.00  0.00    -0.392 OA
ATOM     13  H36 <0> d   1      19.838   1.502  12.490  0.00  0.00     0.210 HD
ENDBRANCH   3  12
ENDBRANCH   2   3
ENDBRANCH   1   2
BRANCH   1  14
ATOM     14  C14 <0> d   1      18.031   1.388  10.762  0.00  0.00     0.077 A 
ATOM     15  C19 <0> d   1      18.420   0.071  10.575  0.00  0.00     0.002 A 
ATOM     16  C18 <0> d   1      19.132  -0.287   9.440  0.00  0.00     0.043 A 
ATOM     17  C20 <0> d   1      18.064  -0.975  11.599  0.00  0.00     0.053 C 
ATOM     18  C17 <0> d   1      19.462   0.678   8.496  0.00  0.00     0.030 A 
ATOM     19  N24 <0> d   1      19.520  -1.617   9.250  0.00  0.00    -0.327 N 
ATOM     20  C16 <0> d   1      19.078   1.991   8.687  0.00  0.00     0.005 A 
ATOM     21  C15 <0> d   1      18.364   2.348   9.816  0.00  0.00     0.037 A 
ATOM     22  C22 <0> d   1      18.909  -2.607   9.929  0.00  0.00     0.222 C 
ATOM     23  H46 <0> d   1      20.227  -1.828   8.621  0.00  0.00     0.169 HD
ATOM     24  C21 <0> d   1      17.796  -2.307  10.895  0.00  0.00     0.108 C 
ATOM     25  O23 <0> d   1      19.263  -3.756   9.760  0.00  0.00    -0.273 OA
ENDBRANCH   1  14
TORSDOF 7
ENDMDL
MODEL 9
REMARK VINA RESULT:      -6.4      3.514      7.315
REMARK  7 active torsions:
REMARK  status: ('A' for Active; 'I' for Inactive)
REMARK    1  A    between atoms: C2_2  and  N5_5 
REMARK    2  A    between atoms: N5_5  and  C8_8 
REMARK    3  A    between atoms: C8_8  and  C9_9 
REMARK    4  A    between atoms: C9_9  and  O11_10 
REMARK    5  A    between atoms: C9_9  and  C12_11 
REMARK    6  A    between atoms: C12_11  and  O13_12 
REMARK    7  A    between atoms: O13_12  and  C14_13 
ROOT
ATOM      1  O13 <0> d   1      19.733  -1.441  12.643  0.00  0.00    -0.348 OA
ENDROOT
BRANCH   1   2
ATOM      2  C12 <0> d   1      18.804  -2.442  12.223  0.00  0.00     0.209 C 
BRANCH   2   3
ATOM      3  C9  <0> d   1      19.436  -3.290  11.117  0.00  0.00     0.168 C 
BRANCH   3   4
ATOM      4  C8  <0> d   1      19.051  -2.716   9.752  0.00  0.00     0.267 C 
BRANCH   4   5
ATOM      5  N5  <0> d   1      19.618  -1.368   9.612  0.00  0.00    -0.065 N 
ATOM      6  H6  <0> d   1      20.487  -1.418   9.102  0.00  0.00     0.278 HD
ATOM      7  H7  <0> d   1      19.787  -0.977  10.526  0.00  0.00     0.278 HD
BRANCH   5   8
ATOM      8  C2  <0> d   1      18.672  -0.512   8.881  0.00  0.00     0.115 C 
ATOM      9  C1  <0> d   1      17.490  -0.167   9.790  0.00  0.00     0.045 C 
ATOM     10  C3  <0> d   1      18.164  -1.255   7.643  0.00  0.00     0.045 C 
ATOM     11  C4  <0> d   1      19.377   0.775   8.449  0.00  0.00     0.045 C 
ENDBRANCH   5   8
ENDBRANCH   4   5
ENDBRANCH   3   4
BRANCH   3  12
ATOM     12  O11 <0> d   1      20.858  -3.273  11.257  0.00  0.00    -0.392 OA
ATOM     13  H36 <0> d   1      21.166  -3.428  12.161  0.00  0.00     0.210 HD
ENDBRANCH   3  12
ENDBRANCH   2   3
ENDBRANCH   1   2
BRANCH   1  14
ATOM     14  C14 <0> d   1      19.312  -0.570  13.598  0.00  0.00     0.077 A 
ATOM     15  C19 <0> d   1      19.431   0.795  13.394  0.00  0.00     0.002 A 
ATOM     16  C18 <0> d   1      18.995   1.681  14.368  0.00  0.00     0.043 A 
ATOM     17  C20 <0> d   1      20.025   1.320  12.113  0.00  0.00     0.053 C 
ATOM     18  C17 <0> d   1      18.449   1.198  15.551  0.00  0.00     0.030 A 
ATOM     19  N24 <0> d   1      19.112   3.060  14.159  0.00  0.00    -0.327 N 
ATOM     20  C16 <0> d   1      18.337  -0.163  15.753  0.00  0.00     0.005 A 
ATOM     21  C15 <0> d   1      18.766  -1.048  14.781  0.00  0.00     0.037 A 
ATOM     22  C22 <0> d   1      19.276   3.548  12.915  0.00  0.00     0.222 C 
ATOM     23  H46 <0> d   1      19.066   3.667  14.914  0.00  0.00     0.169 HD
ATOM     24  C21 <0> d   1      19.330   2.627  11.727  0.00  0.00     0.108 C 
ATOM     25  O23 <0> d   1      19.384   4.745  12.751  0.00  0.00    -0.273 OA
ENDBRANCH   1  14
TORSDOF 7
ENDMDL
