MODEL 1
REMARK VINA RESULT:      -8.6      0.000      0.000
REMARK  5 active torsions:
REMARK  status: ('A' for Active; 'I' for Inactive)
REMARK    1  A    between atoms: O1_1  and  C2_2 
REMARK    2  A    between atoms: N9_8  and  C11_10 
REMARK    3  A    between atoms: C11_10  and  C12_11 
REMARK    4  A    between atoms: C24_22  and  O26_23 
REMARK    5  A    between atoms: C29_26  and  O30_27 
ROOT
ATOM      1  C2  <0> d   1      19.563   3.410  11.805  0.00  0.00     0.099 A 
ATOM      2  C3  <0> d   1      18.525   3.772  10.950  0.00  0.00     0.040 A 
ATOM      3  C4  <0> d   1      17.755   2.851  10.258  0.00  0.00     0.011 A 
ATOM      4  C5  <0> d   1      18.006   1.496  10.386  0.00  0.00    -0.046 A 
ATOM      5  C6  <0> d   1      17.179   0.412   9.776  0.00  0.00     0.075 C 
ATOM      6  C7  <0> d   1      17.720  -0.981  10.045  0.00  0.00     0.227 C 
ATOM      7  N9  <0> d   1      18.676  -1.374   9.001  0.00  0.00    -0.063 N 
ATOM      8  H10 <0> d   1      18.952  -2.332   9.149  0.00  0.00     0.280 HD
ATOM      9  C16 <0> d   1      19.866  -0.520   9.028  0.00  0.00     0.236 C 
ATOM     10  C17 <0> d   1      20.580  -0.639  10.381  0.00  0.00     0.048 C 
ATOM     11  C18 <0> d   1      19.586  -0.235  11.472  0.00  0.00     0.054 C 
ATOM     12  C19 <0> d   1      19.078   1.157  11.178  0.00  0.00    -0.001 A 
ATOM     13  C20 <0> d   1      19.839   2.044  11.928  0.00  0.00     0.110 A 
ATOM     14  O21 <0> d   1      20.719   1.367  12.697  0.00  0.00    -0.339 OA
ATOM     15  C22 <0> d   1      20.256  -0.020  12.817  0.00  0.00     0.174 C 
ATOM     16  C24 <0> d   1      19.331  -0.064  14.016  0.00  0.00     0.148 C 
ATOM     17  C27 <0> d   1      18.155  -1.007  13.898  0.00  0.00     0.037 C 
ATOM     18  C28 <0> d   1      17.401  -0.800  12.585  0.00  0.00     0.043 C 
ATOM     19  C29 <0> d   1      18.397  -1.146  11.404  0.00  0.00     0.101 C 
ENDROOT
BRANCH   7  20
ATOM     20  C11 <0> d   1      18.029  -1.255   7.689  0.00  0.00     0.240 C 
BRANCH  20  21
ATOM     21  C12 <0> d   1      18.959  -0.512   6.727  0.00  0.00     0.011 C 
ATOM     22  C15 <0> d   1      18.239   0.532   5.857  0.00  0.00     0.006 C 
ATOM     23  C14 <0> d   1      19.134   0.066   4.697  0.00  0.00     0.001 C 
ATOM     24  C13 <0> d   1      19.247  -1.282   5.429  0.00  0.00     0.006 C 
ENDBRANCH  20  21
ENDBRANCH   7  20
BRANCH  19  25
ATOM     25  O30 <0> d   1      18.843  -2.497  11.544  0.00  0.00    -0.386 OA
ATOM     26  H54 <0> d   1      18.938  -2.786  12.461  0.00  0.00     0.210 HD
ENDBRANCH  19  25
BRANCH  16  27
ATOM     27  O26 <0> d   1      18.824   1.253  14.239  0.00  0.00    -0.393 OA
ATOM     28  H49 <0> d   1      18.593   1.435  15.160  0.00  0.00     0.210 HD
ENDBRANCH  16  27
BRANCH   1  29
ATOM     29  O1  <0> d   1      20.279   4.343  12.487  0.00  0.00    -0.358 OA
ATOM     30  H31 <0> d   1      20.227   4.254  13.448  0.00  0.00     0.217 HD
ENDBRANCH   1  29
TORSDOF 5
ENDMDL
MODEL 2
REMARK VINA RESULT:      -7.9      2.335      6.429
REMARK  5 active torsions:
REMARK  status: ('A' for Active; 'I' for Inactive)
REMARK    1  A    between atoms: O1_1  and  C2_2 
REMARK    2  A    between atoms: N9_8  and  C11_10 
REMARK    3  A    between atoms: C11_10  and  C12_11 
REMARK    4  A    between atoms: C24_22  and  O26_23 
REMARK    5  A    between atoms: C29_26  and  O30_27 
ROOT
ATOM      1  C2  <0> d   1      19.144  -2.959  10.397  0.00  0.00     0.099 A 
ATOM      2  C3  <0> d   1      18.025  -3.276  11.163  0.00  0.00     0.040 A 
ATOM      3  C4  <0> d   1      17.367  -2.356  11.963  0.00  0.00     0.011 A 
ATOM      4  C5  <0> d   1      17.821  -1.052  12.043  0.00  0.00    -0.046 A 
ATOM      5  C6  <0> d   1      17.135   0.049  12.786  0.00  0.00     0.075 C 
ATOM      6  C7  <0> d   1      17.887   1.366  12.738  0.00  0.00     0.227 C 
ATOM      7  N9  <0> d   1      18.840   1.456  13.853  0.00  0.00    -0.063 N 
ATOM      8  H10 <0> d   1      19.261   2.373  13.855  0.00  0.00     0.280 HD
ATOM      9  C16 <0> d   1      19.892   0.444  13.731  0.00  0.00     0.236 C 
ATOM     10  C17 <0> d   1      20.678   0.643  12.428  0.00  0.00     0.048 C 
ATOM     11  C18 <0> d   1      19.688   0.555  11.265  0.00  0.00     0.054 C 
ATOM     12  C19 <0> d   1      18.968  -0.771  11.337  0.00  0.00    -0.001 A 
ATOM     13  C20 <0> d   1      19.623  -1.648  10.484  0.00  0.00     0.110 A 
ATOM     14  O21 <0> d   1      20.629  -1.011   9.845  0.00  0.00    -0.339 OA
ATOM     15  C22 <0> d   1      20.381   0.433   9.920  0.00  0.00     0.174 C 
ATOM     16  C24 <0> d   1      19.531   0.788   8.718  0.00  0.00     0.148 C 
ATOM     17  C27 <0> d   1      18.502   1.872   8.944  0.00  0.00     0.037 C 
ATOM     18  C28 <0> d   1      17.665   1.599  10.192  0.00  0.00     0.043 C 
ATOM     19  C29 <0> d   1      18.645   1.618  11.436  0.00  0.00     0.101 C 
ENDROOT
BRANCH   7  20
ATOM     20  C11 <0> d   1      18.122   1.253  15.117  0.00  0.00     0.240 C 
BRANCH  20  21
ATOM     21  C12 <0> d   1      18.923   0.305  16.012  0.00  0.00     0.011 C 
ATOM     22  C15 <0> d   1      18.057  -0.737  16.738  0.00  0.00     0.006 C 
ATOM     23  C14 <0> d   1      18.952  -0.509  17.968  0.00  0.00     0.001 C 
ATOM     24  C13 <0> d   1      19.244   0.890  17.397  0.00  0.00     0.006 C 
ENDBRANCH  20  21
ENDBRANCH   7  20
BRANCH  19  25
ATOM     25  O30 <0> d   1      19.290   2.891  11.509  0.00  0.00    -0.386 OA
ATOM     26  H54 <0> d   1      19.140   3.360  12.341  0.00  0.00     0.210 HD
ENDBRANCH  19  25
BRANCH  16  27
ATOM     27  O26 <0> d   1      18.846  -0.391   8.290  0.00  0.00    -0.393 OA
ATOM     28  H49 <0> d   1      19.385  -1.194   8.327  0.00  0.00     0.210 HD
ENDBRANCH  16  27
BRANCH   1  29
ATOM     29  O1  <0> d   1      19.747  -3.885   9.603  0.00  0.00    -0.358 OA
ATOM     30  H31 <0> d   1      19.918  -3.578   8.702  0.00  0.00     0.217 HD
ENDBRANCH   1  29
TORSDOF 5
ENDMDL
MODEL 3
REMARK VINA RESULT:      -7.8      2.227      5.669
REMARK  5 active torsions:
REMARK  status: ('A' for Active; 'I' for Inactive)
REMARK    1  A    between atoms: O1_1  and  C2_2 
REMARK    2  A    between atoms: N9_8  and  C11_10 
REMARK    3  A    between atoms: C11_10  and  C12_11 
REMARK    4  A    between atoms: C24_22  and  O26_23 
REMARK    5  A    between atoms: C29_26  and  O30_27 
ROOT
ATOM      1  C2  <0> d   1      18.287   3.754  10.805  0.00  0.00     0.099 A 
ATOM      2  C3  <0> d   1      19.152   4.027  11.862  0.00  0.00     0.040 A 
ATOM      3  C4  <0> d   1      19.741   3.039  12.635  0.00  0.00     0.011 A 
ATOM      4  C5  <0> d   1      19.471   1.706  12.386  0.00  0.00    -0.046 A 
ATOM      5  C6  <0> d   1      20.127   0.557  13.081  0.00  0.00     0.075 C 
ATOM      6  C7  <0> d   1      19.600  -0.796  12.636  0.00  0.00     0.227 C 
ATOM      7  N9  <0> d   1      18.447  -1.195  13.453  0.00  0.00    -0.063 N 
ATOM      8  H10 <0> d   1      18.171  -2.132  13.202  0.00  0.00     0.280 HD
ATOM      9  C16 <0> d   1      17.314  -0.288  13.248  0.00  0.00     0.236 C 
ATOM     10  C17 <0> d   1      16.872  -0.309  11.778  0.00  0.00     0.048 C 
ATOM     11  C18 <0> d   1      18.072   0.102  10.922  0.00  0.00     0.054 C 
ATOM     12  C19 <0> d   1      18.562   1.454  11.386  0.00  0.00    -0.001 A 
ATOM     13  C20 <0> d   1      17.993   2.410  10.555  0.00  0.00     0.110 A 
ATOM     14  O21 <0> d   1      17.255   1.811   9.594  0.00  0.00    -0.339 OA
ATOM     15  C22 <0> d   1      17.684   0.412   9.488  0.00  0.00     0.174 C 
ATOM     16  C24 <0> d   1      18.821   0.384   8.488  0.00  0.00     0.148 C 
ATOM     17  C27 <0> d   1      19.919  -0.615   8.776  0.00  0.00     0.037 C 
ATOM     18  C28 <0> d   1      20.411  -0.507  10.218  0.00  0.00     0.043 C 
ATOM     19  C29 <0> d   1      19.193  -0.864  11.165  0.00  0.00     0.101 C 
ENDROOT
BRANCH   7  20
ATOM     20  C11 <0> d   1      18.831  -1.169  14.870  0.00  0.00     0.240 C 
BRANCH  20  21
ATOM     21  C12 <0> d   1      17.847  -0.294  15.650  0.00  0.00     0.011 C 
ATOM     22  C15 <0> d   1      18.529   0.696  16.608  0.00  0.00     0.006 C 
ATOM     23  C14 <0> d   1      17.409   0.375  17.612  0.00  0.00     0.001 C 
ATOM     24  C13 <0> d   1      17.265  -0.979  16.896  0.00  0.00     0.006 C 
ENDBRANCH  20  21
ENDBRANCH   7  20
BRANCH  19  25
ATOM     25  O30 <0> d   1      18.736  -2.185  10.867  0.00  0.00    -0.386 OA
ATOM     26  H54 <0> d   1      18.012  -2.487  11.434  0.00  0.00     0.210 HD
ENDBRANCH  19  25
BRANCH  16  27
ATOM     27  O26 <0> d   1      19.408   1.686   8.440  0.00  0.00    -0.393 OA
ATOM     28  H49 <0> d   1      19.578   2.008   7.545  0.00  0.00     0.210 HD
ENDBRANCH  16  27
BRANCH   1  29
ATOM     29  O1  <0> d   1      17.749   4.751  10.052  0.00  0.00    -0.358 OA
ATOM     30  H31 <0> d   1      17.091   4.448   9.412  0.00  0.00     0.217 HD
ENDBRANCH   1  29
TORSDOF 5
ENDMDL
MODEL 4
REMARK VINA RESULT:      -7.8      2.632      4.618
REMARK  5 active torsions:
REMARK  status: ('A' for Active; 'I' for Inactive)
REMARK    1  A    between atoms: O1_1  and  C2_2 
REMARK    2  A    between atoms: N9_8  and  C11_10 
REMARK    3  A    between atoms: C11_10  and  C12_11 
REMARK    4  A    between atoms: C24_22  and  O26_23 
REMARK    5  A    between atoms: C29_26  and  O30_27 
ROOT
ATOM      1  C2  <0> d   1      17.900   0.162  15.567  0.00  0.00     0.099 A 
ATOM      2  C3  <0> d   1      18.690  -0.977  15.706  0.00  0.00     0.040 A 
ATOM      3  C4  <0> d   1      19.343  -1.582  14.645  0.00  0.00     0.011 A 
ATOM      4  C5  <0> d   1      19.219  -1.069  13.366  0.00  0.00    -0.046 A 
ATOM      5  C6  <0> d   1      19.957  -1.571  12.168  0.00  0.00     0.075 C 
ATOM      6  C7  <0> d   1      19.587  -0.847  10.886  0.00  0.00     0.227 C 
ATOM      7  N9  <0> d   1      18.447  -1.505  10.233  0.00  0.00    -0.063 N 
ATOM      8  H10 <0> d   1      18.277  -1.064   9.342  0.00  0.00     0.280 HD
ATOM      9  C16 <0> d   1      17.239  -1.408  11.056  0.00  0.00     0.236 C 
ATOM     10  C17 <0> d   1      16.861   0.062  11.281  0.00  0.00     0.048 C 
ATOM     11  C18 <0> d   1      18.047   0.752  11.958  0.00  0.00     0.054 C 
ATOM     12  C19 <0> d   1      18.380   0.013  13.232  0.00  0.00    -0.001 A 
ATOM     13  C20 <0> d   1      17.752   0.679  14.276  0.00  0.00     0.110 A 
ATOM     14  O21 <0> d   1      17.117   1.777  13.811  0.00  0.00    -0.339 OA
ATOM     15  C22 <0> d   1      17.688   2.122  12.504  0.00  0.00     0.174 C 
ATOM     16  C24 <0> d   1      18.862   3.040  12.774  0.00  0.00     0.148 C 
ATOM     17  C27 <0> d   1      20.041   2.883  11.841  0.00  0.00     0.037 C 
ATOM     18  C28 <0> d   1      20.462   1.420  11.712  0.00  0.00     0.043 C 
ATOM     19  C29 <0> d   1      19.248   0.632  11.068  0.00  0.00     0.101 C 
ENDROOT
BRANCH   7  20
ATOM     20  C11 <0> d   1      18.769  -2.921  10.017  0.00  0.00     0.240 C 
BRANCH  20  21
ATOM     21  C12 <0> d   1      17.688  -3.793  10.658  0.00  0.00     0.011 C 
ATOM     22  C15 <0> d   1      18.239  -4.825  11.655  0.00  0.00     0.006 C 
ATOM     23  C14 <0> d   1      17.214  -5.815  11.077  0.00  0.00     0.001 C 
ATOM     24  C13 <0> d   1      17.257  -4.983   9.784  0.00  0.00     0.006 C 
ENDBRANCH  20  21
ENDBRANCH   7  20
BRANCH  19  25
ATOM     25  O30 <0> d   1      18.938   1.201   9.794  0.00  0.00    -0.386 OA
ATOM     26  H54 <0> d   1      19.701   1.584   9.340  0.00  0.00     0.210 HD
ENDBRANCH  19  25
BRANCH  16  27
ATOM     27  O26 <0> d   1      19.316   2.805  14.108  0.00  0.00    -0.393 OA
ATOM     28  H49 <0> d   1      19.083   3.506  14.732  0.00  0.00     0.210 HD
ENDBRANCH  16  27
BRANCH   1  29
ATOM     29  O1  <0> d   1      17.296   0.742  16.638  0.00  0.00    -0.358 OA
ATOM     30  H31 <0> d   1      16.831   0.119  17.213  0.00  0.00     0.217 HD
ENDBRANCH   1  29
TORSDOF 5
ENDMDL
MODEL 5
REMARK VINA RESULT:      -7.8      2.227      5.271
REMARK  5 active torsions:
REMARK  status: ('A' for Active; 'I' for Inactive)
REMARK    1  A    between atoms: O1_1  and  C2_2 
REMARK    2  A    between atoms: N9_8  and  C11_10 
REMARK    3  A    between atoms: C11_10  and  C12_11 
REMARK    4  A    between atoms: C24_22  and  O26_23 
REMARK    5  A    between atoms: C29_26  and  O30_27 
ROOT
ATOM      1  C2  <0> d   1      18.281  -1.843   7.347  0.00  0.00     0.099 A 
ATOM      2  C3  <0> d   1      19.054  -0.716   7.078  0.00  0.00     0.040 A 
ATOM      3  C4  <0> d   1      19.610   0.078   8.068  0.00  0.00     0.011 A 
ATOM      4  C5  <0> d   1      19.400  -0.222   9.402  0.00  0.00    -0.046 A 
ATOM      5  C6  <0> d   1      20.033   0.496  10.549  0.00  0.00     0.075 C 
ATOM      6  C7  <0> d   1      19.582  -0.020  11.904  0.00  0.00     0.227 C 
ATOM      7  N9  <0> d   1      18.381   0.696  12.355  0.00  0.00    -0.063 N 
ATOM      8  H10 <0> d   1      18.154   0.403  13.293  0.00  0.00     0.280 HD
ATOM      9  C16 <0> d   1      17.242   0.424  11.475  0.00  0.00     0.236 C 
ATOM     10  C17 <0> d   1      16.915  -1.075  11.471  0.00  0.00     0.048 C 
ATOM     11  C18 <0> d   1      18.165  -1.826  11.006  0.00  0.00     0.054 C 
ATOM     12  C19 <0> d   1      18.577  -1.295   9.653  0.00  0.00    -0.001 A 
ATOM     13  C20 <0> d   1      18.046  -2.145   8.693  0.00  0.00     0.110 A 
ATOM     14  O21 <0> d   1      17.402  -3.173   9.287  0.00  0.00    -0.339 OA
ATOM     15  C22 <0> d   1      17.878  -3.278  10.671  0.00  0.00     0.174 C 
ATOM     16  C24 <0> d   1      19.089  -4.188  10.643  0.00  0.00     0.148 C 
ATOM     17  C27 <0> d   1      20.190  -3.839  11.618  0.00  0.00     0.037 C 
ATOM     18  C28 <0> d   1      20.567  -2.361  11.532  0.00  0.00     0.043 C 
ATOM     19  C29 <0> d   1      19.291  -1.520  11.947  0.00  0.00     0.101 C 
ENDROOT
BRANCH   7  20
ATOM     20  C11 <0> d   1      18.655   2.139  12.355  0.00  0.00     0.240 C 
BRANCH  20  21
ATOM     21  C12 <0> d   1      17.617   2.854  11.487  0.00  0.00     0.011 C 
ATOM     22  C15 <0> d   1      18.224   3.585  10.277  0.00  0.00     0.006 C 
ATOM     23  C14 <0> d   1      17.225   4.719  10.561  0.00  0.00     0.001 C 
ATOM     24  C13 <0> d   1      17.214   4.238  12.022  0.00  0.00     0.006 C 
ENDBRANCH  20  21
ENDBRANCH   7  20
BRANCH  19  25
ATOM     25  O30 <0> d   1      18.897  -1.882  13.272  0.00  0.00    -0.386 OA
ATOM     26  H54 <0> d   1      17.947  -1.801  13.435  0.00  0.00     0.210 HD
ENDBRANCH  19  25
BRANCH  16  27
ATOM     27  O26 <0> d   1      19.639  -4.160   9.324  0.00  0.00    -0.393 OA
ATOM     28  H49 <0> d   1      19.134  -4.670   8.676  0.00  0.00     0.210 HD
ENDBRANCH  16  27
BRANCH   1  29
ATOM     29  O1  <0> d   1      17.773  -2.612   6.347  0.00  0.00    -0.358 OA
ATOM     30  H31 <0> d   1      16.860  -2.397   6.111  0.00  0.00     0.217 HD
ENDBRANCH   1  29
TORSDOF 5
ENDMDL
MODEL 6
REMARK VINA RESULT:      -7.5      1.491      3.634
REMARK  5 active torsions:
REMARK  status: ('A' for Active; 'I' for Inactive)
REMARK    1  A    between atoms: O1_1  and  C2_2 
REMARK    2  A    between atoms: N9_8  and  C11_10 
REMARK    3  A    between atoms: C11_10  and  C12_11 
REMARK    4  A    between atoms: C24_22  and  O26_23 
REMARK    5  A    between atoms: C29_26  and  O30_27 
ROOT
ATOM      1  C2  <0> d   1      18.363  -0.810  14.260  0.00  0.00     0.099 A 
ATOM      2  C3  <0> d   1      19.286  -1.761  13.833  0.00  0.00     0.040 A 
ATOM      3  C4  <0> d   1      19.892  -1.726  12.588  0.00  0.00     0.011 A 
ATOM      4  C5  <0> d   1      19.581  -0.720  11.690  0.00  0.00    -0.046 A 
ATOM      5  C6  <0> d   1      20.246  -0.520  10.367  0.00  0.00     0.075 C 
ATOM      6  C7  <0> d   1      19.668   0.637   9.572  0.00  0.00     0.227 C 
ATOM      7  N9  <0> d   1      18.550   0.181   8.736  0.00  0.00    -0.063 N 
ATOM      8  H10 <0> d   1      18.242   0.942   8.151  0.00  0.00     0.280 HD
ATOM      9  C16 <0> d   1      17.428  -0.279   9.559  0.00  0.00     0.236 C 
ATOM     10  C17 <0> d   1      16.912   0.863  10.445  0.00  0.00     0.048 C 
ATOM     11  C18 <0> d   1      18.075   1.344  11.315  0.00  0.00     0.054 C 
ATOM     12  C19 <0> d   1      18.617   0.171  12.098  0.00  0.00    -0.001 A 
ATOM     13  C20 <0> d   1      18.027   0.202  13.354  0.00  0.00     0.110 A 
ATOM     14  O21 <0> d   1      17.228   1.285  13.467  0.00  0.00    -0.339 OA
ATOM     15  C22 <0> d   1      17.620   2.257  12.439  0.00  0.00     0.174 C 
ATOM     16  C24 <0> d   1      18.704   3.119  13.052  0.00  0.00     0.148 C 
ATOM     17  C27 <0> d   1      19.793   3.570  12.105  0.00  0.00     0.037 C 
ATOM     18  C28 <0> d   1      20.360   2.398  11.306  0.00  0.00     0.043 C 
ATOM     19  C29 <0> d   1      19.185   1.811  10.422  0.00  0.00     0.101 C 
ENDROOT
BRANCH   7  20
ATOM     20  C11 <0> d   1      19.006  -0.926   7.886  0.00  0.00     0.240 C 
BRANCH  20  21
ATOM     21  C12 <0> d   1      18.442  -0.750   6.474  0.00  0.00     0.011 C 
ATOM     22  C15 <0> d   1      19.351  -1.320   5.372  0.00  0.00     0.006 C 
ATOM     23  C14 <0> d   1      18.985  -0.081   4.538  0.00  0.00     0.001 C 
ATOM     24  C13 <0> d   1      18.712   0.638   5.871  0.00  0.00     0.006 C 
ENDBRANCH  20  21
ENDBRANCH   7  20
BRANCH  19  25
ATOM     25  O30 <0> d   1      18.685   2.837   9.561  0.00  0.00    -0.386 OA
ATOM     26  H54 <0> d   1      17.816   3.175   9.818  0.00  0.00     0.210 HD
ENDBRANCH  19  25
BRANCH  16  27
ATOM     27  O26 <0> d   1      19.316   2.383  14.114  0.00  0.00    -0.393 OA
ATOM     28  H49 <0> d   1      18.940   2.565  14.986  0.00  0.00     0.210 HD
ENDBRANCH  16  27
BRANCH   1  29
ATOM     29  O1  <0> d   1      17.809  -0.864  15.501  0.00  0.00    -0.358 OA
ATOM     30  H31 <0> d   1      16.848  -0.756  15.508  0.00  0.00     0.217 HD
ENDBRANCH   1  29
TORSDOF 5
ENDMDL
MODEL 7
REMARK VINA RESULT:      -7.4      2.323      5.715
REMARK  5 active torsions:
REMARK  status: ('A' for Active; 'I' for Inactive)
REMARK    1  A    between atoms: O1_1  and  C2_2 
REMARK    2  A    between atoms: N9_8  and  C11_10 
REMARK    3  A    between atoms: C11_10  and  C12_11 
REMARK    4  A    between atoms: C24_22  and  O26_23 
REMARK    5  A    between atoms: C29_26  and  O30_27 
ROOT
ATOM      1  C2  <0> d   1      17.949  -0.282   7.021  0.00  0.00     0.099 A 
ATOM      2  C3  <0> d   1      18.632   0.864   6.622  0.00  0.00     0.040 A 
ATOM      3  C4  <0> d   1      19.252   1.726   7.511  0.00  0.00     0.011 A 
ATOM      4  C5  <0> d   1      19.202   1.479   8.872  0.00  0.00    -0.046 A 
ATOM      5  C6  <0> d   1      19.920   2.276   9.912  0.00  0.00     0.075 C 
ATOM      6  C7  <0> d   1      19.644   1.803  11.328  0.00  0.00     0.227 C 
ATOM      7  N9  <0> d   1      18.465   2.486  11.879  0.00  0.00    -0.063 N 
ATOM      8  H10 <0> d   1      18.355   2.226  12.847  0.00  0.00     0.280 HD
ATOM      9  C16 <0> d   1      17.252   2.123  11.142  0.00  0.00     0.236 C 
ATOM     10  C17 <0> d   1      17.001   0.612  11.235  0.00  0.00     0.048 C 
ATOM     11  C18 <0> d   1      18.228  -0.103  10.666  0.00  0.00     0.054 C 
ATOM     12  C19 <0> d   1      18.466   0.383   9.255  0.00  0.00    -0.001 A 
ATOM     13  C20 <0> d   1      17.876  -0.533   8.395  0.00  0.00     0.110 A 
ATOM     14  O21 <0> d   1      17.351  -1.561   9.098  0.00  0.00    -0.339 OA
ATOM     15  C22 <0> d   1      17.979  -1.580  10.424  0.00  0.00     0.174 C 
ATOM     16  C24 <0> d   1      19.223  -2.436  10.300  0.00  0.00     0.148 C 
ATOM     17  C27 <0> d   1      20.404  -1.994  11.133  0.00  0.00     0.037 C 
ATOM     18  C28 <0> d   1      20.697  -0.506  10.946  0.00  0.00     0.043 C 
ATOM     19  C29 <0> d   1      19.433   0.296  11.464  0.00  0.00     0.101 C 
ENDROOT
BRANCH   7  20
ATOM     20  C11 <0> d   1      18.666   3.937  11.790  0.00  0.00     0.240 C 
BRANCH  20  21
ATOM     21  C12 <0> d   1      18.394   4.575  13.154  0.00  0.00     0.011 C 
ATOM     22  C15 <0> d   1      19.628   5.248  13.776  0.00  0.00     0.006 C 
ATOM     23  C14 <0> d   1      19.164   4.675  15.125  0.00  0.00     0.001 C 
ATOM     24  C13 <0> d   1      18.446   3.576  14.322  0.00  0.00     0.006 C 
ENDBRANCH  20  21
ENDBRANCH   7  20
BRANCH  19  25
ATOM     25  O30 <0> d   1      19.203  -0.022  12.838  0.00  0.00    -0.386 OA
ATOM     26  H54 <0> d   1      19.804  -0.692  13.192  0.00  0.00     0.210 HD
ENDBRANCH  19  25
BRANCH  16  27
ATOM     27  O26 <0> d   1      19.625  -2.444   8.928  0.00  0.00    -0.393 OA
ATOM     28  H49 <0> d   1      19.641  -1.569   8.518  0.00  0.00     0.210 HD
ENDBRANCH  16  27
BRANCH   1  29
ATOM     29  O1  <0> d   1      17.375  -1.118   6.115  0.00  0.00    -0.358 OA
ATOM     30  H31 <0> d   1      17.999  -1.713   5.678  0.00  0.00     0.217 HD
ENDBRANCH   1  29
TORSDOF 5
ENDMDL
MODEL 8
REMARK VINA RESULT:      -7.3      2.675      5.890
REMARK  5 active torsions:
REMARK  status: ('A' for Active; 'I' for Inactive)
REMARK    1  A    between atoms: O1_1  and  C2_2 
REMARK    2  A    between atoms: N9_8  and  C11_10 
REMARK    3  A    between atoms: C11_10  and  C12_11 
REMARK    4  A    between atoms: C24_22  and  O26_23 
REMARK    5  A    between atoms: C29_26  and  O30_27 
ROOT
ATOM      1  C2  <0> d   1      18.531   0.692   7.931  0.00  0.00     0.099 A 
ATOM      2  C3  <0> d   1      19.376   1.712   8.362  0.00  0.00     0.040 A 
ATOM      3  C4  <0> d   1      19.837   1.817   9.664  0.00  0.00     0.011 A 
ATOM      4  C5  <0> d   1      19.450   0.891  10.617  0.00  0.00    -0.046 A 
ATOM      5  C6  <0> d   1      19.964   0.842  12.019  0.00  0.00     0.075 C 
ATOM      6  C7  <0> d   1      19.327  -0.254  12.855  0.00  0.00     0.227 C 
ATOM      7  N9  <0> d   1      18.110   0.240  13.512  0.00  0.00    -0.063 N 
ATOM      8  H10 <0> d   1      17.755  -0.473  14.131  0.00  0.00     0.280 HD
ATOM      9  C16 <0> d   1      17.079   0.580  12.528  0.00  0.00     0.236 C 
ATOM     10  C17 <0> d   1      16.695  -0.659  11.707  0.00  0.00     0.048 C 
ATOM     11  C18 <0> d   1      17.961  -1.180  11.024  0.00  0.00     0.054 C 
ATOM     12  C19 <0> d   1      18.560  -0.068  10.194  0.00  0.00    -0.001 A 
ATOM     13  C20 <0> d   1      18.119  -0.239   8.889  0.00  0.00     0.110 A 
ATOM     14  O21 <0> d   1      17.365  -1.356   8.796  0.00  0.00    -0.339 OA
ATOM     15  C22 <0> d   1      17.660  -2.211   9.952  0.00  0.00     0.174 C 
ATOM     16  C24 <0> d   1      18.828  -3.089   9.551  0.00  0.00     0.148 C 
ATOM     17  C27 <0> d   1      19.812  -3.408  10.653  0.00  0.00     0.037 C 
ATOM     18  C28 <0> d   1      20.256  -2.146  11.391  0.00  0.00     0.043 C 
ATOM     19  C29 <0> d   1      18.973  -1.520  12.077  0.00  0.00     0.101 C 
ENDROOT
BRANCH   7  20
ATOM     20  C11 <0> d   1      18.439   1.438  14.295  0.00  0.00     0.240 C 
BRANCH  20  21
ATOM     21  C12 <0> d   1      18.010   1.231  15.749  0.00  0.00     0.011 C 
ATOM     22  C15 <0> d   1      19.173   0.877  16.690  0.00  0.00     0.006 C 
ATOM     23  C14 <0> d   1      18.219  -0.119  17.368  0.00  0.00     0.001 C 
ATOM     24  C13 <0> d   1      17.455  -0.174  16.034  0.00  0.00     0.006 C 
ENDBRANCH  20  21
ENDBRANCH   7  20
BRANCH  19  25
ATOM     25  O30 <0> d   1      18.403  -2.476  12.973  0.00  0.00    -0.386 OA
ATOM     26  H54 <0> d   1      17.954  -3.209  12.531  0.00  0.00     0.210 HD
ENDBRANCH  19  25
BRANCH  16  27
ATOM     27  O26 <0> d   1      19.538  -2.436   8.497  0.00  0.00    -0.393 OA
ATOM     28  H49 <0> d   1      19.690  -2.993   7.721  0.00  0.00     0.210 HD
ENDBRANCH  16  27
BRANCH   1  29
ATOM     29  O1  <0> d   1      18.122   0.609   6.637  0.00  0.00    -0.358 OA
ATOM     30  H31 <0> d   1      18.669   0.030   6.088  0.00  0.00     0.217 HD
ENDBRANCH   1  29
TORSDOF 5
ENDMDL
MODEL 9
REMARK VINA RESULT:      -7.3      1.881      4.251
REMARK  5 active torsions:
REMARK  status: ('A' for Active; 'I' for Inactive)
REMARK    1  A    between atoms: O1_1  and  C2_2 
REMARK    2  A    between atoms: N9_8  and  C11_10 
REMARK    3  A    between atoms: C11_10  and  C12_11 
REMARK    4  A    between atoms: C24_22  and  O26_23 
REMARK    5  A    between atoms: C29_26  and  O30_27 
ROOT
ATOM      1  C2  <0> d   1      17.623  -3.908  11.220  0.00  0.00     0.099 A 
ATOM      2  C3  <0> d   1      18.402  -4.441  10.196  0.00  0.00     0.040 A 
ATOM      3  C4  <0> d   1      19.156  -3.663   9.333  0.00  0.00     0.011 A 
ATOM      4  C5  <0> d   1      19.151  -2.284   9.452  0.00  0.00    -0.046 A 
ATOM      5  C6  <0> d   1      20.002  -1.354   8.651  0.00  0.00     0.075 C 
ATOM      6  C7  <0> d   1      19.751   0.111   8.963  0.00  0.00     0.227 C 
ATOM      7  N9  <0> d   1      18.682   0.644   8.108  0.00  0.00    -0.063 N 
ATOM      8  H10 <0> d   1      18.595   1.636   8.267  0.00  0.00     0.280 HD
ATOM      9  C16 <0> d   1      17.400  -0.005   8.397  0.00  0.00     0.236 C 
ATOM     10  C17 <0> d   1      16.995   0.239   9.857  0.00  0.00     0.048 C 
ATOM     11  C18 <0> d   1      18.108  -0.311  10.751  0.00  0.00     0.054 C 
ATOM     12  C19 <0> d   1      18.322  -1.769  10.421  0.00  0.00    -0.001 A 
ATOM     13  C20 <0> d   1      17.595  -2.515  11.339  0.00  0.00     0.110 A 
ATOM     14  O21 <0> d   1      17.001  -1.697  12.235  0.00  0.00    -0.339 OA
ATOM     15  C22 <0> d   1      17.690  -0.403  12.208  0.00  0.00     0.174 C 
ATOM     16  C24 <0> d   1      18.828  -0.498  13.203  0.00  0.00     0.148 C 
ATOM     17  C27 <0> d   1      20.091   0.240  12.823  0.00  0.00     0.037 C 
ATOM     18  C28 <0> d   1      20.530  -0.098  11.399  0.00  0.00     0.043 C 
ATOM     19  C29 <0> d   1      19.388   0.395  10.419  0.00  0.00     0.101 C 
ENDROOT
BRANCH   7  20
ATOM     20  C11 <0> d   1      19.031   0.411   6.701  0.00  0.00     0.240 C 
BRANCH  20  21
ATOM     21  C12 <0> d   1      17.915  -0.389   6.024  0.00  0.00     0.011 C 
ATOM     22  C15 <0> d   1      18.317  -1.831   5.674  0.00  0.00     0.006 C 
ATOM     23  C14 <0> d   1      17.544  -1.643   4.358  0.00  0.00     0.001 C 
ATOM     24  C13 <0> d   1      17.804  -0.135   4.512  0.00  0.00     0.006 C 
ENDBRANCH  20  21
ENDBRANCH   7  20
BRANCH  19  25
ATOM     25  O30 <0> d   1      19.197   1.802  10.587  0.00  0.00    -0.386 OA
ATOM     26  H54 <0> d   1      18.682   2.037  11.371  0.00  0.00     0.210 HD
ENDBRANCH  19  25
BRANCH  16  27
ATOM     27  O26 <0> d   1      19.156  -1.879  13.377  0.00  0.00    -0.393 OA
ATOM     28  H49 <0> d   1      18.753  -2.283  14.158  0.00  0.00     0.210 HD
ENDBRANCH  16  27
BRANCH   1  29
ATOM     29  O1  <0> d   1      16.917  -4.707  12.064  0.00  0.00    -0.358 OA
ATOM     30  H31 <0> d   1      16.090  -5.042  11.689  0.00  0.00     0.217 HD
ENDBRANCH   1  29
TORSDOF 5
ENDMDL
