MODEL 1
REMARK VINA RESULT:      -6.8      0.000      0.000
REMARK  8 active torsions:
REMARK  status: ('A' for Active; 'I' for Inactive)
REMARK    1  A    between atoms: C2_2  and  N3_3 
REMARK    2  A    between atoms: N3_3  and  C6_6 
REMARK    3  A    between atoms: N9_8  and  C10_9 
REMARK    4  A    between atoms: C10_9  and  C11_10 
REMARK    5  A    between atoms: C11_10  and  C12_11 
REMARK    6  A    between atoms: C12_11  and  O13_12 
REMARK    7  A    between atoms: C21_20  and  S22_21 
REMARK    8  A    between atoms: S22_21  and  N23_22 
ROOT
ATOM      1  C6  <0> d   1      18.175  -0.511   8.104  0.00  0.00     0.239 C 
ATOM      2  C8  <0> d   1      17.247   0.239   9.049  0.00  0.00     0.173 C 
ATOM      3  N9  <0> d   1      17.876   0.402  10.372  0.00  0.00    -0.304 N 
ATOM      4  S15 <0> d   1      18.127  -1.012  11.229  0.00  0.00     0.268 S 
ATOM      5  O16 <0> d   1      19.262  -0.800  12.059  0.00  0.00    -0.200 OA
ATOM      6  O17 <0> d   1      16.862  -1.435  11.718  0.00  0.00    -0.200 OA
ATOM      7  C18 <0> d   1      18.612  -2.163   9.970  0.00  0.00     0.130 A 
ATOM      8  C19 <0> d   1      18.588  -1.864   8.656  0.00  0.00     0.006 A 
ATOM      9  C20 <0> d   1      18.993  -2.928   7.851  0.00  0.00     0.044 A 
ATOM     10  C21 <0> d   1      19.347  -4.039   8.488  0.00  0.00     0.121 A 
ATOM     11  S26 <0> d   1      19.175  -3.803  10.222  0.00  0.00    -0.062 SA
ENDROOT
BRANCH  10  12
ATOM     12  S22 <0> d   1      19.901  -5.522   7.715  0.00  0.00     0.263 S 
ATOM     13  O24 <0> d   1      19.873  -6.531   8.714  0.00  0.00    -0.200 OA
ATOM     14  O25 <0> d   1      19.192  -5.623   6.487  0.00  0.00    -0.200 OA
BRANCH  12  15
ATOM     15  N23 <0> d   1      21.494  -5.301   7.317  0.00  0.00    -0.324 N 
ATOM     16  H44 <0> d   1      21.820  -5.582   6.448  0.00  0.00     0.169 HD
ATOM     17  H45 <0> d   1      22.100  -4.892   7.954  0.00  0.00     0.169 HD
ENDBRANCH  12  15
ENDBRANCH  10  12
BRANCH   1  18
ATOM     18  N3  <0> d   1      17.489  -0.710   6.821  0.00  0.00    -0.066 N 
ATOM     19  H4  <0> d   1      16.492  -0.639   6.958  0.00  0.00     0.278 HD
ATOM     20  H5  <0> d   1      17.714  -1.625   6.457  0.00  0.00     0.278 HD
BRANCH  18  21
ATOM     21  C2  <0> d   1      17.927   0.317   5.867  0.00  0.00     0.228 C 
ATOM     22  C1  <0> d   1      19.147  -0.191   5.094  0.00  0.00     0.034 C 
ENDBRANCH  18  21
ENDBRANCH   1  18
BRANCH   3  23
ATOM     23  C10 <0> d   1      18.254   1.714  10.901  0.00  0.00     0.137 C 
BRANCH  23  24
ATOM     24  C11 <0> d   1      18.380   2.713   9.749  0.00  0.00     0.047 C 
BRANCH  24  25
ATOM     25  C12 <0> d   1      17.931   4.097  10.221  0.00  0.00     0.168 C 
BRANCH  25  26
ATOM     26  O13 <0> d   1      16.769   3.965  11.043  0.00  0.00    -0.396 OA
ATOM     27  C14 <0> d   1      16.565   5.059  11.939  0.00  0.00     0.201 C 
ENDBRANCH  25  26
ENDBRANCH  24  25
ENDBRANCH  23  24
ENDBRANCH   3  23
TORSDOF 8
ENDMDL
MODEL 2
REMARK VINA RESULT:      -6.7      3.423      5.006
REMARK  8 active torsions:
REMARK  status: ('A' for Active; 'I' for Inactive)
REMARK    1  A    between atoms: C2_2  and  N3_3 
REMARK    2  A    between atoms: N3_3  and  C6_6 
REMARK    3  A    between atoms: N9_8  and  C10_9 
REMARK    4  A    between atoms: C10_9  and  C11_10 
REMARK    5  A    between atoms: C11_10  and  C12_11 
REMARK    6  A    between atoms: C12_11  and  O13_12 
REMARK    7  A    between atoms: C21_20  and  S22_21 
REMARK    8  A    between atoms: S22_21  and  N23_22 
ROOT
ATOM      1  C6  <0> d   1      19.293  -1.718  10.911  0.00  0.00     0.239 C 
ATOM      2  C8  <0> d   1      19.653  -0.710  11.993  0.00  0.00     0.173 C 
ATOM      3  N9  <0> d   1      18.634   0.353  12.071  0.00  0.00    -0.304 N 
ATOM      4  S15 <0> d   1      18.526   1.349  10.731  0.00  0.00     0.268 S 
ATOM      5  O16 <0> d   1      17.181   1.802  10.656  0.00  0.00    -0.200 OA
ATOM      6  O17 <0> d   1      19.649   2.218  10.766  0.00  0.00    -0.200 OA
ATOM      7  C18 <0> d   1      18.774   0.228   9.379  0.00  0.00     0.130 A 
ATOM      8  C19 <0> d   1      19.114  -1.064   9.552  0.00  0.00     0.006 A 
ATOM      9  C20 <0> d   1      19.274  -1.748   8.347  0.00  0.00     0.044 A 
ATOM     10  C21 <0> d   1      19.057  -1.042   7.243  0.00  0.00     0.121 A 
ATOM     11  S26 <0> d   1      18.626   0.608   7.674  0.00  0.00    -0.062 SA
ENDROOT
BRANCH  10  12
ATOM     12  S22 <0> d   1      19.185  -1.661   5.599  0.00  0.00     0.263 S 
ATOM     13  O24 <0> d   1      19.814  -0.642   4.833  0.00  0.00    -0.200 OA
ATOM     14  O25 <0> d   1      19.697  -2.982   5.706  0.00  0.00    -0.200 OA
BRANCH  12  15
ATOM     15  N23 <0> d   1      17.643  -1.804   5.008  0.00  0.00    -0.324 N 
ATOM     16  H44 <0> d   1      17.459  -1.596   4.079  0.00  0.00     0.169 HD
ATOM     17  H45 <0> d   1      16.926  -2.095   5.591  0.00  0.00     0.169 HD
ENDBRANCH  12  15
ENDBRANCH  10  12
BRANCH   1  18
ATOM     18  N3  <0> d   1      20.362  -2.720  10.820  0.00  0.00    -0.066 N 
ATOM     19  H4  <0> d   1      21.225  -2.324  11.158  0.00  0.00     0.278 HD
ATOM     20  H5  <0> d   1      20.477  -3.002   9.857  0.00  0.00     0.278 HD
BRANCH  18  21
ATOM     21  C2  <0> d   1      20.007  -3.890  11.634  0.00  0.00     0.228 C 
ATOM     22  C1  <0> d   1      18.542  -4.259  11.387  0.00  0.00     0.034 C 
ENDBRANCH  18  21
ENDBRANCH   1  18
BRANCH   3  23
ATOM     23  C10 <0> d   1      17.774   0.526  13.244  0.00  0.00     0.137 C 
BRANCH  23  24
ATOM     24  C11 <0> d   1      18.162  -0.495  14.316  0.00  0.00     0.047 C 
BRANCH  24  25
ATOM     25  C12 <0> d   1      18.431   0.229  15.637  0.00  0.00     0.168 C 
BRANCH  25  26
ATOM     26  O13 <0> d   1      18.713  -0.731  16.657  0.00  0.00    -0.396 OA
ATOM     27  C14 <0> d   1      19.173  -0.158  17.883  0.00  0.00     0.201 C 
ENDBRANCH  25  26
ENDBRANCH  24  25
ENDBRANCH  23  24
ENDBRANCH   3  23
TORSDOF 8
ENDMDL
MODEL 3
REMARK VINA RESULT:      -6.7      4.026      7.753
REMARK  8 active torsions:
REMARK  status: ('A' for Active; 'I' for Inactive)
REMARK    1  A    between atoms: C2_2  and  N3_3 
REMARK    2  A    between atoms: N3_3  and  C6_6 
REMARK    3  A    between atoms: N9_8  and  C10_9 
REMARK    4  A    between atoms: C10_9  and  C11_10 
REMARK    5  A    between atoms: C11_10  and  C12_11 
REMARK    6  A    between atoms: C12_11  and  O13_12 
REMARK    7  A    between atoms: C21_20  and  S22_21 
REMARK    8  A    between atoms: S22_21  and  N23_22 
ROOT
ATOM      1  C6  <0> d   1      18.927   3.179  13.130  0.00  0.00     0.239 C 
ATOM      2  C8  <0> d   1      19.580   2.928  11.778  0.00  0.00     0.173 C 
ATOM      3  N9  <0> d   1      18.970   1.760  11.117  0.00  0.00    -0.304 N 
ATOM      4  S15 <0> d   1      19.224   0.289  11.872  0.00  0.00     0.268 S 
ATOM      5  O16 <0> d   1      18.107  -0.534  11.567  0.00  0.00    -0.200 OA
ATOM      6  O17 <0> d   1      20.571  -0.084  11.616  0.00  0.00    -0.200 OA
ATOM      7  C18 <0> d   1      19.113   0.699  13.594  0.00  0.00     0.130 A 
ATOM      8  C19 <0> d   1      19.001   1.966  14.039  0.00  0.00     0.006 A 
ATOM      9  C20 <0> d   1      18.950   2.048  15.431  0.00  0.00     0.044 A 
ATOM     10  C21 <0> d   1      19.000   0.893  16.085  0.00  0.00     0.121 A 
ATOM     11  S26 <0> d   1      19.132  -0.430  14.934  0.00  0.00    -0.062 SA
ENDROOT
BRANCH  10  12
ATOM     12  S22 <0> d   1      18.948   0.714  17.837  0.00  0.00     0.263 S 
ATOM     13  O24 <0> d   1      19.836   1.687  18.367  0.00  0.00    -0.200 OA
ATOM     14  O25 <0> d   1      17.574   0.639  18.192  0.00  0.00    -0.200 OA
BRANCH  12  15
ATOM     15  N23 <0> d   1      19.605  -0.764  18.198  0.00  0.00    -0.324 N 
ATOM     16  H44 <0> d   1      19.629  -1.461  17.524  0.00  0.00     0.169 HD
ATOM     17  H45 <0> d   1      19.965  -0.931  19.082  0.00  0.00     0.169 HD
ENDBRANCH  12  15
ENDBRANCH  10  12
BRANCH   1  18
ATOM     18  N3  <0> d   1      19.606   4.306  13.783  0.00  0.00    -0.066 N 
ATOM     19  H4  <0> d   1      20.494   4.471  13.335  0.00  0.00     0.278 HD
ATOM     20  H5  <0> d   1      19.757   4.088  14.758  0.00  0.00     0.278 HD
BRANCH  18  21
ATOM     21  C2  <0> d   1      18.771   5.510  13.675  0.00  0.00     0.228 C 
ATOM     22  C1  <0> d   1      17.496   5.323  14.500  0.00  0.00     0.034 C 
ENDBRANCH  18  21
ENDBRANCH   1  18
BRANCH   3  23
ATOM     23  C10 <0> d   1      18.193   1.880   9.881  0.00  0.00     0.137 C 
BRANCH  23  24
ATOM     24  C11 <0> d   1      19.142   1.877   8.680  0.00  0.00     0.047 C 
BRANCH  24  25
ATOM     25  C12 <0> d   1      18.906   0.615   7.847  0.00  0.00     0.168 C 
BRANCH  25  26
ATOM     26  O13 <0> d   1      19.704  -0.452   8.364  0.00  0.00    -0.396 OA
ATOM     27  C14 <0> d   1      19.064  -1.729   8.320  0.00  0.00     0.201 C 
ENDBRANCH  25  26
ENDBRANCH  24  25
ENDBRANCH  23  24
ENDBRANCH   3  23
TORSDOF 8
ENDMDL
MODEL 4
REMARK VINA RESULT:      -6.7      4.827      8.022
REMARK  8 active torsions:
REMARK  status: ('A' for Active; 'I' for Inactive)
REMARK    1  A    between atoms: C2_2  and  N3_3 
REMARK    2  A    between atoms: N3_3  and  C6_6 
REMARK    3  A    between atoms: N9_8  and  C10_9 
REMARK    4  A    between atoms: C10_9  and  C11_10 
REMARK    5  A    between atoms: C11_10  and  C12_11 
REMARK    6  A    between atoms: C12_11  and  O13_12 
REMARK    7  A    between atoms: C21_20  and  S22_21 
REMARK    8  A    between atoms: S22_21  and  N23_22 
ROOT
ATOM      1  C6  <0> d   1      18.288   0.824  13.096  0.00  0.00     0.239 C 
ATOM      2  C8  <0> d   1      17.644   1.572  11.938  0.00  0.00     0.173 C 
ATOM      3  N9  <0> d   1      18.409   2.791  11.619  0.00  0.00    -0.304 N 
ATOM      4  S15 <0> d   1      18.407   3.973  12.803  0.00  0.00     0.268 S 
ATOM      5  O16 <0> d   1      19.630   4.688  12.680  0.00  0.00    -0.200 OA
ATOM      6  O17 <0> d   1      17.128   4.590  12.774  0.00  0.00    -0.200 OA
ATOM      7  C18 <0> d   1      18.503   3.035  14.305  0.00  0.00     0.130 A 
ATOM      8  C19 <0> d   1      18.429   1.690  14.334  0.00  0.00     0.006 A 
ATOM      9  C20 <0> d   1      18.507   1.172  15.626  0.00  0.00     0.044 A 
ATOM     10  C21 <0> d   1      18.655   2.060  16.603  0.00  0.00     0.121 A 
ATOM     11  S26 <0> d   1      18.697   3.681  15.923  0.00  0.00    -0.062 SA
ENDROOT
BRANCH  10  12
ATOM     12  S22 <0> d   1      18.784   1.675  18.317  0.00  0.00     0.263 S 
ATOM     13  O24 <0> d   1      17.496   1.241  18.730  0.00  0.00    -0.200 OA
ATOM     14  O25 <0> d   1      19.955   0.883  18.463  0.00  0.00    -0.200 OA
BRANCH  12  15
ATOM     15  N23 <0> d   1      19.077   3.096  19.118  0.00  0.00    -0.324 N 
ATOM     16  H44 <0> d   1      18.358   3.542  19.590  0.00  0.00     0.169 HD
ATOM     17  H45 <0> d   1      19.968   3.479  19.114  0.00  0.00     0.169 HD
ENDBRANCH  12  15
ENDBRANCH  10  12
BRANCH   1  18
ATOM     18  N3  <0> d   1      17.463  -0.346  13.424  0.00  0.00    -0.066 N 
ATOM     19  H4  <0> d   1      16.496  -0.145  13.216  0.00  0.00     0.278 HD
ATOM     20  H5  <0> d   1      17.557  -0.559  14.407  0.00  0.00     0.278 HD
BRANCH  18  21
ATOM     21  C2  <0> d   1      17.906  -1.498  12.629  0.00  0.00     0.228 C 
ATOM     22  C1  <0> d   1      19.325  -1.892  13.048  0.00  0.00     0.034 C 
ENDBRANCH  18  21
ENDBRANCH   1  18
BRANCH   3  23
ATOM     23  C10 <0> d   1      19.123   2.957  10.351  0.00  0.00     0.137 C 
BRANCH  23  24
ATOM     24  C11 <0> d   1      18.439   2.120   9.267  0.00  0.00     0.047 C 
BRANCH  24  25
ATOM     25  C12 <0> d   1      19.500   1.414   8.422  0.00  0.00     0.168 C 
BRANCH  25  26
ATOM     26  O13 <0> d   1      19.027   0.119   8.048  0.00  0.00    -0.396 OA
ATOM     27  C14 <0> d   1      17.603   0.006   8.020  0.00  0.00     0.201 C 
ENDBRANCH  25  26
ENDBRANCH  24  25
ENDBRANCH  23  24
ENDBRANCH   3  23
TORSDOF 8
ENDMDL
MODEL 5
REMARK VINA RESULT:      -6.7      3.299      4.730
REMARK  8 active torsions:
REMARK  status: ('A' for Active; 'I' for Inactive)
REMARK    1  A    between atoms: C2_2  and  N3_3 
REMARK    2  A    between atoms: N3_3  and  C6_6 
REMARK    3  A    between atoms: N9_8  and  C10_9 
REMARK    4  A    between atoms: C10_9  and  C11_10 
REMARK    5  A    between atoms: C11_10  and  C12_11 
REMARK    6  A    between atoms: C12_11  and  O13_12 
REMARK    7  A    between atoms: C21_20  and  S22_21 
REMARK    8  A    between atoms: S22_21  and  N23_22 
ROOT
ATOM      1  C6  <0> d   1      19.308   1.162  10.416  0.00  0.00     0.239 C 
ATOM      2  C8  <0> d   1      18.576   1.007  11.742  0.00  0.00     0.173 C 
ATOM      3  N9  <0> d   1      18.950  -0.261  12.395  0.00  0.00    -0.304 N 
ATOM      4  S15 <0> d   1      18.466  -1.651  11.599  0.00  0.00     0.268 S 
ATOM      5  O16 <0> d   1      19.411  -2.664  11.919  0.00  0.00    -0.200 OA
ATOM      6  O17 <0> d   1      17.067  -1.785  11.807  0.00  0.00    -0.200 OA
ATOM      7  C18 <0> d   1      18.705  -1.238   9.891  0.00  0.00     0.130 A 
ATOM      8  C19 <0> d   1      19.052  -0.003   9.478  0.00  0.00     0.006 A 
ATOM      9  C20 <0> d   1      19.163   0.092   8.091  0.00  0.00     0.044 A 
ATOM     10  C21 <0> d   1      18.932  -1.025   7.409  0.00  0.00     0.121 A 
ATOM     11  S26 <0> d   1      18.532  -2.323   8.526  0.00  0.00    -0.062 SA
ENDROOT
BRANCH  10  12
ATOM     12  S22 <0> d   1      19.011  -1.181   5.656  0.00  0.00     0.263 S 
ATOM     13  O24 <0> d   1      19.409   0.089   5.158  0.00  0.00    -0.200 OA
ATOM     14  O25 <0> d   1      19.726  -2.380   5.392  0.00  0.00    -0.200 OA
BRANCH  12  15
ATOM     15  N23 <0> d   1      17.464  -1.430   5.117  0.00  0.00    -0.324 N 
ATOM     16  H44 <0> d   1      17.134  -0.941   4.348  0.00  0.00     0.169 HD
ATOM     17  H45 <0> d   1      16.889  -2.066   5.571  0.00  0.00     0.169 HD
ENDBRANCH  12  15
ENDBRANCH  10  12
BRANCH   1  18
ATOM     18  N3  <0> d   1      18.860   2.402   9.769  0.00  0.00    -0.066 N 
ATOM     19  H4  <0> d   1      18.549   2.199   8.831  0.00  0.00     0.278 HD
ATOM     20  H5  <0> d   1      19.626   3.059   9.734  0.00  0.00     0.278 HD
BRANCH  18  21
ATOM     21  C2  <0> d   1      17.751   2.983  10.537  0.00  0.00     0.228 C 
ATOM     22  C1  <0> d   1      17.674   4.487  10.264  0.00  0.00     0.034 C 
ENDBRANCH  18  21
ENDBRANCH   1  18
BRANCH   3  23
ATOM     23  C10 <0> d   1      19.694  -0.302  13.656  0.00  0.00     0.137 C 
BRANCH  23  24
ATOM     24  C11 <0> d   1      18.762  -0.747  14.784  0.00  0.00     0.047 C 
BRANCH  24  25
ATOM     25  C12 <0> d   1      18.704   0.341  15.858  0.00  0.00     0.168 C 
BRANCH  25  26
ATOM     26  O13 <0> d   1      18.381  -0.250  17.118  0.00  0.00    -0.396 OA
ATOM     27  C14 <0> d   1      19.328   0.029  18.151  0.00  0.00     0.201 C 
ENDBRANCH  25  26
ENDBRANCH  24  25
ENDBRANCH  23  24
ENDBRANCH   3  23
TORSDOF 8
ENDMDL
MODEL 6
REMARK VINA RESULT:      -6.6      3.973      6.661
REMARK  8 active torsions:
REMARK  status: ('A' for Active; 'I' for Inactive)
REMARK    1  A    between atoms: C2_2  and  N3_3 
REMARK    2  A    between atoms: N3_3  and  C6_6 
REMARK    3  A    between atoms: N9_8  and  C10_9 
REMARK    4  A    between atoms: C10_9  and  C11_10 
REMARK    5  A    between atoms: C11_10  and  C12_11 
REMARK    6  A    between atoms: C12_11  and  O13_12 
REMARK    7  A    between atoms: C21_20  and  S22_21 
REMARK    8  A    between atoms: S22_21  and  N23_22 
ROOT
ATOM      1  C6  <0> d   1      18.699  -1.642  11.532  0.00  0.00     0.239 C 
ATOM      2  C8  <0> d   1      18.123  -0.981  10.288  0.00  0.00     0.173 C 
ATOM      3  N9  <0> d   1      18.804   0.297  10.018  0.00  0.00    -0.304 N 
ATOM      4  S15 <0> d   1      18.563   1.498  11.157  0.00  0.00     0.268 S 
ATOM      5  O16 <0> d   1      19.721   2.322  11.146  0.00  0.00    -0.200 OA
ATOM      6  O17 <0> d   1      17.244   1.991  10.971  0.00  0.00    -0.200 OA
ATOM      7  C18 <0> d   1      18.575   0.604  12.689  0.00  0.00     0.130 A 
ATOM      8  C19 <0> d   1      18.622  -0.741  12.751  0.00  0.00     0.006 A 
ATOM      9  C20 <0> d   1      18.602  -1.224  14.060  0.00  0.00     0.044 A 
ATOM     10  C21 <0> d   1      18.558  -0.305  15.019  0.00  0.00     0.121 A 
ATOM     11  S26 <0> d   1      18.528   1.298  14.298  0.00  0.00    -0.062 SA
ENDROOT
BRANCH  10  12
ATOM     12  S22 <0> d   1      18.530  -0.642  16.748  0.00  0.00     0.263 S 
ATOM     13  O24 <0> d   1      17.162  -0.671  17.130  0.00  0.00    -0.200 OA
ATOM     14  O25 <0> d   1      19.421  -1.729  16.960  0.00  0.00    -0.200 OA
BRANCH  12  15
ATOM     15  N23 <0> d   1      19.200   0.667  17.512  0.00  0.00    -0.324 N 
ATOM     16  H44 <0> d   1      18.767   1.046  18.293  0.00  0.00     0.169 HD
ATOM     17  H45 <0> d   1      20.024   1.053  17.179  0.00  0.00     0.169 HD
ENDBRANCH  12  15
ENDBRANCH  10  12
BRANCH   1  18
ATOM     18  N3  <0> d   1      17.952  -2.877  11.804  0.00  0.00    -0.066 N 
ATOM     19  H4  <0> d   1      17.044  -2.824  11.369  0.00  0.00     0.278 HD
ATOM     20  H5  <0> d   1      17.839  -2.989  12.802  0.00  0.00     0.278 HD
BRANCH  18  21
ATOM     21  C2  <0> d   1      18.690  -4.026  11.263  0.00  0.00     0.228 C 
ATOM     22  C1  <0> d   1      20.185  -3.846  11.534  0.00  0.00     0.034 C 
ENDBRANCH  18  21
ENDBRANCH   1  18
BRANCH   3  23
ATOM     23  C10 <0> d   1      19.636   0.504   8.830  0.00  0.00     0.137 C 
BRANCH  23  24
ATOM     24  C11 <0> d   1      18.917   1.443   7.860  0.00  0.00     0.047 C 
BRANCH  24  25
ATOM     25  C12 <0> d   1      18.381   0.640   6.674  0.00  0.00     0.168 C 
BRANCH  25  26
ATOM     26  O13 <0> d   1      19.300   0.731   5.583  0.00  0.00    -0.396 OA
ATOM     27  C14 <0> d   1      19.324  -0.426   4.745  0.00  0.00     0.201 C 
ENDBRANCH  25  26
ENDBRANCH  24  25
ENDBRANCH  23  24
ENDBRANCH   3  23
TORSDOF 8
ENDMDL
MODEL 7
REMARK VINA RESULT:      -6.6      3.543      5.012
REMARK  8 active torsions:
REMARK  status: ('A' for Active; 'I' for Inactive)
REMARK    1  A    between atoms: C2_2  and  N3_3 
REMARK    2  A    between atoms: N3_3  and  C6_6 
REMARK    3  A    between atoms: N9_8  and  C10_9 
REMARK    4  A    between atoms: C10_9  and  C11_10 
REMARK    5  A    between atoms: C11_10  and  C12_11 
REMARK    6  A    between atoms: C12_11  and  O13_12 
REMARK    7  A    between atoms: C21_20  and  S22_21 
REMARK    8  A    between atoms: S22_21  and  N23_22 
ROOT
ATOM      1  C6  <0> d   1      19.463  -1.255  11.099  0.00  0.00     0.239 C 
ATOM      2  C8  <0> d   1      19.881  -0.248  12.161  0.00  0.00     0.173 C 
ATOM      3  N9  <0> d   1      18.852   0.796  12.320  0.00  0.00    -0.304 N 
ATOM      4  S15 <0> d   1      18.634   1.799  10.999  0.00  0.00     0.268 S 
ATOM      5  O16 <0> d   1      17.279   2.228  11.022  0.00  0.00    -0.200 OA
ATOM      6  O17 <0> d   1      19.741   2.687  10.962  0.00  0.00    -0.200 OA
ATOM      7  C18 <0> d   1      18.805   0.692   9.624  0.00  0.00     0.130 A 
ATOM      8  C19 <0> d   1      19.177  -0.595   9.762  0.00  0.00     0.006 A 
ATOM      9  C20 <0> d   1      19.264  -1.268   8.543  0.00  0.00     0.044 A 
ATOM     10  C21 <0> d   1      18.958  -0.558   7.462  0.00  0.00     0.121 A 
ATOM     11  S26 <0> d   1      18.530   1.081   7.937  0.00  0.00    -0.062 SA
ENDROOT
BRANCH  10  12
ATOM     12  S22 <0> d   1      18.980  -1.163   5.808  0.00  0.00     0.263 S 
ATOM     13  O24 <0> d   1      19.826  -2.304   5.809  0.00  0.00    -0.200 OA
ATOM     14  O25 <0> d   1      17.627  -1.198   5.375  0.00  0.00    -0.200 OA
BRANCH  12  15
ATOM     15  N23 <0> d   1      19.739  -0.020   4.879  0.00  0.00    -0.324 N 
ATOM     16  H44 <0> d   1      19.553   0.032   3.928  0.00  0.00     0.169 HD
ATOM     17  H45 <0> d   1      20.367   0.596   5.285  0.00  0.00     0.169 HD
ENDBRANCH  12  15
ENDBRANCH  10  12
BRANCH   1  18
ATOM     18  N3  <0> d   1      20.540  -2.238  10.925  0.00  0.00    -0.066 N 
ATOM     19  H4  <0> d   1      21.399  -1.867  11.302  0.00  0.00     0.278 HD
ATOM     20  H5  <0> d   1      20.662  -2.432   9.941  0.00  0.00     0.278 HD
BRANCH  18  21
ATOM     21  C2  <0> d   1      20.190  -3.478  11.629  0.00  0.00     0.228 C 
ATOM     22  C1  <0> d   1      19.305  -4.344  10.730  0.00  0.00     0.034 C 
ENDBRANCH  18  21
ENDBRANCH   1  18
BRANCH   3  23
ATOM     23  C10 <0> d   1      18.075   0.945  13.552  0.00  0.00     0.137 C 
BRANCH  23  24
ATOM     24  C11 <0> d   1      19.003   1.362  14.694  0.00  0.00     0.047 C 
BRANCH  24  25
ATOM     25  C12 <0> d   1      18.954   0.309  15.802  0.00  0.00     0.168 C 
BRANCH  25  26
ATOM     26  O13 <0> d   1      18.701   0.947  17.055  0.00  0.00    -0.396 OA
ATOM     27  C14 <0> d   1      19.341   0.319  18.168  0.00  0.00     0.201 C 
ENDBRANCH  25  26
ENDBRANCH  24  25
ENDBRANCH  23  24
ENDBRANCH   3  23
TORSDOF 8
ENDMDL
MODEL 8
REMARK VINA RESULT:      -6.5      3.609      7.106
REMARK  8 active torsions:
REMARK  status: ('A' for Active; 'I' for Inactive)
REMARK    1  A    between atoms: C2_2  and  N3_3 
REMARK    2  A    between atoms: N3_3  and  C6_6 
REMARK    3  A    between atoms: N9_8  and  C10_9 
REMARK    4  A    between atoms: C10_9  and  C11_10 
REMARK    5  A    between atoms: C11_10  and  C12_11 
REMARK    6  A    between atoms: C12_11  and  O13_12 
REMARK    7  A    between atoms: C21_20  and  S22_21 
REMARK    8  A    between atoms: S22_21  and  N23_22 
ROOT
ATOM      1  C6  <0> d   1      19.388   1.191  11.828  0.00  0.00     0.239 C 
ATOM      2  C8  <0> d   1      19.773   0.174  10.763  0.00  0.00     0.173 C 
ATOM      3  N9  <0> d   1      18.729  -0.858  10.629  0.00  0.00    -0.304 N 
ATOM      4  S15 <0> d   1      18.525  -1.852  11.959  0.00  0.00     0.268 S 
ATOM      5  O16 <0> d   1      17.165  -2.266  11.965  0.00  0.00    -0.200 OA
ATOM      6  O17 <0> d   1      19.622  -2.754  11.978  0.00  0.00    -0.200 OA
ATOM      7  C18 <0> d   1      18.737  -0.742  13.325  0.00  0.00     0.130 A 
ATOM      8  C19 <0> d   1      19.122   0.541  13.174  0.00  0.00     0.006 A 
ATOM      9  C20 <0> d   1      19.241   1.217  14.388  0.00  0.00     0.044 A 
ATOM     10  C21 <0> d   1      18.948   0.515  15.477  0.00  0.00     0.121 A 
ATOM     11  S26 <0> d   1      18.492  -1.120  15.019  0.00  0.00    -0.062 SA
ENDROOT
BRANCH  10  12
ATOM     12  S22 <0> d   1      19.011   1.127  17.128  0.00  0.00     0.263 S 
ATOM     13  O24 <0> d   1      19.512   0.068  17.931  0.00  0.00    -0.200 OA
ATOM     14  O25 <0> d   1      19.624   2.408  17.058  0.00  0.00    -0.200 OA
BRANCH  12  15
ATOM     15  N23 <0> d   1      17.448   1.384  17.615  0.00  0.00    -0.324 N 
ATOM     16  H44 <0> d   1      16.722   0.908  17.182  0.00  0.00     0.169 HD
ATOM     17  H45 <0> d   1      17.260   2.009  18.331  0.00  0.00     0.169 HD
ENDBRANCH  12  15
ENDBRANCH  10  12
BRANCH   1  18
ATOM     18  N3  <0> d   1      20.481   2.161  11.976  0.00  0.00    -0.066 N 
ATOM     19  H4  <0> d   1      21.183   1.988  11.273  0.00  0.00     0.278 HD
ATOM     20  H5  <0> d   1      20.893   2.066  12.893  0.00  0.00     0.278 HD
BRANCH  18  21
ATOM     21  C2  <0> d   1      19.951   3.522  11.815  0.00  0.00     0.228 C 
ATOM     22  C1  <0> d   1      18.775   3.500  10.837  0.00  0.00     0.034 C 
ENDBRANCH  18  21
ENDBRANCH   1  18
BRANCH   3  23
ATOM     23  C10 <0> d   1      17.925  -1.003   9.414  0.00  0.00     0.137 C 
BRANCH  23  24
ATOM     24  C11 <0> d   1      17.768   0.361   8.740  0.00  0.00     0.047 C 
BRANCH  24  25
ATOM     25  C12 <0> d   1      18.482   0.347   7.387  0.00  0.00     0.168 C 
BRANCH  25  26
ATOM     26  O13 <0> d   1      19.174  -0.893   7.227  0.00  0.00    -0.396 OA
ATOM     27  C14 <0> d   1      19.206  -1.372   5.881  0.00  0.00     0.201 C 
ENDBRANCH  25  26
ENDBRANCH  24  25
ENDBRANCH  23  24
ENDBRANCH   3  23
TORSDOF 8
ENDMDL
MODEL 9
REMARK VINA RESULT:      -6.2      4.455      8.917
REMARK  8 active torsions:
REMARK  status: ('A' for Active; 'I' for Inactive)
REMARK    1  A    between atoms: C2_2  and  N3_3 
REMARK    2  A    between atoms: N3_3  and  C6_6 
REMARK    3  A    between atoms: N9_8  and  C10_9 
REMARK    4  A    between atoms: C10_9  and  C11_10 
REMARK    5  A    between atoms: C11_10  and  C12_11 
REMARK    6  A    between atoms: C12_11  and  O13_12 
REMARK    7  A    between atoms: C21_20  and  S22_21 
REMARK    8  A    between atoms: S22_21  and  N23_22 
ROOT
ATOM      1  C6  <0> d   1      18.214   1.026  14.116  0.00  0.00     0.239 C 
ATOM      2  C8  <0> d   1      17.301   0.470  13.033  0.00  0.00     0.173 C 
ATOM      3  N9  <0> d   1      17.961   0.534  11.716  0.00  0.00    -0.304 N 
ATOM      4  S15 <0> d   1      18.250   2.073  11.129  0.00  0.00     0.268 S 
ATOM      5  O16 <0> d   1      19.402   1.993  10.300  0.00  0.00    -0.200 OA
ATOM      6  O17 <0> d   1      17.002   2.596  10.695  0.00  0.00    -0.200 OA
ATOM      7  C18 <0> d   1      18.717   2.975  12.583  0.00  0.00     0.130 A 
ATOM      8  C19 <0> d   1      18.656   2.448  13.822  0.00  0.00     0.006 A 
ATOM      9  C20 <0> d   1      19.054   3.346  14.812  0.00  0.00     0.044 A 
ATOM     10  C21 <0> d   1      19.437   4.547  14.391  0.00  0.00     0.121 A 
ATOM     11  S26 <0> d   1      19.305   4.625  12.639  0.00  0.00    -0.062 SA
ENDROOT
BRANCH  10  12
ATOM     12  S22 <0> d   1      19.989   5.860  15.427  0.00  0.00     0.263 S 
ATOM     13  O24 <0> d   1      20.170   6.989  14.584  0.00  0.00    -0.200 OA
ATOM     14  O25 <0> d   1      19.131   5.865  16.560  0.00  0.00    -0.200 OA
BRANCH  12  15
ATOM     15  N23 <0> d   1      21.494   5.446  15.982  0.00  0.00    -0.324 N 
ATOM     16  H44 <0> d   1      21.938   4.656  15.636  0.00  0.00     0.169 HD
ATOM     17  H45 <0> d   1      21.931   5.993  16.653  0.00  0.00     0.169 HD
ENDBRANCH  12  15
ENDBRANCH  10  12
BRANCH   1  18
ATOM     18  N3  <0> d   1      17.498   1.006  15.398  0.00  0.00    -0.066 N 
ATOM     19  H4  <0> d   1      16.594   0.578  15.272  0.00  0.00     0.278 HD
ATOM     20  H5  <0> d   1      17.379   1.951  15.732  0.00  0.00     0.278 HD
BRANCH  18  21
ATOM     21  C2  <0> d   1      18.273   0.234  16.380  0.00  0.00     0.228 C 
ATOM     22  C1  <0> d   1      18.257  -1.246  15.993  0.00  0.00     0.034 C 
ENDBRANCH  18  21
ENDBRANCH   1  18
BRANCH   3  23
ATOM     23  C10 <0> d   1      18.336  -0.670  10.971  0.00  0.00     0.137 C 
BRANCH  23  24
ATOM     24  C11 <0> d   1      18.733  -1.774  11.953  0.00  0.00     0.047 C 
BRANCH  24  25
ATOM     25  C12 <0> d   1      17.823  -2.987  11.751  0.00  0.00     0.168 C 
BRANCH  25  26
ATOM     26  O13 <0> d   1      18.602  -4.098  11.302  0.00  0.00    -0.396 OA
ATOM     27  C14 <0> d   1      20.009  -3.933  11.486  0.00  0.00     0.201 C 
ENDBRANCH  25  26
ENDBRANCH  24  25
ENDBRANCH  23  24
ENDBRANCH   3  23
TORSDOF 8
ENDMDL
