MODEL 1
REMARK VINA RESULT:      -6.7      0.000      0.000
REMARK  2 active torsions:
REMARK  status: ('A' for Active; 'I' for Inactive)
REMARK    1  A    between atoms: C2_2  and  C3_3 
REMARK    2  A    between atoms: C2_2  and  C9_9 
ROOT
ATOM      1  O1  <0> d   1      15.739   0.106  11.495  0.00  0.00    -0.287 OA
ATOM      2  C2  <0> d   1      16.952   0.184  11.499  0.00  0.00     0.192 C 
ENDROOT
BRANCH   2   3
ATOM      3  C3  <0> d   1      17.717  -0.277  12.676  0.00  0.00     0.015 A 
ATOM      4  C8  <0> d   1      17.532   0.336  13.917  0.00  0.00     0.015 A 
ATOM      5  C7  <0> d   1      18.246  -0.105  15.013  0.00  0.00     0.001 A 
ATOM      6  C6  <0> d   1      19.153  -1.141  14.882  0.00  0.00     0.000 A 
ATOM      7  C5  <0> d   1      19.346  -1.749  13.652  0.00  0.00     0.001 A 
ATOM      8  C4  <0> d   1      18.634  -1.324  12.550  0.00  0.00     0.015 A 
ENDBRANCH   2   3
BRANCH   2   9
ATOM      9  C9  <0> d   1      17.662   0.733  10.325  0.00  0.00     0.015 A 
ATOM     10  C14 <0> d   1      18.299   1.974  10.408  0.00  0.00     0.015 A 
ATOM     11  C13 <0> d   1      18.965   2.476   9.310  0.00  0.00     0.001 A 
ATOM     12  C12 <0> d   1      18.992   1.763   8.125  0.00  0.00     0.000 A 
ATOM     13  C11 <0> d   1      18.358   0.536   8.034  0.00  0.00     0.001 A 
ATOM     14  C10 <0> d   1      17.693   0.018   9.126  0.00  0.00     0.015 A 
ENDBRANCH   2   9
TORSDOF 2
ENDMDL
MODEL 2
REMARK VINA RESULT:      -6.7      0.096      1.823
REMARK  2 active torsions:
REMARK  status: ('A' for Active; 'I' for Inactive)
REMARK    1  A    between atoms: C2_2  and  C3_3 
REMARK    2  A    between atoms: C2_2  and  C9_9 
ROOT
ATOM      1  O1  <0> d   1      15.733   0.090  11.503  0.00  0.00    -0.287 OA
ATOM      2  C2  <0> d   1      16.943   0.197  11.538  0.00  0.00     0.192 C 
ENDROOT
BRANCH   2   3
ATOM      3  C3  <0> d   1      17.691  -0.255  12.729  0.00  0.00     0.015 A 
ATOM      4  C8  <0> d   1      18.622  -1.291  12.621  0.00  0.00     0.015 A 
ATOM      5  C7  <0> d   1      19.321  -1.703  13.737  0.00  0.00     0.001 A 
ATOM      6  C6  <0> d   1      19.092  -1.104  14.962  0.00  0.00     0.000 A 
ATOM      7  C5  <0> d   1      18.166  -0.081  15.077  0.00  0.00     0.001 A 
ATOM      8  C4  <0> d   1      17.465   0.347  13.970  0.00  0.00     0.015 A 
ENDBRANCH   2   3
BRANCH   2   9
ATOM      9  C9  <0> d   1      17.668   0.774  10.386  0.00  0.00     0.015 A 
ATOM     10  C14 <0> d   1      17.722   0.083   9.173  0.00  0.00     0.015 A 
ATOM     11  C13 <0> d   1      18.394   0.631   8.101  0.00  0.00     0.001 A 
ATOM     12  C12 <0> d   1      19.026   1.855   8.227  0.00  0.00     0.000 A 
ATOM     13  C11 <0> d   1      18.982   2.543   9.428  0.00  0.00     0.001 A 
ATOM     14  C10 <0> d   1      18.308   2.010  10.507  0.00  0.00     0.015 A 
ENDBRANCH   2   9
TORSDOF 2
ENDMDL
MODEL 3
REMARK VINA RESULT:      -6.7      0.050      5.145
REMARK  2 active torsions:
REMARK  status: ('A' for Active; 'I' for Inactive)
REMARK    1  A    between atoms: C2_2  and  C3_3 
REMARK    2  A    between atoms: C2_2  and  C9_9 
ROOT
ATOM      1  O1  <0> d   1      15.729   0.090  11.499  0.00  0.00    -0.287 OA
ATOM      2  C2  <0> d   1      16.941   0.176  11.517  0.00  0.00     0.192 C 
ENDROOT
BRANCH   2   3
ATOM      3  C3  <0> d   1      17.659   0.744  10.357  0.00  0.00     0.015 A 
ATOM      4  C8  <0> d   1      17.699   0.046   9.147  0.00  0.00     0.015 A 
ATOM      5  C7  <0> d   1      18.365   0.586   8.066  0.00  0.00     0.001 A 
ATOM      6  C6  <0> d   1      19.004   1.807   8.181  0.00  0.00     0.000 A 
ATOM      7  C5  <0> d   1      18.973   2.501   9.379  0.00  0.00     0.001 A 
ATOM      8  C4  <0> d   1      18.305   1.978  10.466  0.00  0.00     0.015 A 
ENDBRANCH   2   3
BRANCH   2   9
ATOM      9  C9  <0> d   1      17.697  -0.279  12.702  0.00  0.00     0.015 A 
ATOM     10  C14 <0> d   1      18.609  -1.332  12.591  0.00  0.00     0.015 A 
ATOM     11  C13 <0> d   1      19.316  -1.747  13.700  0.00  0.00     0.001 A 
ATOM     12  C12 <0> d   1      19.115  -1.133  14.923  0.00  0.00     0.000 A 
ATOM     13  C11 <0> d   1      18.208  -0.094  15.042  0.00  0.00     0.001 A 
ATOM     14  C10 <0> d   1      17.499   0.336  13.940  0.00  0.00     0.015 A 
ENDBRANCH   2   9
TORSDOF 2
ENDMDL
MODEL 4
REMARK VINA RESULT:      -6.6      3.176      4.009
REMARK  2 active torsions:
REMARK  status: ('A' for Active; 'I' for Inactive)
REMARK    1  A    between atoms: C2_2  and  C3_3 
REMARK    2  A    between atoms: C2_2  and  C9_9 
ROOT
ATOM      1  O1  <0> d   1      19.743   0.204  10.688  0.00  0.00    -0.287 OA
ATOM      2  C2  <0> d   1      19.134   1.071  10.091  0.00  0.00     0.192 C 
ENDROOT
BRANCH   2   3
ATOM      3  C3  <0> d   1      18.862   2.367  10.746  0.00  0.00     0.015 A 
ATOM      4  C8  <0> d   1      17.651   3.026  10.520  0.00  0.00     0.015 A 
ATOM      5  C7  <0> d   1      17.401   4.233  11.140  0.00  0.00     0.001 A 
ATOM      6  C6  <0> d   1      18.351   4.797  11.973  0.00  0.00     0.000 A 
ATOM      7  C5  <0> d   1      19.556   4.152  12.196  0.00  0.00     0.001 A 
ATOM      8  C4  <0> d   1      19.817   2.942  11.589  0.00  0.00     0.015 A 
ENDBRANCH   2   3
BRANCH   2   9
ATOM      9  C9  <0> d   1      18.673   0.831   8.707  0.00  0.00     0.015 A 
ATOM     10  C14 <0> d   1      19.316   1.455   7.635  0.00  0.00     0.015 A 
ATOM     11  C13 <0> d   1      18.884   1.221   6.347  0.00  0.00     0.001 A 
ATOM     12  C12 <0> d   1      17.810   0.382   6.115  0.00  0.00     0.000 A 
ATOM     13  C11 <0> d   1      17.164  -0.235   7.172  0.00  0.00     0.001 A 
ATOM     14  C10 <0> d   1      17.589  -0.015   8.466  0.00  0.00     0.015 A 
ENDBRANCH   2   9
TORSDOF 2
ENDMDL
MODEL 5
REMARK VINA RESULT:      -6.6      3.217      5.384
REMARK  2 active torsions:
REMARK  status: ('A' for Active; 'I' for Inactive)
REMARK    1  A    between atoms: C2_2  and  C3_3 
REMARK    2  A    between atoms: C2_2  and  C9_9 
ROOT
ATOM      1  O1  <0> d   1      19.836   0.239  10.614  0.00  0.00    -0.287 OA
ATOM      2  C2  <0> d   1      19.189   1.091  10.038  0.00  0.00     0.192 C 
ENDROOT
BRANCH   2   3
ATOM      3  C3  <0> d   1      18.690   0.840   8.670  0.00  0.00     0.015 A 
ATOM      4  C8  <0> d   1      19.312   1.444   7.575  0.00  0.00     0.015 A 
ATOM      5  C7  <0> d   1      18.844   1.199   6.300  0.00  0.00     0.001 A 
ATOM      6  C6  <0> d   1      17.754   0.370   6.106  0.00  0.00     0.000 A 
ATOM      7  C5  <0> d   1      17.128  -0.226   7.188  0.00  0.00     0.001 A 
ATOM      8  C4  <0> d   1      17.589   0.003   8.467  0.00  0.00     0.015 A 
ENDBRANCH   2   3
BRANCH   2   9
ATOM      9  C9  <0> d   1      18.895   2.375  10.707  0.00  0.00     0.015 A 
ATOM     10  C14 <0> d   1      17.681   3.027  10.473  0.00  0.00     0.015 A 
ATOM     11  C13 <0> d   1      17.412   4.222  11.107  0.00  0.00     0.001 A 
ATOM     12  C12 <0> d   1      18.344   4.782  11.962  0.00  0.00     0.000 A 
ATOM     13  C11 <0> d   1      19.550   4.145  12.194  0.00  0.00     0.001 A 
ATOM     14  C10 <0> d   1      19.831   2.946  11.572  0.00  0.00     0.015 A 
ENDBRANCH   2   9
TORSDOF 2
ENDMDL
MODEL 6
REMARK VINA RESULT:      -6.5      3.136      5.228
REMARK  2 active torsions:
REMARK  status: ('A' for Active; 'I' for Inactive)
REMARK    1  A    between atoms: C2_2  and  C3_3 
REMARK    2  A    between atoms: C2_2  and  C9_9 
ROOT
ATOM      1  O1  <0> d   1      19.917   1.649  11.310  0.00  0.00    -0.287 OA
ATOM      2  C2  <0> d   1      18.993   2.079  10.648  0.00  0.00     0.192 C 
ENDROOT
BRANCH   2   3
ATOM      3  C3  <0> d   1      18.638   1.434   9.367  0.00  0.00     0.015 A 
ATOM      4  C8  <0> d   1      19.311   1.784   8.195  0.00  0.00     0.015 A 
ATOM      5  C7  <0> d   1      18.979   1.172   7.004  0.00  0.00     0.001 A 
ATOM      6  C6  <0> d   1      17.972   0.224   6.966  0.00  0.00     0.000 A 
ATOM      7  C5  <0> d   1      17.296  -0.123   8.124  0.00  0.00     0.001 A 
ATOM      8  C4  <0> d   1      17.622   0.475   9.323  0.00  0.00     0.015 A 
ENDBRANCH   2   3
BRANCH   2   9
ATOM      9  C9  <0> d   1      18.220   3.244  11.127  0.00  0.00     0.015 A 
ATOM     10  C14 <0> d   1      17.966   3.405  12.491  0.00  0.00     0.015 A 
ATOM     11  C13 <0> d   1      17.250   4.498  12.931  0.00  0.00     0.001 A 
ATOM     12  C12 <0> d   1      16.771   5.428  12.025  0.00  0.00     0.000 A 
ATOM     13  C11 <0> d   1      17.014   5.271  10.671  0.00  0.00     0.001 A 
ATOM     14  C10 <0> d   1      17.734   4.186  10.217  0.00  0.00     0.015 A 
ENDBRANCH   2   9
TORSDOF 2
ENDMDL
MODEL 7
REMARK VINA RESULT:      -6.3      3.348      5.414
REMARK  2 active torsions:
REMARK  status: ('A' for Active; 'I' for Inactive)
REMARK    1  A    between atoms: C2_2  and  C3_3 
REMARK    2  A    between atoms: C2_2  and  C9_9 
ROOT
ATOM      1  O1  <0> d   1      19.919  -0.356  12.122  0.00  0.00    -0.287 OA
ATOM      2  C2  <0> d   1      19.267  -1.192  12.717  0.00  0.00     0.192 C 
ENDROOT
BRANCH   2   3
ATOM      3  C3  <0> d   1      18.958  -2.484  12.071  0.00  0.00     0.015 A 
ATOM      4  C8  <0> d   1      17.633  -2.832  11.798  0.00  0.00     0.015 A 
ATOM      5  C7  <0> d   1      17.352  -4.038  11.189  0.00  0.00     0.001 A 
ATOM      6  C6  <0> d   1      18.376  -4.907  10.861  0.00  0.00     0.000 A 
ATOM      7  C5  <0> d   1      19.692  -4.571  11.135  0.00  0.00     0.001 A 
ATOM      8  C4  <0> d   1      19.988  -3.366  11.737  0.00  0.00     0.015 A 
ENDBRANCH   2   3
BRANCH   2   9
ATOM      9  C9  <0> d   1      18.790  -0.919  14.089  0.00  0.00     0.015 A 
ATOM     10  C14 <0> d   1      17.819   0.061  14.312  0.00  0.00     0.015 A 
ATOM     11  C13 <0> d   1      17.374   0.305  15.594  0.00  0.00     0.001 A 
ATOM     12  C12 <0> d   1      17.896  -0.407  16.659  0.00  0.00     0.000 A 
ATOM     13  C11 <0> d   1      18.863  -1.374  16.446  0.00  0.00     0.001 A 
ATOM     14  C10 <0> d   1      19.313  -1.633  15.168  0.00  0.00     0.015 A 
ENDBRANCH   2   9
TORSDOF 2
ENDMDL
MODEL 8
REMARK VINA RESULT:      -6.0      1.830      5.445
REMARK  2 active torsions:
REMARK  status: ('A' for Active; 'I' for Inactive)
REMARK    1  A    between atoms: C2_2  and  C3_3 
REMARK    2  A    between atoms: C2_2  and  C9_9 
ROOT
ATOM      1  O1  <0> d   1      19.405  -1.417  11.967  0.00  0.00    -0.287 OA
ATOM      2  C2  <0> d   1      19.027  -0.427  12.562  0.00  0.00     0.192 C 
ENDROOT
BRANCH   2   3
ATOM      3  C3  <0> d   1      18.907   0.862  11.849  0.00  0.00     0.015 A 
ATOM      4  C8  <0> d   1      19.874   1.854  12.025  0.00  0.00     0.015 A 
ATOM      5  C7  <0> d   1      19.759   3.052  11.350  0.00  0.00     0.001 A 
ATOM      6  C6  <0> d   1      18.681   3.278  10.513  0.00  0.00     0.000 A 
ATOM      7  C5  <0> d   1      17.715   2.301  10.340  0.00  0.00     0.001 A 
ATOM      8  C4  <0> d   1      17.821   1.096  11.001  0.00  0.00     0.015 A 
ENDBRANCH   2   3
BRANCH   2   9
ATOM      9  C9  <0> d   1      18.682  -0.512  13.996  0.00  0.00     0.015 A 
ATOM     10  C14 <0> d   1      17.679   0.303  14.526  0.00  0.00     0.015 A 
ATOM     11  C13 <0> d   1      17.358   0.212  15.865  0.00  0.00     0.001 A 
ATOM     12  C12 <0> d   1      18.035  -0.673  16.684  0.00  0.00     0.000 A 
ATOM     13  C11 <0> d   1      19.034  -1.479  16.167  0.00  0.00     0.001 A 
ATOM     14  C10 <0> d   1      19.362  -1.404  14.829  0.00  0.00     0.015 A 
ENDBRANCH   2   9
TORSDOF 2
ENDMDL
MODEL 9
REMARK VINA RESULT:      -5.9      2.906      5.733
REMARK  2 active torsions:
REMARK  status: ('A' for Active; 'I' for Inactive)
REMARK    1  A    between atoms: C2_2  and  C3_3 
REMARK    2  A    between atoms: C2_2  and  C9_9 
ROOT
ATOM      1  O1  <0> d   1      20.838  -0.430  11.171  0.00  0.00    -0.287 OA
ATOM      2  C2  <0> d   1      19.978  -0.921  10.468  0.00  0.00     0.192 C 
ENDROOT
BRANCH   2   3
ATOM      3  C3  <0> d   1      19.591  -0.262   9.204  0.00  0.00     0.015 A 
ATOM      4  C8  <0> d   1      19.561   1.132   9.121  0.00  0.00     0.015 A 
ATOM      5  C7  <0> d   1      19.205   1.741   7.935  0.00  0.00     0.001 A 
ATOM      6  C6  <0> d   1      18.865   0.975   6.834  0.00  0.00     0.000 A 
ATOM      7  C5  <0> d   1      18.886  -0.407   6.912  0.00  0.00     0.001 A 
ATOM      8  C4  <0> d   1      19.247  -1.030   8.088  0.00  0.00     0.015 A 
ENDBRANCH   2   3
BRANCH   2   9
ATOM      9  C9  <0> d   1      19.322  -2.182  10.874  0.00  0.00     0.015 A 
ATOM     10  C14 <0> d   1      20.072  -3.355  10.994  0.00  0.00     0.015 A 
ATOM     11  C13 <0> d   1      19.455  -4.527  11.380  0.00  0.00     0.001 A 
ATOM     12  C12 <0> d   1      18.095  -4.546  11.635  0.00  0.00     0.000 A 
ATOM     13  C11 <0> d   1      17.345  -3.389  11.511  0.00  0.00     0.001 A 
ATOM     14  C10 <0> d   1      17.950  -2.209  11.132  0.00  0.00     0.015 A 
ENDBRANCH   2   9
TORSDOF 2
ENDMDL
