MODEL 1
REMARK VINA RESULT:     -10.3      0.000      0.000
REMARK  12 active torsions:
REMARK  status: ('A' for Active; 'I' for Inactive)
REMARK       I    between atoms: C2_2  and  N3_3 
REMARK    1  A    between atoms: C2_2  and  C36_36 
REMARK    2  A    between atoms: N3_3  and  C4_4 
REMARK    3  A    between atoms: N7_7  and  C9_9 
REMARK    4  A    between atoms: C9_9  and  C10_10 
REMARK    5  A    between atoms: C10_10  and  C11_11 
REMARK    6  A    between atoms: C11_11  and  C12_12 
REMARK    7  A    between atoms: C12_12  and  C13_13 
REMARK    8  A    between atoms: C13_13  and  C14_14 
REMARK       I    between atoms: C14_14  and  N16_16 
REMARK    9  A    between atoms: N16_16  and  C17_17 
REMARK   10  A    between atoms: C17_17  and  C18_18 
REMARK   11  A    between atoms: C41_41  and  C42_42 
REMARK   12  A    between atoms: C45_45  and  C46_46 
ROOT
ATOM      1  C4  ZIN A   1      17.452  -5.205   8.141  0.00  0.00     0.087 C 
ATOM      2  C5  ZIN A   1      18.171  -3.859   8.009  0.00  0.00     0.053 C 
ATOM      3  C6  ZIN A   1      18.737  -3.453   9.372  0.00  0.00     0.237 C 
ATOM      4  N7  ZIN A   1      17.644  -3.332  10.342  0.00  0.00    -0.071 N 
ATOM      5  H8  ZIN A   1      16.966  -2.666  10.004  0.00  0.00     0.279 HD
ATOM      6  C34 ZIN A   1      16.995  -4.636  10.528  0.00  0.00     0.237 C 
ATOM      7  C35 ZIN A   1      16.362  -5.087   9.210  0.00  0.00     0.053 C 
ENDROOT
BRANCH   4   8
ATOM      8  C9  ZIN A   1      18.183  -2.869  11.629  0.00  0.00     0.235 C 
BRANCH   8   9
ATOM      9  C10 ZIN A   1      17.276  -1.774  12.196  0.00  0.00     0.028 C 
BRANCH   9  10
ATOM     10  C11 ZIN A   1      16.926  -0.778  11.089  0.00  0.00     0.003 C 
BRANCH  10  11
ATOM     11  C12 ZIN A   1      16.685   0.603  11.703  0.00  0.00     0.029 C 
BRANCH  11  12
ATOM     12  C13 ZIN A   1      17.950   1.452  11.559  0.00  0.00     0.096 A 
ATOM     13  C33 ZIN A   1      17.595   2.918  11.560  0.00  0.00    -0.025 A 
ATOM     14  C28 ZIN A   1      18.007   3.450  10.341  0.00  0.00    -0.018 A 
ATOM     15  C32 ZIN A   1      16.980   3.720  12.497  0.00  0.00     0.009 A 
ATOM     16  C27 ZIN A   1      18.631   2.382   9.522  0.00  0.00    -0.018 A 
ATOM     17  C29 ZIN A   1      17.794   4.804  10.078  0.00  0.00     0.013 A 
ATOM     18  C22 ZIN A   1      18.608   1.182  10.227  0.00  0.00    -0.025 A 
ATOM     19  C26 ZIN A   1      19.193   2.413   8.244  0.00  0.00     0.013 A 
ATOM     20  C23 ZIN A   1      19.133   0.037   9.670  0.00  0.00     0.009 A 
ATOM     21  C24 ZIN A   1      19.689   0.075   8.403  0.00  0.00     0.001 A 
ATOM     22  C25 ZIN A   1      19.717   1.262   7.694  0.00  0.00     0.001 A 
ATOM     23  C30 ZIN A   1      17.179   5.601  11.023  0.00  0.00     0.001 A 
ATOM     24  C31 ZIN A   1      16.773   5.063  12.230  0.00  0.00     0.001 A 
BRANCH  12  25
ATOM     25  C14 ZIN A   1      18.908   1.148  12.683  0.00  0.00     0.235 C 
ATOM     26  O15 ZIN A   1      20.097   1.071  12.462  0.00  0.00    -0.272 OA
ATOM     27  N16 ZIN A   1      18.441   0.961  13.934  0.00  0.00    -0.351 N 
ATOM     28  H66 ZIN A   1      17.489   1.023  14.110  0.00  0.00     0.162 HD
BRANCH  27  29
ATOM     29  C17 ZIN A   1      19.371   0.665  15.026  0.00  0.00     0.240 C 
BRANCH  29  30
ATOM     30  C18 ZIN A   1      19.143  -0.765  15.517  0.00  0.00     0.403 C 
ATOM     31  F19 ZIN A   1      17.783  -1.080  15.422  0.00  0.00    -0.169 F 
ATOM     32  F20 ZIN A   1      19.882  -1.653  14.727  0.00  0.00    -0.169 F 
ATOM     33  F21 ZIN A   1      19.555  -0.873  16.849  0.00  0.00    -0.169 F 
ENDBRANCH  29  30
ENDBRANCH  27  29
ENDBRANCH  12  25
ENDBRANCH  11  12
ENDBRANCH  10  11
ENDBRANCH   9  10
ENDBRANCH   8   9
ENDBRANCH   4   8
BRANCH   1  34
ATOM     34  N3  ZIN A   1      16.842  -5.562   6.857  0.00  0.00    -0.352 N 
ATOM     35  C2  ZIN A   1      17.477  -6.410   6.023  0.00  0.00     0.252 C 
ATOM     36  O1  ZIN A   1      18.555  -6.877   6.336  0.00  0.00    -0.268 OA
ATOM     37  H52 ZIN A   1      15.982  -5.189   6.609  0.00  0.00     0.163 HD
BRANCH  35  38
ATOM     38  C36 ZIN A   1      16.865  -6.766   4.727  0.00  0.00     0.043 A 
ATOM     39  C41 ZIN A   1      16.724  -5.793   3.721  0.00  0.00    -0.010 A 
ATOM     40  C40 ZIN A   1      16.151  -6.143   2.503  0.00  0.00     0.013 A 
ATOM     41  C39 ZIN A   1      15.714  -7.435   2.290  0.00  0.00     0.001 A 
ATOM     42  C38 ZIN A   1      15.848  -8.393   3.281  0.00  0.00     0.001 A 
ATOM     43  C37 ZIN A   1      16.419  -8.066   4.495  0.00  0.00     0.018 A 
BRANCH  39  44
ATOM     44  C42 ZIN A   1      17.193  -4.406   3.953  0.00  0.00    -0.025 A 
ATOM     45  C51 ZIN A   1      16.283  -3.350   3.953  0.00  0.00     0.013 A 
ATOM     46  C50 ZIN A   1      16.725  -2.061   4.175  0.00  0.00     0.017 A 
ATOM     47  C45 ZIN A   1      18.069  -1.816   4.386  0.00  0.00     0.048 A 
ATOM     48  C44 ZIN A   1      18.979  -2.858   4.382  0.00  0.00     0.017 A 
ATOM     49  C43 ZIN A   1      18.548  -4.151   4.166  0.00  0.00     0.013 A 
BRANCH  47  50
ATOM     50  C46 ZIN A   1      18.547  -0.406   4.621  0.00  0.00     0.417 C 
ATOM     51  F47 ZIN A   1      17.744   0.203   5.591  0.00  0.00    -0.166 F 
ATOM     52  F48 ZIN A   1      19.874  -0.430   5.062  0.00  0.00    -0.166 F 
ATOM     53  F49 ZIN A   1      18.465   0.320   3.427  0.00  0.00    -0.166 F 
ENDBRANCH  47  50
ENDBRANCH  39  44
ENDBRANCH  35  38
ENDBRANCH   1  34
TORSDOF 12
ENDMDL
MODEL 2
REMARK VINA RESULT:      -9.9      1.734     10.634
REMARK  12 active torsions:
REMARK  status: ('A' for Active; 'I' for Inactive)
REMARK       I    between atoms: C2_2  and  N3_3 
REMARK    1  A    between atoms: C2_2  and  C36_36 
REMARK    2  A    between atoms: N3_3  and  C4_4 
REMARK    3  A    between atoms: N7_7  and  C9_9 
REMARK    4  A    between atoms: C9_9  and  C10_10 
REMARK    5  A    between atoms: C10_10  and  C11_11 
REMARK    6  A    between atoms: C11_11  and  C12_12 
REMARK    7  A    between atoms: C12_12  and  C13_13 
REMARK    8  A    between atoms: C13_13  and  C14_14 
REMARK       I    between atoms: C14_14  and  N16_16 
REMARK    9  A    between atoms: N16_16  and  C17_17 
REMARK   10  A    between atoms: C17_17  and  C18_18 
REMARK   11  A    between atoms: C41_41  and  C42_42 
REMARK   12  A    between atoms: C45_45  and  C46_46 
ROOT
ATOM      1  C4  ZIN A   1      18.452  -1.732  10.274  0.00  0.00     0.087 C 
ATOM      2  C5  ZIN A   1      17.715  -2.598  11.299  0.00  0.00     0.053 C 
ATOM      3  C6  ZIN A   1      18.114  -4.062  11.106  0.00  0.00     0.237 C 
ATOM      4  N7  ZIN A   1      17.755  -4.495   9.750  0.00  0.00    -0.071 N 
ATOM      5  H8  ZIN A   1      16.768  -4.353   9.603  0.00  0.00     0.279 HD
ATOM      6  C34 ZIN A   1      18.513  -3.718   8.761  0.00  0.00     0.237 C 
ATOM      7  C35 ZIN A   1      18.128  -2.240   8.866  0.00  0.00     0.053 C 
ENDROOT
BRANCH   4   8
ATOM      8  C9  ZIN A   1      18.072  -5.921   9.594  0.00  0.00     0.235 C 
BRANCH   8   9
ATOM      9  C10 ZIN A   1      18.955  -6.115   8.358  0.00  0.00     0.028 C 
BRANCH   9  10
ATOM     10  C11 ZIN A   1      18.143  -6.795   7.254  0.00  0.00     0.003 C 
BRANCH  10  11
ATOM     11  C12 ZIN A   1      18.173  -5.929   5.993  0.00  0.00     0.029 C 
BRANCH  11  12
ATOM     12  C13 ZIN A   1      16.840  -6.061   5.252  0.00  0.00     0.096 A 
ATOM     13  C33 ZIN A   1      15.754  -6.486   6.209  0.00  0.00    -0.025 A 
ATOM     14  C28 ZIN A   1      15.259  -7.710   5.765  0.00  0.00    -0.018 A 
ATOM     15  C32 ZIN A   1      15.239  -5.897   7.344  0.00  0.00     0.009 A 
ATOM     16  C27 ZIN A   1      15.982  -8.118   4.536  0.00  0.00    -0.018 A 
ATOM     17  C29 ZIN A   1      14.235  -8.334   6.480  0.00  0.00     0.013 A 
ATOM     18  C22 ZIN A   1      16.930  -7.151   4.212  0.00  0.00    -0.025 A 
ATOM     19  C26 ZIN A   1      15.854  -9.248   3.726  0.00  0.00     0.013 A 
ATOM     20  C23 ZIN A   1      17.733  -7.307   3.102  0.00  0.00     0.009 A 
ATOM     21  C24 ZIN A   1      17.600  -8.429   2.303  0.00  0.00     0.001 A 
ATOM     22  C25 ZIN A   1      16.661  -9.396   2.617  0.00  0.00     0.001 A 
ATOM     23  C30 ZIN A   1      13.725  -7.737   7.614  0.00  0.00     0.001 A 
ATOM     24  C31 ZIN A   1      14.222  -6.522   8.047  0.00  0.00     0.001 A 
BRANCH  12  25
ATOM     25  C14 ZIN A   1      16.478  -4.750   4.602  0.00  0.00     0.235 C 
ATOM     26  O15 ZIN A   1      15.432  -4.641   3.999  0.00  0.00    -0.272 OA
ATOM     27  N16 ZIN A   1      17.317  -3.699   4.691  0.00  0.00    -0.351 N 
ATOM     28  H66 ZIN A   1      18.154  -3.787   5.173  0.00  0.00     0.162 HD
BRANCH  27  29
ATOM     29  C17 ZIN A   1      16.965  -2.425   4.059  0.00  0.00     0.240 C 
BRANCH  29  30
ATOM     30  C18 ZIN A   1      17.708  -1.287   4.760  0.00  0.00     0.403 C 
ATOM     31  F19 ZIN A   1      18.215  -0.400   3.803  0.00  0.00    -0.169 F 
ATOM     32  F20 ZIN A   1      16.826  -0.604   5.605  0.00  0.00    -0.169 F 
ATOM     33  F21 ZIN A   1      18.763  -1.812   5.514  0.00  0.00    -0.169 F 
ENDBRANCH  29  30
ENDBRANCH  27  29
ENDBRANCH  12  25
ENDBRANCH  11  12
ENDBRANCH  10  11
ENDBRANCH   9  10
ENDBRANCH   8   9
ENDBRANCH   4   8
BRANCH   1  34
ATOM     34  N3  ZIN A   1      18.016  -0.339  10.404  0.00  0.00    -0.352 N 
ATOM     35  C2  ZIN A   1      18.891   0.606  10.800  0.00  0.00     0.252 C 
ATOM     36  O1  ZIN A   1      20.042   0.303  11.049  0.00  0.00    -0.268 OA
ATOM     37  H52 ZIN A   1      17.098  -0.098  10.205  0.00  0.00     0.163 HD
BRANCH  35  38
ATOM     38  C36 ZIN A   1      18.450   2.008  10.937  0.00  0.00     0.043 A 
ATOM     39  C41 ZIN A   1      18.103   2.521  12.201  0.00  0.00    -0.010 A 
ATOM     40  C40 ZIN A   1      17.695   3.846  12.316  0.00  0.00     0.013 A 
ATOM     41  C39 ZIN A   1      17.621   4.647  11.194  0.00  0.00     0.001 A 
ATOM     42  C38 ZIN A   1      17.958   4.142   9.949  0.00  0.00     0.001 A 
ATOM     43  C37 ZIN A   1      18.371   2.832   9.815  0.00  0.00     0.018 A 
BRANCH  39  44
ATOM     44  C42 ZIN A   1      18.183   1.657  13.403  0.00  0.00    -0.025 A 
ATOM     45  C51 ZIN A   1      17.297   0.592  13.559  0.00  0.00     0.013 A 
ATOM     46  C50 ZIN A   1      17.379  -0.212  14.678  0.00  0.00     0.017 A 
ATOM     47  C45 ZIN A   1      18.329   0.045  15.649  0.00  0.00     0.048 A 
ATOM     48  C44 ZIN A   1      19.208   1.104  15.503  0.00  0.00     0.017 A 
ATOM     49  C43 ZIN A   1      19.138   1.912  14.386  0.00  0.00     0.013 A 
BRANCH  47  50
ATOM     50  C46 ZIN A   1      18.409  -0.832  16.871  0.00  0.00     0.417 C 
ATOM     51  F47 ZIN A   1      18.720  -0.050  17.988  0.00  0.00    -0.166 F 
ATOM     52  F48 ZIN A   1      17.178  -1.465  17.073  0.00  0.00    -0.166 F 
ATOM     53  F49 ZIN A   1      19.405  -1.798  16.688  0.00  0.00    -0.166 F 
ENDBRANCH  47  50
ENDBRANCH  39  44
ENDBRANCH  35  38
ENDBRANCH   1  34
TORSDOF 12
ENDMDL
MODEL 3
REMARK VINA RESULT:      -9.8      2.393      3.964
REMARK  12 active torsions:
REMARK  status: ('A' for Active; 'I' for Inactive)
REMARK       I    between atoms: C2_2  and  N3_3 
REMARK    1  A    between atoms: C2_2  and  C36_36 
REMARK    2  A    between atoms: N3_3  and  C4_4 
REMARK    3  A    between atoms: N7_7  and  C9_9 
REMARK    4  A    between atoms: C9_9  and  C10_10 
REMARK    5  A    between atoms: C10_10  and  C11_11 
REMARK    6  A    between atoms: C11_11  and  C12_12 
REMARK    7  A    between atoms: C12_12  and  C13_13 
REMARK    8  A    between atoms: C13_13  and  C14_14 
REMARK       I    between atoms: C14_14  and  N16_16 
REMARK    9  A    between atoms: N16_16  and  C17_17 
REMARK   10  A    between atoms: C17_17  and  C18_18 
REMARK   11  A    between atoms: C41_41  and  C42_42 
REMARK   12  A    between atoms: C45_45  and  C46_46 
ROOT
ATOM      1  C4  ZIN A   1      17.742  -5.069   8.391  0.00  0.00     0.087 C 
ATOM      2  C5  ZIN A   1      18.258  -3.628   8.397  0.00  0.00     0.053 C 
ATOM      3  C6  ZIN A   1      18.796  -3.289   9.789  0.00  0.00     0.237 C 
ATOM      4  N7  ZIN A   1      17.723  -3.430  10.779  0.00  0.00    -0.071 N 
ATOM      5  H8  ZIN A   1      16.948  -2.838  10.522  0.00  0.00     0.279 HD
ATOM      6  C34 ZIN A   1      17.272  -4.827  10.831  0.00  0.00     0.237 C 
ATOM      7  C35 ZIN A   1      16.675  -5.224   9.479  0.00  0.00     0.053 C 
ENDROOT
BRANCH   4   8
ATOM      8  C9  ZIN A   1      18.224  -3.031  12.102  0.00  0.00     0.235 C 
BRANCH   8   9
ATOM      9  C10 ZIN A   1      19.530  -2.250  11.937  0.00  0.00     0.028 C 
BRANCH   9  10
ATOM     10  C11 ZIN A   1      19.824  -1.474  13.223  0.00  0.00     0.003 C 
BRANCH  10  11
ATOM     11  C12 ZIN A   1      20.015   0.008  12.890  0.00  0.00     0.029 C 
BRANCH  11  12
ATOM     12  C13 ZIN A   1      18.755   0.784  13.279  0.00  0.00     0.096 A 
ATOM     13  C33 ZIN A   1      19.060   2.258  13.373  0.00  0.00    -0.025 A 
ATOM     14  C28 ZIN A   1      18.799   2.659  14.681  0.00  0.00    -0.018 A 
ATOM     15  C32 ZIN A   1      19.518   3.169  12.444  0.00  0.00     0.009 A 
ATOM     16  C27 ZIN A   1      18.325   1.495  15.468  0.00  0.00    -0.018 A 
ATOM     17  C29 ZIN A   1      19.003   3.992  15.042  0.00  0.00     0.013 A 
ATOM     18  C22 ZIN A   1      18.291   0.366  14.654  0.00  0.00    -0.025 A 
ATOM     19  C26 ZIN A   1      17.940   1.384  16.806  0.00  0.00     0.013 A 
ATOM     20  C23 ZIN A   1      17.882  -0.848  15.163  0.00  0.00     0.009 A 
ATOM     21  C24 ZIN A   1      17.501  -0.949  16.490  0.00  0.00     0.001 A 
ATOM     22  C25 ZIN A   1      17.532   0.166  17.307  0.00  0.00     0.001 A 
ATOM     23  C30 ZIN A   1      19.460   4.897  14.105  0.00  0.00     0.001 A 
ATOM     24  C31 ZIN A   1      19.717   4.489  12.810  0.00  0.00     0.001 A 
BRANCH  12  25
ATOM     25  C14 ZIN A   1      17.665   0.542  12.267  0.00  0.00     0.235 C 
ATOM     26  O15 ZIN A   1      16.504   0.519  12.619  0.00  0.00    -0.272 OA
ATOM     27  N16 ZIN A   1      17.980   0.349  10.971  0.00  0.00    -0.351 N 
ATOM     28  H66 ZIN A   1      18.908   0.366  10.690  0.00  0.00     0.162 HD
BRANCH  27  29
ATOM     29  C17 ZIN A   1      16.921   0.113   9.986  0.00  0.00     0.240 C 
BRANCH  29  30
ATOM     30  C18 ZIN A   1      17.517   0.146   8.578  0.00  0.00     0.403 C 
ATOM     31  F19 ZIN A   1      18.775  -0.467   8.589  0.00  0.00    -0.169 F 
ATOM     32  F20 ZIN A   1      16.673  -0.540   7.698  0.00  0.00    -0.169 F 
ATOM     33  F21 ZIN A   1      17.648   1.474   8.159  0.00  0.00    -0.169 F 
ENDBRANCH  29  30
ENDBRANCH  27  29
ENDBRANCH  12  25
ENDBRANCH  11  12
ENDBRANCH  10  11
ENDBRANCH   9  10
ENDBRANCH   8   9
ENDBRANCH   4   8
BRANCH   1  34
ATOM     34  N3  ZIN A   1      17.156  -5.375   7.084  0.00  0.00    -0.352 N 
ATOM     35  C2  ZIN A   1      17.884  -6.026   6.154  0.00  0.00     0.252 C 
ATOM     36  O1  ZIN A   1      19.027  -6.358   6.401  0.00  0.00    -0.268 OA
ATOM     37  H52 ZIN A   1      16.244  -5.110   6.887  0.00  0.00     0.163 HD
BRANCH  35  38
ATOM     38  C36 ZIN A   1      17.296  -6.328   4.835  0.00  0.00     0.043 A 
ATOM     39  C41 ZIN A   1      17.130  -5.306   3.882  0.00  0.00    -0.010 A 
ATOM     40  C40 ZIN A   1      16.579  -5.607   2.641  0.00  0.00     0.013 A 
ATOM     41  C39 ZIN A   1      16.188  -6.899   2.353  0.00  0.00     0.001 A 
ATOM     42  C38 ZIN A   1      16.346  -7.905   3.291  0.00  0.00     0.001 A 
ATOM     43  C37 ZIN A   1      16.895  -7.628   4.526  0.00  0.00     0.018 A 
BRANCH  39  44
ATOM     44  C42 ZIN A   1      17.550  -3.920   4.196  0.00  0.00    -0.025 A 
ATOM     45  C51 ZIN A   1      16.631  -2.875   4.114  0.00  0.00     0.013 A 
ATOM     46  C50 ZIN A   1      17.027  -1.586   4.413  0.00  0.00     0.017 A 
ATOM     47  C45 ZIN A   1      18.336  -1.330   4.780  0.00  0.00     0.048 A 
ATOM     48  C44 ZIN A   1      19.254  -2.362   4.858  0.00  0.00     0.017 A 
ATOM     49  C43 ZIN A   1      18.868  -3.655   4.566  0.00  0.00     0.013 A 
BRANCH  47  50
ATOM     50  C46 ZIN A   1      18.763   0.080   5.098  0.00  0.00     0.417 C 
ATOM     51  F47 ZIN A   1      19.335   0.661   3.962  0.00  0.00    -0.166 F 
ATOM     52  F48 ZIN A   1      17.649   0.827   5.494  0.00  0.00    -0.166 F 
ATOM     53  F49 ZIN A   1      19.703   0.060   6.134  0.00  0.00    -0.166 F 
ENDBRANCH  47  50
ENDBRANCH  39  44
ENDBRANCH  35  38
ENDBRANCH   1  34
TORSDOF 12
ENDMDL
MODEL 4
REMARK VINA RESULT:      -9.7      3.275      5.693
REMARK  12 active torsions:
REMARK  status: ('A' for Active; 'I' for Inactive)
REMARK       I    between atoms: C2_2  and  N3_3 
REMARK    1  A    between atoms: C2_2  and  C36_36 
REMARK    2  A    between atoms: N3_3  and  C4_4 
REMARK    3  A    between atoms: N7_7  and  C9_9 
REMARK    4  A    between atoms: C9_9  and  C10_10 
REMARK    5  A    between atoms: C10_10  and  C11_11 
REMARK    6  A    between atoms: C11_11  and  C12_12 
REMARK    7  A    between atoms: C12_12  and  C13_13 
REMARK    8  A    between atoms: C13_13  and  C14_14 
REMARK       I    between atoms: C14_14  and  N16_16 
REMARK    9  A    between atoms: N16_16  and  C17_17 
REMARK   10  A    between atoms: C17_17  and  C18_18 
REMARK   11  A    between atoms: C41_41  and  C42_42 
REMARK   12  A    between atoms: C45_45  and  C46_46 
ROOT
ATOM      1  C4  ZIN A   1      18.792  -1.050   7.032  0.00  0.00     0.087 C 
ATOM      2  C5  ZIN A   1      18.185   0.265   6.535  0.00  0.00     0.053 C 
ATOM      3  C6  ZIN A   1      18.862   1.437   7.251  0.00  0.00     0.237 C 
ATOM      4  N7  ZIN A   1      18.652   1.316   8.698  0.00  0.00    -0.071 N 
ATOM      5  H8  ZIN A   1      17.663   1.278   8.893  0.00  0.00     0.279 HD
ATOM      6  C34 ZIN A   1      19.294   0.092   9.195  0.00  0.00     0.237 C 
ATOM      7  C35 ZIN A   1      18.634  -1.131   8.554  0.00  0.00     0.053 C 
ENDROOT
BRANCH   4   8
ATOM      8  C9  ZIN A   1      19.238   2.481   9.375  0.00  0.00     0.235 C 
BRANCH   8   9
ATOM      9  C10 ZIN A   1      20.059   2.013  10.579  0.00  0.00     0.028 C 
BRANCH   9  10
ATOM     10  C11 ZIN A   1      20.211   3.167  11.571  0.00  0.00     0.003 C 
BRANCH  10  11
ATOM     11  C12 ZIN A   1      18.965   4.054  11.516  0.00  0.00     0.029 C 
BRANCH  11  12
ATOM     12  C13 ZIN A   1      18.106   3.802  12.758  0.00  0.00     0.096 A 
ATOM     13  C33 ZIN A   1      18.863   4.197  14.002  0.00  0.00    -0.025 A 
ATOM     14  C28 ZIN A   1      18.998   3.057  14.790  0.00  0.00    -0.018 A 
ATOM     15  C32 ZIN A   1      19.389   5.400  14.422  0.00  0.00     0.009 A 
ATOM     16  C27 ZIN A   1      18.352   1.908  14.111  0.00  0.00    -0.018 A 
ATOM     17  C29 ZIN A   1      19.669   3.145  16.011  0.00  0.00     0.013 A 
ATOM     18  C22 ZIN A   1      17.814   2.328  12.897  0.00  0.00    -0.025 A 
ATOM     19  C26 ZIN A   1      18.220   0.571  14.490  0.00  0.00     0.013 A 
ATOM     20  C23 ZIN A   1      17.158   1.433  12.079  0.00  0.00     0.009 A 
ATOM     21  C24 ZIN A   1      17.031   0.110  12.462  0.00  0.00     0.001 A 
ATOM     22  C25 ZIN A   1      17.562  -0.318  13.666  0.00  0.00     0.001 A 
ATOM     23  C30 ZIN A   1      20.191   4.353  16.425  0.00  0.00     0.001 A 
ATOM     24  C31 ZIN A   1      20.052   5.479  15.635  0.00  0.00     0.001 A 
BRANCH  12  25
ATOM     25  C14 ZIN A   1      16.820   4.581  12.663  0.00  0.00     0.235 C 
ATOM     26  O15 ZIN A   1      16.293   4.754  11.585  0.00  0.00    -0.272 OA
ATOM     27  N16 ZIN A   1      16.254   5.087  13.778  0.00  0.00    -0.351 N 
ATOM     28  H66 ZIN A   1      16.676   4.949  14.640  0.00  0.00     0.162 HD
BRANCH  27  29
ATOM     29  C17 ZIN A   1      15.004   5.844  13.687  0.00  0.00     0.240 C 
BRANCH  29  30
ATOM     30  C18 ZIN A   1      14.638   6.392  15.067  0.00  0.00     0.403 C 
ATOM     31  F19 ZIN A   1      15.454   5.799  16.037  0.00  0.00    -0.169 F 
ATOM     32  F20 ZIN A   1      14.827   7.778  15.084  0.00  0.00    -0.169 F 
ATOM     33  F21 ZIN A   1      13.298   6.101  15.344  0.00  0.00    -0.169 F 
ENDBRANCH  29  30
ENDBRANCH  27  29
ENDBRANCH  12  25
ENDBRANCH  11  12
ENDBRANCH  10  11
ENDBRANCH   9  10
ENDBRANCH   8   9
ENDBRANCH   4   8
BRANCH   1  34
ATOM     34  N3  ZIN A   1      18.097  -2.178   6.408  0.00  0.00    -0.352 N 
ATOM     35  C2  ZIN A   1      18.804  -3.159   5.811  0.00  0.00     0.252 C 
ATOM     36  O1  ZIN A   1      20.019  -3.107   5.793  0.00  0.00    -0.268 OA
ATOM     37  H52 ZIN A   1      17.128  -2.219   6.423  0.00  0.00     0.163 HD
BRANCH  35  38
ATOM     38  C36 ZIN A   1      18.104  -4.293   5.177  0.00  0.00     0.043 A 
ATOM     39  C41 ZIN A   1      17.563  -5.323   5.968  0.00  0.00    -0.010 A 
ATOM     40  C40 ZIN A   1      16.900  -6.382   5.357  0.00  0.00     0.013 A 
ATOM     41  C39 ZIN A   1      16.784  -6.425   3.982  0.00  0.00     0.001 A 
ATOM     42  C38 ZIN A   1      17.320  -5.414   3.202  0.00  0.00     0.001 A 
ATOM     43  C37 ZIN A   1      17.977  -4.352   3.789  0.00  0.00     0.018 A 
BRANCH  39  44
ATOM     44  C42 ZIN A   1      17.690  -5.274   7.444  0.00  0.00    -0.025 A 
ATOM     45  C51 ZIN A   1      18.923  -5.510   8.049  0.00  0.00     0.013 A 
ATOM     46  C50 ZIN A   1      19.037  -5.457   9.423  0.00  0.00     0.017 A 
ATOM     47  C45 ZIN A   1      17.926  -5.184  10.201  0.00  0.00     0.048 A 
ATOM     48  C44 ZIN A   1      16.698  -4.954   9.608  0.00  0.00     0.017 A 
ATOM     49  C43 ZIN A   1      16.574  -4.999   8.234  0.00  0.00     0.013 A 
BRANCH  47  50
ATOM     50  C46 ZIN A   1      18.055  -5.135  11.702  0.00  0.00     0.417 C 
ATOM     51  F47 ZIN A   1      19.406  -5.052  12.052  0.00  0.00    -0.166 F 
ATOM     52  F48 ZIN A   1      17.376  -4.013  12.192  0.00  0.00    -0.166 F 
ATOM     53  F49 ZIN A   1      17.501  -6.294  12.256  0.00  0.00    -0.166 F 
ENDBRANCH  47  50
ENDBRANCH  39  44
ENDBRANCH  35  38
ENDBRANCH   1  34
TORSDOF 12
ENDMDL
MODEL 5
REMARK VINA RESULT:      -9.7      3.680     10.703
REMARK  12 active torsions:
REMARK  status: ('A' for Active; 'I' for Inactive)
REMARK       I    between atoms: C2_2  and  N3_3 
REMARK    1  A    between atoms: C2_2  and  C36_36 
REMARK    2  A    between atoms: N3_3  and  C4_4 
REMARK    3  A    between atoms: N7_7  and  C9_9 
REMARK    4  A    between atoms: C9_9  and  C10_10 
REMARK    5  A    between atoms: C10_10  and  C11_11 
REMARK    6  A    between atoms: C11_11  and  C12_12 
REMARK    7  A    between atoms: C12_12  and  C13_13 
REMARK    8  A    between atoms: C13_13  and  C14_14 
REMARK       I    between atoms: C14_14  and  N16_16 
REMARK    9  A    between atoms: N16_16  and  C17_17 
REMARK   10  A    between atoms: C17_17  and  C18_18 
REMARK   11  A    between atoms: C41_41  and  C42_42 
REMARK   12  A    between atoms: C45_45  and  C46_46 
ROOT
ATOM      1  C4  ZIN A   1      18.749   1.220  15.668  0.00  0.00     0.087 C 
ATOM      2  C5  ZIN A   1      17.825   0.027  15.929  0.00  0.00     0.053 C 
ATOM      3  C6  ZIN A   1      18.484  -1.249  15.400  0.00  0.00     0.237 C 
ATOM      4  N7  ZIN A   1      18.720  -1.118  13.958  0.00  0.00    -0.071 N 
ATOM      5  H8  ZIN A   1      17.847  -0.925  13.490  0.00  0.00     0.279 HD
ATOM      6  C34 ZIN A   1      19.663  -0.021  13.703  0.00  0.00     0.237 C 
ATOM      7  C35 ZIN A   1      19.049   1.301  14.168  0.00  0.00     0.053 C 
ENDROOT
BRANCH   4   8
ATOM      8  C9  ZIN A   1      19.283  -2.373  13.440  0.00  0.00     0.235 C 
BRANCH   8   9
ATOM      9  C10 ZIN A   1      20.225  -2.066  12.273  0.00  0.00     0.028 C 
BRANCH   9  10
ATOM     10  C11 ZIN A   1      20.254  -3.259  11.315  0.00  0.00     0.003 C 
BRANCH  10  11
ATOM     11  C12 ZIN A   1      18.925  -4.012  11.399  0.00  0.00     0.029 C 
BRANCH  11  12
ATOM     12  C13 ZIN A   1      18.101  -3.732  10.140  0.00  0.00     0.096 A 
ATOM     13  C33 ZIN A   1      18.901  -4.075   8.908  0.00  0.00    -0.025 A 
ATOM     14  C28 ZIN A   1      19.042  -2.908   8.162  0.00  0.00    -0.018 A 
ATOM     15  C32 ZIN A   1      19.456  -5.256   8.465  0.00  0.00     0.009 A 
ATOM     16  C27 ZIN A   1      18.358  -1.791   8.858  0.00  0.00    -0.018 A 
ATOM     17  C29 ZIN A   1      19.751  -2.946   6.960  0.00  0.00     0.013 A 
ATOM     18  C22 ZIN A   1      17.790  -2.258  10.040  0.00  0.00    -0.025 A 
ATOM     19  C26 ZIN A   1      18.219  -0.444   8.518  0.00  0.00     0.013 A 
ATOM     20  C23 ZIN A   1      17.097  -1.400  10.866  0.00  0.00     0.009 A 
ATOM     21  C24 ZIN A   1      16.961  -0.066  10.522  0.00  0.00     0.001 A 
ATOM     22  C25 ZIN A   1      17.522   0.408   9.350  0.00  0.00     0.001 A 
ATOM     23  C30 ZIN A   1      20.304  -4.134   6.524  0.00  0.00     0.001 A 
ATOM     24  C31 ZIN A   1      20.158  -5.287   7.271  0.00  0.00     0.001 A 
BRANCH  12  25
ATOM     25  C14 ZIN A   1      16.823  -4.531  10.170  0.00  0.00     0.235 C 
ATOM     26  O15 ZIN A   1      16.288  -4.781  11.229  0.00  0.00    -0.272 OA
ATOM     27  N16 ZIN A   1      16.275  -4.970   9.018  0.00  0.00    -0.351 N 
ATOM     28  H66 ZIN A   1      16.704  -4.770   8.172  0.00  0.00     0.162 HD
BRANCH  27  29
ATOM     29  C17 ZIN A   1      15.034  -5.747   9.047  0.00  0.00     0.240 C 
BRANCH  29  30
ATOM     30  C18 ZIN A   1      14.971  -6.651   7.815  0.00  0.00     0.403 C 
ATOM     31  F19 ZIN A   1      13.820  -7.444   7.875  0.00  0.00    -0.169 F 
ATOM     32  F20 ZIN A   1      14.935  -5.863   6.659  0.00  0.00    -0.169 F 
ATOM     33  F21 ZIN A   1      16.102  -7.474   7.783  0.00  0.00    -0.169 F 
ENDBRANCH  29  30
ENDBRANCH  27  29
ENDBRANCH  12  25
ENDBRANCH  11  12
ENDBRANCH  10  11
ENDBRANCH   9  10
ENDBRANCH   8   9
ENDBRANCH   4   8
BRANCH   1  34
ATOM     34  N3  ZIN A   1      18.092   2.454  16.104  0.00  0.00    -0.352 N 
ATOM     35  C2  ZIN A   1      18.786   3.378  16.798  0.00  0.00     0.252 C 
ATOM     36  O1  ZIN A   1      19.957   3.186  17.062  0.00  0.00    -0.268 OA
ATOM     37  H52 ZIN A   1      17.158   2.607  15.892  0.00  0.00     0.163 HD
BRANCH  35  38
ATOM     38  C36 ZIN A   1      18.122   4.620  17.242  0.00  0.00     0.043 A 
ATOM     39  C41 ZIN A   1      17.606   5.523  16.295  0.00  0.00    -0.010 A 
ATOM     40  C40 ZIN A   1      16.978   6.687  16.728  0.00  0.00     0.013 A 
ATOM     41  C39 ZIN A   1      16.872   6.955  18.079  0.00  0.00     0.001 A 
ATOM     42  C38 ZIN A   1      17.384   6.068  19.011  0.00  0.00     0.001 A 
ATOM     43  C37 ZIN A   1      18.006   4.906  18.602  0.00  0.00     0.018 A 
BRANCH  39  44
ATOM     44  C42 ZIN A   1      17.722   5.233  14.847  0.00  0.00    -0.025 A 
ATOM     45  C51 ZIN A   1      16.575   5.039  14.079  0.00  0.00     0.013 A 
ATOM     46  C50 ZIN A   1      16.688   4.774  12.728  0.00  0.00     0.017 A 
ATOM     47  C45 ZIN A   1      17.937   4.687  12.141  0.00  0.00     0.048 A 
ATOM     48  C44 ZIN A   1      19.080   4.873  12.899  0.00  0.00     0.017 A 
ATOM     49  C43 ZIN A   1      18.978   5.144  14.248  0.00  0.00     0.013 A 
BRANCH  47  50
ATOM     50  C46 ZIN A   1      18.055   4.390  10.668  0.00  0.00     0.417 C 
ATOM     51  F47 ZIN A   1      18.015   5.587   9.946  0.00  0.00    -0.166 F 
ATOM     52  F48 ZIN A   1      19.266   3.735  10.420  0.00  0.00    -0.166 F 
ATOM     53  F49 ZIN A   1      16.992   3.572  10.271  0.00  0.00    -0.166 F 
ENDBRANCH  47  50
ENDBRANCH  39  44
ENDBRANCH  35  38
ENDBRANCH   1  34
TORSDOF 12
ENDMDL
MODEL 6
REMARK VINA RESULT:      -9.7      2.852     10.121
REMARK  12 active torsions:
REMARK  status: ('A' for Active; 'I' for Inactive)
REMARK       I    between atoms: C2_2  and  N3_3 
REMARK    1  A    between atoms: C2_2  and  C36_36 
REMARK    2  A    between atoms: N3_3  and  C4_4 
REMARK    3  A    between atoms: N7_7  and  C9_9 
REMARK    4  A    between atoms: C9_9  and  C10_10 
REMARK    5  A    between atoms: C10_10  and  C11_11 
REMARK    6  A    between atoms: C11_11  and  C12_12 
REMARK    7  A    between atoms: C12_12  and  C13_13 
REMARK    8  A    between atoms: C13_13  and  C14_14 
REMARK       I    between atoms: C14_14  and  N16_16 
REMARK    9  A    between atoms: N16_16  and  C17_17 
REMARK   10  A    between atoms: C17_17  and  C18_18 
REMARK   11  A    between atoms: C41_41  and  C42_42 
REMARK   12  A    between atoms: C45_45  and  C46_46 
ROOT
ATOM      1  C4  ZIN A   1      18.577  -3.619  11.236  0.00  0.00     0.087 C 
ATOM      2  C5  ZIN A   1      17.744  -4.904  11.224  0.00  0.00     0.053 C 
ATOM      3  C6  ZIN A   1      18.234  -5.814  10.096  0.00  0.00     0.237 C 
ATOM      4  N7  ZIN A   1      18.090  -5.124   8.809  0.00  0.00    -0.071 N 
ATOM      5  H8  ZIN A   1      17.128  -4.852   8.680  0.00  0.00     0.279 HD
ATOM      6  C34 ZIN A   1      18.943  -3.928   8.785  0.00  0.00     0.237 C 
ATOM      7  C35 ZIN A   1      18.479  -2.946   9.864  0.00  0.00     0.053 C 
ENDROOT
BRANCH   4   8
ATOM      8  C9  ZIN A   1      18.491  -6.028   7.723  0.00  0.00     0.235 C 
BRANCH   8   9
ATOM      9  C10 ZIN A   1      17.729  -7.350   7.852  0.00  0.00     0.028 C 
BRANCH   9  10
ATOM     10  C11 ZIN A   1      17.249  -7.798   6.470  0.00  0.00     0.003 C 
BRANCH  10  11
ATOM     11  C12 ZIN A   1      17.354  -6.627   5.490  0.00  0.00     0.029 C 
BRANCH  11  12
ATOM     12  C13 ZIN A   1      16.009  -6.430   4.787  0.00  0.00     0.096 A 
ATOM     13  C33 ZIN A   1      14.876  -6.710   5.743  0.00  0.00    -0.025 A 
ATOM     14  C28 ZIN A   1      14.139  -7.770   5.221  0.00  0.00    -0.018 A 
ATOM     15  C32 ZIN A   1      14.508  -6.128   6.937  0.00  0.00     0.009 A 
ATOM     16  C27 ZIN A   1      14.744  -8.209   3.940  0.00  0.00    -0.018 A 
ATOM     17  C29 ZIN A   1      13.023  -8.236   5.919  0.00  0.00     0.013 A 
ATOM     18  C22 ZIN A   1      15.861  -7.425   3.661  0.00  0.00    -0.025 A 
ATOM     19  C26 ZIN A   1      14.379  -9.219   3.049  0.00  0.00     0.013 A 
ATOM     20  C23 ZIN A   1      16.597  -7.644   2.517  0.00  0.00     0.009 A 
ATOM     21  C24 ZIN A   1      16.228  -8.647   1.637  0.00  0.00     0.001 A 
ATOM     22  C25 ZIN A   1      15.120  -9.431   1.906  0.00  0.00     0.001 A 
ATOM     23  C30 ZIN A   1      12.662  -7.647   7.113  0.00  0.00     0.001 A 
ATOM     24  C31 ZIN A   1      13.400  -6.596   7.623  0.00  0.00     0.001 A 
BRANCH  12  25
ATOM     25  C14 ZIN A   1      15.905  -5.024   4.254  0.00  0.00     0.235 C 
ATOM     26  O15 ZIN A   1      14.955  -4.702   3.573  0.00  0.00    -0.272 OA
ATOM     27  N16 ZIN A   1      16.869  -4.124   4.534  0.00  0.00    -0.351 N 
ATOM     28  H66 ZIN A   1      17.629  -4.382   5.079  0.00  0.00     0.162 HD
BRANCH  27  29
ATOM     29  C17 ZIN A   1      16.768  -2.757   4.016  0.00  0.00     0.240 C 
BRANCH  29  30
ATOM     30  C18 ZIN A   1      17.962  -1.937   4.509  0.00  0.00     0.403 C 
ATOM     31  F19 ZIN A   1      17.851  -1.733   5.889  0.00  0.00    -0.169 F 
ATOM     32  F20 ZIN A   1      19.148  -2.628   4.235  0.00  0.00    -0.169 F 
ATOM     33  F21 ZIN A   1      17.980  -0.701   3.855  0.00  0.00    -0.169 F 
ENDBRANCH  29  30
ENDBRANCH  27  29
ENDBRANCH  12  25
ENDBRANCH  11  12
ENDBRANCH  10  11
ENDBRANCH   9  10
ENDBRANCH   8   9
ENDBRANCH   4   8
BRANCH   1  34
ATOM     34  N3  ZIN A   1      18.063  -2.711  12.264  0.00  0.00    -0.352 N 
ATOM     35  C2  ZIN A   1      18.904  -2.177  13.173  0.00  0.00     0.252 C 
ATOM     36  O1  ZIN A   1      20.088  -2.450  13.138  0.00  0.00    -0.268 OA
ATOM     37  H52 ZIN A   1      17.118  -2.494  12.291  0.00  0.00     0.163 HD
BRANCH  35  38
ATOM     38  C36 ZIN A   1      18.385  -1.267  14.213  0.00  0.00     0.043 A 
ATOM     39  C41 ZIN A   1      18.091   0.072  13.898  0.00  0.00    -0.010 A 
ATOM     40  C40 ZIN A   1      17.597   0.918  14.886  0.00  0.00     0.013 A 
ATOM     41  C39 ZIN A   1      17.408   0.445  16.170  0.00  0.00     0.001 A 
ATOM     42  C38 ZIN A   1      17.702  -0.872  16.482  0.00  0.00     0.001 A 
ATOM     43  C37 ZIN A   1      18.188  -1.727  15.514  0.00  0.00     0.018 A 
BRANCH  39  44
ATOM     44  C42 ZIN A   1      18.296   0.576  12.519  0.00  0.00    -0.025 A 
ATOM     45  C51 ZIN A   1      17.237   0.581  11.612  0.00  0.00     0.013 A 
ATOM     46  C50 ZIN A   1      17.432   1.056  10.331  0.00  0.00     0.017 A 
ATOM     47  C45 ZIN A   1      18.678   1.515   9.943  0.00  0.00     0.048 A 
ATOM     48  C44 ZIN A   1      19.734   1.508  10.837  0.00  0.00     0.017 A 
ATOM     49  C43 ZIN A   1      19.549   1.040  12.122  0.00  0.00     0.013 A 
BRANCH  47  50
ATOM     50  C46 ZIN A   1      18.886   2.026   8.541  0.00  0.00     0.417 C 
ATOM     51  F47 ZIN A   1      18.638   3.402   8.504  0.00  0.00    -0.166 F 
ATOM     52  F48 ZIN A   1      20.205   1.779   8.145  0.00  0.00    -0.166 F 
ATOM     53  F49 ZIN A   1      18.008   1.371   7.670  0.00  0.00    -0.166 F 
ENDBRANCH  47  50
ENDBRANCH  39  44
ENDBRANCH  35  38
ENDBRANCH   1  34
TORSDOF 12
ENDMDL
MODEL 7
REMARK VINA RESULT:      -9.6      2.569      5.157
REMARK  12 active torsions:
REMARK  status: ('A' for Active; 'I' for Inactive)
REMARK       I    between atoms: C2_2  and  N3_3 
REMARK    1  A    between atoms: C2_2  and  C36_36 
REMARK    2  A    between atoms: N3_3  and  C4_4 
REMARK    3  A    between atoms: N7_7  and  C9_9 
REMARK    4  A    between atoms: C9_9  and  C10_10 
REMARK    5  A    between atoms: C10_10  and  C11_11 
REMARK    6  A    between atoms: C11_11  and  C12_12 
REMARK    7  A    between atoms: C12_12  and  C13_13 
REMARK    8  A    between atoms: C13_13  and  C14_14 
REMARK       I    between atoms: C14_14  and  N16_16 
REMARK    9  A    between atoms: N16_16  and  C17_17 
REMARK   10  A    between atoms: C17_17  and  C18_18 
REMARK   11  A    between atoms: C41_41  and  C42_42 
REMARK   12  A    between atoms: C45_45  and  C46_46 
ROOT
ATOM      1  C4  ZIN A   1      18.360  -1.367   6.225  0.00  0.00     0.087 C 
ATOM      2  C5  ZIN A   1      17.500  -0.110   6.064  0.00  0.00     0.053 C 
ATOM      3  C6  ZIN A   1      18.143   1.045   6.834  0.00  0.00     0.237 C 
ATOM      4  N7  ZIN A   1      18.239   0.695   8.256  0.00  0.00    -0.071 N 
ATOM      5  H8  ZIN A   1      17.320   0.473   8.610  0.00  0.00     0.279 HD
ATOM      6  C34 ZIN A   1      19.121  -0.467   8.426  0.00  0.00     0.237 C 
ATOM      7  C35 ZIN A   1      18.514  -1.680   7.716  0.00  0.00     0.053 C 
ENDROOT
BRANCH   4   8
ATOM      8  C9  ZIN A   1      18.787   1.835   9.003  0.00  0.00     0.235 C 
BRANCH   8   9
ATOM      9  C10 ZIN A   1      17.809   2.236  10.111  0.00  0.00     0.028 C 
BRANCH   9  10
ATOM     10  C11 ZIN A   1      17.539   1.030  11.013  0.00  0.00     0.003 C 
BRANCH  10  11
ATOM     11  C12 ZIN A   1      17.217   1.514  12.428  0.00  0.00     0.029 C 
BRANCH  11  12
ATOM     12  C13 ZIN A   1      18.495   1.514  13.269  0.00  0.00     0.096 A 
ATOM     13  C33 ZIN A   1      18.218   0.939  14.636  0.00  0.00    -0.025 A 
ATOM     14  C28 ZIN A   1      18.501   1.929  15.573  0.00  0.00    -0.018 A 
ATOM     15  C32 ZIN A   1      17.766  -0.298  15.045  0.00  0.00     0.009 A 
ATOM     16  C27 ZIN A   1      18.962   3.153  14.874  0.00  0.00    -0.018 A 
ATOM     17  C29 ZIN A   1      18.325   1.657  16.931  0.00  0.00     0.013 A 
ATOM     18  C22 ZIN A   1      18.966   2.929  13.500  0.00  0.00    -0.025 A 
ATOM     19  C26 ZIN A   1      19.360   4.398  15.365  0.00  0.00     0.013 A 
ATOM     20  C23 ZIN A   1      19.360   3.926  12.633  0.00  0.00     0.009 A 
ATOM     21  C24 ZIN A   1      19.753   5.158  13.127  0.00  0.00     0.001 A 
ATOM     22  C25 ZIN A   1      19.752   5.390  14.490  0.00  0.00     0.001 A 
ATOM     23  C30 ZIN A   1      17.873   0.416  17.332  0.00  0.00     0.001 A 
ATOM     24  C31 ZIN A   1      17.595  -0.561  16.394  0.00  0.00     0.001 A 
BRANCH  12  25
ATOM     25  C14 ZIN A   1      19.570   0.714  12.578  0.00  0.00     0.235 C 
ATOM     26  O15 ZIN A   1      20.641   1.225  12.329  0.00  0.00    -0.272 OA
ATOM     27  N16 ZIN A   1      19.339  -0.569  12.233  0.00  0.00    -0.351 N 
ATOM     28  H66 ZIN A   1      18.481  -0.977  12.432  0.00  0.00     0.162 HD
BRANCH  27  29
ATOM     29  C17 ZIN A   1      20.382  -1.346  11.561  0.00  0.00     0.240 C 
BRANCH  29  30
ATOM     30  C18 ZIN A   1      19.973  -2.819  11.518  0.00  0.00     0.403 C 
ATOM     31  F19 ZIN A   1      21.113  -3.624  11.612  0.00  0.00    -0.169 F 
ATOM     32  F20 ZIN A   1      19.117  -3.096  12.590  0.00  0.00    -0.169 F 
ATOM     33  F21 ZIN A   1      19.312  -3.085  10.313  0.00  0.00    -0.169 F 
ENDBRANCH  29  30
ENDBRANCH  27  29
ENDBRANCH  12  25
ENDBRANCH  11  12
ENDBRANCH  10  11
ENDBRANCH   9  10
ENDBRANCH   8   9
ENDBRANCH   4   8
BRANCH   1  34
ATOM     34  N3  ZIN A   1      17.710  -2.495   5.553  0.00  0.00    -0.352 N 
ATOM     35  C2  ZIN A   1      18.451  -3.526   5.098  0.00  0.00     0.252 C 
ATOM     36  O1  ZIN A   1      19.658  -3.519   5.247  0.00  0.00    -0.268 OA
ATOM     37  H52 ZIN A   1      16.748  -2.500   5.435  0.00  0.00     0.163 HD
BRANCH  35  38
ATOM     38  C36 ZIN A   1      17.797  -4.660   4.416  0.00  0.00     0.043 A 
ATOM     39  C41 ZIN A   1      17.275  -5.731   5.165  0.00  0.00    -0.010 A 
ATOM     40  C40 ZIN A   1      16.657  -6.790   4.509  0.00  0.00     0.013 A 
ATOM     41  C39 ZIN A   1      16.566  -6.793   3.132  0.00  0.00     0.001 A 
ATOM     42  C38 ZIN A   1      17.084  -5.742   2.393  0.00  0.00     0.001 A 
ATOM     43  C37 ZIN A   1      17.697  -4.680   3.025  0.00  0.00     0.018 A 
BRANCH  39  44
ATOM     44  C42 ZIN A   1      17.374  -5.724   6.644  0.00  0.00    -0.025 A 
ATOM     45  C51 ZIN A   1      16.265  -5.389   7.418  0.00  0.00     0.013 A 
ATOM     46  C50 ZIN A   1      16.361  -5.390   8.795  0.00  0.00     0.017 A 
ATOM     47  C45 ZIN A   1      17.560  -5.710   9.406  0.00  0.00     0.048 A 
ATOM     48  C44 ZIN A   1      18.667  -6.038   8.644  0.00  0.00     0.017 A 
ATOM     49  C43 ZIN A   1      18.580  -6.046   7.266  0.00  0.00     0.013 A 
BRANCH  47  50
ATOM     50  C46 ZIN A   1      17.661  -5.702  10.910  0.00  0.00     0.417 C 
ATOM     51  F47 ZIN A   1      19.006  -5.636  11.286  0.00  0.00    -0.166 F 
ATOM     52  F48 ZIN A   1      16.979  -4.591  11.417  0.00  0.00    -0.166 F 
ATOM     53  F49 ZIN A   1      17.090  -6.873  11.422  0.00  0.00    -0.166 F 
ENDBRANCH  47  50
ENDBRANCH  39  44
ENDBRANCH  35  38
ENDBRANCH   1  34
TORSDOF 12
ENDMDL
MODEL 8
REMARK VINA RESULT:      -9.5      2.703     10.209
REMARK  12 active torsions:
REMARK  status: ('A' for Active; 'I' for Inactive)
REMARK       I    between atoms: C2_2  and  N3_3 
REMARK    1  A    between atoms: C2_2  and  C36_36 
REMARK    2  A    between atoms: N3_3  and  C4_4 
REMARK    3  A    between atoms: N7_7  and  C9_9 
REMARK    4  A    between atoms: C9_9  and  C10_10 
REMARK    5  A    between atoms: C10_10  and  C11_11 
REMARK    6  A    between atoms: C11_11  and  C12_12 
REMARK    7  A    between atoms: C12_12  and  C13_13 
REMARK    8  A    between atoms: C13_13  and  C14_14 
REMARK       I    between atoms: C14_14  and  N16_16 
REMARK    9  A    between atoms: N16_16  and  C17_17 
REMARK   10  A    between atoms: C17_17  and  C18_18 
REMARK   11  A    between atoms: C41_41  and  C42_42 
REMARK   12  A    between atoms: C45_45  and  C46_46 
ROOT
ATOM      1  C4  ZIN A   1      18.751  -1.332  11.824  0.00  0.00     0.087 C 
ATOM      2  C5  ZIN A   1      17.637  -2.382  11.863  0.00  0.00     0.053 C 
ATOM      3  C6  ZIN A   1      18.260  -3.779  11.904  0.00  0.00     0.237 C 
ATOM      4  N7  ZIN A   1      19.087  -3.985  10.709  0.00  0.00    -0.071 N 
ATOM      5  H8  ZIN A   1      18.524  -3.849   9.884  0.00  0.00     0.279 HD
ATOM      6  C34 ZIN A   1      20.200  -3.027  10.702  0.00  0.00     0.237 C 
ATOM      7  C35 ZIN A   1      19.651  -1.602  10.615  0.00  0.00     0.053 C 
ENDROOT
BRANCH   4   8
ATOM      8  C9  ZIN A   1      19.622  -5.353  10.716  0.00  0.00     0.235 C 
BRANCH   8   9
ATOM      9  C10 ZIN A   1      20.393  -5.605   9.417  0.00  0.00     0.028 C 
BRANCH   9  10
ATOM     10  C11 ZIN A   1      19.403  -5.844   8.276  0.00  0.00     0.003 C 
BRANCH  10  11
ATOM     11  C12 ZIN A   1      19.673  -4.843   7.150  0.00  0.00     0.029 C 
BRANCH  11  12
ATOM     12  C13 ZIN A   1      18.344  -4.278   6.642  0.00  0.00     0.096 A 
ATOM     13  C33 ZIN A   1      17.971  -4.927   5.332  0.00  0.00    -0.025 A 
ATOM     14  C28 ZIN A   1      17.901  -3.922   4.371  0.00  0.00    -0.018 A 
ATOM     15  C32 ZIN A   1      17.720  -6.238   4.987  0.00  0.00     0.009 A 
ATOM     16  C27 ZIN A   1      18.215  -2.616   4.999  0.00  0.00    -0.018 A 
ATOM     17  C29 ZIN A   1      17.572  -4.254   3.055  0.00  0.00     0.013 A 
ATOM     18  C22 ZIN A   1      18.483  -2.803   6.352  0.00  0.00    -0.025 A 
ATOM     19  C26 ZIN A   1      18.275  -1.328   4.463  0.00  0.00     0.013 A 
ATOM     20  C23 ZIN A   1      18.804  -1.729   7.154  0.00  0.00     0.009 A 
ATOM     21  C24 ZIN A   1      18.860  -0.456   6.616  0.00  0.00     0.001 A 
ATOM     22  C25 ZIN A   1      18.596  -0.259   5.273  0.00  0.00     0.001 A 
ATOM     23  C30 ZIN A   1      17.321  -5.569   2.719  0.00  0.00     0.001 A 
ATOM     24  C31 ZIN A   1      17.394  -6.560   3.680  0.00  0.00     0.001 A 
BRANCH  12  25
ATOM     25  C14 ZIN A   1      17.260  -4.508   7.663  0.00  0.00     0.235 C 
ATOM     26  O15 ZIN A   1      17.193  -3.802   8.647  0.00  0.00    -0.272 OA
ATOM     27  N16 ZIN A   1      16.363  -5.499   7.483  0.00  0.00    -0.351 N 
ATOM     28  H66 ZIN A   1      16.417  -6.064   6.696  0.00  0.00     0.162 HD
BRANCH  27  29
ATOM     29  C17 ZIN A   1      15.309  -5.722   8.476  0.00  0.00     0.240 C 
BRANCH  29  30
ATOM     30  C18 ZIN A   1      14.102  -6.374   7.799  0.00  0.00     0.403 C 
ATOM     31  F19 ZIN A   1      12.925  -5.785   8.275  0.00  0.00    -0.169 F 
ATOM     32  F20 ZIN A   1      14.188  -6.190   6.414  0.00  0.00    -0.169 F 
ATOM     33  F21 ZIN A   1      14.088  -7.743   8.087  0.00  0.00    -0.169 F 
ENDBRANCH  29  30
ENDBRANCH  27  29
ENDBRANCH  12  25
ENDBRANCH  11  12
ENDBRANCH  10  11
ENDBRANCH   9  10
ENDBRANCH   8   9
ENDBRANCH   4   8
BRANCH   1  34
ATOM     34  N3  ZIN A   1      18.161   0.004  11.708  0.00  0.00    -0.352 N 
ATOM     35  C2  ZIN A   1      18.928   1.098  11.895  0.00  0.00     0.252 C 
ATOM     36  O1  ZIN A   1      20.108   0.974  12.159  0.00  0.00    -0.268 OA
ATOM     37  H52 ZIN A   1      17.220   0.102  11.496  0.00  0.00     0.163 HD
BRANCH  35  38
ATOM     38  C36 ZIN A   1      18.332   2.443  11.783  0.00  0.00     0.043 A 
ATOM     39  C41 ZIN A   1      17.989   3.163  12.942  0.00  0.00    -0.010 A 
ATOM     40  C40 ZIN A   1      17.433   4.433  12.822  0.00  0.00     0.013 A 
ATOM     41  C39 ZIN A   1      17.212   4.976  11.572  0.00  0.00     0.001 A 
ATOM     42  C38 ZIN A   1      17.545   4.267  10.431  0.00  0.00     0.001 A 
ATOM     43  C37 ZIN A   1      18.102   3.008  10.529  0.00  0.00     0.018 A 
BRANCH  39  44
ATOM     44  C42 ZIN A   1      18.228   2.577  14.282  0.00  0.00    -0.025 A 
ATOM     45  C51 ZIN A   1      17.652   1.354  14.623  0.00  0.00     0.013 A 
ATOM     46  C50 ZIN A   1      17.882   0.810  15.871  0.00  0.00     0.017 A 
ATOM     47  C45 ZIN A   1      18.672   1.482  16.786  0.00  0.00     0.048 A 
ATOM     48  C44 ZIN A   1      19.241   2.699  16.456  0.00  0.00     0.017 A 
ATOM     49  C43 ZIN A   1      19.022   3.250  15.210  0.00  0.00     0.013 A 
BRANCH  47  50
ATOM     50  C46 ZIN A   1      18.914   0.886  18.149  0.00  0.00     0.417 C 
ATOM     51  F47 ZIN A   1      19.630   1.794  18.935  0.00  0.00    -0.166 F 
ATOM     52  F48 ZIN A   1      17.686   0.607  18.760  0.00  0.00    -0.166 F 
ATOM     53  F49 ZIN A   1      19.649  -0.297  18.017  0.00  0.00    -0.166 F 
ENDBRANCH  47  50
ENDBRANCH  39  44
ENDBRANCH  35  38
ENDBRANCH   1  34
TORSDOF 12
ENDMDL
MODEL 9
REMARK VINA RESULT:      -9.5      4.091     10.734
REMARK  12 active torsions:
REMARK  status: ('A' for Active; 'I' for Inactive)
REMARK       I    between atoms: C2_2  and  N3_3 
REMARK    1  A    between atoms: C2_2  and  C36_36 
REMARK    2  A    between atoms: N3_3  and  C4_4 
REMARK    3  A    between atoms: N7_7  and  C9_9 
REMARK    4  A    between atoms: C9_9  and  C10_10 
REMARK    5  A    between atoms: C10_10  and  C11_11 
REMARK    6  A    between atoms: C11_11  and  C12_12 
REMARK    7  A    between atoms: C12_12  and  C13_13 
REMARK    8  A    between atoms: C13_13  and  C14_14 
REMARK       I    between atoms: C14_14  and  N16_16 
REMARK    9  A    between atoms: N16_16  and  C17_17 
REMARK   10  A    between atoms: C17_17  and  C18_18 
REMARK   11  A    between atoms: C41_41  and  C42_42 
REMARK   12  A    between atoms: C45_45  and  C46_46 
ROOT
ATOM      1  C4  ZIN A   1      18.349   0.805  16.896  0.00  0.00     0.087 C 
ATOM      2  C5  ZIN A   1      17.258  -0.250  16.695  0.00  0.00     0.053 C 
ATOM      3  C6  ZIN A   1      17.873  -1.500  16.061  0.00  0.00     0.237 C 
ATOM      4  N7  ZIN A   1      18.465  -1.153  14.764  0.00  0.00    -0.071 N 
ATOM      5  H8  ZIN A   1      17.759  -0.741  14.172  0.00  0.00     0.279 HD
ATOM      6  C34 ZIN A   1      19.561  -0.195  14.955  0.00  0.00     0.237 C 
ATOM      7  C35 ZIN A   1      19.010   1.104  15.547  0.00  0.00     0.053 C 
ENDROOT
BRANCH   4   8
ATOM      8  C9  ZIN A   1      18.987  -2.369  14.125  0.00  0.00     0.235 C 
BRANCH   8   9
ATOM      9  C10 ZIN A   1      20.158  -2.002  13.211  0.00  0.00     0.028 C 
BRANCH   9  10
ATOM     10  C11 ZIN A   1      19.966  -2.666  11.845  0.00  0.00     0.003 C 
BRANCH  10  11
ATOM     11  C12 ZIN A   1      20.144  -1.621  10.742  0.00  0.00     0.029 C 
BRANCH  11  12
ATOM     12  C13 ZIN A   1      18.777  -1.270  10.147  0.00  0.00     0.096 A 
ATOM     13  C33 ZIN A   1      18.882  -1.136   8.648  0.00  0.00    -0.025 A 
ATOM     14  C28 ZIN A   1      18.518   0.167   8.317  0.00  0.00    -0.018 A 
ATOM     15  C32 ZIN A   1      19.252  -2.027   7.663  0.00  0.00     0.009 A 
ATOM     16  C27 ZIN A   1      18.171   0.911   9.553  0.00  0.00    -0.018 A 
ATOM     17  C29 ZIN A   1      18.531   0.562   6.979  0.00  0.00     0.013 A 
ATOM     18  C22 ZIN A   1      18.319   0.075  10.656  0.00  0.00    -0.025 A 
ATOM     19  C26 ZIN A   1      17.752   2.229   9.745  0.00  0.00     0.013 A 
ATOM     20  C23 ZIN A   1      18.054   0.543  11.925  0.00  0.00     0.009 A 
ATOM     21  C24 ZIN A   1      17.637   1.850  12.108  0.00  0.00     0.001 A 
ATOM     22  C25 ZIN A   1      17.488   2.689  11.018  0.00  0.00     0.001 A 
ATOM     23  C30 ZIN A   1      18.901  -0.337   5.999  0.00  0.00     0.001 A 
ATOM     24  C31 ZIN A   1      19.260  -1.628   6.337  0.00  0.00     0.001 A 
BRANCH  12  25
ATOM     25  C14 ZIN A   1      17.770  -2.332  10.505  0.00  0.00     0.235 C 
ATOM     26  O15 ZIN A   1      17.002  -2.154  11.426  0.00  0.00    -0.272 OA
ATOM     27  N16 ZIN A   1      17.723  -3.482   9.802  0.00  0.00    -0.351 N 
ATOM     28  H66 ZIN A   1      18.338  -3.624   9.065  0.00  0.00     0.162 HD
BRANCH  27  29
ATOM     29  C17 ZIN A   1      16.744  -4.515  10.150  0.00  0.00     0.240 C 
BRANCH  29  30
ATOM     30  C18 ZIN A   1      17.452  -5.666  10.866  0.00  0.00     0.403 C 
ATOM     31  F19 ZIN A   1      18.834  -5.558  10.673  0.00  0.00    -0.169 F 
ATOM     32  F20 ZIN A   1      17.167  -5.609  12.235  0.00  0.00    -0.169 F 
ATOM     33  F21 ZIN A   1      17.002  -6.885  10.347  0.00  0.00    -0.169 F 
ENDBRANCH  29  30
ENDBRANCH  27  29
ENDBRANCH  12  25
ENDBRANCH  11  12
ENDBRANCH  10  11
ENDBRANCH   9  10
ENDBRANCH   8   9
ENDBRANCH   4   8
BRANCH   1  34
ATOM     34  N3  ZIN A   1      17.753   2.031  17.431  0.00  0.00    -0.352 N 
ATOM     35  C2  ZIN A   1      18.455   2.804  18.285  0.00  0.00     0.252 C 
ATOM     36  O1  ZIN A   1      19.582   2.483  18.608  0.00  0.00    -0.268 OA
ATOM     37  H52 ZIN A   1      16.854   2.287  17.172  0.00  0.00     0.163 HD
BRANCH  35  38
ATOM     38  C36 ZIN A   1      17.852   4.037  18.829  0.00  0.00     0.043 A 
ATOM     39  C41 ZIN A   1      17.752   5.189  18.028  0.00  0.00    -0.010 A 
ATOM     40  C40 ZIN A   1      17.176   6.342  18.552  0.00  0.00     0.013 A 
ATOM     41  C39 ZIN A   1      16.717   6.355  19.854  0.00  0.00     0.001 A 
ATOM     42  C38 ZIN A   1      16.819   5.223  20.645  0.00  0.00     0.001 A 
ATOM     43  C37 ZIN A   1      17.382   4.068  20.142  0.00  0.00     0.018 A 
BRANCH  39  44
ATOM     44  C42 ZIN A   1      18.246   5.171  16.631  0.00  0.00    -0.025 A 
ATOM     45  C51 ZIN A   1      17.355   4.985  15.575  0.00  0.00     0.013 A 
ATOM     46  C50 ZIN A   1      17.820   4.974  14.276  0.00  0.00     0.017 A 
ATOM     47  C45 ZIN A   1      19.170   5.135  14.021  0.00  0.00     0.048 A 
ATOM     48  C44 ZIN A   1      20.061   5.315  15.064  0.00  0.00     0.017 A 
ATOM     49  C43 ZIN A   1      19.606   5.332  16.367  0.00  0.00     0.013 A 
BRANCH  47  50
ATOM     50  C46 ZIN A   1      19.673   5.115  12.601  0.00  0.00     0.417 C 
ATOM     51  F47 ZIN A   1      20.214   3.858  12.315  0.00  0.00    -0.166 F 
ATOM     52  F48 ZIN A   1      18.612   5.377  11.727  0.00  0.00    -0.166 F 
ATOM     53  F49 ZIN A   1      20.660   6.094  12.442  0.00  0.00    -0.166 F 
ENDBRANCH  47  50
ENDBRANCH  39  44
ENDBRANCH  35  38
ENDBRANCH   1  34
TORSDOF 12
ENDMDL
