MODEL 1
REMARK VINA RESULT:      -6.8      0.000      0.000
REMARK  8 active torsions:
REMARK  status: ('A' for Active; 'I' for Inactive)
REMARK    1  A    between atoms: C2_2  and  C3_3 
REMARK    2  A    between atoms: C3_3  and  C4_4 
REMARK    3  A    between atoms: C3_3  and  C6_6 
REMARK    4  A    between atoms: C6_6  and  N8_7 
REMARK    5  A    between atoms: C6_6  and  C12_11 
REMARK       I    between atoms: N8_7  and  C9_8 
REMARK    6  A    between atoms: C14_12  and  N16_13 
REMARK       I    between atoms: N16_13  and  C17_14 
REMARK       I    between atoms: C17_14  and  N18_15 
REMARK    7  A    between atoms: C23_20  and  C25_21 
REMARK    8  A    between atoms: C28_24  and  O30_25 
ROOT
ATOM      1  C12 ZIN A   1      18.897   1.785  14.447  0.00  0.00     0.061 C 
ATOM      2  C14 ZIN A   1      18.721   3.162  15.134  0.00  0.00     0.108 C 
ATOM      3  C22 ZIN A   1      19.015   2.842  16.620  0.00  0.00     0.044 C 
ATOM      4  C23 ZIN A   1      18.384   1.452  16.840  0.00  0.00     0.118 C 
ATOM      5  C28 ZIN A   1      18.311   0.777  15.457  0.00  0.00     0.140 C 
ENDROOT
BRANCH   1   6
ATOM      6  C6  ZIN A   1      18.117   1.740  13.131  0.00  0.00     0.097 C 
BRANCH   6   7
ATOM      7  C3  ZIN A   1      18.581   2.880  12.223  0.00  0.00     0.008 C 
BRANCH   7   8
ATOM      8  C2  ZIN A   1      19.646   2.360  11.256  0.00  0.00     0.002 C 
ATOM      9  C1  ZIN A   1      19.139   2.495   9.818  0.00  0.00     0.005 C 
ENDBRANCH   7   8
BRANCH   7  10
ATOM     10  C4  ZIN A   1      17.390   3.418  11.428  0.00  0.00     0.002 C 
ATOM     11  C5  ZIN A   1      17.013   4.806  11.952  0.00  0.00     0.005 C 
ENDBRANCH   7  10
ENDBRANCH   6   7
BRANCH   6  12
ATOM     12  N8  ZIN A   1      18.356   0.458  12.466  0.00  0.00    -0.356 N 
ATOM     13  C9  ZIN A   1      17.318  -0.266  12.004  0.00  0.00     0.213 C 
ATOM     14  C10 ZIN A   1      17.550  -1.646  11.443  0.00  0.00     0.117 C 
ATOM     15  O11 ZIN A   1      16.196   0.192  12.039  0.00  0.00    -0.274 OA
ATOM     16  H42 ZIN A   1      19.263   0.129  12.357  0.00  0.00     0.162 HD
ENDBRANCH   6  12
ENDBRANCH   1   6
BRANCH   5  17
ATOM     17  O30 ZIN A   1      16.951   0.488  15.125  0.00  0.00    -0.394 OA
ATOM     18  H51 ZIN A   1      16.646   0.914  14.311  0.00  0.00     0.210 HD
ENDBRANCH   5  17
BRANCH   2  19
ATOM     19  N16 ZIN A   1      19.685   4.132  14.607  0.00  0.00    -0.222 N 
ATOM     20  C17 ZIN A   1      19.432   5.472  14.709  0.00  0.00     0.665 C 
ATOM     21  N18 ZIN A   1      18.309   5.895  15.287  0.00  0.00    -0.235 N 
ATOM     22  N19 ZIN A   1      20.308   6.354  14.231  0.00  0.00    -0.235 N 
ATOM     23  H47 ZIN A   1      17.670   5.254  15.636  0.00  0.00     0.174 HD
ATOM     24  H48 ZIN A   1      18.129   6.846  15.359  0.00  0.00     0.174 HD
ATOM     25  H20 ZIN A   1      21.126   6.046  13.809  0.00  0.00     0.174 HD
ATOM     26  H21 ZIN A   1      20.128   7.304  14.302  0.00  0.00     0.174 HD
ATOM     27  H46 ZIN A   1      20.503   3.823  14.187  0.00  0.00     0.178 HD
ENDBRANCH   2  19
BRANCH   4  28
ATOM     28  C25 ZIN A   1      19.246   0.633  17.767  0.00  0.00     0.179 C 
ATOM     29  O26 ZIN A   1      19.951   1.188  18.592  0.00  0.00    -0.648 OA
ATOM     30  O27 ZIN A   1      19.239  -0.583  17.690  0.00  0.00    -0.648 OA
ENDBRANCH   4  28
TORSDOF 8
ENDMDL
MODEL 2
REMARK VINA RESULT:      -6.8      4.625      9.106
REMARK  8 active torsions:
REMARK  status: ('A' for Active; 'I' for Inactive)
REMARK    1  A    between atoms: C2_2  and  C3_3 
REMARK    2  A    between atoms: C3_3  and  C4_4 
REMARK    3  A    between atoms: C3_3  and  C6_6 
REMARK    4  A    between atoms: C6_6  and  N8_7 
REMARK    5  A    between atoms: C6_6  and  C12_11 
REMARK       I    between atoms: N8_7  and  C9_8 
REMARK    6  A    between atoms: C14_12  and  N16_13 
REMARK       I    between atoms: N16_13  and  C17_14 
REMARK       I    between atoms: C17_14  and  N18_15 
REMARK    7  A    between atoms: C23_20  and  C25_21 
REMARK    8  A    between atoms: C28_24  and  O30_25 
ROOT
ATOM      1  C12 ZIN A   1      18.886  -1.597   8.565  0.00  0.00     0.061 C 
ATOM      2  C14 ZIN A   1      18.710  -3.018   7.972  0.00  0.00     0.108 C 
ATOM      3  C22 ZIN A   1      18.988  -2.795   6.465  0.00  0.00     0.044 C 
ATOM      4  C23 ZIN A   1      18.347  -1.425   6.160  0.00  0.00     0.118 C 
ATOM      5  C28 ZIN A   1      18.284  -0.661   7.497  0.00  0.00     0.140 C 
ENDROOT
BRANCH   1   6
ATOM      6  C6  ZIN A   1      18.119  -1.469   9.883  0.00  0.00     0.097 C 
BRANCH   6   7
ATOM      7  C3  ZIN A   1      18.600  -2.543  10.860  0.00  0.00     0.008 C 
BRANCH   7   8
ATOM      8  C2  ZIN A   1      19.679  -1.955  11.772  0.00  0.00     0.002 C 
ATOM      9  C1  ZIN A   1      19.182  -1.963  13.220  0.00  0.00     0.005 C 
ENDBRANCH   7   8
BRANCH   7  10
ATOM     10  C4  ZIN A   1      17.422  -3.026  11.709  0.00  0.00     0.002 C 
ATOM     11  C5  ZIN A   1      17.031  -4.441  11.278  0.00  0.00     0.005 C 
ENDBRANCH   7  10
ENDBRANCH   6   7
BRANCH   6  12
ATOM     12  N8  ZIN A   1      18.356  -0.143  10.459  0.00  0.00    -0.356 N 
ATOM     13  C9  ZIN A   1      17.323   0.583  10.928  0.00  0.00     0.213 C 
ATOM     14  C10 ZIN A   1      17.545   1.999  11.393  0.00  0.00     0.117 C 
ATOM     15  O11 ZIN A   1      16.213   0.097  10.975  0.00  0.00    -0.274 OA
ATOM     16  H42 ZIN A   1      19.258   0.212  10.502  0.00  0.00     0.162 HD
ENDBRANCH   6  12
ENDBRANCH   1   6
BRANCH   5  17
ATOM     17  O30 ZIN A   1      16.926  -0.357   7.824  0.00  0.00    -0.394 OA
ATOM     18  H51 ZIN A   1      16.399  -1.129   8.069  0.00  0.00     0.210 HD
ENDBRANCH   5  17
BRANCH   2  19
ATOM     19  N16 ZIN A   1      19.685  -3.945   8.552  0.00  0.00    -0.222 N 
ATOM     20  C17 ZIN A   1      19.418  -5.287   8.581  0.00  0.00     0.665 C 
ATOM     21  N18 ZIN A   1      18.272  -5.749   8.083  0.00  0.00    -0.235 N 
ATOM     22  N19 ZIN A   1      20.303  -6.131   9.107  0.00  0.00    -0.235 N 
ATOM     23  H47 ZIN A   1      17.627  -5.134   7.699  0.00  0.00     0.174 HD
ATOM     24  H48 ZIN A   1      18.083  -6.700   8.103  0.00  0.00     0.174 HD
ATOM     25  H20 ZIN A   1      21.138  -5.795   9.471  0.00  0.00     0.174 HD
ATOM     26  H21 ZIN A   1      20.114  -7.082   9.129  0.00  0.00     0.174 HD
ATOM     27  H46 ZIN A   1      20.519  -3.609   8.914  0.00  0.00     0.178 HD
ENDBRANCH   2  19
BRANCH   4  28
ATOM     28  C25 ZIN A   1      19.195  -0.665   5.173  0.00  0.00     0.179 C 
ATOM     29  O26 ZIN A   1      19.211   0.554   5.196  0.00  0.00    -0.648 OA
ATOM     30  O27 ZIN A   1      19.863  -1.269   4.352  0.00  0.00    -0.648 OA
ENDBRANCH   4  28
TORSDOF 8
ENDMDL
MODEL 3
REMARK VINA RESULT:      -6.7      2.280      4.674
REMARK  8 active torsions:
REMARK  status: ('A' for Active; 'I' for Inactive)
REMARK    1  A    between atoms: C2_2  and  C3_3 
REMARK    2  A    between atoms: C3_3  and  C4_4 
REMARK    3  A    between atoms: C3_3  and  C6_6 
REMARK    4  A    between atoms: C6_6  and  N8_7 
REMARK    5  A    between atoms: C6_6  and  C12_11 
REMARK       I    between atoms: N8_7  and  C9_8 
REMARK    6  A    between atoms: C14_12  and  N16_13 
REMARK       I    between atoms: N16_13  and  C17_14 
REMARK       I    between atoms: C17_14  and  N18_15 
REMARK    7  A    between atoms: C23_20  and  C25_21 
REMARK    8  A    between atoms: C28_24  and  O30_25 
ROOT
ATOM      1  C12 ZIN A   1      18.480   1.253  13.227  0.00  0.00     0.061 C 
ATOM      2  C14 ZIN A   1      19.540   0.182  12.866  0.00  0.00     0.108 C 
ATOM      3  C22 ZIN A   1      19.436  -0.813  14.048  0.00  0.00     0.044 C 
ATOM      4  C23 ZIN A   1      19.204   0.086  15.281  0.00  0.00     0.118 C 
ATOM      5  C28 ZIN A   1      18.594   1.400  14.759  0.00  0.00     0.140 C 
ENDROOT
BRANCH   1   6
ATOM      6  C6  ZIN A   1      18.804   2.579  12.536  0.00  0.00     0.097 C 
BRANCH   6   7
ATOM      7  C3  ZIN A   1      18.221   2.573  11.122  0.00  0.00     0.008 C 
BRANCH   7   8
ATOM      8  C2  ZIN A   1      17.150   3.659  11.008  0.00  0.00     0.002 C 
ATOM      9  C1  ZIN A   1      17.655   4.781  10.098  0.00  0.00     0.005 C 
ENDBRANCH   7   8
BRANCH   7  10
ATOM     10  C4  ZIN A   1      19.335   2.848  10.109  0.00  0.00     0.002 C 
ATOM     11  C5  ZIN A   1      19.091   2.017   8.846  0.00  0.00     0.005 C 
ENDBRANCH   7  10
ENDBRANCH   6   7
BRANCH   6  12
ATOM     12  N8  ZIN A   1      18.220   3.683  13.300  0.00  0.00    -0.356 N 
ATOM     13  C9  ZIN A   1      18.932   4.807  13.514  0.00  0.00     0.213 C 
ATOM     14  C10 ZIN A   1      18.387   5.886  14.414  0.00  0.00     0.117 C 
ATOM     15  O11 ZIN A   1      20.012   4.950  12.982  0.00  0.00    -0.274 OA
ATOM     16  H42 ZIN A   1      17.319   3.605  13.653  0.00  0.00     0.162 HD
ENDBRANCH   6  12
ENDBRANCH   1   6
BRANCH   5  17
ATOM     17  O30 ZIN A   1      19.449   2.500  15.081  0.00  0.00    -0.394 OA
ATOM     18  H51 ZIN A   1      19.419   2.760  16.012  0.00  0.00     0.210 HD
ENDBRANCH   5  17
BRANCH   2  19
ATOM     19  N16 ZIN A   1      19.204  -0.474  11.600  0.00  0.00    -0.222 N 
ATOM     20  C17 ZIN A   1      20.197  -0.817  10.723  0.00  0.00     0.665 C 
ATOM     21  N18 ZIN A   1      21.468  -0.553  11.021  0.00  0.00    -0.235 N 
ATOM     22  N19 ZIN A   1      19.893  -1.413   9.572  0.00  0.00    -0.235 N 
ATOM     23  H47 ZIN A   1      21.691  -0.119  11.860  0.00  0.00     0.174 HD
ATOM     24  H48 ZIN A   1      22.173  -0.797  10.399  0.00  0.00     0.174 HD
ATOM     25  H20 ZIN A   1      18.967  -1.604   9.355  0.00  0.00     0.174 HD
ATOM     26  H21 ZIN A   1      20.596  -1.655   8.950  0.00  0.00     0.174 HD
ATOM     27  H46 ZIN A   1      18.278  -0.666  11.383  0.00  0.00     0.178 HD
ENDBRANCH   2  19
BRANCH   4  28
ATOM     28  C25 ZIN A   1      18.248  -0.582  16.236  0.00  0.00     0.179 C 
ATOM     29  O26 ZIN A   1      17.582   0.094  17.002  0.00  0.00    -0.648 OA
ATOM     30  O27 ZIN A   1      18.141  -1.795  16.244  0.00  0.00    -0.648 OA
ENDBRANCH   4  28
TORSDOF 8
ENDMDL
MODEL 4
REMARK VINA RESULT:      -6.6      3.562      6.461
REMARK  8 active torsions:
REMARK  status: ('A' for Active; 'I' for Inactive)
REMARK    1  A    between atoms: C2_2  and  C3_3 
REMARK    2  A    between atoms: C3_3  and  C4_4 
REMARK    3  A    between atoms: C3_3  and  C6_6 
REMARK    4  A    between atoms: C6_6  and  N8_7 
REMARK    5  A    between atoms: C6_6  and  C12_11 
REMARK       I    between atoms: N8_7  and  C9_8 
REMARK    6  A    between atoms: C14_12  and  N16_13 
REMARK       I    between atoms: N16_13  and  C17_14 
REMARK       I    between atoms: C17_14  and  N18_15 
REMARK    7  A    between atoms: C23_20  and  C25_21 
REMARK    8  A    between atoms: C28_24  and  O30_25 
ROOT
ATOM      1  C12 ZIN A   1      18.436   0.061  10.171  0.00  0.00     0.061 C 
ATOM      2  C14 ZIN A   1      19.295   1.350  10.141  0.00  0.00     0.108 C 
ATOM      3  C22 ZIN A   1      19.265   1.745   8.643  0.00  0.00     0.044 C 
ATOM      4  C23 ZIN A   1      19.336   0.398   7.895  0.00  0.00     0.118 C 
ATOM      5  C28 ZIN A   1      18.807  -0.674   8.867  0.00  0.00     0.140 C 
ENDROOT
BRANCH   1   6
ATOM      6  C6  ZIN A   1      18.797  -0.792  11.389  0.00  0.00     0.097 C 
BRANCH   6   7
ATOM      7  C3  ZIN A   1      18.843   0.091  12.636  0.00  0.00     0.008 C 
BRANCH   7   8
ATOM      8  C2  ZIN A   1      17.558  -0.100  13.444  0.00  0.00     0.002 C 
ATOM      9  C1  ZIN A   1      17.345   1.108  14.359  0.00  0.00     0.005 C 
ENDBRANCH   7   8
BRANCH   7  10
ATOM     10  C4  ZIN A   1      20.047  -0.299  13.495  0.00  0.00     0.002 C 
ATOM     11  C5  ZIN A   1      19.636  -1.395  14.481  0.00  0.00     0.005 C 
ENDBRANCH   7  10
ENDBRANCH   6   7
BRANCH   6  12
ATOM     12  N8  ZIN A   1      17.787  -1.838  11.568  0.00  0.00    -0.356 N 
ATOM     13  C9  ZIN A   1      18.149  -3.136  11.548  0.00  0.00     0.213 C 
ATOM     14  C10 ZIN A   1      17.096  -4.214  11.594  0.00  0.00     0.117 C 
ATOM     15  O11 ZIN A   1      19.322  -3.437  11.493  0.00  0.00    -0.274 OA
ATOM     16  H42 ZIN A   1      16.856  -1.596  11.700  0.00  0.00     0.162 HD
ENDBRANCH   6  12
ENDBRANCH   1   6
BRANCH   5  17
ATOM     17  O30 ZIN A   1      19.823  -1.646   9.126  0.00  0.00    -0.394 OA
ATOM     18  H51 ZIN A   1      19.529  -2.384   9.677  0.00  0.00     0.210 HD
ENDBRANCH   5  17
BRANCH   2  19
ATOM     19  N16 ZIN A   1      18.690   2.396  10.969  0.00  0.00    -0.222 N 
ATOM     20  C17 ZIN A   1      19.487   3.260  11.669  0.00  0.00     0.665 C 
ATOM     21  N18 ZIN A   1      20.813   3.149  11.598  0.00  0.00    -0.235 N 
ATOM     22  N19 ZIN A   1      18.938   4.211  12.422  0.00  0.00    -0.235 N 
ATOM     23  H47 ZIN A   1      21.213   2.457  11.049  0.00  0.00     0.174 HD
ATOM     24  H48 ZIN A   1      21.378   3.762  12.095  0.00  0.00     0.174 HD
ATOM     25  H20 ZIN A   1      17.972   4.292  12.475  0.00  0.00     0.174 HD
ATOM     26  H21 ZIN A   1      19.503   4.823  12.920  0.00  0.00     0.174 HD
ATOM     27  H46 ZIN A   1      17.725   2.477  11.021  0.00  0.00     0.178 HD
ENDBRANCH   2  19
BRANCH   4  28
ATOM     28  C25 ZIN A   1      18.473   0.445   6.661  0.00  0.00     0.179 C 
ATOM     29  O26 ZIN A   1      18.958   0.772   5.591  0.00  0.00    -0.648 OA
ATOM     30  O27 ZIN A   1      17.291   0.157   6.732  0.00  0.00    -0.648 OA
ENDBRANCH   4  28
TORSDOF 8
ENDMDL
MODEL 5
REMARK VINA RESULT:      -6.6      2.849      5.251
REMARK  8 active torsions:
REMARK  status: ('A' for Active; 'I' for Inactive)
REMARK    1  A    between atoms: C2_2  and  C3_3 
REMARK    2  A    between atoms: C3_3  and  C4_4 
REMARK    3  A    between atoms: C3_3  and  C6_6 
REMARK    4  A    between atoms: C6_6  and  N8_7 
REMARK    5  A    between atoms: C6_6  and  C12_11 
REMARK       I    between atoms: N8_7  and  C9_8 
REMARK    6  A    between atoms: C14_12  and  N16_13 
REMARK       I    between atoms: N16_13  and  C17_14 
REMARK       I    between atoms: C17_14  and  N18_15 
REMARK    7  A    between atoms: C23_20  and  C25_21 
REMARK    8  A    between atoms: C28_24  and  O30_25 
ROOT
ATOM      1  C12 ZIN A   1      18.314   0.169  12.522  0.00  0.00     0.061 C 
ATOM      2  C14 ZIN A   1      19.227  -1.083  12.525  0.00  0.00     0.108 C 
ATOM      3  C22 ZIN A   1      19.139  -1.566  13.993  0.00  0.00     0.044 C 
ATOM      4  C23 ZIN A   1      19.111  -0.264  14.819  0.00  0.00     0.118 C 
ATOM      5  C28 ZIN A   1      18.584   0.841  13.883  0.00  0.00     0.140 C 
ENDROOT
BRANCH   1   6
ATOM      6  C6  ZIN A   1      18.697   1.107  11.375  0.00  0.00     0.097 C 
BRANCH   6   7
ATOM      7  C3  ZIN A   1      18.798   0.309  10.074  0.00  0.00     0.008 C 
BRANCH   7   8
ATOM      8  C2  ZIN A   1      17.455   0.358   9.342  0.00  0.00     0.002 C 
ATOM      9  C1  ZIN A   1      17.324  -0.866   8.433  0.00  0.00     0.005 C 
ENDBRANCH   7   8
BRANCH   7  10
ATOM     10  C4  ZIN A   1      19.885   0.916   9.185  0.00  0.00     0.002 C 
ATOM     11  C5  ZIN A   1      19.245   1.876   8.180  0.00  0.00     0.005 C 
ENDBRANCH   7  10
ENDBRANCH   6   7
BRANCH   6  12
ATOM     12  N8  ZIN A   1      17.675   2.147  11.234  0.00  0.00    -0.356 N 
ATOM     13  C9  ZIN A   1      18.024   3.447  11.285  0.00  0.00     0.213 C 
ATOM     14  C10 ZIN A   1      16.960   4.515  11.278  0.00  0.00     0.117 C 
ATOM     15  O11 ZIN A   1      19.195   3.759  11.339  0.00  0.00    -0.274 OA
ATOM     16  H42 ZIN A   1      16.746   1.899  11.102  0.00  0.00     0.162 HD
ENDBRANCH   6  12
ENDBRANCH   1   6
BRANCH   5  17
ATOM     17  O30 ZIN A   1      19.567   1.868  13.735  0.00  0.00    -0.394 OA
ATOM     18  H51 ZIN A   1      19.514   2.562  14.406  0.00  0.00     0.210 HD
ENDBRANCH   5  17
BRANCH   2  19
ATOM     19  N16 ZIN A   1      18.713  -2.102  11.607  0.00  0.00    -0.222 N 
ATOM     20  C17 ZIN A   1      19.563  -3.030  11.070  0.00  0.00     0.665 C 
ATOM     21  N18 ZIN A   1      20.858  -3.005  11.381  0.00  0.00    -0.235 N 
ATOM     22  N19 ZIN A   1      19.096  -3.957  10.236  0.00  0.00    -0.235 N 
ATOM     23  H47 ZIN A   1      21.199  -2.330  11.988  0.00  0.00     0.174 HD
ATOM     24  H48 ZIN A   1      21.461  -3.663  10.999  0.00  0.00     0.174 HD
ATOM     25  H20 ZIN A   1      18.153  -3.975  10.008  0.00  0.00     0.174 HD
ATOM     26  H21 ZIN A   1      19.699  -4.614   9.854  0.00  0.00     0.174 HD
ATOM     27  H46 ZIN A   1      17.770  -2.120  11.381  0.00  0.00     0.178 HD
ENDBRANCH   2  19
BRANCH   4  28
ATOM     28  C25 ZIN A   1      18.189  -0.420  16.001  0.00  0.00     0.179 C 
ATOM     29  O26 ZIN A   1      17.864  -1.534  16.377  0.00  0.00    -0.648 OA
ATOM     30  O27 ZIN A   1      17.767   0.566  16.580  0.00  0.00    -0.648 OA
ENDBRANCH   4  28
TORSDOF 8
ENDMDL
MODEL 6
REMARK VINA RESULT:      -6.5      6.392      9.023
REMARK  8 active torsions:
REMARK  status: ('A' for Active; 'I' for Inactive)
REMARK    1  A    between atoms: C2_2  and  C3_3 
REMARK    2  A    between atoms: C3_3  and  C4_4 
REMARK    3  A    between atoms: C3_3  and  C6_6 
REMARK    4  A    between atoms: C6_6  and  N8_7 
REMARK    5  A    between atoms: C6_6  and  C12_11 
REMARK       I    between atoms: N8_7  and  C9_8 
REMARK    6  A    between atoms: C14_12  and  N16_13 
REMARK       I    between atoms: N16_13  and  C17_14 
REMARK       I    between atoms: C17_14  and  N18_15 
REMARK    7  A    between atoms: C23_20  and  C25_21 
REMARK    8  A    between atoms: C28_24  and  O30_25 
ROOT
ATOM      1  C12 ZIN A   1      18.552  -2.308   7.975  0.00  0.00     0.061 C 
ATOM      2  C14 ZIN A   1      19.480  -1.240   8.604  0.00  0.00     0.108 C 
ATOM      3  C22 ZIN A   1      19.370  -0.061   7.605  0.00  0.00     0.044 C 
ATOM      4  C23 ZIN A   1      19.310  -0.742   6.222  0.00  0.00     0.118 C 
ATOM      5  C28 ZIN A   1      18.787  -2.172   6.457  0.00  0.00     0.140 C 
ENDROOT
BRANCH   1   6
ATOM      6  C6  ZIN A   1      18.945  -3.707   8.454  0.00  0.00     0.097 C 
BRANCH   6   7
ATOM      7  C3  ZIN A   1      18.641  -3.840   9.947  0.00  0.00     0.008 C 
BRANCH   7   8
ATOM      8  C2  ZIN A   1      17.250  -4.451  10.132  0.00  0.00     0.002 C 
ATOM      9  C1  ZIN A   1      17.354  -5.699  11.011  0.00  0.00     0.005 C 
ENDBRANCH   7   8
BRANCH   7  10
ATOM     10  C4  ZIN A   1      19.686  -4.745  10.604  0.00  0.00     0.002 C 
ATOM     11  C5  ZIN A   1      20.448  -3.953  11.668  0.00  0.00     0.005 C 
ENDBRANCH   7  10
ENDBRANCH   6   7
BRANCH   6  12
ATOM     12  N8  ZIN A   1      18.181  -4.711   7.709  0.00  0.00    -0.356 N 
ATOM     13  C9  ZIN A   1      18.816  -5.753   7.137  0.00  0.00     0.213 C 
ATOM     14  C10 ZIN A   1      18.053  -6.710   6.256  0.00  0.00     0.117 C 
ATOM     15  O11 ZIN A   1      20.001  -5.921   7.329  0.00  0.00    -0.274 OA
ATOM     16  H42 ZIN A   1      17.218  -4.625   7.628  0.00  0.00     0.162 HD
ENDBRANCH   6  12
ENDBRANCH   1   6
BRANCH   5  17
ATOM     17  O30 ZIN A   1      19.760  -3.126   6.025  0.00  0.00    -0.394 OA
ATOM     18  H51 ZIN A   1      20.311  -2.821   5.291  0.00  0.00     0.210 HD
ENDBRANCH   5  17
BRANCH   2  19
ATOM     19  N16 ZIN A   1      18.997  -0.848   9.930  0.00  0.00    -0.222 N 
ATOM     20  C17 ZIN A   1      19.888  -0.514  10.912  0.00  0.00     0.665 C 
ATOM     21  N18 ZIN A   1      21.197  -0.546  10.662  0.00  0.00    -0.235 N 
ATOM     22  N19 ZIN A   1      19.450  -0.158  12.118  0.00  0.00    -0.235 N 
ATOM     23  H47 ZIN A   1      21.517  -0.805   9.784  0.00  0.00     0.174 HD
ATOM     24  H48 ZIN A   1      21.830  -0.309  11.359  0.00  0.00     0.174 HD
ATOM     25  H20 ZIN A   1      18.497  -0.135  12.301  0.00  0.00     0.174 HD
ATOM     26  H21 ZIN A   1      20.082   0.078  12.814  0.00  0.00     0.174 HD
ATOM     27  H46 ZIN A   1      18.044  -0.825  10.112  0.00  0.00     0.178 HD
ENDBRANCH   2  19
BRANCH   4  28
ATOM     28  C25 ZIN A   1      18.367   0.009   5.317  0.00  0.00     0.179 C 
ATOM     29  O26 ZIN A   1      17.477   0.692   5.796  0.00  0.00    -0.648 OA
ATOM     30  O27 ZIN A   1      18.493  -0.068   4.107  0.00  0.00    -0.648 OA
ENDBRANCH   4  28
TORSDOF 8
ENDMDL
MODEL 7
REMARK VINA RESULT:      -6.5      5.925      7.749
REMARK  8 active torsions:
REMARK  status: ('A' for Active; 'I' for Inactive)
REMARK    1  A    between atoms: C2_2  and  C3_3 
REMARK    2  A    between atoms: C3_3  and  C4_4 
REMARK    3  A    between atoms: C3_3  and  C6_6 
REMARK    4  A    between atoms: C6_6  and  N8_7 
REMARK    5  A    between atoms: C6_6  and  C12_11 
REMARK       I    between atoms: N8_7  and  C9_8 
REMARK    6  A    between atoms: C14_12  and  N16_13 
REMARK       I    between atoms: N16_13  and  C17_14 
REMARK       I    between atoms: C17_14  and  N18_15 
REMARK    7  A    between atoms: C23_20  and  C25_21 
REMARK    8  A    between atoms: C28_24  and  O30_25 
ROOT
ATOM      1  C12 ZIN A   1      19.368  -2.288   8.675  0.00  0.00     0.061 C 
ATOM      2  C14 ZIN A   1      18.997  -2.740  10.109  0.00  0.00     0.108 C 
ATOM      3  C22 ZIN A   1      19.375  -4.241  10.103  0.00  0.00     0.044 C 
ATOM      4  C23 ZIN A   1      18.975  -4.726   8.694  0.00  0.00     0.118 C 
ATOM      5  C28 ZIN A   1      18.973  -3.483   7.784  0.00  0.00     0.140 C 
ENDROOT
BRANCH   1   6
ATOM      6  C6  ZIN A   1      18.570  -1.041   8.284  0.00  0.00     0.097 C 
BRANCH   6   7
ATOM      7  C3  ZIN A   1      18.660  -0.006   9.406  0.00  0.00     0.008 C 
BRANCH   7   8
ATOM      8  C2  ZIN A   1      19.631   1.104   8.999  0.00  0.00     0.002 C 
ATOM      9  C1  ZIN A   1      18.922   2.458   9.080  0.00  0.00     0.005 C 
ENDBRANCH   7   8
BRANCH   7  10
ATOM     10  C4  ZIN A   1      17.276   0.596   9.658  0.00  0.00     0.002 C 
ATOM     11  C5  ZIN A   1      16.759   0.132  11.022  0.00  0.00     0.005 C 
ENDBRANCH   7  10
ENDBRANCH   6   7
BRANCH   6  12
ATOM     12  N8  ZIN A   1      19.124  -0.475   7.052  0.00  0.00    -0.356 N 
ATOM     13  C9  ZIN A   1      18.323  -0.262   5.989  0.00  0.00     0.213 C 
ATOM     14  C10 ZIN A   1      18.913   0.191   4.678  0.00  0.00     0.117 C 
ATOM     15  O11 ZIN A   1      17.126  -0.434   6.087  0.00  0.00    -0.274 OA
ATOM     16  H42 ZIN A   1      20.067  -0.254   7.000  0.00  0.00     0.162 HD
ENDBRANCH   6  12
ENDBRANCH   1   6
BRANCH   5  17
ATOM     17  O30 ZIN A   1      17.666  -3.276   7.241  0.00  0.00    -0.394 OA
ATOM     18  H51 ZIN A   1      17.210  -4.092   6.993  0.00  0.00     0.210 HD
ENDBRANCH   5  17
BRANCH   2  19
ATOM     19  N16 ZIN A   1      19.783  -2.007  11.104  0.00  0.00    -0.222 N 
ATOM     20  C17 ZIN A   1      19.356  -1.943  12.402  0.00  0.00     0.665 C 
ATOM     21  N18 ZIN A   1      18.224  -2.548  12.761  0.00  0.00    -0.235 N 
ATOM     22  N19 ZIN A   1      20.071  -1.278  13.307  0.00  0.00    -0.235 N 
ATOM     23  H47 ZIN A   1      17.704  -3.034  12.102  0.00  0.00     0.174 HD
ATOM     24  H48 ZIN A   1      17.921  -2.503  13.682  0.00  0.00     0.174 HD
ATOM     25  H20 ZIN A   1      20.894  -0.836  13.046  0.00  0.00     0.174 HD
ATOM     26  H21 ZIN A   1      19.767  -1.232  14.227  0.00  0.00     0.174 HD
ATOM     27  H46 ZIN A   1      20.607  -1.567  10.843  0.00  0.00     0.178 HD
ENDBRANCH   2  19
BRANCH   4  28
ATOM     28  C25 ZIN A   1      19.978  -5.731   8.188  0.00  0.00     0.179 C 
ATOM     29  O26 ZIN A   1      20.452  -6.556   8.952  0.00  0.00    -0.648 OA
ATOM     30  O27 ZIN A   1      20.316  -5.720   7.018  0.00  0.00    -0.648 OA
ENDBRANCH   4  28
TORSDOF 8
ENDMDL
MODEL 8
REMARK VINA RESULT:      -6.5      3.848      5.799
REMARK  8 active torsions:
REMARK  status: ('A' for Active; 'I' for Inactive)
REMARK    1  A    between atoms: C2_2  and  C3_3 
REMARK    2  A    between atoms: C3_3  and  C4_4 
REMARK    3  A    between atoms: C3_3  and  C6_6 
REMARK    4  A    between atoms: C6_6  and  N8_7 
REMARK    5  A    between atoms: C6_6  and  C12_11 
REMARK       I    between atoms: N8_7  and  C9_8 
REMARK    6  A    between atoms: C14_12  and  N16_13 
REMARK       I    between atoms: N16_13  and  C17_14 
REMARK       I    between atoms: C17_14  and  N18_15 
REMARK    7  A    between atoms: C23_20  and  C25_21 
REMARK    8  A    between atoms: C28_24  and  O30_25 
ROOT
ATOM      1  C12 ZIN A   1      17.668   1.505  10.871  0.00  0.00     0.061 C 
ATOM      2  C14 ZIN A   1      18.296   1.779  12.261  0.00  0.00     0.108 C 
ATOM      3  C22 ZIN A   1      17.953   3.270  12.502  0.00  0.00     0.044 C 
ATOM      4  C23 ZIN A   1      18.107   3.924  11.113  0.00  0.00     0.118 C 
ATOM      5  C28 ZIN A   1      17.924   2.800  10.075  0.00  0.00     0.140 C 
ENDROOT
BRANCH   1   6
ATOM      6  C6  ZIN A   1      18.358   0.316  10.199  0.00  0.00     0.097 C 
BRANCH   6   7
ATOM      7  C3  ZIN A   1      18.457  -0.845  11.190  0.00  0.00     0.008 C 
BRANCH   7   8
ATOM      8  C2  ZIN A   1      17.407  -1.902  10.842  0.00  0.00     0.002 C 
ATOM      9  C1  ZIN A   1      17.651  -3.158  11.681  0.00  0.00     0.005 C 
ENDBRANCH   7   8
BRANCH   7  10
ATOM     10  C4  ZIN A   1      19.852  -1.468  11.110  0.00  0.00     0.002 C 
ATOM     11  C5  ZIN A   1      20.887  -0.368  10.860  0.00  0.00     0.005 C 
ENDBRANCH   7  10
ENDBRANCH   6   7
BRANCH   6  12
ATOM     12  N8  ZIN A   1      17.579  -0.103   9.031  0.00  0.00    -0.356 N 
ATOM     13  C9  ZIN A   1      18.121  -0.035   7.799  0.00  0.00     0.213 C 
ATOM     14  C10 ZIN A   1      17.278  -0.334   6.586  0.00  0.00     0.117 C 
ATOM     15  O11 ZIN A   1      19.288   0.268   7.666  0.00  0.00    -0.274 OA
ATOM     16  H42 ZIN A   1      16.673  -0.430   9.145  0.00  0.00     0.162 HD
ENDBRANCH   6  12
ENDBRANCH   1   6
BRANCH   5  17
ATOM     17  O30 ZIN A   1      19.109   2.663   9.287  0.00  0.00    -0.394 OA
ATOM     18  H51 ZIN A   1      18.949   2.656   8.334  0.00  0.00     0.210 HD
ENDBRANCH   5  17
BRANCH   2  19
ATOM     19  N16 ZIN A   1      17.682   0.930  13.285  0.00  0.00    -0.222 N 
ATOM     20  C17 ZIN A   1      18.394   0.578  14.399  0.00  0.00     0.665 C 
ATOM     21  N18 ZIN A   1      19.646   1.008  14.551  0.00  0.00    -0.235 N 
ATOM     22  N19 ZIN A   1      17.838  -0.194  15.329  0.00  0.00    -0.235 N 
ATOM     23  H47 ZIN A   1      20.052   1.571  13.874  0.00  0.00     0.174 HD
ATOM     24  H48 ZIN A   1      20.151   0.759  15.342  0.00  0.00     0.174 HD
ATOM     25  H20 ZIN A   1      16.926  -0.508  15.218  0.00  0.00     0.174 HD
ATOM     26  H21 ZIN A   1      18.343  -0.444  16.119  0.00  0.00     0.174 HD
ATOM     27  H46 ZIN A   1      16.771   0.617  13.173  0.00  0.00     0.178 HD
ENDBRANCH   2  19
BRANCH   4  28
ATOM     28  C25 ZIN A   1      17.052   4.982  10.918  0.00  0.00     0.179 C 
ATOM     29  O26 ZIN A   1      16.045   4.972  11.607  0.00  0.00    -0.648 OA
ATOM     30  O27 ZIN A   1      17.203   5.845  10.072  0.00  0.00    -0.648 OA
ENDBRANCH   4  28
TORSDOF 8
ENDMDL
MODEL 9
REMARK VINA RESULT:      -6.4      3.938      7.266
REMARK  8 active torsions:
REMARK  status: ('A' for Active; 'I' for Inactive)
REMARK    1  A    between atoms: C2_2  and  C3_3 
REMARK    2  A    between atoms: C3_3  and  C4_4 
REMARK    3  A    between atoms: C3_3  and  C6_6 
REMARK    4  A    between atoms: C6_6  and  N8_7 
REMARK    5  A    between atoms: C6_6  and  C12_11 
REMARK       I    between atoms: N8_7  and  C9_8 
REMARK    6  A    between atoms: C14_12  and  N16_13 
REMARK       I    between atoms: N16_13  and  C17_14 
REMARK       I    between atoms: C17_14  and  N18_15 
REMARK    7  A    between atoms: C23_20  and  C25_21 
REMARK    8  A    between atoms: C28_24  and  O30_25 
ROOT
ATOM      1  C12 ZIN A   1      18.427  -1.599  10.128  0.00  0.00     0.061 C 
ATOM      2  C14 ZIN A   1      18.579  -1.858   8.608  0.00  0.00     0.108 C 
ATOM      3  C22 ZIN A   1      18.494  -3.402   8.514  0.00  0.00     0.044 C 
ATOM      4  C23 ZIN A   1      19.251  -3.899   9.763  0.00  0.00     0.118 C 
ATOM      5  C28 ZIN A   1      19.207  -2.753  10.791  0.00  0.00     0.140 C 
ENDROOT
BRANCH   1   6
ATOM      6  C6  ZIN A   1      19.042  -0.250  10.504  0.00  0.00     0.097 C 
BRANCH   6   7
ATOM      7  C3  ZIN A   1      18.319   0.868   9.751  0.00  0.00     0.008 C 
BRANCH   7   8
ATOM      8  C2  ZIN A   1      17.378   1.603  10.708  0.00  0.00     0.002 C 
ATOM      9  C1  ZIN A   1      17.733   3.091  10.730  0.00  0.00     0.005 C 
ENDBRANCH   7   8
BRANCH   7  10
ATOM     10  C4  ZIN A   1      19.347   1.854   9.191  0.00  0.00     0.002 C 
ATOM     11  C5  ZIN A   1      19.252   1.876   7.664  0.00  0.00     0.005 C 
ENDBRANCH   7  10
ENDBRANCH   6   7
BRANCH   6  12
ATOM     12  N8  ZIN A   1      18.902  -0.036  11.947  0.00  0.00    -0.356 N 
ATOM     13  C9  ZIN A   1      19.969   0.344  12.678  0.00  0.00     0.213 C 
ATOM     14  C10 ZIN A   1      19.862   0.431  14.179  0.00  0.00     0.117 C 
ATOM     15  O11 ZIN A   1      21.015   0.615  12.128  0.00  0.00    -0.274 OA
ATOM     16  H42 ZIN A   1      18.042  -0.167  12.376  0.00  0.00     0.162 HD
ENDBRANCH   6  12
ENDBRANCH   1   6
BRANCH   5  17
ATOM     17  O30 ZIN A   1      20.535  -2.326  11.107  0.00  0.00    -0.394 OA
ATOM     18  H51 ZIN A   1      20.618  -1.913  11.977  0.00  0.00     0.210 HD
ENDBRANCH   5  17
BRANCH   2  19
ATOM     19  N16 ZIN A   1      17.487  -1.228   7.862  0.00  0.00    -0.222 N 
ATOM     20  C17 ZIN A   1      17.642  -0.939   6.534  0.00  0.00     0.665 C 
ATOM     21  N18 ZIN A   1      18.789  -1.230   5.920  0.00  0.00    -0.235 N 
ATOM     22  N19 ZIN A   1      16.650  -0.367   5.856  0.00  0.00    -0.235 N 
ATOM     23  H47 ZIN A   1      19.512  -1.647   6.414  0.00  0.00     0.174 HD
ATOM     24  H48 ZIN A   1      18.899  -1.025   4.978  0.00  0.00     0.174 HD
ATOM     25  H20 ZIN A   1      15.816  -0.154   6.303  0.00  0.00     0.174 HD
ATOM     26  H21 ZIN A   1      16.761  -0.161   4.915  0.00  0.00     0.174 HD
ATOM     27  H46 ZIN A   1      16.652  -1.017   8.310  0.00  0.00     0.178 HD
ENDBRANCH   2  19
BRANCH   4  28
ATOM     28  C25 ZIN A   1      18.574  -5.122  10.326  0.00  0.00     0.179 C 
ATOM     29  O26 ZIN A   1      18.170  -5.118  11.477  0.00  0.00    -0.648 OA
ATOM     30  O27 ZIN A   1      18.432  -6.114   9.633  0.00  0.00    -0.648 OA
ENDBRANCH   4  28
TORSDOF 8
ENDMDL
