MODEL 1
REMARK VINA RESULT:      -7.7      0.000      0.000
REMARK  3 active torsions:
REMARK  status: ('A' for Active; 'I' for Inactive)
REMARK    1  A    between atoms: C2_2  and  O3_3 
REMARK    2  A    between atoms: O3_3  and  C4_4 
REMARK    3  A    between atoms: C4_4  and  C6_6 
ROOT
ATOM      1  C6  ZIN A   1      19.502  -1.576  10.957  0.00  0.00     0.157 A 
ATOM      2  C7  ZIN A   1      19.090  -1.848   9.689  0.00  0.00     0.070 A 
ATOM      3  C8  ZIN A   1      18.370  -3.082   9.208  0.00  0.00     0.185 C 
ATOM      4  N9  ZIN A   1      19.216  -3.728   8.199  0.00  0.00    -0.347 N 
ATOM      5  C10 ZIN A   1      19.700  -5.090   8.438  0.00  0.00     0.153 C 
ATOM      6  C11 ZIN A   1      19.557  -3.106   7.071  0.00  0.00     0.256 C 
ATOM      7  O12 ZIN A   1      20.240  -3.739   6.289  0.00  0.00    -0.267 OA
ATOM      8  C13 ZIN A   1      19.198  -1.744   6.670  0.00  0.00     0.062 A 
ATOM      9  C14 ZIN A   1      18.833  -1.531   5.330  0.00  0.00     0.061 A 
ATOM     10  C15 ZIN A   1      18.512  -0.267   4.885  0.00  0.00     0.117 A 
ATOM     11  F16 ZIN A   1      18.160  -0.077   3.595  0.00  0.00    -0.206 F 
ATOM     12  C17 ZIN A   1      18.549   0.809   5.758  0.00  0.00     0.044 A 
ATOM     13  C18 ZIN A   1      18.894   0.614   7.079  0.00  0.00     0.034 A 
ATOM     14  C19 ZIN A   1      19.206  -0.659   7.548  0.00  0.00     0.056 A 
ATOM     15  N20 ZIN A   1      19.474  -0.806   8.911  0.00  0.00    -0.305 N 
ATOM     16  C21 ZIN A   1      20.147   0.072   9.706  0.00  0.00     0.216 A 
ATOM     17  N22 ZIN A   1      20.150  -0.382  10.926  0.00  0.00    -0.235 NA
ENDROOT
BRANCH   1  18
ATOM     18  C4  ZIN A   1      19.279  -2.417  12.145  0.00  0.00     0.314 C 
ATOM     19  O5  ZIN A   1      19.761  -3.532  12.199  0.00  0.00    -0.257 OA
BRANCH  18  20
ATOM     20  O3  ZIN A   1      18.543  -1.951  13.173  0.00  0.00    -0.317 OA
BRANCH  20  21
ATOM     21  C2  ZIN A   1      19.258  -1.290  14.250  0.00  0.00     0.175 C 
ATOM     22  C1  ZIN A   1      18.496  -1.483  15.562  0.00  0.00     0.034 C 
ENDBRANCH  20  21
ENDBRANCH  18  20
ENDBRANCH   1  18
TORSDOF 3
ENDMDL
MODEL 2
REMARK VINA RESULT:      -7.7      2.857      4.314
REMARK  3 active torsions:
REMARK  status: ('A' for Active; 'I' for Inactive)
REMARK    1  A    between atoms: C2_2  and  O3_3 
REMARK    2  A    between atoms: O3_3  and  C4_4 
REMARK    3  A    between atoms: C4_4  and  C6_6 
ROOT
ATOM      1  C6  ZIN A   1      18.566  -0.704  12.865  0.00  0.00     0.157 A 
ATOM      2  C7  ZIN A   1      19.025   0.031  11.815  0.00  0.00     0.070 A 
ATOM      3  C8  ZIN A   1      20.064   1.123  11.853  0.00  0.00     0.185 C 
ATOM      4  N9  ZIN A   1      19.429   2.360  11.387  0.00  0.00    -0.347 N 
ATOM      5  C10 ZIN A   1      19.361   3.512  12.291  0.00  0.00     0.153 C 
ATOM      6  C11 ZIN A   1      18.912   2.463  10.163  0.00  0.00     0.256 C 
ATOM      7  O12 ZIN A   1      18.432   3.541   9.867  0.00  0.00    -0.267 OA
ATOM      8  C13 ZIN A   1      18.860   1.420   9.136  0.00  0.00     0.062 A 
ATOM      9  C14 ZIN A   1      19.134   1.794   7.810  0.00  0.00     0.061 A 
ATOM     10  C15 ZIN A   1      19.074   0.864   6.795  0.00  0.00     0.117 A 
ATOM     11  F16 ZIN A   1      19.342   1.236   5.524  0.00  0.00    -0.206 F 
ATOM     12  C17 ZIN A   1      18.737  -0.452   7.074  0.00  0.00     0.044 A 
ATOM     13  C18 ZIN A   1      18.477  -0.836   8.373  0.00  0.00     0.034 A 
ATOM     14  C19 ZIN A   1      18.550   0.088   9.411  0.00  0.00     0.056 A 
ATOM     15  N20 ZIN A   1      18.350  -0.377  10.714  0.00  0.00    -0.305 N 
ATOM     16  C21 ZIN A   1      17.460  -1.330  11.108  0.00  0.00     0.216 A 
ATOM     17  N22 ZIN A   1      17.601  -1.534  12.387  0.00  0.00    -0.235 NA
ENDROOT
BRANCH   1  18
ATOM     18  C4  ZIN A   1      19.033  -0.621  14.258  0.00  0.00     0.314 C 
ATOM     19  O5  ZIN A   1      19.785  -1.469  14.698  0.00  0.00    -0.257 OA
BRANCH  18  20
ATOM     20  O3  ZIN A   1      18.629   0.395  15.046  0.00  0.00    -0.317 OA
BRANCH  20  21
ATOM     21  C2  ZIN A   1      18.515   0.123  16.467  0.00  0.00     0.175 C 
ATOM     22  C1  ZIN A   1      17.125  -0.441  16.769  0.00  0.00     0.034 C 
ENDBRANCH  20  21
ENDBRANCH  18  20
ENDBRANCH   1  18
TORSDOF 3
ENDMDL
MODEL 3
REMARK VINA RESULT:      -7.7      4.025      7.630
REMARK  3 active torsions:
REMARK  status: ('A' for Active; 'I' for Inactive)
REMARK    1  A    between atoms: C2_2  and  O3_3 
REMARK    2  A    between atoms: O3_3  and  C4_4 
REMARK    3  A    between atoms: C4_4  and  C6_6 
ROOT
ATOM      1  C6  ZIN A   1      19.520   0.372   9.554  0.00  0.00     0.157 A 
ATOM      2  C7  ZIN A   1      18.741   0.562  10.654  0.00  0.00     0.070 A 
ATOM      3  C8  ZIN A   1      17.446   1.330  10.732  0.00  0.00     0.185 C 
ATOM      4  N9  ZIN A   1      17.636   2.430  11.682  0.00  0.00    -0.347 N 
ATOM      5  C10 ZIN A   1      17.485   3.812  11.216  0.00  0.00     0.153 C 
ATOM      6  C11 ZIN A   1      17.943   2.206  12.959  0.00  0.00     0.256 C 
ATOM      7  O12 ZIN A   1      18.053   3.187  13.670  0.00  0.00    -0.267 OA
ATOM      8  C13 ZIN A   1      18.162   0.907  13.600  0.00  0.00     0.062 A 
ATOM      9  C14 ZIN A   1      17.628   0.713  14.885  0.00  0.00     0.061 A 
ATOM     10  C15 ZIN A   1      17.824  -0.477  15.551  0.00  0.00     0.117 A 
ATOM     11  F16 ZIN A   1      17.302  -0.652  16.785  0.00  0.00    -0.206 F 
ATOM     12  C17 ZIN A   1      18.555  -1.495  14.959  0.00  0.00     0.044 A 
ATOM     13  C18 ZIN A   1      19.076  -1.323  13.693  0.00  0.00     0.034 A 
ATOM     14  C19 ZIN A   1      18.873  -0.133  13.001  0.00  0.00     0.056 A 
ATOM     15  N20 ZIN A   1      19.360  -0.046  11.694  0.00  0.00    -0.305 N 
ATOM     16  C21 ZIN A   1      20.528  -0.569  11.226  0.00  0.00     0.216 A 
ATOM     17  N22 ZIN A   1      20.613  -0.332   9.949  0.00  0.00    -0.235 NA
ENDROOT
BRANCH   1  18
ATOM     18  C4  ZIN A   1      19.228   0.836   8.188  0.00  0.00     0.314 C 
ATOM     19  O5  ZIN A   1      19.248   2.024   7.932  0.00  0.00    -0.257 OA
BRANCH  18  20
ATOM     20  O3  ZIN A   1      18.941  -0.057   7.220  0.00  0.00    -0.317 OA
BRANCH  20  21
ATOM     21  C2  ZIN A   1      18.557   0.475   5.925  0.00  0.00     0.175 C 
ATOM     22  C1  ZIN A   1      19.353  -0.232   4.826  0.00  0.00     0.034 C 
ENDBRANCH  20  21
ENDBRANCH  18  20
ENDBRANCH   1  18
TORSDOF 3
ENDMDL
MODEL 4
REMARK VINA RESULT:      -7.6      2.359      3.090
REMARK  3 active torsions:
REMARK  status: ('A' for Active; 'I' for Inactive)
REMARK    1  A    between atoms: C2_2  and  O3_3 
REMARK    2  A    between atoms: O3_3  and  C4_4 
REMARK    3  A    between atoms: C4_4  and  C6_6 
ROOT
ATOM      1  C6  ZIN A   1      19.182  -0.226  13.517  0.00  0.00     0.157 A 
ATOM      2  C7  ZIN A   1      18.576  -0.375  12.307  0.00  0.00     0.070 A 
ATOM      3  C8  ZIN A   1      17.293  -1.111  12.015  0.00  0.00     0.185 C 
ATOM      4  N9  ZIN A   1      17.604  -2.195  11.078  0.00  0.00    -0.347 N 
ATOM      5  C10 ZIN A   1      17.357  -3.582  11.483  0.00  0.00     0.153 C 
ATOM      6  C11 ZIN A   1      18.107  -1.952   9.868  0.00  0.00     0.256 C 
ATOM      7  O12 ZIN A   1      18.305  -2.920   9.159  0.00  0.00    -0.267 OA
ATOM      8  C13 ZIN A   1      18.446  -0.645   9.299  0.00  0.00     0.062 A 
ATOM      9  C14 ZIN A   1      18.118  -0.412   7.954  0.00  0.00     0.061 A 
ATOM     10  C15 ZIN A   1      18.437   0.787   7.354  0.00  0.00     0.117 A 
ATOM     11  F16 ZIN A   1      18.113   0.999   6.059  0.00  0.00    -0.206 F 
ATOM     12  C17 ZIN A   1      19.090   1.775   8.075  0.00  0.00     0.044 A 
ATOM     13  C18 ZIN A   1      19.408   1.565   9.400  0.00  0.00     0.034 A 
ATOM     14  C19 ZIN A   1      19.079   0.366  10.025  0.00  0.00     0.056 A 
ATOM     15  N20 ZIN A   1      19.359   0.241  11.388  0.00  0.00    -0.305 N 
ATOM     16  C21 ZIN A   1      20.452   0.727  12.040  0.00  0.00     0.216 A 
ATOM     17  N22 ZIN A   1      20.337   0.461  13.310  0.00  0.00    -0.235 NA
ENDROOT
BRANCH   1  18
ATOM     18  C4  ZIN A   1      18.676  -0.711  14.811  0.00  0.00     0.314 C 
ATOM     19  O5  ZIN A   1      19.249  -1.615  15.387  0.00  0.00    -0.257 OA
BRANCH  18  20
ATOM     20  O3  ZIN A   1      17.580  -0.151  15.359  0.00  0.00    -0.317 OA
BRANCH  20  21
ATOM     21  C2  ZIN A   1      17.208  -0.595  16.691  0.00  0.00     0.175 C 
ATOM     22  C1  ZIN A   1      17.583   0.482  17.711  0.00  0.00     0.034 C 
ENDBRANCH  20  21
ENDBRANCH  18  20
ENDBRANCH   1  18
TORSDOF 3
ENDMDL
MODEL 5
REMARK VINA RESULT:      -7.6      3.017      5.351
REMARK  3 active torsions:
REMARK  status: ('A' for Active; 'I' for Inactive)
REMARK    1  A    between atoms: C2_2  and  O3_3 
REMARK    2  A    between atoms: O3_3  and  C4_4 
REMARK    3  A    between atoms: C4_4  and  C6_6 
ROOT
ATOM      1  C6  ZIN A   1      18.839  -1.919   7.324  0.00  0.00     0.157 A 
ATOM      2  C7  ZIN A   1      18.817  -1.303   8.537  0.00  0.00     0.070 A 
ATOM      3  C8  ZIN A   1      19.191  -1.901   9.870  0.00  0.00     0.185 C 
ATOM      4  N9  ZIN A   1      18.006  -1.845  10.732  0.00  0.00    -0.347 N 
ATOM      5  C10 ZIN A   1      17.438  -3.094  11.247  0.00  0.00     0.153 C 
ATOM      6  C11 ZIN A   1      17.433  -0.688  11.059  0.00  0.00     0.256 C 
ATOM      7  O12 ZIN A   1      16.471  -0.750  11.801  0.00  0.00    -0.267 OA
ATOM      8  C13 ZIN A   1      17.835   0.652  10.623  0.00  0.00     0.062 A 
ATOM      9  C14 ZIN A   1      17.812   1.685  11.575  0.00  0.00     0.061 A 
ATOM     10  C15 ZIN A   1      18.152   2.971  11.219  0.00  0.00     0.117 A 
ATOM     11  F16 ZIN A   1      18.129   3.955  12.146  0.00  0.00    -0.206 F 
ATOM     12  C17 ZIN A   1      18.519   3.260   9.913  0.00  0.00     0.044 A 
ATOM     13  C18 ZIN A   1      18.558   2.254   8.970  0.00  0.00     0.034 A 
ATOM     14  C19 ZIN A   1      18.232   0.946   9.318  0.00  0.00     0.056 A 
ATOM     15  N20 ZIN A   1      18.363  -0.042   8.338  0.00  0.00    -0.305 N 
ATOM     16  C21 ZIN A   1      18.077   0.087   7.012  0.00  0.00     0.216 A 
ATOM     17  N22 ZIN A   1      18.376  -1.028   6.408  0.00  0.00    -0.235 NA
ENDROOT
BRANCH   1  18
ATOM     18  C4  ZIN A   1      19.289  -3.294   7.052  0.00  0.00     0.314 C 
ATOM     19  O5  ZIN A   1      20.303  -3.486   6.410  0.00  0.00    -0.257 OA
BRANCH  18  20
ATOM     20  O3  ZIN A   1      18.578  -4.340   7.516  0.00  0.00    -0.317 OA
BRANCH  20  21
ATOM     21  C2  ZIN A   1      19.309  -5.563   7.795  0.00  0.00     0.175 C 
ATOM     22  C1  ZIN A   1      19.737  -5.579   9.264  0.00  0.00     0.034 C 
ENDBRANCH  20  21
ENDBRANCH  18  20
ENDBRANCH   1  18
TORSDOF 3
ENDMDL
MODEL 6
REMARK VINA RESULT:      -7.6      5.936      9.137
REMARK  3 active torsions:
REMARK  status: ('A' for Active; 'I' for Inactive)
REMARK    1  A    between atoms: C2_2  and  O3_3 
REMARK    2  A    between atoms: O3_3  and  C4_4 
REMARK    3  A    between atoms: C4_4  and  C6_6 
ROOT
ATOM      1  C6  ZIN A   1      19.099   1.750  11.971  0.00  0.00     0.157 A 
ATOM      2  C7  ZIN A   1      18.782   1.896  13.286  0.00  0.00     0.070 A 
ATOM      3  C8  ZIN A   1      18.029   3.038  13.920  0.00  0.00     0.185 C 
ATOM      4  N9  ZIN A   1      18.915   3.666  14.905  0.00  0.00    -0.347 N 
ATOM      5  C10 ZIN A   1      19.286   5.073  14.737  0.00  0.00     0.153 C 
ATOM      6  C11 ZIN A   1      19.392   2.989  15.949  0.00  0.00     0.256 C 
ATOM      7  O12 ZIN A   1      20.097   3.609  16.721  0.00  0.00    -0.267 OA
ATOM      8  C13 ZIN A   1      19.158   1.578  16.269  0.00  0.00     0.062 A 
ATOM      9  C14 ZIN A   1      18.925   1.241  17.612  0.00  0.00     0.061 A 
ATOM     10  C15 ZIN A   1      18.726  -0.072  17.980  0.00  0.00     0.117 A 
ATOM     11  F16 ZIN A   1      18.501  -0.382  19.275  0.00  0.00    -0.206 F 
ATOM     12  C17 ZIN A   1      18.758  -1.075  17.024  0.00  0.00     0.044 A 
ATOM     13  C18 ZIN A   1      18.974  -0.759  15.699  0.00  0.00     0.034 A 
ATOM     14  C19 ZIN A   1      19.160   0.564  15.309  0.00  0.00     0.056 A 
ATOM     15  N20 ZIN A   1      19.299   0.830  13.945  0.00  0.00    -0.305 N 
ATOM     16  C21 ZIN A   1      19.957   0.064  13.031  0.00  0.00     0.216 A 
ATOM     17  N22 ZIN A   1      19.824   0.606  11.854  0.00  0.00    -0.235 NA
ENDROOT
BRANCH   1  18
ATOM     18  C4  ZIN A   1      18.721   2.658  10.876  0.00  0.00     0.314 C 
ATOM     19  O5  ZIN A   1      18.394   2.205   9.797  0.00  0.00    -0.257 OA
BRANCH  18  20
ATOM     20  O3  ZIN A   1      18.734   3.991  11.071  0.00  0.00    -0.317 OA
BRANCH  20  21
ATOM     21  C2  ZIN A   1      17.725   4.769  10.376  0.00  0.00     0.175 C 
ATOM     22  C1  ZIN A   1      16.591   5.115  11.344  0.00  0.00     0.034 C 
ENDBRANCH  20  21
ENDBRANCH  18  20
ENDBRANCH   1  18
TORSDOF 3
ENDMDL
MODEL 7
REMARK VINA RESULT:      -7.3      3.609      5.036
REMARK  3 active torsions:
REMARK  status: ('A' for Active; 'I' for Inactive)
REMARK    1  A    between atoms: C2_2  and  O3_3 
REMARK    2  A    between atoms: O3_3  and  C4_4 
REMARK    3  A    between atoms: C4_4  and  C6_6 
ROOT
ATOM      1  C6  ZIN A   1      18.413  -1.586  12.121  0.00  0.00     0.157 A 
ATOM      2  C7  ZIN A   1      18.127  -0.531  11.311  0.00  0.00     0.070 A 
ATOM      3  C8  ZIN A   1      17.615  -0.583   9.894  0.00  0.00     0.185 C 
ATOM      4  N9  ZIN A   1      18.606   0.076   9.037  0.00  0.00    -0.347 N 
ATOM      5  C10 ZIN A   1      19.252  -0.694   7.970  0.00  0.00     0.153 C 
ATOM      6  C11 ZIN A   1      18.934   1.356   9.203  0.00  0.00     0.256 C 
ATOM      7  O12 ZIN A   1      19.747   1.813   8.422  0.00  0.00    -0.267 OA
ATOM      8  C13 ZIN A   1      18.422   2.274  10.223  0.00  0.00     0.062 A 
ATOM      9  C14 ZIN A   1      18.122   3.589   9.830  0.00  0.00     0.061 A 
ATOM     10  C15 ZIN A   1      17.664   4.507  10.750  0.00  0.00     0.117 A 
ATOM     11  F16 ZIN A   1      17.376   5.767  10.357  0.00  0.00    -0.206 F 
ATOM     12  C17 ZIN A   1      17.497   4.140  12.077  0.00  0.00     0.044 A 
ATOM     13  C18 ZIN A   1      17.776   2.849  12.476  0.00  0.00     0.034 A 
ATOM     14  C19 ZIN A   1      18.224   1.906  11.555  0.00  0.00     0.056 A 
ATOM     15  N20 ZIN A   1      18.418   0.597  12.003  0.00  0.00    -0.305 N 
ATOM     16  C21 ZIN A   1      18.912   0.218  13.215  0.00  0.00     0.216 A 
ATOM     17  N22 ZIN A   1      18.894  -1.082  13.288  0.00  0.00    -0.235 NA
ENDROOT
BRANCH   1  18
ATOM     18  C4  ZIN A   1      18.227  -3.010  11.798  0.00  0.00     0.314 C 
ATOM     19  O5  ZIN A   1      19.178  -3.766  11.816  0.00  0.00    -0.257 OA
BRANCH  18  20
ATOM     20  O3  ZIN A   1      17.002  -3.475  11.483  0.00  0.00    -0.317 OA
BRANCH  20  21
ATOM     21  C2  ZIN A   1      16.853  -4.915  11.365  0.00  0.00     0.175 C 
ATOM     22  C1  ZIN A   1      16.583  -5.282   9.905  0.00  0.00     0.034 C 
ENDBRANCH  20  21
ENDBRANCH  18  20
ENDBRANCH   1  18
TORSDOF 3
ENDMDL
MODEL 8
REMARK VINA RESULT:      -7.2      5.846      7.318
REMARK  3 active torsions:
REMARK  status: ('A' for Active; 'I' for Inactive)
REMARK    1  A    between atoms: C2_2  and  O3_3 
REMARK    2  A    between atoms: O3_3  and  C4_4 
REMARK    3  A    between atoms: C4_4  and  C6_6 
ROOT
ATOM      1  C6  ZIN A   1      18.894   2.638  16.744  0.00  0.00     0.157 A 
ATOM      2  C7  ZIN A   1      18.517   2.540  15.440  0.00  0.00     0.070 A 
ATOM      3  C8  ZIN A   1      18.313   1.277  14.643  0.00  0.00     0.185 C 
ATOM      4  N9  ZIN A   1      19.256   1.299  13.520  0.00  0.00    -0.347 N 
ATOM      5  C10 ZIN A   1      20.262   0.239  13.411  0.00  0.00     0.153 C 
ATOM      6  C11 ZIN A   1      19.222   2.259  12.597  0.00  0.00     0.256 C 
ATOM      7  O12 ZIN A   1      20.031   2.171  11.693  0.00  0.00    -0.267 OA
ATOM      8  C13 ZIN A   1      18.316   3.409  12.552  0.00  0.00     0.062 A 
ATOM      9  C14 ZIN A   1      17.783   3.774  11.305  0.00  0.00     0.061 A 
ATOM     10  C15 ZIN A   1      16.947   4.864  11.192  0.00  0.00     0.117 A 
ATOM     11  F16 ZIN A   1      16.439   5.202   9.987  0.00  0.00    -0.206 F 
ATOM     12  C17 ZIN A   1      16.626   5.614  12.314  0.00  0.00     0.044 A 
ATOM     13  C18 ZIN A   1      17.132   5.261  13.547  0.00  0.00     0.034 A 
ATOM     14  C19 ZIN A   1      17.965   4.154  13.679  0.00  0.00     0.056 A 
ATOM     15  N20 ZIN A   1      18.385   3.802  14.964  0.00  0.00    -0.305 N 
ATOM     16  C21 ZIN A   1      18.718   4.656  15.972  0.00  0.00     0.216 A 
ATOM     17  N22 ZIN A   1      19.006   3.961  17.035  0.00  0.00    -0.235 NA
ENDROOT
BRANCH   1  18
ATOM     18  C4  ZIN A   1      19.128   1.519  17.670  0.00  0.00     0.314 C 
ATOM     19  O5  ZIN A   1      19.998   1.601  18.515  0.00  0.00    -0.257 OA
BRANCH  18  20
ATOM     20  O3  ZIN A   1      18.377   0.404  17.584  0.00  0.00    -0.317 OA
BRANCH  20  21
ATOM     21  C2  ZIN A   1      19.072  -0.869  17.667  0.00  0.00     0.175 C 
ATOM     22  C1  ZIN A   1      18.885  -1.638  16.358  0.00  0.00     0.034 C 
ENDBRANCH  20  21
ENDBRANCH  18  20
ENDBRANCH   1  18
TORSDOF 3
ENDMDL
MODEL 9
REMARK VINA RESULT:      -7.2      2.725      4.446
REMARK  3 active torsions:
REMARK  status: ('A' for Active; 'I' for Inactive)
REMARK    1  A    between atoms: C2_2  and  O3_3 
REMARK    2  A    between atoms: O3_3  and  C4_4 
REMARK    3  A    between atoms: C4_4  and  C6_6 
ROOT
ATOM      1  C6  ZIN A   1      17.965  -0.463  11.308  0.00  0.00     0.157 A 
ATOM      2  C7  ZIN A   1      18.650  -0.961  10.242  0.00  0.00     0.070 A 
ATOM      3  C8  ZIN A   1      19.573  -0.208   9.319  0.00  0.00     0.185 C 
ATOM      4  N9  ZIN A   1      19.018  -0.295   7.964  0.00  0.00    -0.347 N 
ATOM      5  C10 ZIN A   1      18.637   0.937   7.268  0.00  0.00     0.153 C 
ATOM      6  C11 ZIN A   1      18.850  -1.466   7.351  0.00  0.00     0.256 C 
ATOM      7  O12 ZIN A   1      18.407  -1.426   6.219  0.00  0.00    -0.267 OA
ATOM      8  C13 ZIN A   1      19.143  -2.795   7.891  0.00  0.00     0.062 A 
ATOM      9  C14 ZIN A   1      19.747  -3.731   7.035  0.00  0.00     0.061 A 
ATOM     10  C15 ZIN A   1      20.021  -5.007   7.476  0.00  0.00     0.117 A 
ATOM     11  F16 ZIN A   1      20.606  -5.897   6.643  0.00  0.00    -0.206 F 
ATOM     12  C17 ZIN A   1      19.700  -5.381   8.772  0.00  0.00     0.044 A 
ATOM     13  C18 ZIN A   1      19.117  -4.470   9.628  0.00  0.00     0.034 A 
ATOM     14  C19 ZIN A   1      18.848  -3.172   9.202  0.00  0.00     0.056 A 
ATOM     15  N20 ZIN A   1      18.327  -2.273  10.136  0.00  0.00    -0.305 N 
ATOM     16  C21 ZIN A   1      17.421  -2.553  11.114  0.00  0.00     0.216 A 
ATOM     17  N22 ZIN A   1      17.219  -1.477  11.820  0.00  0.00    -0.235 NA
ENDROOT
BRANCH   1  18
ATOM     18  C4  ZIN A   1      18.027   0.917  11.816  0.00  0.00     0.314 C 
ATOM     19  O5  ZIN A   1      18.861   1.221  12.647  0.00  0.00    -0.257 OA
BRANCH  18  20
ATOM     20  O3  ZIN A   1      17.162   1.843  11.360  0.00  0.00    -0.317 OA
BRANCH  20  21
ATOM     21  C2  ZIN A   1      17.636   3.214  11.297  0.00  0.00     0.175 C 
ATOM     22  C1  ZIN A   1      18.332   3.452   9.955  0.00  0.00     0.034 C 
ENDBRANCH  20  21
ENDBRANCH  18  20
ENDBRANCH   1  18
TORSDOF 3
ENDMDL
