MODEL 1
REMARK VINA RESULT:      -7.8      0.000      0.000
REMARK  10 active torsions:
REMARK  status: ('A' for Active; 'I' for Inactive)
REMARK    1  A    between atoms: C7_7  and  N8_8 
REMARK    2  A    between atoms: N8_8  and  C9_9 
REMARK    3  A    between atoms: C12_12  and  O13_13 
REMARK    4  A    between atoms: O13_13  and  C14_14 
REMARK    5  A    between atoms: C14_14  and  C15_15 
REMARK    6  A    between atoms: C15_15  and  O16_16 
REMARK    7  A    between atoms: C18_18  and  O19_19 
REMARK    8  A    between atoms: O19_19  and  C20_20 
REMARK    9  A    between atoms: C20_20  and  C21_21 
REMARK   10  A    between atoms: C21_21  and  O22_22 
ROOT
ATOM      1  C1  RES d   1      17.577   0.889  18.351  0.00  0.00     0.018 C 
ATOM      2  C2  RES d   1      17.821   0.447  17.290  0.00  0.00    -0.078 C 
ATOM      3  C3  RES d   1      18.118  -0.091  15.997  0.00  0.00     0.019 A 
ATOM      4  C4  RES d   1      19.143  -1.025  15.847  0.00  0.00     0.021 A 
ATOM      5  C5  RES d   1      19.429  -1.543  14.598  0.00  0.00     0.004 A 
ATOM      6  C6  RES d   1      18.702  -1.139  13.496  0.00  0.00     0.029 A 
ATOM      7  C7  RES d   1      17.678  -0.208  13.635  0.00  0.00     0.035 A 
ATOM      8  C29 RES d   1      17.381   0.313  14.884  0.00  0.00     0.050 A 
ENDROOT
BRANCH   7   9
ATOM      9  N8  RES d   1      16.946   0.199  12.516  0.00  0.00    -0.340 N 
ATOM     10  H34 RES d   1      16.091  -0.217  12.318  0.00  0.00     0.167 HD
BRANCH   9  11
ATOM     11  C9  RES d   1      17.438   1.191  11.691  0.00  0.00     0.142 A 
ATOM     12  N28 RES d   1      17.466   2.456  12.091  0.00  0.00    -0.224 NA
ATOM     13  C27 RES d   1      17.938   3.417  11.312  0.00  0.00     0.236 A 
ATOM     14  N26 RES d   1      18.397   3.193  10.104  0.00  0.00    -0.241 NA
ATOM     15  C25 RES d   1      18.411   1.950   9.600  0.00  0.00     0.075 A 
ATOM     16  C10 RES d   1      17.920   0.887  10.396  0.00  0.00     0.042 A 
ATOM     17  C24 RES d   1      18.893   1.680   8.312  0.00  0.00     0.072 A 
ATOM     18  C11 RES d   1      17.922  -0.420   9.895  0.00  0.00     0.057 A 
ATOM     19  C12 RES d   1      18.397  -0.661   8.637  0.00  0.00     0.103 A 
ATOM     20  C18 RES d   1      18.885   0.386   7.842  0.00  0.00     0.104 A 
BRANCH  19  21
ATOM     21  O13 RES d   1      18.398  -1.931   8.151  0.00  0.00    -0.346 OA
BRANCH  21  22
ATOM     22  C14 RES d   1      17.818  -2.943   8.976  0.00  0.00     0.201 C 
BRANCH  22  23
ATOM     23  C15 RES d   1      18.398  -4.307   8.596  0.00  0.00     0.193 C 
BRANCH  23  24
ATOM     24  O16 RES d   1      18.954  -4.927   9.757  0.00  0.00    -0.394 OA
ATOM     25  C17 RES d   1      19.436  -4.002  10.734  0.00  0.00     0.201 C 
ENDBRANCH  23  24
ENDBRANCH  22  23
ENDBRANCH  21  22
ENDBRANCH  19  21
BRANCH  20  26
ATOM     26  O19 RES d   1      19.353   0.121   6.595  0.00  0.00    -0.346 OA
BRANCH  26  27
ATOM     27  C20 RES d   1      18.510   0.475   5.497  0.00  0.00     0.201 C 
BRANCH  27  28
ATOM     28  C21 RES d   1      18.685  -0.544   4.370  0.00  0.00     0.193 C 
BRANCH  28  29
ATOM     29  O22 RES d   1      19.657  -1.518   4.755  0.00  0.00    -0.394 OA
ATOM     30  C23 RES d   1      19.133  -2.841   4.891  0.00  0.00     0.201 C 
ENDBRANCH  28  29
ENDBRANCH  27  28
ENDBRANCH  26  27
ENDBRANCH  20  26
ENDBRANCH   9  11
ENDBRANCH   7   9
TORSDOF 10
ENDMDL
MODEL 2
REMARK VINA RESULT:      -7.5      3.688      8.780
REMARK  10 active torsions:
REMARK  status: ('A' for Active; 'I' for Inactive)
REMARK    1  A    between atoms: C7_7  and  N8_8 
REMARK    2  A    between atoms: N8_8  and  C9_9 
REMARK    3  A    between atoms: C12_12  and  O13_13 
REMARK    4  A    between atoms: O13_13  and  C14_14 
REMARK    5  A    between atoms: C14_14  and  C15_15 
REMARK    6  A    between atoms: C15_15  and  O16_16 
REMARK    7  A    between atoms: C18_18  and  O19_19 
REMARK    8  A    between atoms: O19_19  and  C20_20 
REMARK    9  A    between atoms: C20_20  and  C21_21 
REMARK   10  A    between atoms: C21_21  and  O22_22 
ROOT
ATOM      1  C1  RES d   1      17.645  -1.266   4.310  0.00  0.00     0.018 C 
ATOM      2  C2  RES d   1      17.821  -0.697   5.323  0.00  0.00    -0.078 C 
ATOM      3  C3  RES d   1      18.036  -0.004   6.557  0.00  0.00     0.019 A 
ATOM      4  C4  RES d   1      18.780   1.177   6.576  0.00  0.00     0.021 A 
ATOM      5  C5  RES d   1      18.986   1.844   7.767  0.00  0.00     0.004 A 
ATOM      6  C6  RES d   1      18.458   1.347   8.942  0.00  0.00     0.029 A 
ATOM      7  C7  RES d   1      17.715   0.172   8.934  0.00  0.00     0.035 A 
ATOM      8  C29 RES d   1      17.498  -0.502   7.743  0.00  0.00     0.050 A 
ENDROOT
BRANCH   7   9
ATOM      9  N8  RES d   1      17.182  -0.327  10.126  0.00  0.00    -0.340 N 
ATOM     10  H34 RES d   1      16.267  -0.121  10.373  0.00  0.00     0.167 HD
BRANCH   9  11
ATOM     11  C9  RES d   1      17.958  -1.114  10.954  0.00  0.00     0.142 A 
ATOM     12  N28 RES d   1      18.421  -2.288  10.540  0.00  0.00    -0.224 NA
ATOM     13  C27 RES d   1      19.169  -3.051  11.320  0.00  0.00     0.236 A 
ATOM     14  N26 RES d   1      19.496  -2.713  12.545  0.00  0.00    -0.241 NA
ATOM     15  C25 RES d   1      19.077  -1.549  13.065  0.00  0.00     0.075 A 
ATOM     16  C10 RES d   1      18.277  -0.695  12.267  0.00  0.00     0.042 A 
ATOM     17  C24 RES d   1      19.407  -1.161  14.370  0.00  0.00     0.072 A 
ATOM     18  C11 RES d   1      17.826   0.525  12.784  0.00  0.00     0.057 A 
ATOM     19  C12 RES d   1      18.160   0.884  14.059  0.00  0.00     0.103 A 
ATOM     20  C18 RES d   1      18.952   0.044  14.856  0.00  0.00     0.104 A 
BRANCH  19  21
ATOM     21  O13 RES d   1      17.721   2.069  14.561  0.00  0.00    -0.346 OA
BRANCH  21  22
ATOM     22  C14 RES d   1      18.584   3.197  14.412  0.00  0.00     0.201 C 
BRANCH  22  23
ATOM     23  C15 RES d   1      18.253   3.925  13.108  0.00  0.00     0.193 C 
BRANCH  23  24
ATOM     24  O16 RES d   1      19.382   4.697  12.694  0.00  0.00    -0.394 OA
ATOM     25  C17 RES d   1      20.004   5.429  13.751  0.00  0.00     0.201 C 
ENDBRANCH  23  24
ENDBRANCH  22  23
ENDBRANCH  21  22
ENDBRANCH  19  21
BRANCH  20  26
ATOM     26  O19 RES d   1      19.271   0.423  16.120  0.00  0.00    -0.346 OA
BRANCH  26  27
ATOM     27  C20 RES d   1      18.738  -0.363  17.188  0.00  0.00     0.201 C 
BRANCH  27  28
ATOM     28  C21 RES d   1      18.396   0.546  18.369  0.00  0.00     0.193 C 
BRANCH  28  29
ATOM     29  O22 RES d   1      19.477   1.450  18.604  0.00  0.00    -0.394 OA
ATOM     30  C23 RES d   1      19.090   2.825  18.630  0.00  0.00     0.201 C 
ENDBRANCH  28  29
ENDBRANCH  27  28
ENDBRANCH  26  27
ENDBRANCH  20  26
ENDBRANCH   9  11
ENDBRANCH   7   9
TORSDOF 10
ENDMDL
MODEL 3
REMARK VINA RESULT:      -7.3      3.392      6.725
REMARK  10 active torsions:
REMARK  status: ('A' for Active; 'I' for Inactive)
REMARK    1  A    between atoms: C7_7  and  N8_8 
REMARK    2  A    between atoms: N8_8  and  C9_9 
REMARK    3  A    between atoms: C12_12  and  O13_13 
REMARK    4  A    between atoms: O13_13  and  C14_14 
REMARK    5  A    between atoms: C14_14  and  C15_15 
REMARK    6  A    between atoms: C15_15  and  O16_16 
REMARK    7  A    between atoms: C18_18  and  O19_19 
REMARK    8  A    between atoms: O19_19  and  C20_20 
REMARK    9  A    between atoms: C20_20  and  C21_21 
REMARK   10  A    between atoms: C21_21  and  O22_22 
ROOT
ATOM      1  C1  RES d   1      14.898  -6.135   8.115  0.00  0.00     0.018 C 
ATOM      2  C2  RES d   1      15.697  -5.571   8.766  0.00  0.00    -0.078 C 
ATOM      3  C3  RES d   1      16.669  -4.882   9.559  0.00  0.00     0.019 A 
ATOM      4  C4  RES d   1      16.613  -4.952  10.951  0.00  0.00     0.021 A 
ATOM      5  C5  RES d   1      17.552  -4.287  11.715  0.00  0.00     0.004 A 
ATOM      6  C6  RES d   1      18.549  -3.553  11.105  0.00  0.00     0.029 A 
ATOM      7  C7  RES d   1      18.615  -3.476   9.718  0.00  0.00     0.035 A 
ATOM      8  C29 RES d   1      17.680  -4.144   8.943  0.00  0.00     0.050 A 
ENDROOT
BRANCH   7   9
ATOM      9  N8  RES d   1      19.625  -2.731   9.105  0.00  0.00    -0.340 N 
ATOM     10  H34 RES d   1      20.549  -3.024   9.165  0.00  0.00     0.167 HD
BRANCH   9  11
ATOM     11  C9  RES d   1      19.311  -1.577   8.415  0.00  0.00     0.142 A 
ATOM     12  N28 RES d   1      19.018  -1.616   7.121  0.00  0.00    -0.224 NA
ATOM     13  C27 RES d   1      18.711  -0.519   6.447  0.00  0.00     0.236 A 
ATOM     14  N26 RES d   1      18.684   0.671   6.999  0.00  0.00    -0.241 NA
ATOM     15  C25 RES d   1      18.969   0.825   8.301  0.00  0.00     0.075 A 
ATOM     16  C10 RES d   1      19.300  -0.321   9.066  0.00  0.00     0.042 A 
ATOM     17  C24 RES d   1      18.951   2.082   8.918  0.00  0.00     0.072 A 
ATOM     18  C11 RES d   1      19.601  -0.189  10.427  0.00  0.00     0.057 A 
ATOM     19  C12 RES d   1      19.577   1.047  11.008  0.00  0.00     0.103 A 
ATOM     20  C18 RES d   1      19.251   2.186  10.257  0.00  0.00     0.104 A 
BRANCH  19  21
ATOM     21  O13 RES d   1      19.871   1.174  12.329  0.00  0.00    -0.346 OA
BRANCH  21  22
ATOM     22  C14 RES d   1      18.842   0.832  13.259  0.00  0.00     0.201 C 
BRANCH  22  23
ATOM     23  C15 RES d   1      19.350   1.048  14.686  0.00  0.00     0.193 C 
BRANCH  23  24
ATOM     24  O16 RES d   1      19.080  -0.116  15.469  0.00  0.00    -0.394 OA
ATOM     25  C17 RES d   1      19.328  -1.346  14.784  0.00  0.00     0.201 C 
ENDBRANCH  23  24
ENDBRANCH  22  23
ENDBRANCH  21  22
ENDBRANCH  19  21
BRANCH  20  26
ATOM     26  O19 RES d   1      19.233   3.403  10.858  0.00  0.00    -0.346 OA
BRANCH  26  27
ATOM     27  C20 RES d   1      17.951   3.983  11.111  0.00  0.00     0.201 C 
BRANCH  27  28
ATOM     28  C21 RES d   1      17.882   4.453  12.565  0.00  0.00     0.193 C 
BRANCH  28  29
ATOM     29  O22 RES d   1      19.170   4.327  13.169  0.00  0.00    -0.394 OA
ATOM     30  C23 RES d   1      19.539   5.435  13.992  0.00  0.00     0.201 C 
ENDBRANCH  28  29
ENDBRANCH  27  28
ENDBRANCH  26  27
ENDBRANCH  20  26
ENDBRANCH   9  11
ENDBRANCH   7   9
TORSDOF 10
ENDMDL
MODEL 4
REMARK VINA RESULT:      -7.2      2.059      3.219
REMARK  10 active torsions:
REMARK  status: ('A' for Active; 'I' for Inactive)
REMARK    1  A    between atoms: C7_7  and  N8_8 
REMARK    2  A    between atoms: N8_8  and  C9_9 
REMARK    3  A    between atoms: C12_12  and  O13_13 
REMARK    4  A    between atoms: O13_13  and  C14_14 
REMARK    5  A    between atoms: C14_14  and  C15_15 
REMARK    6  A    between atoms: C15_15  and  O16_16 
REMARK    7  A    between atoms: C18_18  and  O19_19 
REMARK    8  A    between atoms: O19_19  and  C20_20 
REMARK    9  A    between atoms: C20_20  and  C21_21 
REMARK   10  A    between atoms: C21_21  and  O22_22 
ROOT
ATOM      1  C1  RES d   1      17.018  -2.042  16.777  0.00  0.00     0.018 C 
ATOM      2  C2  RES d   1      17.469  -0.960  16.855  0.00  0.00    -0.078 C 
ATOM      3  C3  RES d   1      18.018   0.359  16.948  0.00  0.00     0.019 A 
ATOM      4  C4  RES d   1      18.052   1.016  18.179  0.00  0.00     0.021 A 
ATOM      5  C5  RES d   1      18.582   2.289  18.267  0.00  0.00     0.004 A 
ATOM      6  C6  RES d   1      19.079   2.914  17.141  0.00  0.00     0.029 A 
ATOM      7  C7  RES d   1      19.049   2.268  15.910  0.00  0.00     0.035 A 
ATOM      8  C29 RES d   1      18.524   0.989  15.812  0.00  0.00     0.050 A 
ENDROOT
BRANCH   7   9
ATOM      9  N8  RES d   1      19.552   2.906  14.773  0.00  0.00    -0.340 N 
ATOM     10  H34 RES d   1      20.506   3.061  14.685  0.00  0.00     0.167 HD
BRANCH   9  11
ATOM     11  C9  RES d   1      18.692   3.316  13.773  0.00  0.00     0.142 A 
ATOM     12  N28 RES d   1      17.835   4.309  13.977  0.00  0.00    -0.224 NA
ATOM     13  C27 RES d   1      17.009   4.716  13.027  0.00  0.00     0.236 A 
ATOM     14  N26 RES d   1      16.970   4.169  11.835  0.00  0.00    -0.241 NA
ATOM     15  C25 RES d   1      17.791   3.154  11.524  0.00  0.00     0.075 A 
ATOM     16  C10 RES d   1      18.697   2.686  12.506  0.00  0.00     0.042 A 
ATOM     17  C24 RES d   1      17.771   2.548  10.261  0.00  0.00     0.072 A 
ATOM     18  C11 RES d   1      19.565   1.628  12.208  0.00  0.00     0.057 A 
ATOM     19  C12 RES d   1      19.530   1.053  10.971  0.00  0.00     0.103 A 
ATOM     20  C18 RES d   1      18.635   1.510   9.992  0.00  0.00     0.104 A 
BRANCH  19  21
ATOM     21  O13 RES d   1      20.372   0.025  10.683  0.00  0.00    -0.346 OA
BRANCH  21  22
ATOM     22  C14 RES d   1      20.256  -1.153  11.483  0.00  0.00     0.201 C 
BRANCH  22  23
ATOM     23  C15 RES d   1      19.183  -2.070  10.891  0.00  0.00     0.193 C 
BRANCH  23  24
ATOM     24  O16 RES d   1      18.138  -2.257  11.846  0.00  0.00    -0.394 OA
ATOM     25  C17 RES d   1      18.479  -1.840  13.169  0.00  0.00     0.201 C 
ENDBRANCH  23  24
ENDBRANCH  22  23
ENDBRANCH  21  22
ENDBRANCH  19  21
BRANCH  20  26
ATOM     26  O19 RES d   1      18.619   0.922   8.769  0.00  0.00    -0.346 OA
BRANCH  26  27
ATOM     27  C20 RES d   1      17.430   0.218   8.402  0.00  0.00     0.201 C 
BRANCH  27  28
ATOM     28  C21 RES d   1      17.532  -0.228   6.943  0.00  0.00     0.193 C 
BRANCH  28  29
ATOM     29  O22 RES d   1      18.383   0.669   6.227  0.00  0.00    -0.394 OA
ATOM     30  C23 RES d   1      19.165   0.042   5.208  0.00  0.00     0.201 C 
ENDBRANCH  28  29
ENDBRANCH  27  28
ENDBRANCH  26  27
ENDBRANCH  20  26
ENDBRANCH   9  11
ENDBRANCH   7   9
TORSDOF 10
ENDMDL
MODEL 5
REMARK VINA RESULT:      -7.1      3.396      6.758
REMARK  10 active torsions:
REMARK  status: ('A' for Active; 'I' for Inactive)
REMARK    1  A    between atoms: C7_7  and  N8_8 
REMARK    2  A    between atoms: N8_8  and  C9_9 
REMARK    3  A    between atoms: C12_12  and  O13_13 
REMARK    4  A    between atoms: O13_13  and  C14_14 
REMARK    5  A    between atoms: C14_14  and  C15_15 
REMARK    6  A    between atoms: C15_15  and  O16_16 
REMARK    7  A    between atoms: C18_18  and  O19_19 
REMARK    8  A    between atoms: O19_19  and  C20_20 
REMARK    9  A    between atoms: C20_20  and  C21_21 
REMARK   10  A    between atoms: C21_21  and  O22_22 
ROOT
ATOM      1  C1  RES d   1      14.961  -6.105   8.175  0.00  0.00     0.018 C 
ATOM      2  C2  RES d   1      15.811  -5.665   8.857  0.00  0.00    -0.078 C 
ATOM      3  C3  RES d   1      16.845  -5.127   9.688  0.00  0.00     0.019 A 
ATOM      4  C4  RES d   1      16.955  -5.533  11.018  0.00  0.00     0.021 A 
ATOM      5  C5  RES d   1      17.953  -5.014  11.819  0.00  0.00     0.004 A 
ATOM      6  C6  RES d   1      18.845  -4.092  11.306  0.00  0.00     0.029 A 
ATOM      7  C7  RES d   1      18.744  -3.681   9.982  0.00  0.00     0.035 A 
ATOM      8  C29 RES d   1      17.749  -4.201   9.170  0.00  0.00     0.050 A 
ENDROOT
BRANCH   7   9
ATOM      9  N8  RES d   1      19.649  -2.748   9.468  0.00  0.00    -0.340 N 
ATOM     10  H34 RES d   1      20.586  -2.980   9.376  0.00  0.00     0.167 HD
BRANCH   9  11
ATOM     11  C9  RES d   1      19.210  -1.494   9.093  0.00  0.00     0.142 A 
ATOM     12  N28 RES d   1      18.752  -1.272   7.866  0.00  0.00    -0.224 NA
ATOM     13  C27 RES d   1      18.324  -0.076   7.493  0.00  0.00     0.236 A 
ATOM     14  N26 RES d   1      18.329   0.963   8.294  0.00  0.00    -0.241 NA
ATOM     15  C25 RES d   1      18.775   0.851   9.554  0.00  0.00     0.075 A 
ATOM     16  C10 RES d   1      19.240  -0.410  10.002  0.00  0.00     0.042 A 
ATOM     17  C24 RES d   1      18.794   1.943  10.432  0.00  0.00     0.072 A 
ATOM     18  C11 RES d   1      19.711  -0.556  11.312  0.00  0.00     0.057 A 
ATOM     19  C12 RES d   1      19.720   0.522  12.151  0.00  0.00     0.103 A 
ATOM     20  C18 RES d   1      19.262   1.774  11.715  0.00  0.00     0.104 A 
BRANCH  19  21
ATOM     21  O13 RES d   1      20.179   0.380  13.423  0.00  0.00    -0.346 OA
BRANCH  21  22
ATOM     22  C14 RES d   1      19.397  -0.424  14.309  0.00  0.00     0.201 C 
BRANCH  22  23
ATOM     23  C15 RES d   1      18.994   0.405  15.530  0.00  0.00     0.193 C 
BRANCH  23  24
ATOM     24  O16 RES d   1      17.581   0.312  15.722  0.00  0.00    -0.394 OA
ATOM     25  C17 RES d   1      17.188  -0.681  16.672  0.00  0.00     0.201 C 
ENDBRANCH  23  24
ENDBRANCH  22  23
ENDBRANCH  21  22
ENDBRANCH  19  21
BRANCH  20  26
ATOM     26  O19 RES d   1      19.281   2.830  12.568  0.00  0.00    -0.346 OA
BRANCH  26  27
ATOM     27  C20 RES d   1      18.051   3.165  13.213  0.00  0.00     0.201 C 
BRANCH  27  28
ATOM     28  C21 RES d   1      17.626   4.576  12.800  0.00  0.00     0.193 C 
BRANCH  28  29
ATOM     29  O22 RES d   1      16.650   4.494  11.760  0.00  0.00    -0.394 OA
ATOM     30  C23 RES d   1      17.024   5.169  10.557  0.00  0.00     0.201 C 
ENDBRANCH  28  29
ENDBRANCH  27  28
ENDBRANCH  26  27
ENDBRANCH  20  26
ENDBRANCH   9  11
ENDBRANCH   7   9
TORSDOF 10
ENDMDL
MODEL 6
REMARK VINA RESULT:      -7.1      3.425      6.431
REMARK  10 active torsions:
REMARK  status: ('A' for Active; 'I' for Inactive)
REMARK    1  A    between atoms: C7_7  and  N8_8 
REMARK    2  A    between atoms: N8_8  and  C9_9 
REMARK    3  A    between atoms: C12_12  and  O13_13 
REMARK    4  A    between atoms: O13_13  and  C14_14 
REMARK    5  A    between atoms: C14_14  and  C15_15 
REMARK    6  A    between atoms: C15_15  and  O16_16 
REMARK    7  A    between atoms: C18_18  and  O19_19 
REMARK    8  A    between atoms: O19_19  and  C20_20 
REMARK    9  A    between atoms: C20_20  and  C21_21 
REMARK   10  A    between atoms: C21_21  and  O22_22 
ROOT
ATOM      1  C1  RES d   1      17.441  -5.569  11.910  0.00  0.00     0.018 C 
ATOM      2  C2  RES d   1      17.921  -5.332  10.865  0.00  0.00    -0.078 C 
ATOM      3  C3  RES d   1      18.506  -5.042   9.591  0.00  0.00     0.019 A 
ATOM      4  C4  RES d   1      19.716  -5.634   9.226  0.00  0.00     0.021 A 
ATOM      5  C5  RES d   1      20.279  -5.353   7.996  0.00  0.00     0.004 A 
ATOM      6  C6  RES d   1      19.648  -4.488   7.125  0.00  0.00     0.029 A 
ATOM      7  C7  RES d   1      18.442  -3.893   7.479  0.00  0.00     0.035 A 
ATOM      8  C29 RES d   1      17.867  -4.172   8.708  0.00  0.00     0.050 A 
ENDROOT
BRANCH   7   9
ATOM      9  N8  RES d   1      17.808  -3.017   6.593  0.00  0.00    -0.340 N 
ATOM     10  H34 RES d   1      16.967  -3.269   6.180  0.00  0.00     0.167 HD
BRANCH   9  11
ATOM     11  C9  RES d   1      18.376  -1.792   6.306  0.00  0.00     0.142 A 
ATOM     12  N28 RES d   1      18.988  -1.581   5.147  0.00  0.00    -0.224 NA
ATOM     13  C27 RES d   1      19.534  -0.411   4.856  0.00  0.00     0.236 A 
ATOM     14  N26 RES d   1      19.520   0.607   5.683  0.00  0.00    -0.241 NA
ATOM     15  C25 RES d   1      18.931   0.501   6.885  0.00  0.00     0.075 A 
ATOM     16  C10 RES d   1      18.328  -0.731   7.240  0.00  0.00     0.042 A 
ATOM     17  C24 RES d   1      18.900   1.569   7.790  0.00  0.00     0.072 A 
ATOM     18  C11 RES d   1      17.707  -0.870   8.488  0.00  0.00     0.057 A 
ATOM     19  C12 RES d   1      17.688   0.185   9.355  0.00  0.00     0.103 A 
ATOM     20  C18 RES d   1      18.283   1.408   9.010  0.00  0.00     0.104 A 
BRANCH  19  21
ATOM     21  O13 RES d   1      17.086   0.049  10.566  0.00  0.00    -0.346 OA
BRANCH  21  22
ATOM     22  C14 RES d   1      17.392  -1.129  11.315  0.00  0.00     0.201 C 
BRANCH  22  23
ATOM     23  C15 RES d   1      18.162  -0.745  12.579  0.00  0.00     0.193 C 
BRANCH  23  24
ATOM     24  O16 RES d   1      19.538  -1.098  12.424  0.00  0.00    -0.394 OA
ATOM     25  C17 RES d   1      19.770  -2.111  11.443  0.00  0.00     0.201 C 
ENDBRANCH  23  24
ENDBRANCH  22  23
ENDBRANCH  21  22
ENDBRANCH  19  21
BRANCH  20  26
ATOM     26  O19 RES d   1      18.251   2.442   9.889  0.00  0.00    -0.346 OA
BRANCH  26  27
ATOM     27  C20 RES d   1      19.392   2.612  10.733  0.00  0.00     0.201 C 
BRANCH  27  28
ATOM     28  C21 RES d   1      18.931   2.849  12.172  0.00  0.00     0.193 C 
BRANCH  28  29
ATOM     29  O22 RES d   1      19.143   4.218  12.521  0.00  0.00    -0.394 OA
ATOM     30  C23 RES d   1      18.044   4.820  13.210  0.00  0.00     0.201 C 
ENDBRANCH  28  29
ENDBRANCH  27  28
ENDBRANCH  26  27
ENDBRANCH  20  26
ENDBRANCH   9  11
ENDBRANCH   7   9
TORSDOF 10
ENDMDL
MODEL 7
REMARK VINA RESULT:      -6.8      4.385      8.029
REMARK  10 active torsions:
REMARK  status: ('A' for Active; 'I' for Inactive)
REMARK    1  A    between atoms: C7_7  and  N8_8 
REMARK    2  A    between atoms: N8_8  and  C9_9 
REMARK    3  A    between atoms: C12_12  and  O13_13 
REMARK    4  A    between atoms: O13_13  and  C14_14 
REMARK    5  A    between atoms: C14_14  and  C15_15 
REMARK    6  A    between atoms: C15_15  and  O16_16 
REMARK    7  A    between atoms: C18_18  and  O19_19 
REMARK    8  A    between atoms: O19_19  and  C20_20 
REMARK    9  A    between atoms: C20_20  and  C21_21 
REMARK   10  A    between atoms: C21_21  and  O22_22 
ROOT
ATOM      1  C1  RES d   1      17.133  -6.856   9.271  0.00  0.00     0.018 C 
ATOM      2  C2  RES d   1      17.655  -5.989   9.867  0.00  0.00    -0.078 C 
ATOM      3  C3  RES d   1      18.289  -4.931  10.594  0.00  0.00     0.019 A 
ATOM      4  C4  RES d   1      19.680  -4.892  10.700  0.00  0.00     0.021 A 
ATOM      5  C5  RES d   1      20.291  -3.872  11.402  0.00  0.00     0.004 A 
ATOM      6  C6  RES d   1      19.529  -2.887  12.000  0.00  0.00     0.029 A 
ATOM      7  C7  RES d   1      18.143  -2.917  11.901  0.00  0.00     0.035 A 
ATOM      8  C29 RES d   1      17.521  -3.935  11.194  0.00  0.00     0.050 A 
ENDROOT
BRANCH   7   9
ATOM      9  N8  RES d   1      17.376  -1.920  12.509  0.00  0.00    -0.340 N 
ATOM     10  H34 RES d   1      16.806  -2.138  13.264  0.00  0.00     0.167 HD
BRANCH   9  11
ATOM     11  C9  RES d   1      17.428  -0.623  12.038  0.00  0.00     0.142 A 
ATOM     12  N28 RES d   1      17.026  -0.330  10.807  0.00  0.00    -0.224 NA
ATOM     13  C27 RES d   1      17.067   0.909  10.343  0.00  0.00     0.236 A 
ATOM     14  N26 RES d   1      17.509   1.921  11.052  0.00  0.00    -0.241 NA
ATOM     15  C25 RES d   1      17.944   1.735  12.308  0.00  0.00     0.075 A 
ATOM     16  C10 RES d   1      17.916   0.427  12.851  0.00  0.00     0.042 A 
ATOM     17  C24 RES d   1      18.424   2.794  13.088  0.00  0.00     0.072 A 
ATOM     18  C11 RES d   1      18.364   0.204  14.159  0.00  0.00     0.057 A 
ATOM     19  C12 RES d   1      18.827   1.252  14.902  0.00  0.00     0.103 A 
ATOM     20  C18 RES d   1      18.858   2.550  14.371  0.00  0.00     0.104 A 
BRANCH  19  21
ATOM     21  O13 RES d   1      19.263   1.034  16.172  0.00  0.00    -0.346 OA
BRANCH  21  22
ATOM     22  C14 RES d   1      18.391   0.311  17.042  0.00  0.00     0.201 C 
BRANCH  22  23
ATOM     23  C15 RES d   1      18.768   0.599  18.497  0.00  0.00     0.193 C 
BRANCH  23  24
ATOM     24  O16 RES d   1      19.636   1.732  18.548  0.00  0.00    -0.394 OA
ATOM     25  C17 RES d   1      18.959   2.973  18.760  0.00  0.00     0.201 C 
ENDBRANCH  23  24
ENDBRANCH  22  23
ENDBRANCH  21  22
ENDBRANCH  19  21
BRANCH  20  26
ATOM     26  O19 RES d   1      19.323   3.575  15.131  0.00  0.00    -0.346 OA
BRANCH  26  27
ATOM     27  C20 RES d   1      18.752   4.864  14.899  0.00  0.00     0.201 C 
BRANCH  27  28
ATOM     28  C21 RES d   1      17.698   5.156  15.968  0.00  0.00     0.193 C 
BRANCH  28  29
ATOM     29  O22 RES d   1      17.927   6.453  16.522  0.00  0.00    -0.394 OA
ATOM     30  C23 RES d   1      17.956   7.503  15.553  0.00  0.00     0.201 C 
ENDBRANCH  28  29
ENDBRANCH  27  28
ENDBRANCH  26  27
ENDBRANCH  20  26
ENDBRANCH   9  11
ENDBRANCH   7   9
TORSDOF 10
ENDMDL
MODEL 8
REMARK VINA RESULT:      -6.6      2.719      4.348
REMARK  10 active torsions:
REMARK  status: ('A' for Active; 'I' for Inactive)
REMARK    1  A    between atoms: C7_7  and  N8_8 
REMARK    2  A    between atoms: N8_8  and  C9_9 
REMARK    3  A    between atoms: C12_12  and  O13_13 
REMARK    4  A    between atoms: O13_13  and  C14_14 
REMARK    5  A    between atoms: C14_14  and  C15_15 
REMARK    6  A    between atoms: C15_15  and  O16_16 
REMARK    7  A    between atoms: C18_18  and  O19_19 
REMARK    8  A    between atoms: O19_19  and  C20_20 
REMARK    9  A    between atoms: C20_20  and  C21_21 
REMARK   10  A    between atoms: C21_21  and  O22_22 
ROOT
ATOM      1  C1  RES d   1      19.029  -1.393  15.286  0.00  0.00     0.018 C 
ATOM      2  C2  RES d   1      18.708  -1.152  14.181  0.00  0.00    -0.078 C 
ATOM      3  C3  RES d   1      18.318  -0.861  12.835  0.00  0.00     0.019 A 
ATOM      4  C4  RES d   1      17.048  -0.346  12.572  0.00  0.00     0.021 A 
ATOM      5  C5  RES d   1      16.672  -0.065  11.273  0.00  0.00     0.004 A 
ATOM      6  C6  RES d   1      17.551  -0.291  10.232  0.00  0.00     0.029 A 
ATOM      7  C7  RES d   1      18.818  -0.804  10.483  0.00  0.00     0.035 A 
ATOM      8  C29 RES d   1      19.206  -1.084  11.784  0.00  0.00     0.050 A 
ENDROOT
BRANCH   7   9
ATOM      9  N8  RES d   1      19.703  -1.033   9.426  0.00  0.00    -0.340 N 
ATOM     10  H34 RES d   1      20.511  -1.549   9.573  0.00  0.00     0.167 HD
BRANCH   9  11
ATOM     11  C9  RES d   1      19.428  -0.524   8.172  0.00  0.00     0.142 A 
ATOM     12  N28 RES d   1      19.356   0.786   7.970  0.00  0.00    -0.224 NA
ATOM     13  C27 RES d   1      19.098   1.288   6.773  0.00  0.00     0.236 A 
ATOM     14  N26 RES d   1      18.889   0.539   5.717  0.00  0.00    -0.241 NA
ATOM     15  C25 RES d   1      18.934  -0.799   5.811  0.00  0.00     0.075 A 
ATOM     16  C10 RES d   1      19.211  -1.384   7.070  0.00  0.00     0.042 A 
ATOM     17  C24 RES d   1      18.713  -1.625   4.701  0.00  0.00     0.072 A 
ATOM     18  C11 RES d   1      19.264  -2.777   7.197  0.00  0.00     0.057 A 
ATOM     19  C12 RES d   1      19.046  -3.564   6.102  0.00  0.00     0.103 A 
ATOM     20  C18 RES d   1      18.771  -2.992   4.851  0.00  0.00     0.104 A 
BRANCH  19  21
ATOM     21  O13 RES d   1      19.097  -4.917   6.226  0.00  0.00    -0.346 OA
BRANCH  21  22
ATOM     22  C14 RES d   1      19.509  -5.438   7.490  0.00  0.00     0.201 C 
BRANCH  22  23
ATOM     23  C15 RES d   1      18.347  -6.196   8.135  0.00  0.00     0.193 C 
BRANCH  23  24
ATOM     24  O16 RES d   1      18.406  -7.572   7.755  0.00  0.00    -0.394 OA
ATOM     25  C17 RES d   1      17.140  -8.132   7.402  0.00  0.00     0.201 C 
ENDBRANCH  23  24
ENDBRANCH  22  23
ENDBRANCH  21  22
ENDBRANCH  19  21
BRANCH  20  26
ATOM     26  O19 RES d   1      18.558  -3.796   3.778  0.00  0.00    -0.346 OA
BRANCH  26  27
ATOM     27  C20 RES d   1      17.202  -3.984   3.366  0.00  0.00     0.201 C 
BRANCH  27  28
ATOM     28  C21 RES d   1      16.961  -5.464   3.065  0.00  0.00     0.193 C 
BRANCH  28  29
ATOM     29  O22 RES d   1      16.734  -6.169   4.286  0.00  0.00    -0.394 OA
ATOM     30  C23 RES d   1      15.550  -5.766   4.978  0.00  0.00     0.201 C 
ENDBRANCH  28  29
ENDBRANCH  27  28
ENDBRANCH  26  27
ENDBRANCH  20  26
ENDBRANCH   9  11
ENDBRANCH   7   9
TORSDOF 10
ENDMDL
MODEL 9
REMARK VINA RESULT:      -6.6      3.234      6.591
REMARK  10 active torsions:
REMARK  status: ('A' for Active; 'I' for Inactive)
REMARK    1  A    between atoms: C7_7  and  N8_8 
REMARK    2  A    between atoms: N8_8  and  C9_9 
REMARK    3  A    between atoms: C12_12  and  O13_13 
REMARK    4  A    between atoms: O13_13  and  C14_14 
REMARK    5  A    between atoms: C14_14  and  C15_15 
REMARK    6  A    between atoms: C15_15  and  O16_16 
REMARK    7  A    between atoms: C18_18  and  O19_19 
REMARK    8  A    between atoms: O19_19  and  C20_20 
REMARK    9  A    between atoms: C20_20  and  C21_21 
REMARK   10  A    between atoms: C21_21  and  O22_22 
ROOT
ATOM      1  C1  RES d   1      17.498  -5.823  12.154  0.00  0.00     0.018 C 
ATOM      2  C2  RES d   1      17.802  -5.250  11.175  0.00  0.00    -0.078 C 
ATOM      3  C3  RES d   1      18.172  -4.551   9.981  0.00  0.00     0.019 A 
ATOM      4  C4  RES d   1      19.202  -5.038   9.177  0.00  0.00     0.021 A 
ATOM      5  C5  RES d   1      19.558  -4.362   8.026  0.00  0.00     0.004 A 
ATOM      6  C6  RES d   1      18.896  -3.204   7.668  0.00  0.00     0.029 A 
ATOM      7  C7  RES d   1      17.868  -2.711   8.463  0.00  0.00     0.035 A 
ATOM      8  C29 RES d   1      17.500  -3.385   9.617  0.00  0.00     0.050 A 
ENDROOT
BRANCH   7   9
ATOM      9  N8  RES d   1      17.202  -1.538   8.096  0.00  0.00    -0.340 N 
ATOM     10  H34 RES d   1      16.248  -1.558   7.915  0.00  0.00     0.167 HD
BRANCH   9  11
ATOM     11  C9  RES d   1      17.898  -0.351   7.992  0.00  0.00     0.142 A 
ATOM     12  N28 RES d   1      18.329   0.085   6.814  0.00  0.00    -0.224 NA
ATOM     13  C27 RES d   1      18.994   1.223   6.699  0.00  0.00     0.236 A 
ATOM     14  N26 RES d   1      19.281   1.988   7.725  0.00  0.00    -0.241 NA
ATOM     15  C25 RES d   1      18.897   1.639   8.963  0.00  0.00     0.075 A 
ATOM     16  C10 RES d   1      18.178   0.431   9.138  0.00  0.00     0.042 A 
ATOM     17  C24 RES d   1      19.189   2.434  10.079  0.00  0.00     0.072 A 
ATOM     18  C11 RES d   1      17.765   0.044  10.418  0.00  0.00     0.057 A 
ATOM     19  C12 RES d   1      18.060   0.833  11.492  0.00  0.00     0.103 A 
ATOM     20  C18 RES d   1      18.772   2.031  11.327  0.00  0.00     0.104 A 
BRANCH  19  21
ATOM     21  O13 RES d   1      17.660   0.455  12.735  0.00  0.00    -0.346 OA
BRANCH  21  22
ATOM     22  C14 RES d   1      18.027  -0.857  13.165  0.00  0.00     0.201 C 
BRANCH  22  23
ATOM     23  C15 RES d   1      19.404  -0.809  13.832  0.00  0.00     0.193 C 
BRANCH  23  24
ATOM     24  O16 RES d   1      19.335  -1.444  15.110  0.00  0.00    -0.394 OA
ATOM     25  C17 RES d   1      18.480  -0.780  16.043  0.00  0.00     0.201 C 
ENDBRANCH  23  24
ENDBRANCH  22  23
ENDBRANCH  21  22
ENDBRANCH  19  21
BRANCH  20  26
ATOM     26  O19 RES d   1      19.054   2.799  12.411  0.00  0.00    -0.346 OA
BRANCH  26  27
ATOM     27  C20 RES d   1      19.185   4.205  12.192  0.00  0.00     0.201 C 
BRANCH  27  28
ATOM     28  C21 RES d   1      19.213   4.930  13.539  0.00  0.00     0.193 C 
BRANCH  28  29
ATOM     29  O22 RES d   1      19.094   3.977  14.596  0.00  0.00    -0.394 OA
ATOM     30  C23 RES d   1      19.610   4.430  15.849  0.00  0.00     0.201 C 
ENDBRANCH  28  29
ENDBRANCH  27  28
ENDBRANCH  26  27
ENDBRANCH  20  26
ENDBRANCH   9  11
ENDBRANCH   7   9
TORSDOF 10
ENDMDL
