MODEL 1
REMARK VINA RESULT:     -10.0      0.000      0.000
REMARK  3 active torsions:
REMARK  status: ('A' for Active; 'I' for Inactive)
REMARK    1  A    between atoms: C2_2  and  C3_3 
REMARK    2  A    between atoms: C8_8  and  N9_9 
REMARK    3  A    between atoms: C12_12  and  N13_13 
ROOT
ATOM      1  C3  ZIN A   1      17.729   0.021   8.108  0.00  0.00    -0.036 A 
ATOM      2  C4  ZIN A   1      17.823   1.256   8.708  0.00  0.00     0.025 A 
ATOM      3  C5  ZIN A   1      18.335   1.367  10.003  0.00  0.00     0.023 A 
ATOM      4  C6  ZIN A   1      18.759   0.234  10.698  0.00  0.00    -0.028 A 
ATOM      5  C7  ZIN A   1      18.654  -1.003  10.087  0.00  0.00     0.033 A 
ATOM      6  C8  ZIN A   1      18.138  -1.114   8.802  0.00  0.00     0.017 A 
ATOM      7  C22 ZIN A   1      19.340   0.286  12.085  0.00  0.00     0.024 C 
ATOM      8  C23 ZIN A   1      18.716  -0.828  12.928  0.00  0.00     0.027 C 
ATOM      9  C24 ZIN A   1      20.851   0.058  12.000  0.00  0.00     0.027 C 
ATOM     10  C25 ZIN A   1      19.084   1.607  12.754  0.00  0.00     0.037 A 
ATOM     11  C26 ZIN A   1      18.664   2.732  12.079  0.00  0.00     0.051 A 
ATOM     12  C27 ZIN A   1      18.539   3.798  13.052  0.00  0.00     0.007 A 
ATOM     13  C28 ZIN A   1      18.163   5.140  12.950  0.00  0.00     0.016 A 
ATOM     14  C29 ZIN A   1      18.154   5.876  14.105  0.00  0.00     0.024 A 
ATOM     15  C30 ZIN A   1      18.507   5.320  15.338  0.00  0.00     0.046 A 
ATOM     16  C31 ZIN A   1      18.477   6.144  16.509  0.00  0.00     0.099 C 
ATOM     17  N32 ZIN A   1      18.453   6.797  17.438  0.00  0.00    -0.191 NA
ATOM     18  C33 ZIN A   1      18.887   3.978  15.461  0.00  0.00     0.053 A 
ATOM     19  C34 ZIN A   1      18.899   3.220  14.297  0.00  0.00     0.045 A 
ATOM     20  N35 ZIN A   1      19.217   1.906  14.069  0.00  0.00    -0.357 N 
ATOM     21  C36 ZIN A   1      18.414   2.711  10.630  0.00  0.00     0.195 C 
ATOM     22  O37 ZIN A   1      18.279   3.734   9.983  0.00  0.00    -0.287 OA
ATOM     23  H71 ZIN A   1      19.496   1.278  14.754  0.00  0.00     0.166 HD
ENDROOT
BRANCH   1  24
ATOM     24  C2  ZIN A   1      17.179  -0.102   6.710  0.00  0.00     0.036 C 
ATOM     25  C1  ZIN A   1      18.195   0.456   5.711  0.00  0.00     0.010 C 
ENDBRANCH   1  24
BRANCH   6  26
ATOM     26  N9  ZIN A   1      18.040  -2.365   8.202  0.00  0.00    -0.283 NA
ATOM     27  C21 ZIN A   1      19.269  -2.695   7.469  0.00  0.00     0.098 C 
ATOM     28  C20 ZIN A   1      19.073  -4.006   6.704  0.00  0.00     0.048 C 
ATOM     29  C12 ZIN A   1      18.732  -5.123   7.695  0.00  0.00     0.190 C 
ATOM     30  C11 ZIN A   1      17.476  -4.733   8.480  0.00  0.00     0.048 C 
ATOM     31  C10 ZIN A   1      17.718  -3.400   9.193  0.00  0.00     0.098 C 
BRANCH  29  32
ATOM     32  N13 ZIN A   1      18.484  -6.371   6.963  0.00  0.00    -0.063 N 
ATOM     33  H14 ZIN A   1      19.362  -6.837   6.784  0.00  0.00     0.280 HD
ATOM     34  C19 ZIN A   1      17.621  -7.248   7.767  0.00  0.00     0.261 C 
ATOM     35  C18 ZIN A   1      17.364  -8.548   7.002  0.00  0.00     0.195 C 
ATOM     36  O17 ZIN A   1      16.771  -8.243   5.737  0.00  0.00    -0.388 OA
ATOM     37  C16 ZIN A   1      17.565  -7.371   4.926  0.00  0.00     0.195 C 
ATOM     38  C15 ZIN A   1      17.822  -6.068   5.687  0.00  0.00     0.261 C 
ENDBRANCH  29  32
ENDBRANCH   6  26
TORSDOF 3
ENDMDL
MODEL 2
REMARK VINA RESULT:      -9.8      2.296     10.983
REMARK  3 active torsions:
REMARK  status: ('A' for Active; 'I' for Inactive)
REMARK    1  A    between atoms: C2_2  and  C3_3 
REMARK    2  A    between atoms: C8_8  and  N9_9 
REMARK    3  A    between atoms: C12_12  and  N13_13 
ROOT
ATOM      1  C3  ZIN A   1      17.998  -0.525  13.484  0.00  0.00    -0.036 A 
ATOM      2  C4  ZIN A   1      18.154  -1.797  12.985  0.00  0.00     0.025 A 
ATOM      3  C5  ZIN A   1      18.286  -1.998  11.608  0.00  0.00     0.023 A 
ATOM      4  C6  ZIN A   1      18.266  -0.916  10.729  0.00  0.00    -0.028 A 
ATOM      5  C7  ZIN A   1      18.103   0.360  11.242  0.00  0.00     0.033 A 
ATOM      6  C8  ZIN A   1      17.963   0.558  12.609  0.00  0.00     0.017 A 
ATOM      7  C22 ZIN A   1      18.425  -1.059   9.239  0.00  0.00     0.024 C 
ATOM      8  C23 ZIN A   1      17.383  -0.183   8.541  0.00  0.00     0.027 C 
ATOM      9  C24 ZIN A   1      19.824  -0.581   8.840  0.00  0.00     0.027 C 
ATOM     10  C25 ZIN A   1      18.250  -2.482   8.788  0.00  0.00     0.037 A 
ATOM     11  C26 ZIN A   1      18.267  -3.558   9.648  0.00  0.00     0.051 A 
ATOM     12  C27 ZIN A   1      18.077  -4.751   8.848  0.00  0.00     0.007 A 
ATOM     13  C28 ZIN A   1      18.014  -6.110   9.166  0.00  0.00     0.016 A 
ATOM     14  C29 ZIN A   1      17.818  -6.987   8.132  0.00  0.00     0.024 A 
ATOM     15  C30 ZIN A   1      17.689  -6.552   6.810  0.00  0.00     0.046 A 
ATOM     16  C31 ZIN A   1      17.486  -7.520   5.774  0.00  0.00     0.099 C 
ATOM     17  N32 ZIN A   1      17.325  -8.287   4.952  0.00  0.00    -0.191 NA
ATOM     18  C33 ZIN A   1      17.751  -5.195   6.470  0.00  0.00     0.053 A 
ATOM     19  C34 ZIN A   1      17.948  -4.295   7.510  0.00  0.00     0.045 A 
ATOM     20  N35 ZIN A   1      18.056  -2.929   7.524  0.00  0.00    -0.357 N 
ATOM     21  C36 ZIN A   1      18.441  -3.384  11.097  0.00  0.00     0.195 C 
ATOM     22  O37 ZIN A   1      18.698  -4.318  11.834  0.00  0.00    -0.287 OA
ATOM     23  H71 ZIN A   1      18.001  -2.362   6.738  0.00  0.00     0.166 HD
ENDROOT
BRANCH   1  24
ATOM     24  C2  ZIN A   1      17.857  -0.305  14.968  0.00  0.00     0.036 C 
ATOM     25  C1  ZIN A   1      18.785  -1.264  15.716  0.00  0.00     0.010 C 
ENDBRANCH   1  24
BRANCH   6  26
ATOM     26  N9  ZIN A   1      17.801   1.846  13.109  0.00  0.00    -0.283 NA
ATOM     27  C21 ZIN A   1      18.944   2.235  13.944  0.00  0.00     0.098 C 
ATOM     28  C20 ZIN A   1      18.667   3.593  14.591  0.00  0.00     0.048 C 
ATOM     29  C12 ZIN A   1      18.432   4.637  13.496  0.00  0.00     0.190 C 
ATOM     30  C11 ZIN A   1      17.268   4.184  12.611  0.00  0.00     0.048 C 
ATOM     31  C10 ZIN A   1      17.586   2.808  12.020  0.00  0.00     0.098 C 
BRANCH  29  32
ATOM     32  N13 ZIN A   1      18.107   5.930  14.110  0.00  0.00    -0.063 N 
ATOM     33  H14 ZIN A   1      18.591   6.668  13.621  0.00  0.00     0.280 HD
ATOM     34  C19 ZIN A   1      16.657   6.160  14.030  0.00  0.00     0.261 C 
ATOM     35  C18 ZIN A   1      16.320   7.508  14.671  0.00  0.00     0.195 C 
ATOM     36  O17 ZIN A   1      16.779   7.515  16.026  0.00  0.00    -0.388 OA
ATOM     37  C16 ZIN A   1      18.182   7.272  16.158  0.00  0.00     0.195 C 
ATOM     38  C15 ZIN A   1      18.523   5.922  15.519  0.00  0.00     0.261 C 
ENDBRANCH  29  32
ENDBRANCH   6  26
TORSDOF 3
ENDMDL
MODEL 3
REMARK VINA RESULT:      -9.6      2.536     10.972
REMARK  3 active torsions:
REMARK  status: ('A' for Active; 'I' for Inactive)
REMARK    1  A    between atoms: C2_2  and  C3_3 
REMARK    2  A    between atoms: C8_8  and  N9_9 
REMARK    3  A    between atoms: C12_12  and  N13_13 
ROOT
ATOM      1  C3  ZIN A   1      19.265  -1.044  10.545  0.00  0.00    -0.036 A 
ATOM      2  C4  ZIN A   1      19.283  -2.125   9.694  0.00  0.00     0.025 A 
ATOM      3  C5  ZIN A   1      18.907  -1.970   8.357  0.00  0.00     0.023 A 
ATOM      4  C6  ZIN A   1      18.515  -0.723   7.870  0.00  0.00    -0.028 A 
ATOM      5  C7  ZIN A   1      18.496   0.356   8.737  0.00  0.00     0.033 A 
ATOM      6  C8  ZIN A   1      18.862   0.201  10.067  0.00  0.00     0.017 A 
ATOM      7  C22 ZIN A   1      18.120  -0.482   6.438  0.00  0.00     0.024 C 
ATOM      8  C23 ZIN A   1      16.856   0.379   6.409  0.00  0.00     0.027 C 
ATOM      9  C24 ZIN A   1      19.251   0.270   5.731  0.00  0.00     0.027 C 
ATOM     10  C25 ZIN A   1      17.856  -1.766   5.704  0.00  0.00     0.037 A 
ATOM     11  C26 ZIN A   1      18.236  -3.003   6.175  0.00  0.00     0.051 A 
ATOM     12  C27 ZIN A   1      17.819  -3.985   5.195  0.00  0.00     0.007 A 
ATOM     13  C28 ZIN A   1      17.939  -5.376   5.130  0.00  0.00     0.016 A 
ATOM     14  C29 ZIN A   1      17.415  -5.998   4.028  0.00  0.00     0.024 A 
ATOM     15  C30 ZIN A   1      16.788  -5.282   3.004  0.00  0.00     0.046 A 
ATOM     16  C31 ZIN A   1      16.261  -5.994   1.878  0.00  0.00     0.099 C 
ATOM     17  N32 ZIN A   1      15.843  -6.557   0.985  0.00  0.00    -0.191 NA
ATOM     18  C33 ZIN A   1      16.659  -3.889   3.049  0.00  0.00     0.053 A 
ATOM     19  C34 ZIN A   1      17.185  -3.245   4.162  0.00  0.00     0.045 A 
ATOM     20  N35 ZIN A   1      17.230  -1.921   4.512  0.00  0.00    -0.357 N 
ATOM     21  C36 ZIN A   1      18.925  -3.157   7.465  0.00  0.00     0.195 C 
ATOM     22  O37 ZIN A   1      19.477  -4.195   7.783  0.00  0.00    -0.287 OA
ATOM     23  H71 ZIN A   1      16.863  -1.196   3.981  0.00  0.00     0.166 HD
ENDROOT
BRANCH   1  24
ATOM     24  C2  ZIN A   1      19.672  -1.207  11.986  0.00  0.00     0.036 C 
ATOM     25  C1  ZIN A   1      18.633  -2.060  12.717  0.00  0.00     0.010 C 
ENDBRANCH   1  24
BRANCH   6  26
ATOM     26  N9  ZIN A   1      18.837   1.295  10.925  0.00  0.00    -0.283 NA
ATOM     27  C21 ZIN A   1      19.618   2.412  10.377  0.00  0.00     0.098 C 
ATOM     28  C20 ZIN A   1      19.689   3.541  11.406  0.00  0.00     0.048 C 
ATOM     29  C12 ZIN A   1      18.270   4.005  11.747  0.00  0.00     0.190 C 
ATOM     30  C11 ZIN A   1      17.463   2.814  12.269  0.00  0.00     0.048 C 
ATOM     31  C10 ZIN A   1      17.456   1.705  11.214  0.00  0.00     0.098 C 
BRANCH  29  32
ATOM     32  N13 ZIN A   1      18.328   5.049  12.778  0.00  0.00    -0.063 N 
ATOM     33  H14 ZIN A   1      18.147   5.948  12.358  0.00  0.00     0.280 HD
ATOM     34  C19 ZIN A   1      17.315   4.776  13.808  0.00  0.00     0.261 C 
ATOM     35  C18 ZIN A   1      17.378   5.865  14.882  0.00  0.00     0.195 C 
ATOM     36  O17 ZIN A   1      18.695   5.905  15.438  0.00  0.00    -0.388 OA
ATOM     37  C16 ZIN A   1      19.720   6.145  14.469  0.00  0.00     0.195 C 
ATOM     38  C15 ZIN A   1      19.662   5.056  13.394  0.00  0.00     0.261 C 
ENDBRANCH  29  32
ENDBRANCH   6  26
TORSDOF 3
ENDMDL
MODEL 4
REMARK VINA RESULT:      -9.3      3.042      4.039
REMARK  3 active torsions:
REMARK  status: ('A' for Active; 'I' for Inactive)
REMARK    1  A    between atoms: C2_2  and  C3_3 
REMARK    2  A    between atoms: C8_8  and  N9_9 
REMARK    3  A    between atoms: C12_12  and  N13_13 
ROOT
ATOM      1  C3  ZIN A   1      19.187  -0.698   7.344  0.00  0.00    -0.036 A 
ATOM      2  C4  ZIN A   1      19.462  -0.069   8.536  0.00  0.00     0.025 A 
ATOM      3  C5  ZIN A   1      19.356  -0.773   9.739  0.00  0.00     0.023 A 
ATOM      4  C6  ZIN A   1      18.978  -2.115   9.745  0.00  0.00    -0.028 A 
ATOM      5  C7  ZIN A   1      18.699  -2.736   8.540  0.00  0.00     0.033 A 
ATOM      6  C8  ZIN A   1      18.796  -2.034   7.345  0.00  0.00     0.017 A 
ATOM      7  C22 ZIN A   1      18.867  -2.936  11.001  0.00  0.00     0.024 C 
ATOM      8  C23 ZIN A   1      17.573  -3.751  10.950  0.00  0.00     0.027 C 
ATOM      9  C24 ZIN A   1      20.057  -3.896  11.074  0.00  0.00     0.027 C 
ATOM     10  C25 ZIN A   1      18.857  -2.079  12.235  0.00  0.00     0.037 A 
ATOM     11  C26 ZIN A   1      19.227  -0.752  12.241  0.00  0.00     0.051 A 
ATOM     12  C27 ZIN A   1      19.096  -0.274  13.603  0.00  0.00     0.007 A 
ATOM     13  C28 ZIN A   1      19.332   0.965  14.203  0.00  0.00     0.016 A 
ATOM     14  C29 ZIN A   1      19.094   1.064  15.549  0.00  0.00     0.024 A 
ATOM     15  C30 ZIN A   1      18.637  -0.023  16.299  0.00  0.00     0.046 A 
ATOM     16  C31 ZIN A   1      18.408   0.146  17.703  0.00  0.00     0.099 C 
ATOM     17  N32 ZIN A   1      18.225   0.281  18.816  0.00  0.00    -0.191 NA
ATOM     18  C33 ZIN A   1      18.395  -1.273  15.717  0.00  0.00     0.053 A 
ATOM     19  C34 ZIN A   1      18.632  -1.386  14.353  0.00  0.00     0.045 A 
ATOM     20  N35 ZIN A   1      18.502  -2.444  13.491  0.00  0.00    -0.357 N 
ATOM     21  C36 ZIN A   1      19.647  -0.064  11.012  0.00  0.00     0.195 C 
ATOM     22  O37 ZIN A   1      20.200   1.020  11.035  0.00  0.00    -0.287 OA
ATOM     23  H71 ZIN A   1      18.197  -3.330  13.745  0.00  0.00     0.166 HD
ENDROOT
BRANCH   1  24
ATOM     24  C2  ZIN A   1      19.302   0.057   6.045  0.00  0.00     0.036 C 
ATOM     25  C1  ZIN A   1      18.926   1.523   6.271  0.00  0.00     0.010 C 
ENDBRANCH   1  24
BRANCH   6  26
ATOM     26  N9  ZIN A   1      18.512  -2.673   6.142  0.00  0.00    -0.283 NA
ATOM     27  C21 ZIN A   1      18.207  -4.093   6.359  0.00  0.00     0.098 C 
ATOM     28  C20 ZIN A   1      18.044  -4.794   5.008  0.00  0.00     0.048 C 
ATOM     29  C12 ZIN A   1      16.912  -4.123   4.225  0.00  0.00     0.190 C 
ATOM     30  C11 ZIN A   1      17.230  -2.635   4.055  0.00  0.00     0.048 C 
ATOM     31  C10 ZIN A   1      17.417  -1.997   5.434  0.00  0.00     0.098 C 
BRANCH  29  32
ATOM     32  N13 ZIN A   1      16.789  -4.752   2.904  0.00  0.00    -0.063 N 
ATOM     33  H14 ZIN A   1      17.455  -4.338   2.270  0.00  0.00     0.280 HD
ATOM     34  C19 ZIN A   1      17.056  -6.194   3.021  0.00  0.00     0.261 C 
ATOM     35  C18 ZIN A   1      16.927  -6.847   1.643  0.00  0.00     0.195 C 
ATOM     36  O17 ZIN A   1      15.619  -6.596   1.121  0.00  0.00    -0.388 OA
ATOM     37  C16 ZIN A   1      15.303  -5.205   1.011  0.00  0.00     0.195 C 
ATOM     38  C15 ZIN A   1      15.428  -4.547   2.388  0.00  0.00     0.261 C 
ENDBRANCH  29  32
ENDBRANCH   6  26
TORSDOF 3
ENDMDL
MODEL 5
REMARK VINA RESULT:      -9.0      1.210      1.689
REMARK  3 active torsions:
REMARK  status: ('A' for Active; 'I' for Inactive)
REMARK    1  A    between atoms: C2_2  and  C3_3 
REMARK    2  A    between atoms: C8_8  and  N9_9 
REMARK    3  A    between atoms: C12_12  and  N13_13 
ROOT
ATOM      1  C3  ZIN A   1      18.308   0.750   9.218  0.00  0.00    -0.036 A 
ATOM      2  C4  ZIN A   1      18.584   1.922   9.885  0.00  0.00     0.025 A 
ATOM      3  C5  ZIN A   1      18.646   1.934  11.281  0.00  0.00     0.023 A 
ATOM      4  C6  ZIN A   1      18.435   0.765  12.011  0.00  0.00    -0.028 A 
ATOM      5  C7  ZIN A   1      18.152  -0.406  11.329  0.00  0.00     0.033 A 
ATOM      6  C8  ZIN A   1      18.083  -0.417   9.942  0.00  0.00     0.017 A 
ATOM      7  C22 ZIN A   1      18.509   0.704  13.513  0.00  0.00     0.024 C 
ATOM      8  C23 ZIN A   1      17.324  -0.108  14.037  0.00  0.00     0.027 C 
ATOM      9  C24 ZIN A   1      19.809   0.004  13.918  0.00  0.00     0.027 C 
ATOM     10  C25 ZIN A   1      18.479   2.072  14.134  0.00  0.00     0.037 A 
ATOM     11  C26 ZIN A   1      18.685   3.234  13.423  0.00  0.00     0.051 A 
ATOM     12  C27 ZIN A   1      18.589   4.335  14.359  0.00  0.00     0.007 A 
ATOM     13  C28 ZIN A   1      18.713   5.719  14.217  0.00  0.00     0.016 A 
ATOM     14  C29 ZIN A   1      18.557   6.481  15.345  0.00  0.00     0.024 A 
ATOM     15  C30 ZIN A   1      18.286   5.908  16.591  0.00  0.00     0.046 A 
ATOM     16  C31 ZIN A   1      18.133   6.761  17.731  0.00  0.00     0.099 C 
ATOM     17  N32 ZIN A   1      18.012   7.437  18.636  0.00  0.00    -0.191 NA
ATOM     18  C33 ZIN A   1      18.159   4.523  16.755  0.00  0.00     0.053 A 
ATOM     19  C34 ZIN A   1      18.315   3.740  15.619  0.00  0.00     0.045 A 
ATOM     20  N35 ZIN A   1      18.256   2.383  15.434  0.00  0.00    -0.357 N 
ATOM     21  C36 ZIN A   1      18.934   3.216  11.974  0.00  0.00     0.195 C 
ATOM     22  O37 ZIN A   1      19.352   4.192  11.379  0.00  0.00    -0.287 OA
ATOM     23  H71 ZIN A   1      18.079   1.736  16.135  0.00  0.00     0.166 HD
ENDROOT
BRANCH   1  24
ATOM     24  C2  ZIN A   1      18.242   0.733   7.712  0.00  0.00     0.036 C 
ATOM     25  C1  ZIN A   1      19.091   1.876   7.151  0.00  0.00     0.010 C 
ENDBRANCH   1  24
BRANCH   6  26
ATOM     26  N9  ZIN A   1      17.798  -1.602   9.272  0.00  0.00    -0.283 NA
ATOM     27  C21 ZIN A   1      18.854  -1.927   8.305  0.00  0.00     0.098 C 
ATOM     28  C20 ZIN A   1      18.441  -3.153   7.488  0.00  0.00     0.048 C 
ATOM     29  C12 ZIN A   1      18.208  -4.335   8.432  0.00  0.00     0.190 C 
ATOM     30  C11 ZIN A   1      17.139  -3.954   9.460  0.00  0.00     0.048 C 
ATOM     31  C10 ZIN A   1      17.590  -2.704  10.221  0.00  0.00     0.098 C 
BRANCH  29  32
ATOM     32  N13 ZIN A   1      17.753  -5.499   7.661  0.00  0.00    -0.063 N 
ATOM     33  H14 ZIN A   1      16.783  -5.379   7.410  0.00  0.00     0.280 HD
ATOM     34  C19 ZIN A   1      18.562  -5.622   6.439  0.00  0.00     0.261 C 
ATOM     35  C18 ZIN A   1      18.087  -6.836   5.636  0.00  0.00     0.195 C 
ATOM     36  O17 ZIN A   1      18.182  -8.008   6.451  0.00  0.00    -0.388 OA
ATOM     37  C16 ZIN A   1      17.430  -7.926   7.665  0.00  0.00     0.195 C 
ATOM     38  C15 ZIN A   1      17.904  -6.714   8.472  0.00  0.00     0.261 C 
ENDBRANCH  29  32
ENDBRANCH   6  26
TORSDOF 3
ENDMDL
MODEL 6
REMARK VINA RESULT:      -8.8      2.821     11.241
REMARK  3 active torsions:
REMARK  status: ('A' for Active; 'I' for Inactive)
REMARK    1  A    between atoms: C2_2  and  C3_3 
REMARK    2  A    between atoms: C8_8  and  N9_9 
REMARK    3  A    between atoms: C12_12  and  N13_13 
ROOT
ATOM      1  C3  ZIN A   1      18.657   0.501  14.919  0.00  0.00    -0.036 A 
ATOM      2  C4  ZIN A   1      18.902  -0.465  13.969  0.00  0.00     0.025 A 
ATOM      3  C5  ZIN A   1      18.974  -0.115  12.618  0.00  0.00     0.023 A 
ATOM      4  C6  ZIN A   1      18.806   1.210  12.218  0.00  0.00    -0.028 A 
ATOM      5  C7  ZIN A   1      18.555   2.172  13.182  0.00  0.00     0.033 A 
ATOM      6  C8  ZIN A   1      18.475   1.823  14.524  0.00  0.00     0.017 A 
ATOM      7  C22 ZIN A   1      18.894   1.658  10.784  0.00  0.00     0.024 C 
ATOM      8  C23 ZIN A   1      17.739   2.617  10.491  0.00  0.00     0.027 C 
ATOM      9  C24 ZIN A   1      20.219   2.396  10.575  0.00  0.00     0.027 C 
ATOM     10  C25 ZIN A   1      18.826   0.501   9.828  0.00  0.00     0.037 A 
ATOM     11  C26 ZIN A   1      18.989  -0.812  10.211  0.00  0.00     0.051 A 
ATOM     12  C27 ZIN A   1      18.866  -1.628   9.020  0.00  0.00     0.007 A 
ATOM     13  C28 ZIN A   1      18.945  -3.005   8.797  0.00  0.00     0.016 A 
ATOM     14  C29 ZIN A   1      18.774  -3.441   7.510  0.00  0.00     0.024 A 
ATOM     15  C30 ZIN A   1      18.532  -2.555   6.456  0.00  0.00     0.046 A 
ATOM     16  C31 ZIN A   1      18.361  -3.076   5.133  0.00  0.00     0.099 C 
ATOM     17  N32 ZIN A   1      18.225  -3.488   4.084  0.00  0.00    -0.191 NA
ATOM     18  C33 ZIN A   1      18.450  -1.172   6.659  0.00  0.00     0.053 A 
ATOM     19  C34 ZIN A   1      18.621  -0.716   7.960  0.00  0.00     0.045 A 
ATOM     20  N35 ZIN A   1      18.604   0.546   8.492  0.00  0.00    -0.357 N 
ATOM     21  C36 ZIN A   1      19.227  -1.181  11.615  0.00  0.00     0.195 C 
ATOM     22  O37 ZIN A   1      19.610  -2.291  11.935  0.00  0.00    -0.287 OA
ATOM     23  H71 ZIN A   1      18.453   1.359   7.983  0.00  0.00     0.166 HD
ENDROOT
BRANCH   1  24
ATOM     24  C2  ZIN A   1      18.580   0.127  16.377  0.00  0.00     0.036 C 
ATOM     25  C1  ZIN A   1      17.484  -0.921  16.578  0.00  0.00     0.010 C 
ENDBRANCH   1  24
BRANCH   6  26
ATOM     26  N9  ZIN A   1      18.223   2.802  15.479  0.00  0.00    -0.283 NA
ATOM     27  C21 ZIN A   1      19.379   2.981  16.367  0.00  0.00     0.098 C 
ATOM     28  C20 ZIN A   1      19.016   3.956  17.490  0.00  0.00     0.048 C 
ATOM     29  C12 ZIN A   1      18.604   5.299  16.879  0.00  0.00     0.190 C 
ATOM     30  C11 ZIN A   1      17.430   5.077  15.922  0.00  0.00     0.048 C 
ATOM     31  C10 ZIN A   1      17.839   4.069  14.844  0.00  0.00     0.098 C 
BRANCH  29  32
ATOM     32  N13 ZIN A   1      18.198   6.220  17.948  0.00  0.00    -0.063 N 
ATOM     33  H14 ZIN A   1      19.018   6.582  18.411  0.00  0.00     0.280 HD
ATOM     34  C19 ZIN A   1      17.432   7.334  17.370  0.00  0.00     0.261 C 
ATOM     35  C18 ZIN A   1      17.010   8.293  18.486  0.00  0.00     0.195 C 
ATOM     36  O17 ZIN A   1      16.244   7.577  19.459  0.00  0.00    -0.388 OA
ATOM     37  C16 ZIN A   1      16.940   6.468  20.034  0.00  0.00     0.195 C 
ATOM     38  C15 ZIN A   1      17.362   5.504  18.921  0.00  0.00     0.261 C 
ENDBRANCH  29  32
ENDBRANCH   6  26
TORSDOF 3
ENDMDL
MODEL 7
REMARK VINA RESULT:      -8.8      2.212      3.221
REMARK  3 active torsions:
REMARK  status: ('A' for Active; 'I' for Inactive)
REMARK    1  A    between atoms: C2_2  and  C3_3 
REMARK    2  A    between atoms: C8_8  and  N9_9 
REMARK    3  A    between atoms: C12_12  and  N13_13 
ROOT
ATOM      1  C3  ZIN A   1      19.328   1.194  10.717  0.00  0.00    -0.036 A 
ATOM      2  C4  ZIN A   1      19.422   2.461  11.246  0.00  0.00     0.025 A 
ATOM      3  C5  ZIN A   1      19.143   2.678  12.598  0.00  0.00     0.023 A 
ATOM      4  C6  ZIN A   1      18.773   1.617  13.425  0.00  0.00    -0.028 A 
ATOM      5  C7  ZIN A   1      18.677   0.348  12.880  0.00  0.00     0.033 A 
ATOM      6  C8  ZIN A   1      18.946   0.134  11.535  0.00  0.00     0.017 A 
ATOM      7  C22 ZIN A   1      18.481   1.777  14.892  0.00  0.00     0.024 C 
ATOM      8  C23 ZIN A   1      17.212   0.994  15.235  0.00  0.00     0.027 C 
ATOM      9  C24 ZIN A   1      19.651   1.204  15.697  0.00  0.00     0.027 C 
ATOM     10  C25 ZIN A   1      18.287   3.217  15.274  0.00  0.00     0.037 A 
ATOM     11  C26 ZIN A   1      18.647   4.273  14.466  0.00  0.00     0.051 A 
ATOM     12  C27 ZIN A   1      18.316   5.492  15.175  0.00  0.00     0.007 A 
ATOM     13  C28 ZIN A   1      18.457   6.845  14.858  0.00  0.00     0.016 A 
ATOM     14  C29 ZIN A   1      18.023   7.754  15.788  0.00  0.00     0.024 A 
ATOM     15  C30 ZIN A   1      17.464   7.355  17.005  0.00  0.00     0.046 A 
ATOM     16  C31 ZIN A   1      17.030   8.355  17.934  0.00  0.00     0.099 C 
ATOM     17  N32 ZIN A   1      16.686   9.148  18.671  0.00  0.00    -0.191 NA
ATOM     18  C33 ZIN A   1      17.316   6.003  17.342  0.00  0.00     0.053 A 
ATOM     19  C34 ZIN A   1      17.750   5.072  16.408  0.00  0.00     0.045 A 
ATOM     20  N35 ZIN A   1      17.752   3.702  16.421  0.00  0.00    -0.357 N 
ATOM     21  C36 ZIN A   1      19.241   4.057  13.138  0.00  0.00     0.195 C 
ATOM     22  O37 ZIN A   1      19.781   4.956  12.519  0.00  0.00    -0.287 OA
ATOM     23  H71 ZIN A   1      17.417   3.155  17.150  0.00  0.00     0.166 HD
ENDROOT
BRANCH   1  24
ATOM     24  C2  ZIN A   1      19.630   0.957   9.260  0.00  0.00     0.036 C 
ATOM     25  C1  ZIN A   1      18.945   2.032   8.415  0.00  0.00     0.010 C 
ENDBRANCH   1  24
BRANCH   6  26
ATOM     26  N9  ZIN A   1      18.845  -1.147  11.004  0.00  0.00    -0.283 NA
ATOM     27  C21 ZIN A   1      19.863  -2.037  11.577  0.00  0.00     0.098 C 
ATOM     28  C20 ZIN A   1      19.817  -3.392  10.868  0.00  0.00     0.048 C 
ATOM     29  C12 ZIN A   1      18.424  -4.004  11.038  0.00  0.00     0.190 C 
ATOM     30  C11 ZIN A   1      17.377  -3.037  10.478  0.00  0.00     0.048 C 
ATOM     31  C10 ZIN A   1      17.494  -1.692  11.198  0.00  0.00     0.098 C 
BRANCH  29  32
ATOM     32  N13 ZIN A   1      18.354  -5.278  10.310  0.00  0.00    -0.063 N 
ATOM     33  H14 ZIN A   1      18.681  -6.024  10.905  0.00  0.00     0.280 HD
ATOM     34  C19 ZIN A   1      16.962  -5.541   9.916  0.00  0.00     0.261 C 
ATOM     35  C18 ZIN A   1      16.892  -6.869   9.158  0.00  0.00     0.195 C 
ATOM     36  O17 ZIN A   1      17.758  -6.810   8.021  0.00  0.00    -0.388 OA
ATOM     37  C16 ZIN A   1      19.121  -6.532   8.352  0.00  0.00     0.195 C 
ATOM     38  C15 ZIN A   1      19.196  -5.203   9.109  0.00  0.00     0.261 C 
ENDBRANCH  29  32
ENDBRANCH   6  26
TORSDOF 3
ENDMDL
MODEL 8
REMARK VINA RESULT:      -8.8      2.696     11.197
REMARK  3 active torsions:
REMARK  status: ('A' for Active; 'I' for Inactive)
REMARK    1  A    between atoms: C2_2  and  C3_3 
REMARK    2  A    between atoms: C8_8  and  N9_9 
REMARK    3  A    between atoms: C12_12  and  N13_13 
ROOT
ATOM      1  C3  ZIN A   1      18.707   1.351  14.789  0.00  0.00    -0.036 A 
ATOM      2  C4  ZIN A   1      19.030   0.096  14.326  0.00  0.00     0.025 A 
ATOM      3  C5  ZIN A   1      19.042  -0.161  12.952  0.00  0.00     0.023 A 
ATOM      4  C6  ZIN A   1      18.733   0.847  12.039  0.00  0.00    -0.028 A 
ATOM      5  C7  ZIN A   1      18.404   2.104  12.517  0.00  0.00     0.033 A 
ATOM      6  C8  ZIN A   1      18.385   2.357  13.882  0.00  0.00     0.017 A 
ATOM      7  C22 ZIN A   1      18.748   0.643  10.548  0.00  0.00     0.024 C 
ATOM      8  C23 ZIN A   1      17.497   1.284   9.946  0.00  0.00     0.027 C 
ATOM      9  C24 ZIN A   1      19.987   1.329   9.966  0.00  0.00     0.027 C 
ATOM     10  C25 ZIN A   1      18.779  -0.813  10.179  0.00  0.00     0.037 A 
ATOM     11  C26 ZIN A   1      19.082  -1.817  11.072  0.00  0.00     0.051 A 
ATOM     12  C27 ZIN A   1      19.019  -3.071  10.349  0.00  0.00     0.007 A 
ATOM     13  C28 ZIN A   1      19.233  -4.399  10.727  0.00  0.00     0.016 A 
ATOM     14  C29 ZIN A   1      19.082  -5.357   9.759  0.00  0.00     0.024 A 
ATOM     15  C30 ZIN A   1      18.732  -5.030   8.445  0.00  0.00     0.046 A 
ATOM     16  C31 ZIN A   1      18.590  -6.079   7.481  0.00  0.00     0.099 C 
ATOM     17  N32 ZIN A   1      18.477  -6.911   6.716  0.00  0.00    -0.191 NA
ATOM     18  C33 ZIN A   1      18.514  -3.706   8.047  0.00  0.00     0.053 A 
ATOM     19  C34 ZIN A   1      18.663  -2.725   9.019  0.00  0.00     0.045 A 
ATOM     20  N35 ZIN A   1      18.529  -1.362   8.965  0.00  0.00    -0.357 N 
ATOM     21  C36 ZIN A   1      19.382  -1.528  12.482  0.00  0.00     0.195 C 
ATOM     22  O37 ZIN A   1      19.881  -2.358  13.220  0.00  0.00    -0.287 OA
ATOM     23  H71 ZIN A   1      18.287  -0.861   8.170  0.00  0.00     0.166 HD
ENDROOT
BRANCH   1  24
ATOM     24  C2  ZIN A   1      18.696   1.633  16.269  0.00  0.00     0.036 C 
ATOM     25  C1  ZIN A   1      17.824   0.596  16.980  0.00  0.00     0.010 C 
ENDBRANCH   1  24
BRANCH   6  26
ATOM     26  N9  ZIN A   1      18.053   3.626  14.346  0.00  0.00    -0.283 NA
ATOM     27  C21 ZIN A   1      19.189   4.548  14.217  0.00  0.00     0.098 C 
ATOM     28  C20 ZIN A   1      18.837   5.888  14.866  0.00  0.00     0.048 C 
ATOM     29  C12 ZIN A   1      17.600   6.473  14.180  0.00  0.00     0.190 C 
ATOM     30  C11 ZIN A   1      16.446   5.473  14.286  0.00  0.00     0.048 C 
ATOM     31  C10 ZIN A   1      16.866   4.145  13.653  0.00  0.00     0.098 C 
BRANCH  29  32
ATOM     32  N13 ZIN A   1      17.222   7.731  14.837  0.00  0.00    -0.063 N 
ATOM     33  H14 ZIN A   1      17.589   8.510  14.311  0.00  0.00     0.280 HD
ATOM     34  C19 ZIN A   1      15.757   7.830  14.899  0.00  0.00     0.261 C 
ATOM     35  C18 ZIN A   1      15.365   9.141  15.585  0.00  0.00     0.195 C 
ATOM     36  O17 ZIN A   1      15.951   9.185  16.889  0.00  0.00    -0.388 OA
ATOM     37  C16 ZIN A   1      17.376   9.069  16.882  0.00  0.00     0.195 C 
ATOM     38  C15 ZIN A   1      17.772   7.757  16.199  0.00  0.00     0.261 C 
ENDBRANCH  29  32
ENDBRANCH   6  26
TORSDOF 3
ENDMDL
MODEL 9
REMARK VINA RESULT:      -8.8      2.965      4.651
REMARK  3 active torsions:
REMARK  status: ('A' for Active; 'I' for Inactive)
REMARK    1  A    between atoms: C2_2  and  C3_3 
REMARK    2  A    between atoms: C8_8  and  N9_9 
REMARK    3  A    between atoms: C12_12  and  N13_13 
ROOT
ATOM      1  C3  ZIN A   1      18.803  -2.593   5.981  0.00  0.00    -0.036 A 
ATOM      2  C4  ZIN A   1      19.239  -1.763   6.989  0.00  0.00     0.025 A 
ATOM      3  C5  ZIN A   1      19.132  -2.166   8.323  0.00  0.00     0.023 A 
ATOM      4  C6  ZIN A   1      18.590  -3.410   8.646  0.00  0.00    -0.028 A 
ATOM      5  C7  ZIN A   1      18.151  -4.234   7.625  0.00  0.00     0.033 A 
ATOM      6  C8  ZIN A   1      18.250  -3.830   6.299  0.00  0.00     0.017 A 
ATOM      7  C22 ZIN A   1      18.467  -3.915  10.059  0.00  0.00     0.024 C 
ATOM      8  C23 ZIN A   1      17.082  -4.536  10.246  0.00  0.00     0.027 C 
ATOM      9  C24 ZIN A   1      19.530  -4.991  10.297  0.00  0.00     0.027 C 
ATOM     10  C25 ZIN A   1      18.652  -2.817  11.067  0.00  0.00     0.037 A 
ATOM     11  C26 ZIN A   1      19.184  -1.584  10.759  0.00  0.00     0.051 A 
ATOM     12  C27 ZIN A   1      19.210  -0.807  11.982  0.00  0.00     0.007 A 
ATOM     13  C28 ZIN A   1      19.641   0.488  12.278  0.00  0.00     0.016 A 
ATOM     14  C29 ZIN A   1      19.514   0.909  13.575  0.00  0.00     0.024 A 
ATOM     15  C30 ZIN A   1      18.979   0.085  14.569  0.00  0.00     0.046 A 
ATOM     16  C31 ZIN A   1      18.873   0.586  15.907  0.00  0.00     0.099 C 
ATOM     17  N32 ZIN A   1      18.788   0.983  16.968  0.00  0.00    -0.191 NA
ATOM     18  C33 ZIN A   1      18.543  -1.216  14.294  0.00  0.00     0.053 A 
ATOM     19  C34 ZIN A   1      18.666  -1.655  12.982  0.00  0.00     0.045 A 
ATOM     20  N35 ZIN A   1      18.344  -2.847  12.387  0.00  0.00    -0.357 N 
ATOM     21  C36 ZIN A   1      19.598  -1.245   9.390  0.00  0.00     0.195 C 
ATOM     22  O37 ZIN A   1      20.283  -0.268   9.145  0.00  0.00    -0.287 OA
ATOM     23  H71 ZIN A   1      17.950  -3.606  12.846  0.00  0.00     0.166 HD
ENDROOT
BRANCH   1  24
ATOM     24  C2  ZIN A   1      18.919  -2.162   4.542  0.00  0.00     0.036 C 
ATOM     25  C1  ZIN A   1      19.132  -0.648   4.477  0.00  0.00     0.010 C 
ENDBRANCH   1  24
BRANCH   6  26
ATOM     26  N9  ZIN A   1      17.804  -4.670   5.284  0.00  0.00    -0.283 NA
ATOM     27  C21 ZIN A   1      18.088  -6.076   5.601  0.00  0.00     0.098 C 
ATOM     28  C20 ZIN A   1      17.718  -6.955   4.405  0.00  0.00     0.048 C 
ATOM     29  C12 ZIN A   1      16.232  -6.775   4.086  0.00  0.00     0.190 C 
ATOM     30  C11 ZIN A   1      15.953  -5.296   3.808  0.00  0.00     0.048 C 
ATOM     31  C10 ZIN A   1      16.374  -4.464   5.022  0.00  0.00     0.098 C 
BRANCH  29  32
ATOM     32  N13 ZIN A   1      15.883  -7.571   2.902  0.00  0.00    -0.063 N 
ATOM     33  H14 ZIN A   1      15.690  -6.955   2.127  0.00  0.00     0.280 HD
ATOM     34  C19 ZIN A   1      17.007  -8.454   2.558  0.00  0.00     0.261 C 
ATOM     35  C18 ZIN A   1      16.641  -9.282   1.324  0.00  0.00     0.195 C 
ATOM     36  O17 ZIN A   1      15.450 -10.028   1.591  0.00  0.00    -0.388 OA
ATOM     37  C16 ZIN A   1      14.333  -9.213   1.955  0.00  0.00     0.195 C 
ATOM     38  C15 ZIN A   1      14.693  -8.384   3.191  0.00  0.00     0.261 C 
ENDBRANCH  29  32
ENDBRANCH   6  26
TORSDOF 3
ENDMDL
