MODEL 1
REMARK VINA RESULT:      -4.1      0.000      0.000
REMARK  4 active torsions:
REMARK  status: ('A' for Active; 'I' for Inactive)
REMARK    1  A    between atoms: C2_2  and  S4_3 
REMARK    2  A    between atoms: C2_2  and  C5_4 
REMARK       I    between atoms: C5_4  and  N7_6 
REMARK    3  A    between atoms: N7_6  and  C8_7 
REMARK    4  A    between atoms: C8_7  and  C9_8 
ROOT
ATOM      1  C5  ZIN A   1      18.107   1.776  10.004  0.00  0.00     0.231 C 
ATOM      2  O6  ZIN A   1      17.281   1.458  10.833  0.00  0.00    -0.272 OA
ATOM      3  N7  ZIN A   1      18.691   2.989  10.063  0.00  0.00    -0.350 N 
ATOM      4  H16 ZIN A   1      19.351   3.242   9.399  0.00  0.00     0.163 HD
ENDROOT
BRANCH   1   5
ATOM      5  C2  ZIN A   1      18.481   0.812   8.907  0.00  0.00     0.132 C 
ATOM      6  C1  ZIN A   1      19.127   1.580   7.752  0.00  0.00     0.031 C 
BRANCH   5   7
ATOM      7  S4  ZIN A   1      19.655  -0.411   9.552  0.00  0.00    -0.168 SA
ATOM      8  H15 ZIN A   1      20.071  -1.045   8.441  0.00  0.00     0.102 HD
ENDBRANCH   5   7
ENDBRANCH   1   5
BRANCH   3   9
ATOM      9  C8  ZIN A   1      18.327   3.925  11.129  0.00  0.00     0.235 C 
BRANCH   9  10
ATOM     10  C9  ZIN A   1      17.229   4.836  10.644  0.00  0.00     0.191 C 
ATOM     11  O10 ZIN A   1      17.445   5.624   9.739  0.00  0.00    -0.647 OA
ATOM     12  O11 ZIN A   1      16.124   4.787  11.158  0.00  0.00    -0.647 OA
ENDBRANCH   9  10
ENDBRANCH   3   9
TORSDOF 4
ENDMDL
MODEL 2
REMARK VINA RESULT:      -4.1      4.245      6.060
REMARK  4 active torsions:
REMARK  status: ('A' for Active; 'I' for Inactive)
REMARK    1  A    between atoms: C2_2  and  S4_3 
REMARK    2  A    between atoms: C2_2  and  C5_4 
REMARK       I    between atoms: C5_4  and  N7_6 
REMARK    3  A    between atoms: N7_6  and  C8_7 
REMARK    4  A    between atoms: C8_7  and  C9_8 
ROOT
ATOM      1  C5  ZIN A   1      18.805   0.564   7.606  0.00  0.00     0.231 C 
ATOM      2  O6  ZIN A   1      18.833   1.400   6.729  0.00  0.00    -0.272 OA
ATOM      3  N7  ZIN A   1      18.449  -0.704   7.318  0.00  0.00    -0.350 N 
ATOM      4  H16 ZIN A   1      18.427  -1.372   8.020  0.00  0.00     0.163 HD
ENDROOT
BRANCH   1   5
ATOM      5  C2  ZIN A   1      19.170   0.942   9.018  0.00  0.00     0.132 C 
ATOM      6  C1  ZIN A   1      18.890   2.430   9.237  0.00  0.00     0.031 C 
BRANCH   5   7
ATOM      7  S4  ZIN A   1      18.180  -0.038  10.181  0.00  0.00    -0.168 SA
ATOM      8  H15 ZIN A   1      18.565   0.434  11.379  0.00  0.00     0.102 HD
ENDBRANCH   5   7
ENDBRANCH   1   5
BRANCH   3   9
ATOM      9  C8  ZIN A   1      18.095  -1.071   5.945  0.00  0.00     0.235 C 
BRANCH   9  10
ATOM     10  C9  ZIN A   1      19.308  -1.627   5.244  0.00  0.00     0.191 C 
ATOM     11  O10 ZIN A   1      19.629  -2.791   5.413  0.00  0.00    -0.647 OA
ATOM     12  O11 ZIN A   1      19.969  -0.913   4.510  0.00  0.00    -0.647 OA
ENDBRANCH   9  10
ENDBRANCH   3   9
TORSDOF 4
ENDMDL
MODEL 3
REMARK VINA RESULT:      -3.9      1.716      1.778
REMARK  4 active torsions:
REMARK  status: ('A' for Active; 'I' for Inactive)
REMARK    1  A    between atoms: C2_2  and  S4_3 
REMARK    2  A    between atoms: C2_2  and  C5_4 
REMARK       I    between atoms: C5_4  and  N7_6 
REMARK    3  A    between atoms: N7_6  and  C8_7 
REMARK    4  A    between atoms: C8_7  and  C9_8 
ROOT
ATOM      1  C5  ZIN A   1      18.540   1.243   8.587  0.00  0.00     0.231 C 
ATOM      2  O6  ZIN A   1      19.437   1.753   7.951  0.00  0.00    -0.272 OA
ATOM      3  N7  ZIN A   1      18.091   1.833   9.713  0.00  0.00    -0.350 N 
ATOM      4  H16 ZIN A   1      17.374   1.424  10.222  0.00  0.00     0.163 HD
ENDROOT
BRANCH   1   5
ATOM      5  C2  ZIN A   1      17.926  -0.051   8.118  0.00  0.00     0.132 C 
ATOM      6  C1  ZIN A   1      17.563   0.064   6.636  0.00  0.00     0.031 C 
BRANCH   5   7
ATOM      7  S4  ZIN A   1      19.115  -1.402   8.347  0.00  0.00    -0.168 SA
ATOM      8  H15 ZIN A   1      20.002  -1.195   7.358  0.00  0.00     0.102 HD
ENDBRANCH   5   7
ENDBRANCH   1   5
BRANCH   3   9
ATOM      9  C8  ZIN A   1      18.688   3.090  10.169  0.00  0.00     0.235 C 
BRANCH   9  10
ATOM     10  C9  ZIN A   1      17.603   4.116  10.374  0.00  0.00     0.191 C 
ATOM     11  O10 ZIN A   1      17.546   5.096   9.652  0.00  0.00    -0.647 OA
ATOM     12  O11 ZIN A   1      16.783   3.966  11.264  0.00  0.00    -0.647 OA
ENDBRANCH   9  10
ENDBRANCH   3   9
TORSDOF 4
ENDMDL
MODEL 4
REMARK VINA RESULT:      -3.9      6.263      7.001
REMARK  4 active torsions:
REMARK  status: ('A' for Active; 'I' for Inactive)
REMARK    1  A    between atoms: C2_2  and  S4_3 
REMARK    2  A    between atoms: C2_2  and  C5_4 
REMARK       I    between atoms: C5_4  and  N7_6 
REMARK    3  A    between atoms: N7_6  and  C8_7 
REMARK    4  A    between atoms: C8_7  and  C9_8 
ROOT
ATOM      1  C5  ZIN A   1      17.767   0.527  15.435  0.00  0.00     0.231 C 
ATOM      2  O6  ZIN A   1      17.770  -0.642  15.757  0.00  0.00    -0.272 OA
ATOM      3  N7  ZIN A   1      17.790   1.487  16.380  0.00  0.00    -0.350 N 
ATOM      4  H16 ZIN A   1      17.788   2.422  16.121  0.00  0.00     0.163 HD
ENDROOT
BRANCH   1   5
ATOM      5  C2  ZIN A   1      17.740   0.906  13.976  0.00  0.00     0.132 C 
ATOM      6  C1  ZIN A   1      18.993   1.715  13.635  0.00  0.00     0.031 C 
BRANCH   5   7
ATOM      7  S4  ZIN A   1      17.696  -0.599  12.963  0.00  0.00    -0.168 SA
ATOM      8  H15 ZIN A   1      16.895  -0.251  11.940  0.00  0.00     0.102 HD
ENDBRANCH   5   7
ENDBRANCH   1   5
BRANCH   3   9
ATOM      9  C8  ZIN A   1      17.817   1.119  17.797  0.00  0.00     0.235 C 
BRANCH   9  10
ATOM     10  C9  ZIN A   1      19.210   1.312  18.340  0.00  0.00     0.191 C 
ATOM     11  O10 ZIN A   1      19.552   2.399  18.771  0.00  0.00    -0.647 OA
ATOM     12  O11 ZIN A   1      19.996   0.379  18.345  0.00  0.00    -0.647 OA
ENDBRANCH   9  10
ENDBRANCH   3   9
TORSDOF 4
ENDMDL
MODEL 5
REMARK VINA RESULT:      -3.8      3.963      5.385
REMARK  4 active torsions:
REMARK  status: ('A' for Active; 'I' for Inactive)
REMARK    1  A    between atoms: C2_2  and  S4_3 
REMARK    2  A    between atoms: C2_2  and  C5_4 
REMARK       I    between atoms: C5_4  and  N7_6 
REMARK    3  A    between atoms: N7_6  and  C8_7 
REMARK    4  A    between atoms: C8_7  and  C9_8 
ROOT
ATOM      1  C5  ZIN A   1      19.417   0.129   8.994  0.00  0.00     0.231 C 
ATOM      2  O6  ZIN A   1      20.342  -0.605   9.268  0.00  0.00    -0.272 OA
ATOM      3  N7  ZIN A   1      18.756  -0.024   7.830  0.00  0.00    -0.350 N 
ATOM      4  H16 ZIN A   1      18.016   0.564   7.612  0.00  0.00     0.163 HD
ENDROOT
BRANCH   1   5
ATOM      5  C2  ZIN A   1      19.005   1.213   9.958  0.00  0.00     0.132 C 
ATOM      6  C1  ZIN A   1      18.801   2.523   9.195  0.00  0.00     0.031 C 
BRANCH   5   7
ATOM      7  S4  ZIN A   1      17.455   0.739  10.773  0.00  0.00    -0.168 SA
ATOM      8  H15 ZIN A   1      17.606  -0.583  10.966  0.00  0.00     0.102 HD
ENDBRANCH   5   7
ENDBRANCH   1   5
BRANCH   3   9
ATOM      9  C8  ZIN A   1      19.156  -1.077   6.894  0.00  0.00     0.235 C 
BRANCH   9  10
ATOM     10  C9  ZIN A   1      19.126  -0.536   5.487  0.00  0.00     0.191 C 
ATOM     11  O10 ZIN A   1      18.270   0.268   5.161  0.00  0.00    -0.647 OA
ATOM     12  O11 ZIN A   1      19.958  -0.904   4.675  0.00  0.00    -0.647 OA
ENDBRANCH   9  10
ENDBRANCH   3   9
TORSDOF 4
ENDMDL
MODEL 6
REMARK VINA RESULT:      -3.8      3.070      4.528
REMARK  4 active torsions:
REMARK  status: ('A' for Active; 'I' for Inactive)
REMARK    1  A    between atoms: C2_2  and  S4_3 
REMARK    2  A    between atoms: C2_2  and  C5_4 
REMARK       I    between atoms: C5_4  and  N7_6 
REMARK    3  A    between atoms: N7_6  and  C8_7 
REMARK    4  A    between atoms: C8_7  and  C9_8 
ROOT
ATOM      1  C5  ZIN A   1      18.545   2.733  10.901  0.00  0.00     0.231 C 
ATOM      2  O6  ZIN A   1      19.101   2.462   9.858  0.00  0.00    -0.272 OA
ATOM      3  N7  ZIN A   1      18.079   1.748  11.694  0.00  0.00    -0.350 N 
ATOM      4  H16 ZIN A   1      17.635   1.966  12.528  0.00  0.00     0.163 HD
ENDROOT
BRANCH   1   5
ATOM      5  C2  ZIN A   1      18.376   4.174  11.312  0.00  0.00     0.132 C 
ATOM      6  C1  ZIN A   1      17.373   4.856  10.379  0.00  0.00     0.031 C 
BRANCH   5   7
ATOM      7  S4  ZIN A   1      17.764   4.248  13.018  0.00  0.00    -0.168 SA
ATOM      8  H15 ZIN A   1      18.888   4.139  13.748  0.00  0.00     0.102 HD
ENDBRANCH   5   7
ENDBRANCH   1   5
BRANCH   3   9
ATOM      9  C8  ZIN A   1      18.243   0.348  11.295  0.00  0.00     0.235 C 
BRANCH   9  10
ATOM     10  C9  ZIN A   1      16.961  -0.401  11.554  0.00  0.00     0.191 C 
ATOM     11  O10 ZIN A   1      15.892   0.182  11.501  0.00  0.00    -0.647 OA
ATOM     12  O11 ZIN A   1      16.993  -1.591  11.818  0.00  0.00    -0.647 OA
ENDBRANCH   9  10
ENDBRANCH   3   9
TORSDOF 4
ENDMDL
MODEL 7
REMARK VINA RESULT:      -3.8      5.459      5.786
REMARK  4 active torsions:
REMARK  status: ('A' for Active; 'I' for Inactive)
REMARK    1  A    between atoms: C2_2  and  S4_3 
REMARK    2  A    between atoms: C2_2  and  C5_4 
REMARK       I    between atoms: C5_4  and  N7_6 
REMARK    3  A    between atoms: N7_6  and  C8_7 
REMARK    4  A    between atoms: C8_7  and  C9_8 
ROOT
ATOM      1  C5  ZIN A   1      19.160   0.691  14.716  0.00  0.00     0.231 C 
ATOM      2  O6  ZIN A   1      18.298   0.277  15.461  0.00  0.00    -0.272 OA
ATOM      3  N7  ZIN A   1      19.475   2.001  14.709  0.00  0.00    -0.350 N 
ATOM      4  H16 ZIN A   1      20.165   2.330  14.112  0.00  0.00     0.163 HD
ENDROOT
BRANCH   1   5
ATOM      5  C2  ZIN A   1      19.880  -0.262  13.796  0.00  0.00     0.132 C 
ATOM      6  C1  ZIN A   1      19.004  -1.492  13.547  0.00  0.00     0.031 C 
BRANCH   5   7
ATOM      7  S4  ZIN A   1      20.224   0.565  12.219  0.00  0.00    -0.168 SA
ATOM      8  H15 ZIN A   1      21.132   1.498  12.558  0.00  0.00     0.102 HD
ENDBRANCH   5   7
ENDBRANCH   1   5
BRANCH   3   9
ATOM      9  C8  ZIN A   1      18.775   2.927  15.603  0.00  0.00     0.235 C 
BRANCH   9  10
ATOM     10  C9  ZIN A   1      19.695   3.332  16.726  0.00  0.00     0.191 C 
ATOM     11  O10 ZIN A   1      20.546   4.185  16.540  0.00  0.00    -0.647 OA
ATOM     12  O11 ZIN A   1      19.588   2.807  17.821  0.00  0.00    -0.647 OA
ENDBRANCH   9  10
ENDBRANCH   3   9
TORSDOF 4
ENDMDL
MODEL 8
REMARK VINA RESULT:      -3.7      5.759      6.304
REMARK  4 active torsions:
REMARK  status: ('A' for Active; 'I' for Inactive)
REMARK    1  A    between atoms: C2_2  and  S4_3 
REMARK    2  A    between atoms: C2_2  and  C5_4 
REMARK       I    between atoms: C5_4  and  N7_6 
REMARK    3  A    between atoms: N7_6  and  C8_7 
REMARK    4  A    between atoms: C8_7  and  C9_8 
ROOT
ATOM      1  C5  ZIN A   1      18.468   1.104  14.805  0.00  0.00     0.231 C 
ATOM      2  O6  ZIN A   1      19.244   1.310  13.897  0.00  0.00    -0.272 OA
ATOM      3  N7  ZIN A   1      18.094   2.115  15.614  0.00  0.00    -0.350 N 
ATOM      4  H16 ZIN A   1      17.473   1.950  16.341  0.00  0.00     0.163 HD
ENDROOT
BRANCH   1   5
ATOM      5  C2  ZIN A   1      17.921  -0.282  15.029  0.00  0.00     0.132 C 
ATOM      6  C1  ZIN A   1      19.016  -1.314  14.752  0.00  0.00     0.031 C 
BRANCH   5   7
ATOM      7  S4  ZIN A   1      17.361  -0.440  16.747  0.00  0.00    -0.168 SA
ATOM      8  H15 ZIN A   1      18.197   0.374  17.414  0.00  0.00     0.102 HD
ENDBRANCH   5   7
ENDBRANCH   1   5
BRANCH   3   9
ATOM      9  C8  ZIN A   1      18.626   3.462  15.397  0.00  0.00     0.235 C 
BRANCH   9  10
ATOM     10  C9  ZIN A   1      19.671   3.763  16.441  0.00  0.00     0.191 C 
ATOM     11  O10 ZIN A   1      19.788   3.039  17.414  0.00  0.00    -0.647 OA
ATOM     12  O11 ZIN A   1      20.400   4.733  16.312  0.00  0.00    -0.647 OA
ENDBRANCH   9  10
ENDBRANCH   3   9
TORSDOF 4
ENDMDL
MODEL 9
REMARK VINA RESULT:      -3.6      3.069      3.666
REMARK  4 active torsions:
REMARK  status: ('A' for Active; 'I' for Inactive)
REMARK    1  A    between atoms: C2_2  and  S4_3 
REMARK    2  A    between atoms: C2_2  and  C5_4 
REMARK       I    between atoms: C5_4  and  N7_6 
REMARK    3  A    between atoms: N7_6  and  C8_7 
REMARK    4  A    between atoms: C8_7  and  C9_8 
ROOT
ATOM      1  C5  ZIN A   1      17.386  -0.371  11.742  0.00  0.00     0.231 C 
ATOM      2  O6  ZIN A   1      16.213  -0.133  11.549  0.00  0.00    -0.272 OA
ATOM      3  N7  ZIN A   1      18.331   0.264  11.021  0.00  0.00    -0.350 N 
ATOM      4  H16 ZIN A   1      19.269   0.072  11.176  0.00  0.00     0.163 HD
ENDROOT
BRANCH   1   5
ATOM      5  C2  ZIN A   1      17.787  -1.377  12.791  0.00  0.00     0.132 C 
ATOM      6  C1  ZIN A   1      18.827  -2.335  12.207  0.00  0.00     0.031 C 
BRANCH   5   7
ATOM      7  S4  ZIN A   1      18.497  -0.510  14.218  0.00  0.00    -0.168 SA
ATOM      8  H15 ZIN A   1      19.802  -0.432  13.906  0.00  0.00     0.102 HD
ENDBRANCH   5   7
ENDBRANCH   1   5
BRANCH   3   9
ATOM      9  C8  ZIN A   1      17.941   1.241  10.002  0.00  0.00     0.235 C 
BRANCH   9  10
ATOM     10  C9  ZIN A   1      18.165   2.634  10.531  0.00  0.00     0.191 C 
ATOM     11  O10 ZIN A   1      17.245   3.247  11.045  0.00  0.00    -0.647 OA
ATOM     12  O11 ZIN A   1      19.266   3.150  10.442  0.00  0.00    -0.647 OA
ENDBRANCH   9  10
ENDBRANCH   3   9
TORSDOF 4
ENDMDL
