MODEL 1
REMARK VINA RESULT:      -8.9      0.000      0.000
REMARK  6 active torsions:
REMARK  status: ('A' for Active; 'I' for Inactive)
REMARK    1  A    between atoms: C5_5  and  C6_6 
REMARK    2  A    between atoms: C6_6  and  C15_15 
REMARK    3  A    between atoms: C7_7  and  C8_8 
REMARK    4  A    between atoms: C8_8  and  N9_9 
REMARK    5  A    between atoms: C19_19  and  C20_20 
REMARK    6  A    between atoms: C21_21  and  C22_22 
ROOT
ATOM      1  C6  <0> d   1      18.883   2.129  10.961  0.00  0.00     0.001 C 
ATOM      2  C7  <0> d   1      19.794   1.584  11.775  0.00  0.00     0.015 C 
ENDROOT
BRANCH   1   3
ATOM      3  C5  <0> d   1      18.589   1.502   9.649  0.00  0.00    -0.024 A 
ATOM      4  C4  <0> d   1      19.303   1.885   8.515  0.00  0.00     0.013 A 
ATOM      5  C3  <0> d   1      19.025   1.298   7.297  0.00  0.00     0.007 A 
ATOM      6  C2  <0> d   1      18.041   0.331   7.201  0.00  0.00    -0.062 A 
ATOM      7  C1  <0> d   1      17.742  -0.306   5.868  0.00  0.00     0.048 C 
ATOM      8  C27 <0> d   1      17.325  -0.049   8.322  0.00  0.00     0.007 A 
ATOM      9  C26 <0> d   1      17.598   0.528   9.546  0.00  0.00     0.013 A 
ENDBRANCH   1   3
BRANCH   1  10
ATOM     10  C15 <0> d   1      18.166   3.362  11.370  0.00  0.00     0.068 A 
ATOM     11  N25 <0> d   1      18.292   3.811  12.608  0.00  0.00    -0.248 NA
ATOM     12  C19 <0> d   1      17.672   4.915  13.013  0.00  0.00     0.057 A 
ATOM     13  C18 <0> d   1      16.852   5.631  12.137  0.00  0.00     0.031 A 
ATOM     14  C17 <0> d   1      16.696   5.183  10.836  0.00  0.00     0.005 A 
ATOM     15  C16 <0> d   1      17.362   4.032  10.446  0.00  0.00     0.032 A 
BRANCH  12  16
ATOM     16  C20 <0> d   1      17.845   5.382  14.399  0.00  0.00     0.038 C 
ATOM     17  C21 <0> d   1      18.365   6.602  14.641  0.00  0.00     0.086 C 
BRANCH  17  18
ATOM     18  C22 <0> d   1      18.536   7.065  16.017  0.00  0.00     0.198 C 
ATOM     19  O23 <0> d   1      19.094   6.349  16.839  0.00  0.00    -0.645 OA
ATOM     20  O24 <0> d   1      18.122   8.169  16.349  0.00  0.00    -0.645 OA
ENDBRANCH  17  18
ENDBRANCH  12  16
ENDBRANCH   1  10
BRANCH   2  21
ATOM     21  C8  <0> d   1      20.522   0.332  11.360  0.00  0.00     0.263 C 
BRANCH  21  22
ATOM     22  N9  <0> d   1      20.366  -0.693  12.400  0.00  0.00    -0.068 N 
ATOM     23  H10 <0> d   1      21.223  -1.216  12.504  0.00  0.00     0.280 HD
ATOM     24  C14 <0> d   1      19.252  -1.603  12.057  0.00  0.00     0.235 C 
ATOM     25  C13 <0> d   1      18.561  -1.989  13.380  0.00  0.00     0.029 C 
ATOM     26  C12 <0> d   1      19.334  -1.222  14.477  0.00  0.00     0.029 C 
ATOM     27  C11 <0> d   1      19.993  -0.061  13.691  0.00  0.00     0.235 C 
ENDBRANCH  21  22
ENDBRANCH   2  21
TORSDOF 6
ENDMDL
MODEL 2
REMARK VINA RESULT:      -8.7      5.022      7.655
REMARK  6 active torsions:
REMARK  status: ('A' for Active; 'I' for Inactive)
REMARK    1  A    between atoms: C5_5  and  C6_6 
REMARK    2  A    between atoms: C6_6  and  C15_15 
REMARK    3  A    between atoms: C7_7  and  C8_8 
REMARK    4  A    between atoms: C8_8  and  N9_9 
REMARK    5  A    between atoms: C19_19  and  C20_20 
REMARK    6  A    between atoms: C21_21  and  C22_22 
ROOT
ATOM      1  C6  <0> d   1      18.135  -1.000  11.282  0.00  0.00     0.001 C 
ATOM      2  C7  <0> d   1      17.682  -2.137  10.740  0.00  0.00     0.015 C 
ENDROOT
BRANCH   1   3
ATOM      3  C5  <0> d   1      18.315  -0.899  12.751  0.00  0.00    -0.024 A 
ATOM      4  C4  <0> d   1      19.412  -1.503  13.365  0.00  0.00     0.013 A 
ATOM      5  C3  <0> d   1      19.573  -1.406  14.732  0.00  0.00     0.007 A 
ATOM      6  C2  <0> d   1      18.651  -0.710  15.492  0.00  0.00    -0.062 A 
ATOM      7  C1  <0> d   1      18.834  -0.608  16.985  0.00  0.00     0.048 C 
ATOM      8  C27 <0> d   1      17.558  -0.113  14.890  0.00  0.00     0.007 A 
ATOM      9  C26 <0> d   1      17.389  -0.200  13.523  0.00  0.00     0.013 A 
ENDBRANCH   1   3
BRANCH   1  10
ATOM     10  C15 <0> d   1      18.457   0.158  10.414  0.00  0.00     0.068 A 
ATOM     11  N25 <0> d   1      18.517  -0.005   9.101  0.00  0.00    -0.248 NA
ATOM     12  C19 <0> d   1      18.796   1.008   8.288  0.00  0.00     0.057 A 
ATOM     13  C18 <0> d   1      19.050   2.282   8.801  0.00  0.00     0.031 A 
ATOM     14  C17 <0> d   1      19.001   2.483  10.171  0.00  0.00     0.005 A 
ATOM     15  C16 <0> d   1      18.700   1.406  10.989  0.00  0.00     0.032 A 
BRANCH  12  16
ATOM     16  C20 <0> d   1      18.846   0.783   6.833  0.00  0.00     0.038 C 
ATOM     17  C21 <0> d   1      19.060  -0.457   6.348  0.00  0.00     0.086 C 
BRANCH  17  18
ATOM     18  C22 <0> d   1      19.109  -0.680   4.905  0.00  0.00     0.198 C 
ATOM     19  O23 <0> d   1      18.393  -0.023   4.159  0.00  0.00    -0.645 OA
ATOM     20  O24 <0> d   1      19.865  -1.524   4.440  0.00  0.00    -0.645 OA
ENDBRANCH  17  18
ENDBRANCH  12  16
ENDBRANCH   1  10
BRANCH   2  21
ATOM     21  C8  <0> d   1      17.354  -3.314  11.622  0.00  0.00     0.263 C 
BRANCH  21  22
ATOM     22  N9  <0> d   1      17.882  -4.543  11.016  0.00  0.00    -0.068 N 
ATOM     23  H10 <0> d   1      17.599  -5.347  11.556  0.00  0.00     0.280 HD
ATOM     24  C14 <0> d   1      19.357  -4.478  10.932  0.00  0.00     0.235 C 
ATOM     25  C13 <0> d   1      19.766  -5.187   9.626  0.00  0.00     0.029 C 
ATOM     26  C12 <0> d   1      18.436  -5.626   8.971  0.00  0.00     0.029 C 
ATOM     27  C11 <0> d   1      17.400  -4.671   9.617  0.00  0.00     0.235 C 
ENDBRANCH  21  22
ENDBRANCH   2  21
TORSDOF 6
ENDMDL
MODEL 3
REMARK VINA RESULT:      -8.6      4.640      8.425
REMARK  6 active torsions:
REMARK  status: ('A' for Active; 'I' for Inactive)
REMARK    1  A    between atoms: C5_5  and  C6_6 
REMARK    2  A    between atoms: C6_6  and  C15_15 
REMARK    3  A    between atoms: C7_7  and  C8_8 
REMARK    4  A    between atoms: C8_8  and  N9_9 
REMARK    5  A    between atoms: C19_19  and  C20_20 
REMARK    6  A    between atoms: C21_21  and  C22_22 
ROOT
ATOM      1  C6  <0> d   1      19.013  -0.830  11.609  0.00  0.00     0.001 C 
ATOM      2  C7  <0> d   1      19.842   0.054  11.041  0.00  0.00     0.015 C 
ENDROOT
BRANCH   1   3
ATOM      3  C5  <0> d   1      18.632  -0.681  13.034  0.00  0.00    -0.024 A 
ATOM      4  C4  <0> d   1      19.306  -1.402  14.018  0.00  0.00     0.013 A 
ATOM      5  C3  <0> d   1      18.946  -1.259  15.343  0.00  0.00     0.007 A 
ATOM      6  C2  <0> d   1      17.919  -0.402  15.694  0.00  0.00    -0.062 A 
ATOM      7  C1  <0> d   1      17.530  -0.252  17.143  0.00  0.00     0.048 C 
ATOM      8  C27 <0> d   1      17.242   0.312  14.722  0.00  0.00     0.007 A 
ATOM      9  C26 <0> d   1      17.597   0.180  13.394  0.00  0.00     0.013 A 
ENDBRANCH   1   3
BRANCH   1  10
ATOM     10  C15 <0> d   1      18.477  -1.960  10.812  0.00  0.00     0.068 A 
ATOM     11  N25 <0> d   1      18.724  -2.021   9.513  0.00  0.00    -0.248 NA
ATOM     12  C19 <0> d   1      18.267  -3.019   8.765  0.00  0.00     0.057 A 
ATOM     13  C18 <0> d   1      17.494  -4.035   9.331  0.00  0.00     0.031 A 
ATOM     14  C17 <0> d   1      17.212  -3.997  10.687  0.00  0.00     0.005 A 
ATOM     15  C16 <0> d   1      17.711  -2.945  11.438  0.00  0.00     0.032 A 
BRANCH  12  16
ATOM     16  C20 <0> d   1      18.572  -3.049   7.324  0.00  0.00     0.038 C 
ATOM     17  C21 <0> d   1      19.028  -1.941   6.706  0.00  0.00     0.086 C 
BRANCH  17  18
ATOM     18  C22 <0> d   1      19.330  -1.971   5.277  0.00  0.00     0.198 C 
ATOM     19  O23 <0> d   1      19.902  -1.024   4.751  0.00  0.00    -0.645 OA
ATOM     20  O24 <0> d   1      19.012  -2.944   4.603  0.00  0.00    -0.645 OA
ENDBRANCH  17  18
ENDBRANCH  12  16
ENDBRANCH   1  10
BRANCH   2  21
ATOM     21  C8  <0> d   1      20.389   1.202  11.850  0.00  0.00     0.263 C 
BRANCH  21  22
ATOM     22  N9  <0> d   1      19.975   2.472  11.240  0.00  0.00    -0.068 N 
ATOM     23  H10 <0> d   1      20.784   2.991  10.935  0.00  0.00     0.280 HD
ATOM     24  C14 <0> d   1      19.191   3.271  12.206  0.00  0.00     0.235 C 
ATOM     25  C13 <0> d   1      18.103   4.010  11.403  0.00  0.00     0.029 C 
ATOM     26  C12 <0> d   1      18.305   3.557   9.939  0.00  0.00     0.029 C 
ATOM     27  C11 <0> d   1      19.068   2.217  10.092  0.00  0.00     0.235 C 
ENDBRANCH  21  22
ENDBRANCH   2  21
TORSDOF 6
ENDMDL
MODEL 4
REMARK VINA RESULT:      -8.5      4.956      6.835
REMARK  6 active torsions:
REMARK  status: ('A' for Active; 'I' for Inactive)
REMARK    1  A    between atoms: C5_5  and  C6_6 
REMARK    2  A    between atoms: C6_6  and  C15_15 
REMARK    3  A    between atoms: C7_7  and  C8_8 
REMARK    4  A    between atoms: C8_8  and  N9_9 
REMARK    5  A    between atoms: C19_19  and  C20_20 
REMARK    6  A    between atoms: C21_21  and  C22_22 
ROOT
ATOM      1  C6  <0> d   1      19.182  -0.530  11.808  0.00  0.00     0.001 C 
ATOM      2  C7  <0> d   1      19.580  -0.201  13.042  0.00  0.00     0.015 C 
ENDROOT
BRANCH   1   3
ATOM      3  C5  <0> d   1      18.825  -1.934  11.493  0.00  0.00    -0.024 A 
ATOM      4  C4  <0> d   1      19.823  -2.856  11.180  0.00  0.00     0.013 A 
ATOM      5  C3  <0> d   1      19.484  -4.162  10.886  0.00  0.00     0.007 A 
ATOM      6  C2  <0> d   1      18.158  -4.556  10.904  0.00  0.00    -0.062 A 
ATOM      7  C1  <0> d   1      17.796  -5.983  10.582  0.00  0.00     0.048 C 
ATOM      8  C27 <0> d   1      17.164  -3.644  11.208  0.00  0.00     0.007 A 
ATOM      9  C26 <0> d   1      17.491  -2.337  11.507  0.00  0.00     0.013 A 
ENDBRANCH   1   3
BRANCH   1  10
ATOM     10  C15 <0> d   1      19.098   0.511  10.755  0.00  0.00     0.068 A 
ATOM     11  N25 <0> d   1      19.039   0.151   9.482  0.00  0.00    -0.248 NA
ATOM     12  C19 <0> d   1      18.957   1.052   8.509  0.00  0.00     0.057 A 
ATOM     13  C18 <0> d   1      18.942   2.417   8.803  0.00  0.00     0.031 A 
ATOM     14  C17 <0> d   1      19.008   2.826  10.125  0.00  0.00     0.005 A 
ATOM     15  C16 <0> d   1      19.087   1.860  11.115  0.00  0.00     0.032 A 
BRANCH  12  16
ATOM     16  C20 <0> d   1      18.887   0.606   7.106  0.00  0.00     0.038 C 
ATOM     17  C21 <0> d   1      18.989  -0.706   6.809  0.00  0.00     0.086 C 
BRANCH  17  18
ATOM     18  C22 <0> d   1      18.921  -1.147   5.417  0.00  0.00     0.198 C 
ATOM     19  O23 <0> d   1      17.848  -1.489   4.935  0.00  0.00    -0.645 OA
ATOM     20  O24 <0> d   1      19.936  -1.177   4.732  0.00  0.00    -0.645 OA
ENDBRANCH  17  18
ENDBRANCH  12  16
ENDBRANCH   1  10
BRANCH   2  21
ATOM     21  C8  <0> d   1      19.666  -1.257  14.113  0.00  0.00     0.263 C 
BRANCH  21  22
ATOM     22  N9  <0> d   1      18.426  -1.261  14.899  0.00  0.00    -0.068 N 
ATOM     23  H10 <0> d   1      17.779  -1.940  14.526  0.00  0.00     0.280 HD
ATOM     24  C14 <0> d   1      17.812   0.084  14.893  0.00  0.00     0.235 C 
ATOM     25  C13 <0> d   1      17.176   0.297  16.280  0.00  0.00     0.029 C 
ATOM     26  C12 <0> d   1      17.493  -0.993  17.071  0.00  0.00     0.029 C 
ATOM     27  C11 <0> d   1      18.723  -1.566  16.322  0.00  0.00     0.235 C 
ENDBRANCH  21  22
ENDBRANCH   2  21
TORSDOF 6
ENDMDL
MODEL 5
REMARK VINA RESULT:      -8.4      2.204      5.282
REMARK  6 active torsions:
REMARK  status: ('A' for Active; 'I' for Inactive)
REMARK    1  A    between atoms: C5_5  and  C6_6 
REMARK    2  A    between atoms: C6_6  and  C15_15 
REMARK    3  A    between atoms: C7_7  and  C8_8 
REMARK    4  A    between atoms: C8_8  and  N9_9 
REMARK    5  A    between atoms: C19_19  and  C20_20 
REMARK    6  A    between atoms: C21_21  and  C22_22 
ROOT
ATOM      1  C6  <0> d   1      18.108   1.397  11.628  0.00  0.00     0.001 C 
ATOM      2  C7  <0> d   1      17.701   2.588  12.082  0.00  0.00     0.015 C 
ENDROOT
BRANCH   1   3
ATOM      3  C5  <0> d   1      18.240   1.165  10.169  0.00  0.00    -0.024 A 
ATOM      4  C4  <0> d   1      17.334   0.337   9.507  0.00  0.00     0.013 A 
ATOM      5  C3  <0> d   1      17.463   0.124   8.150  0.00  0.00     0.007 A 
ATOM      6  C2  <0> d   1      18.487   0.731   7.446  0.00  0.00    -0.062 A 
ATOM      7  C1  <0> d   1      18.622   0.495   5.963  0.00  0.00     0.048 C 
ATOM      8  C27 <0> d   1      19.392   1.550   8.098  0.00  0.00     0.007 A 
ATOM      9  C26 <0> d   1      19.270   1.774   9.454  0.00  0.00     0.013 A 
ENDBRANCH   1   3
BRANCH   1  10
ATOM     10  C15 <0> d   1      18.426   0.309  12.583  0.00  0.00     0.068 A 
ATOM     11  N25 <0> d   1      18.300   0.522  13.884  0.00  0.00    -0.248 NA
ATOM     12  C19 <0> d   1      18.569  -0.429  14.772  0.00  0.00     0.057 A 
ATOM     13  C18 <0> d   1      19.010  -1.687  14.356  0.00  0.00     0.031 A 
ATOM     14  C17 <0> d   1      19.158  -1.939  13.002  0.00  0.00     0.005 A 
ATOM     15  C16 <0> d   1      18.862  -0.927  12.102  0.00  0.00     0.032 A 
BRANCH  12  16
ATOM     16  C20 <0> d   1      18.409  -0.150  16.210  0.00  0.00     0.038 C 
ATOM     17  C21 <0> d   1      19.194   0.766  16.812  0.00  0.00     0.086 C 
BRANCH  17  18
ATOM     18  C22 <0> d   1      19.035   1.043  18.238  0.00  0.00     0.198 C 
ATOM     19  O23 <0> d   1      19.695   1.928  18.768  0.00  0.00    -0.645 OA
ATOM     20  O24 <0> d   1      18.240   0.390  18.905  0.00  0.00    -0.645 OA
ENDBRANCH  17  18
ENDBRANCH  12  16
ENDBRANCH   1  10
BRANCH   2  21
ATOM     21  C8  <0> d   1      17.376   3.695  11.112  0.00  0.00     0.263 C 
BRANCH  21  22
ATOM     22  N9  <0> d   1      17.534   4.993  11.779  0.00  0.00    -0.068 N 
ATOM     23  H10 <0> d   1      17.784   5.702  11.105  0.00  0.00     0.280 HD
ATOM     24  C14 <0> d   1      18.567   4.904  12.833  0.00  0.00     0.235 C 
ATOM     25  C13 <0> d   1      18.108   5.812  13.991  0.00  0.00     0.029 C 
ATOM     26  C12 <0> d   1      16.748   6.390  13.537  0.00  0.00     0.029 C 
ATOM     27  C11 <0> d   1      16.275   5.368  12.472  0.00  0.00     0.235 C 
ENDBRANCH  21  22
ENDBRANCH   2  21
TORSDOF 6
ENDMDL
MODEL 6
REMARK VINA RESULT:      -8.4      2.261      5.211
REMARK  6 active torsions:
REMARK  status: ('A' for Active; 'I' for Inactive)
REMARK    1  A    between atoms: C5_5  and  C6_6 
REMARK    2  A    between atoms: C6_6  and  C15_15 
REMARK    3  A    between atoms: C7_7  and  C8_8 
REMARK    4  A    between atoms: C8_8  and  N9_9 
REMARK    5  A    between atoms: C19_19  and  C20_20 
REMARK    6  A    between atoms: C21_21  and  C22_22 
ROOT
ATOM      1  C6  <0> d   1      19.440  -0.992  12.637  0.00  0.00     0.001 C 
ATOM      2  C7  <0> d   1      20.089  -0.142  11.834  0.00  0.00     0.015 C 
ENDROOT
BRANCH   1   3
ATOM      3  C5  <0> d   1      18.944  -2.284  12.104  0.00  0.00    -0.024 A 
ATOM      4  C4  <0> d   1      17.600  -2.431  11.763  0.00  0.00     0.013 A 
ATOM      5  C3  <0> d   1      17.144  -3.636  11.269  0.00  0.00     0.007 A 
ATOM      6  C2  <0> d   1      18.017  -4.696  11.109  0.00  0.00    -0.062 A 
ATOM      7  C1  <0> d   1      17.513  -6.009  10.568  0.00  0.00     0.048 C 
ATOM      8  C27 <0> d   1      19.351  -4.558  11.450  0.00  0.00     0.007 A 
ATOM      9  C26 <0> d   1      19.819  -3.357  11.942  0.00  0.00     0.013 A 
ENDBRANCH   1   3
BRANCH   1  10
ATOM     10  C15 <0> d   1      19.216  -0.643  14.061  0.00  0.00     0.068 A 
ATOM     11  N25 <0> d   1      19.259   0.625  14.439  0.00  0.00    -0.248 NA
ATOM     12  C19 <0> d   1      19.058   0.980  15.704  0.00  0.00     0.057 A 
ATOM     13  C18 <0> d   1      18.806   0.015  16.681  0.00  0.00     0.031 A 
ATOM     14  C17 <0> d   1      18.761  -1.321  16.318  0.00  0.00     0.005 A 
ATOM     15  C16 <0> d   1      18.968  -1.656  14.990  0.00  0.00     0.032 A 
BRANCH  12  16
ATOM     16  C20 <0> d   1      19.110   2.404  16.078  0.00  0.00     0.038 C 
ATOM     17  C21 <0> d   1      18.905   3.356  15.145  0.00  0.00     0.086 C 
BRANCH  17  18
ATOM     18  C22 <0> d   1      18.956   4.768  15.517  0.00  0.00     0.198 C 
ATOM     19  O23 <0> d   1      19.351   5.094  16.629  0.00  0.00    -0.645 OA
ATOM     20  O24 <0> d   1      18.604   5.626  14.717  0.00  0.00    -0.645 OA
ENDBRANCH  17  18
ENDBRANCH  12  16
ENDBRANCH   1  10
BRANCH   2  21
ATOM     21  C8  <0> d   1      20.317  -0.495  10.387  0.00  0.00     0.263 C 
BRANCH  21  22
ATOM     22  N9  <0> d   1      20.218   0.717   9.565  0.00  0.00    -0.068 N 
ATOM     23  H10 <0> d   1      21.140   1.045   9.316  0.00  0.00     0.280 HD
ATOM     24  C14 <0> d   1      19.481   1.771  10.294  0.00  0.00     0.235 C 
ATOM     25  C13 <0> d   1      18.651   2.545   9.251  0.00  0.00     0.029 C 
ATOM     26  C12 <0> d   1      18.944   1.847   7.903  0.00  0.00     0.029 C 
ATOM     27  C11 <0> d   1      19.426   0.440   8.339  0.00  0.00     0.235 C 
ENDBRANCH  21  22
ENDBRANCH   2  21
TORSDOF 6
ENDMDL
MODEL 7
REMARK VINA RESULT:      -8.2      4.813      7.407
REMARK  6 active torsions:
REMARK  status: ('A' for Active; 'I' for Inactive)
REMARK    1  A    between atoms: C5_5  and  C6_6 
REMARK    2  A    between atoms: C6_6  and  C15_15 
REMARK    3  A    between atoms: C7_7  and  C8_8 
REMARK    4  A    between atoms: C8_8  and  N9_9 
REMARK    5  A    between atoms: C19_19  and  C20_20 
REMARK    6  A    between atoms: C21_21  and  C22_22 
ROOT
ATOM      1  C6  <0> d   1      19.264  -0.604  12.178  0.00  0.00     0.001 C 
ATOM      2  C7  <0> d   1      19.638  -0.719  13.457  0.00  0.00     0.015 C 
ENDROOT
BRANCH   1   3
ATOM      3  C5  <0> d   1      18.877   0.721  11.634  0.00  0.00    -0.024 A 
ATOM      4  C4  <0> d   1      19.845   1.565  11.092  0.00  0.00     0.013 A 
ATOM      5  C3  <0> d   1      19.479   2.796  10.589  0.00  0.00     0.007 A 
ATOM      6  C2  <0> d   1      18.154   3.193  10.620  0.00  0.00    -0.062 A 
ATOM      7  C1  <0> d   1      17.762   4.540  10.068  0.00  0.00     0.048 C 
ATOM      8  C27 <0> d   1      17.190   2.362  11.161  0.00  0.00     0.007 A 
ATOM      9  C26 <0> d   1      17.544   1.126  11.663  0.00  0.00     0.013 A 
ENDBRANCH   1   3
BRANCH   1  10
ATOM     10  C15 <0> d   1      19.236  -1.801  11.304  0.00  0.00     0.068 A 
ATOM     11  N25 <0> d   1      18.938  -1.668  10.020  0.00  0.00    -0.248 NA
ATOM     12  C19 <0> d   1      18.908  -2.715   9.202  0.00  0.00     0.057 A 
ATOM     13  C18 <0> d   1      19.180  -3.999   9.681  0.00  0.00     0.031 A 
ATOM     14  C17 <0> d   1      19.489  -4.172  11.020  0.00  0.00     0.005 A 
ATOM     15  C16 <0> d   1      19.518  -3.058  11.843  0.00  0.00     0.032 A 
BRANCH  12  16
ATOM     16  C20 <0> d   1      18.577  -2.520   7.780  0.00  0.00     0.038 C 
ATOM     17  C21 <0> d   1      19.312  -1.678   7.025  0.00  0.00     0.086 C 
BRANCH  17  18
ATOM     18  C22 <0> d   1      18.983  -1.485   5.615  0.00  0.00     0.198 C 
ATOM     19  O23 <0> d   1      17.821  -1.576   5.238  0.00  0.00    -0.645 OA
ATOM     20  O24 <0> d   1      19.870  -1.231   4.807  0.00  0.00    -0.645 OA
ENDBRANCH  17  18
ENDBRANCH  12  16
ENDBRANCH   1  10
BRANCH   2  21
ATOM     21  C8  <0> d   1      19.667   0.497  14.347  0.00  0.00     0.263 C 
BRANCH  21  22
ATOM     22  N9  <0> d   1      19.026   0.182  15.629  0.00  0.00    -0.068 N 
ATOM     23  H10 <0> d   1      19.474   0.691  16.377  0.00  0.00     0.280 HD
ATOM     24  C14 <0> d   1      19.091  -1.272  15.890  0.00  0.00     0.235 C 
ATOM     25  C13 <0> d   1      17.782  -1.661  16.605  0.00  0.00     0.029 C 
ATOM     26  C12 <0> d   1      16.970  -0.350  16.702  0.00  0.00     0.029 C 
ATOM     27  C11 <0> d   1      17.581   0.522  15.575  0.00  0.00     0.235 C 
ENDBRANCH  21  22
ENDBRANCH   2  21
TORSDOF 6
ENDMDL
MODEL 8
REMARK VINA RESULT:      -8.2      3.089      5.890
REMARK  6 active torsions:
REMARK  status: ('A' for Active; 'I' for Inactive)
REMARK    1  A    between atoms: C5_5  and  C6_6 
REMARK    2  A    between atoms: C6_6  and  C15_15 
REMARK    3  A    between atoms: C7_7  and  C8_8 
REMARK    4  A    between atoms: C8_8  and  N9_9 
REMARK    5  A    between atoms: C19_19  and  C20_20 
REMARK    6  A    between atoms: C21_21  and  C22_22 
ROOT
ATOM      1  C6  <0> d   1      18.218  -1.296  11.217  0.00  0.00     0.001 C 
ATOM      2  C7  <0> d   1      17.724  -2.472  10.809  0.00  0.00     0.015 C 
ENDROOT
BRANCH   1   3
ATOM      3  C5  <0> d   1      18.384  -1.023  12.665  0.00  0.00    -0.024 A 
ATOM      4  C4  <0> d   1      19.433  -1.607  13.372  0.00  0.00     0.013 A 
ATOM      5  C3  <0> d   1      19.581  -1.350  14.720  0.00  0.00     0.007 A 
ATOM      6  C2  <0> d   1      18.691  -0.513  15.368  0.00  0.00    -0.062 A 
ATOM      7  C1  <0> d   1      18.859  -0.236  16.840  0.00  0.00     0.048 C 
ATOM      8  C27 <0> d   1      17.645   0.066  14.673  0.00  0.00     0.007 A 
ATOM      9  C26 <0> d   1      17.490  -0.181  13.324  0.00  0.00     0.013 A 
ENDBRANCH   1   3
BRANCH   1  10
ATOM     10  C15 <0> d   1      18.601  -0.268  10.219  0.00  0.00     0.068 A 
ATOM     11  N25 <0> d   1      18.256   0.995  10.416  0.00  0.00    -0.248 NA
ATOM     12  C19 <0> d   1      18.584   1.948   9.550  0.00  0.00     0.057 A 
ATOM     13  C18 <0> d   1      19.299   1.638   8.390  0.00  0.00     0.031 A 
ATOM     14  C17 <0> d   1      19.669   0.325   8.153  0.00  0.00     0.005 A 
ATOM     15  C16 <0> d   1      19.316  -0.642   9.080  0.00  0.00     0.032 A 
BRANCH  12  16
ATOM     16  C20 <0> d   1      18.184   3.341   9.812  0.00  0.00     0.038 C 
ATOM     17  C21 <0> d   1      17.348   3.623  10.832  0.00  0.00     0.086 C 
BRANCH  17  18
ATOM     18  C22 <0> d   1      16.952   5.006  11.092  0.00  0.00     0.198 C 
ATOM     19  O23 <0> d   1      17.204   5.880  10.271  0.00  0.00    -0.645 OA
ATOM     20  O24 <0> d   1      16.368   5.292  12.130  0.00  0.00    -0.645 OA
ENDBRANCH  17  18
ENDBRANCH  12  16
ENDBRANCH   1  10
BRANCH   2  21
ATOM     21  C8  <0> d   1      17.335  -3.517  11.822  0.00  0.00     0.263 C 
BRANCH  21  22
ATOM     22  N9  <0> d   1      17.626  -4.852  11.284  0.00  0.00    -0.068 N 
ATOM     23  H10 <0> d   1      17.686  -5.524  12.035  0.00  0.00     0.280 HD
ATOM     24  C14 <0> d   1      18.890  -4.831  10.517  0.00  0.00     0.235 C 
ATOM     25  C13 <0> d   1      18.714  -5.798   9.330  0.00  0.00     0.029 C 
ATOM     26  C12 <0> d   1      17.272  -6.340   9.461  0.00  0.00     0.029 C 
ATOM     27  C11 <0> d   1      16.571  -5.256  10.319  0.00  0.00     0.235 C 
ENDBRANCH  21  22
ENDBRANCH   2  21
TORSDOF 6
ENDMDL
MODEL 9
REMARK VINA RESULT:      -8.2      2.730      3.775
REMARK  6 active torsions:
REMARK  status: ('A' for Active; 'I' for Inactive)
REMARK    1  A    between atoms: C5_5  and  C6_6 
REMARK    2  A    between atoms: C6_6  and  C15_15 
REMARK    3  A    between atoms: C7_7  and  C8_8 
REMARK    4  A    between atoms: C8_8  and  N9_9 
REMARK    5  A    between atoms: C19_19  and  C20_20 
REMARK    6  A    between atoms: C21_21  and  C22_22 
ROOT
ATOM      1  C6  <0> d   1      19.019   0.146  11.506  0.00  0.00     0.001 C 
ATOM      2  C7  <0> d   1      19.544  -0.984  11.995  0.00  0.00     0.015 C 
ENDROOT
BRANCH   1   3
ATOM      3  C5  <0> d   1      18.750   0.271  10.052  0.00  0.00    -0.024 A 
ATOM      4  C4  <0> d   1      17.605  -0.303   9.501  0.00  0.00     0.013 A 
ATOM      5  C3  <0> d   1      17.361  -0.185   8.148  0.00  0.00     0.007 A 
ATOM      6  C2  <0> d   1      18.248   0.503   7.340  0.00  0.00    -0.062 A 
ATOM      7  C1  <0> d   1      17.975   0.628   5.863  0.00  0.00     0.048 C 
ATOM      8  C27 <0> d   1      19.388   1.070   7.880  0.00  0.00     0.007 A 
ATOM      9  C26 <0> d   1      19.640   0.961   9.233  0.00  0.00     0.013 A 
ENDBRANCH   1   3
BRANCH   1  10
ATOM     10  C15 <0> d   1      18.707   1.273  12.417  0.00  0.00     0.068 A 
ATOM     11  N25 <0> d   1      19.024   1.186  13.699  0.00  0.00    -0.248 NA
ATOM     12  C19 <0> d   1      18.767   2.176  14.547  0.00  0.00     0.057 A 
ATOM     13  C18 <0> d   1      18.137   3.342  14.108  0.00  0.00     0.031 A 
ATOM     14  C17 <0> d   1      17.787   3.461  12.773  0.00  0.00     0.005 A 
ATOM     15  C16 <0> d   1      18.075   2.413  11.915  0.00  0.00     0.032 A 
BRANCH  12  16
ATOM     16  C20 <0> d   1      19.144   2.038  15.965  0.00  0.00     0.038 C 
ATOM     17  C21 <0> d   1      18.813   0.922  16.646  0.00  0.00     0.086 C 
BRANCH  17  18
ATOM     18  C22 <0> d   1      19.187   0.785  18.052  0.00  0.00     0.198 C 
ATOM     19  O23 <0> d   1      19.914   1.620  18.576  0.00  0.00    -0.645 OA
ATOM     20  O24 <0> d   1      18.773  -0.164  18.708  0.00  0.00    -0.645 OA
ENDBRANCH  17  18
ENDBRANCH  12  16
ENDBRANCH   1  10
BRANCH   2  21
ATOM     21  C8  <0> d   1      19.862  -2.130  11.069  0.00  0.00     0.263 C 
BRANCH  21  22
ATOM     22  N9  <0> d   1      19.297  -3.371  11.614  0.00  0.00    -0.068 N 
ATOM     23  H10 <0> d   1      19.740  -3.600  12.491  0.00  0.00     0.280 HD
ATOM     24  C14 <0> d   1      19.473  -4.478  10.650  0.00  0.00     0.235 C 
ATOM     25  C13 <0> d   1      18.224  -5.375  10.760  0.00  0.00     0.029 C 
ATOM     26  C12 <0> d   1      17.329  -4.691  11.819  0.00  0.00     0.029 C 
ATOM     27  C11 <0> d   1      17.831  -3.225  11.804  0.00  0.00     0.235 C 
ENDBRANCH  21  22
ENDBRANCH   2  21
TORSDOF 6
ENDMDL
