MODEL 1
REMARK VINA RESULT:      -3.6      0.000      0.000
REMARK  9 active torsions:
REMARK  status: ('A' for Active; 'I' for Inactive)
REMARK    1  A    between atoms: O1_1  and  C2_2 
REMARK    2  A    between atoms: C2_2  and  C3_3 
REMARK    3  A    between atoms: C3_3  and  N4_4 
REMARK    4  A    between atoms: N4_4  and  C5_5 
REMARK    5  A    between atoms: N4_4  and  C8_8 
REMARK    6  A    between atoms: C5_5  and  C6_6 
REMARK    7  A    between atoms: C6_6  and  O7_7 
REMARK    8  A    between atoms: C8_8  and  C9_9 
REMARK    9  A    between atoms: C9_9  and  O10_10 
ROOT
ATOM      1  N4  ZIN A   1      19.238  -1.337  11.532  0.00  0.00     0.094 N 
ENDROOT
BRANCH   1   2
ATOM      2  C3  ZIN A   1      18.194  -0.938  10.577  0.00  0.00     0.298 C 
BRANCH   2   3
ATOM      3  C2  ZIN A   1      18.697  -1.164   9.150  0.00  0.00     0.194 C 
BRANCH   3   4
ATOM      4  O1  ZIN A   1      20.126  -1.183   9.145  0.00  0.00    -0.399 OA
ATOM      5  H11 ZIN A   1      20.529  -0.738   9.902  0.00  0.00     0.209 HD
ENDBRANCH   3   4
ENDBRANCH   2   3
ENDBRANCH   1   2
BRANCH   1   6
ATOM      6  C5  ZIN A   1      19.449  -0.296  12.546  0.00  0.00     0.298 C 
BRANCH   6   7
ATOM      7  C6  ZIN A   1      20.630   0.585  12.135  0.00  0.00     0.194 C 
BRANCH   7   8
ATOM      8  O7  ZIN A   1      21.573  -0.196  11.399  0.00  0.00    -0.399 OA
ATOM      9  H20 ZIN A   1      21.263  -1.087  11.182  0.00  0.00     0.209 HD
ENDBRANCH   7   8
ENDBRANCH   6   7
ENDBRANCH   1   6
BRANCH   1  10
ATOM     10  C8  ZIN A   1      18.913  -2.625  12.158  0.00  0.00     0.298 C 
BRANCH  10  11
ATOM     11  C9  ZIN A   1      19.868  -3.701  11.638  0.00  0.00     0.194 C 
BRANCH  11  12
ATOM     12  O10 ZIN A   1      21.112  -3.098  11.276  0.00  0.00    -0.399 OA
ATOM     13  H25 ZIN A   1      21.790  -3.731  11.000  0.00  0.00     0.209 HD
ENDBRANCH  11  12
ENDBRANCH  10  11
ENDBRANCH   1  10
TORSDOF 9
ENDMDL
MODEL 2
REMARK VINA RESULT:      -3.6      2.170      3.081
REMARK  9 active torsions:
REMARK  status: ('A' for Active; 'I' for Inactive)
REMARK    1  A    between atoms: O1_1  and  C2_2 
REMARK    2  A    between atoms: C2_2  and  C3_3 
REMARK    3  A    between atoms: C3_3  and  N4_4 
REMARK    4  A    between atoms: N4_4  and  C5_5 
REMARK    5  A    between atoms: N4_4  and  C8_8 
REMARK    6  A    between atoms: C5_5  and  C6_6 
REMARK    7  A    between atoms: C6_6  and  O7_7 
REMARK    8  A    between atoms: C8_8  and  C9_9 
REMARK    9  A    between atoms: C9_9  and  O10_10 
ROOT
ATOM      1  N4  ZIN A   1      19.156   0.632  11.666  0.00  0.00     0.094 N 
ENDROOT
BRANCH   1   2
ATOM      2  C3  ZIN A   1      18.543   1.924  11.329  0.00  0.00     0.298 C 
BRANCH   2   3
ATOM      3  C2  ZIN A   1      19.636   2.982  11.177  0.00  0.00     0.194 C 
BRANCH   3   4
ATOM      4  O1  ZIN A   1      20.868   2.474  11.693  0.00  0.00    -0.399 OA
ATOM      5  H11 ZIN A   1      21.326   3.081  12.289  0.00  0.00     0.209 HD
ENDBRANCH   3   4
ENDBRANCH   2   3
ENDBRANCH   1   2
BRANCH   1   6
ATOM      6  C5  ZIN A   1      18.590   0.089  12.907  0.00  0.00     0.298 C 
BRANCH   6   7
ATOM      7  C6  ZIN A   1      19.656   0.102  14.004  0.00  0.00     0.194 C 
BRANCH   7   8
ATOM      8  O7  ZIN A   1      20.943   0.290  13.414  0.00  0.00    -0.399 OA
ATOM      9  H20 ZIN A   1      21.616   0.612  14.031  0.00  0.00     0.209 HD
ENDBRANCH   7   8
ENDBRANCH   6   7
ENDBRANCH   1   6
BRANCH   1  10
ATOM     10  C8  ZIN A   1      19.013  -0.322  10.559  0.00  0.00     0.298 C 
BRANCH  10  11
ATOM     11  C9  ZIN A   1      20.345  -0.446   9.817  0.00  0.00     0.194 C 
BRANCH  11  12
ATOM     12  O10 ZIN A   1      21.415  -0.488  10.763  0.00  0.00    -0.399 OA
ATOM     13  H25 ZIN A   1      21.322   0.143  11.490  0.00  0.00     0.209 HD
ENDBRANCH  11  12
ENDBRANCH  10  11
ENDBRANCH   1  10
TORSDOF 9
ENDMDL
MODEL 3
REMARK VINA RESULT:      -3.6      0.272      3.066
REMARK  9 active torsions:
REMARK  status: ('A' for Active; 'I' for Inactive)
REMARK    1  A    between atoms: O1_1  and  C2_2 
REMARK    2  A    between atoms: C2_2  and  C3_3 
REMARK    3  A    between atoms: C3_3  and  N4_4 
REMARK    4  A    between atoms: N4_4  and  C5_5 
REMARK    5  A    between atoms: N4_4  and  C8_8 
REMARK    6  A    between atoms: C5_5  and  C6_6 
REMARK    7  A    between atoms: C6_6  and  O7_7 
REMARK    8  A    between atoms: C8_8  and  C9_9 
REMARK    9  A    between atoms: C9_9  and  O10_10 
ROOT
ATOM      1  N4  ZIN A   1      19.252  -1.406  11.395  0.00  0.00     0.094 N 
ENDROOT
BRANCH   1   2
ATOM      2  C3  ZIN A   1      18.893  -2.638  12.111  0.00  0.00     0.298 C 
BRANCH   2   3
ATOM      3  C2  ZIN A   1      19.788  -3.783  11.634  0.00  0.00     0.194 C 
BRANCH   3   4
ATOM      4  O1  ZIN A   1      21.048  -3.259  11.211  0.00  0.00    -0.399 OA
ATOM      5  H11 ZIN A   1      21.589  -3.887  10.714  0.00  0.00     0.209 HD
ENDBRANCH   3   4
ENDBRANCH   2   3
ENDBRANCH   1   2
BRANCH   1   6
ATOM      6  C5  ZIN A   1      18.178  -0.998  10.480  0.00  0.00     0.298 C 
BRANCH   6   7
ATOM      7  C6  ZIN A   1      18.561  -1.366   9.046  0.00  0.00     0.194 C 
BRANCH   7   8
ATOM      8  O7  ZIN A   1      19.983  -1.463   8.943  0.00  0.00    -0.399 OA
ATOM      9  H20 ZIN A   1      20.313  -2.371   8.891  0.00  0.00     0.209 HD
ENDBRANCH   7   8
ENDBRANCH   6   7
ENDBRANCH   1   6
BRANCH   1  10
ATOM     10  C8  ZIN A   1      19.582  -0.327  12.336  0.00  0.00     0.298 C 
BRANCH  10  11
ATOM     11  C9  ZIN A   1      20.859   0.378  11.877  0.00  0.00     0.194 C 
BRANCH  11  12
ATOM     12  O10 ZIN A   1      21.620  -0.507  11.051  0.00  0.00    -0.399 OA
ATOM     13  H25 ZIN A   1      21.424  -1.443  11.193  0.00  0.00     0.209 HD
ENDBRANCH  11  12
ENDBRANCH  10  11
ENDBRANCH   1  10
TORSDOF 9
ENDMDL
MODEL 4
REMARK VINA RESULT:      -3.5      0.835      3.264
REMARK  9 active torsions:
REMARK  status: ('A' for Active; 'I' for Inactive)
REMARK    1  A    between atoms: O1_1  and  C2_2 
REMARK    2  A    between atoms: C2_2  and  C3_3 
REMARK    3  A    between atoms: C3_3  and  N4_4 
REMARK    4  A    between atoms: N4_4  and  C5_5 
REMARK    5  A    between atoms: N4_4  and  C8_8 
REMARK    6  A    between atoms: C5_5  and  C6_6 
REMARK    7  A    between atoms: C6_6  and  O7_7 
REMARK    8  A    between atoms: C8_8  and  C9_9 
REMARK    9  A    between atoms: C9_9  and  O10_10 
ROOT
ATOM      1  N4  ZIN A   1      19.331  -0.906  11.497  0.00  0.00     0.094 N 
ENDROOT
BRANCH   1   2
ATOM      2  C3  ZIN A   1      19.201   0.219  12.433  0.00  0.00     0.298 C 
BRANCH   2   3
ATOM      3  C2  ZIN A   1      20.529   0.433  13.160  0.00  0.00     0.194 C 
BRANCH   3   4
ATOM      4  O1  ZIN A   1      21.579   0.584  12.203  0.00  0.00    -0.399 OA
ATOM      5  H11 ZIN A   1      21.628  -0.133  11.556  0.00  0.00     0.209 HD
ENDBRANCH   3   4
ENDBRANCH   2   3
ENDBRANCH   1   2
BRANCH   1   6
ATOM      6  C5  ZIN A   1      18.863  -2.156  12.109  0.00  0.00     0.298 C 
BRANCH   6   7
ATOM      7  C6  ZIN A   1      19.703  -3.325  11.590  0.00  0.00     0.194 C 
BRANCH   7   8
ATOM      8  O7  ZIN A   1      21.041  -2.883  11.357  0.00  0.00    -0.399 OA
ATOM      9  H20 ZIN A   1      21.275  -2.812  10.421  0.00  0.00     0.209 HD
ENDBRANCH   7   8
ENDBRANCH   6   7
ENDBRANCH   1   6
BRANCH   1  10
ATOM     10  C8  ZIN A   1      18.617  -0.633  10.243  0.00  0.00     0.298 C 
BRANCH  10  11
ATOM     11  C9  ZIN A   1      19.616  -0.186   9.174  0.00  0.00     0.194 C 
BRANCH  11  12
ATOM     12  O10 ZIN A   1      20.946  -0.442   9.629  0.00  0.00    -0.399 OA
ATOM     13  H25 ZIN A   1      20.995  -0.764  10.539  0.00  0.00     0.209 HD
ENDBRANCH  11  12
ENDBRANCH  10  11
ENDBRANCH   1  10
TORSDOF 9
ENDMDL
MODEL 5
REMARK VINA RESULT:      -3.4      1.920      4.008
REMARK  9 active torsions:
REMARK  status: ('A' for Active; 'I' for Inactive)
REMARK    1  A    between atoms: O1_1  and  C2_2 
REMARK    2  A    between atoms: C2_2  and  C3_3 
REMARK    3  A    between atoms: C3_3  and  N4_4 
REMARK    4  A    between atoms: N4_4  and  C5_5 
REMARK    5  A    between atoms: N4_4  and  C8_8 
REMARK    6  A    between atoms: C5_5  and  C6_6 
REMARK    7  A    between atoms: C6_6  and  O7_7 
REMARK    8  A    between atoms: C8_8  and  C9_9 
REMARK    9  A    between atoms: C9_9  and  O10_10 
ROOT
ATOM      1  N4  ZIN A   1      19.044   0.302  11.233  0.00  0.00     0.094 N 
ENDROOT
BRANCH   1   2
ATOM      2  C3  ZIN A   1      19.289  -0.283  12.559  0.00  0.00     0.298 C 
BRANCH   2   3
ATOM      3  C2  ZIN A   1      20.501   0.396  13.199  0.00  0.00     0.194 C 
BRANCH   3   4
ATOM      4  O1  ZIN A   1      21.514   0.594  12.211  0.00  0.00    -0.399 OA
ATOM      5  H11 ZIN A   1      21.188   0.965  11.381  0.00  0.00     0.209 HD
ENDBRANCH   3   4
ENDBRANCH   2   3
ENDBRANCH   1   2
BRANCH   1   6
ATOM      6  C5  ZIN A   1      18.568  -0.717  10.289  0.00  0.00     0.298 C 
BRANCH   6   7
ATOM      7  C6  ZIN A   1      19.595  -0.897   9.170  0.00  0.00     0.194 C 
BRANCH   7   8
ATOM      8  O7  ZIN A   1      20.838  -0.313   9.566  0.00  0.00    -0.399 OA
ATOM      9  H20 ZIN A   1      20.963  -0.266  10.524  0.00  0.00     0.209 HD
ENDBRANCH   7   8
ENDBRANCH   6   7
ENDBRANCH   1   6
BRANCH   1  10
ATOM     10  C8  ZIN A   1      18.101   1.424  11.319  0.00  0.00     0.298 C 
BRANCH  10  11
ATOM     11  C9  ZIN A   1      18.616   2.590  10.473  0.00  0.00     0.194 C 
BRANCH  11  12
ATOM     12  O10 ZIN A   1      20.039   2.505  10.362  0.00  0.00    -0.399 OA
ATOM     13  H25 ZIN A   1      20.393   1.620  10.525  0.00  0.00     0.209 HD
ENDBRANCH  11  12
ENDBRANCH  10  11
ENDBRANCH   1  10
TORSDOF 9
ENDMDL
MODEL 6
REMARK VINA RESULT:      -3.4      1.491      3.437
REMARK  9 active torsions:
REMARK  status: ('A' for Active; 'I' for Inactive)
REMARK    1  A    between atoms: O1_1  and  C2_2 
REMARK    2  A    between atoms: C2_2  and  C3_3 
REMARK    3  A    between atoms: C3_3  and  N4_4 
REMARK    4  A    between atoms: N4_4  and  C5_5 
REMARK    5  A    between atoms: N4_4  and  C8_8 
REMARK    6  A    between atoms: C5_5  and  C6_6 
REMARK    7  A    between atoms: C6_6  and  O7_7 
REMARK    8  A    between atoms: C8_8  and  C9_9 
REMARK    9  A    between atoms: C9_9  and  O10_10 
ROOT
ATOM      1  N4  ZIN A   1      19.127  -2.002  11.129  0.00  0.00     0.094 N 
ENDROOT
BRANCH   1   2
ATOM      2  C3  ZIN A   1      18.124  -1.409  12.024  0.00  0.00     0.298 C 
BRANCH   2   3
ATOM      3  C2  ZIN A   1      18.650  -1.422  13.460  0.00  0.00     0.194 C 
BRANCH   3   4
ATOM      4  O1  ZIN A   1      20.079  -1.412  13.444  0.00  0.00    -0.399 OA
ATOM      5  H11 ZIN A   1      20.465  -0.547  13.253  0.00  0.00     0.209 HD
ENDBRANCH   3   4
ENDBRANCH   2   3
ENDBRANCH   1   2
BRANCH   1   6
ATOM      6  C5  ZIN A   1      18.799  -3.400  10.825  0.00  0.00     0.298 C 
BRANCH   6   7
ATOM      7  C6  ZIN A   1      19.984  -4.295  11.193  0.00  0.00     0.194 C 
BRANCH   7   8
ATOM      8  O7  ZIN A   1      21.074  -3.484  11.633  0.00  0.00    -0.399 OA
ATOM      9  H20 ZIN A   1      21.903  -3.969  11.753  0.00  0.00     0.209 HD
ENDBRANCH   7   8
ENDBRANCH   6   7
ENDBRANCH   1   6
BRANCH   1  10
ATOM     10  C8  ZIN A   1      19.267  -1.213   9.898  0.00  0.00     0.298 C 
BRANCH  10  11
ATOM     11  C9  ZIN A   1      20.322  -0.125  10.106  0.00  0.00     0.194 C 
BRANCH  11  12
ATOM     12  O10 ZIN A   1      21.438  -0.673  10.811  0.00  0.00    -0.399 OA
ATOM     13  H25 ZIN A   1      21.203  -1.374  11.434  0.00  0.00     0.209 HD
ENDBRANCH  11  12
ENDBRANCH  10  11
ENDBRANCH   1  10
TORSDOF 9
ENDMDL
MODEL 7
REMARK VINA RESULT:      -3.4      2.155      3.018
REMARK  9 active torsions:
REMARK  status: ('A' for Active; 'I' for Inactive)
REMARK    1  A    between atoms: O1_1  and  C2_2 
REMARK    2  A    between atoms: C2_2  and  C3_3 
REMARK    3  A    between atoms: C3_3  and  N4_4 
REMARK    4  A    between atoms: N4_4  and  C5_5 
REMARK    5  A    between atoms: N4_4  and  C8_8 
REMARK    6  A    between atoms: C5_5  and  C6_6 
REMARK    7  A    between atoms: C6_6  and  O7_7 
REMARK    8  A    between atoms: C8_8  and  C9_9 
REMARK    9  A    between atoms: C9_9  and  O10_10 
ROOT
ATOM      1  N4  ZIN A   1      19.349   1.158  11.250  0.00  0.00     0.094 N 
ENDROOT
BRANCH   1   2
ATOM      2  C3  ZIN A   1      18.679   0.198  10.363  0.00  0.00     0.298 C 
BRANCH   2   3
ATOM      3  C2  ZIN A   1      19.661  -0.906   9.970  0.00  0.00     0.194 C 
BRANCH   3   4
ATOM      4  O1  ZIN A   1      20.956  -0.339   9.759  0.00  0.00    -0.399 OA
ATOM      5  H11 ZIN A   1      20.958   0.624   9.688  0.00  0.00     0.209 HD
ENDBRANCH   3   4
ENDBRANCH   2   3
ENDBRANCH   1   2
BRANCH   1   6
ATOM      6  C5  ZIN A   1      19.060   2.539  10.847  0.00  0.00     0.298 C 
BRANCH   6   7
ATOM      7  C6  ZIN A   1      19.803   3.508  11.768  0.00  0.00     0.194 C 
BRANCH   7   8
ATOM      8  O7  ZIN A   1      21.211   3.297  11.644  0.00  0.00    -0.399 OA
ATOM      9  H20 ZIN A   1      21.523   3.249  10.729  0.00  0.00     0.209 HD
ENDBRANCH   7   8
ENDBRANCH   6   7
ENDBRANCH   1   6
BRANCH   1  10
ATOM     10  C8  ZIN A   1      18.976   0.928  12.652  0.00  0.00     0.298 C 
BRANCH  10  11
ATOM     11  C9  ZIN A   1      20.156   0.305  13.400  0.00  0.00     0.194 C 
BRANCH  11  12
ATOM     12  O10 ZIN A   1      21.353   0.494  12.642  0.00  0.00    -0.399 OA
ATOM     13  H25 ZIN A   1      21.532   1.417  12.414  0.00  0.00     0.209 HD
ENDBRANCH  11  12
ENDBRANCH  10  11
ENDBRANCH   1  10
TORSDOF 9
ENDMDL
MODEL 8
REMARK VINA RESULT:      -3.1      3.031      4.086
REMARK  9 active torsions:
REMARK  status: ('A' for Active; 'I' for Inactive)
REMARK    1  A    between atoms: O1_1  and  C2_2 
REMARK    2  A    between atoms: C2_2  and  C3_3 
REMARK    3  A    between atoms: C3_3  and  N4_4 
REMARK    4  A    between atoms: N4_4  and  C5_5 
REMARK    5  A    between atoms: N4_4  and  C8_8 
REMARK    6  A    between atoms: C5_5  and  C6_6 
REMARK    7  A    between atoms: C6_6  and  O7_7 
REMARK    8  A    between atoms: C8_8  and  C9_9 
REMARK    9  A    between atoms: C9_9  and  O10_10 
ROOT
ATOM      1  N4  ZIN A   1      19.362   1.605  12.907  0.00  0.00     0.094 N 
ENDROOT
BRANCH   1   2
ATOM      2  C3  ZIN A   1      19.286   0.251  12.342  0.00  0.00     0.298 C 
BRANCH   2   3
ATOM      3  C2  ZIN A   1      20.555  -0.037  11.538  0.00  0.00     0.194 C 
BRANCH   3   4
ATOM      4  O1  ZIN A   1      21.670   0.606  12.158  0.00  0.00    -0.399 OA
ATOM      5  H11 ZIN A   1      22.346  -0.003  12.481  0.00  0.00     0.209 HD
ENDBRANCH   3   4
ENDBRANCH   2   3
ENDBRANCH   1   2
BRANCH   1   6
ATOM      6  C5  ZIN A   1      18.826   2.598  11.967  0.00  0.00     0.298 C 
BRANCH   6   7
ATOM      7  C6  ZIN A   1      19.718   3.841  11.973  0.00  0.00     0.194 C 
BRANCH   7   8
ATOM      8  O7  ZIN A   1      21.069   3.458  11.713  0.00  0.00    -0.399 OA
ATOM      9  H20 ZIN A   1      21.434   2.837  12.358  0.00  0.00     0.209 HD
ENDBRANCH   7   8
ENDBRANCH   6   7
ENDBRANCH   1   6
BRANCH   1  10
ATOM     10  C8  ZIN A   1      18.670   1.676  14.200  0.00  0.00     0.298 C 
BRANCH  10  11
ATOM     11  C9  ZIN A   1      18.966   0.410  15.007  0.00  0.00     0.194 C 
BRANCH  11  12
ATOM     12  O10 ZIN A   1      17.764  -0.047  15.632  0.00  0.00    -0.399 OA
ATOM     13  H25 ZIN A   1      17.219  -0.613  15.068  0.00  0.00     0.209 HD
ENDBRANCH  11  12
ENDBRANCH  10  11
ENDBRANCH   1  10
TORSDOF 9
ENDMDL
MODEL 9
REMARK VINA RESULT:      -3.0      1.990      2.279
REMARK  9 active torsions:
REMARK  status: ('A' for Active; 'I' for Inactive)
REMARK    1  A    between atoms: O1_1  and  C2_2 
REMARK    2  A    between atoms: C2_2  and  C3_3 
REMARK    3  A    between atoms: C3_3  and  N4_4 
REMARK    4  A    between atoms: N4_4  and  C5_5 
REMARK    5  A    between atoms: N4_4  and  C8_8 
REMARK    6  A    between atoms: C5_5  and  C6_6 
REMARK    7  A    between atoms: C6_6  and  O7_7 
REMARK    8  A    between atoms: C8_8  and  C9_9 
REMARK    9  A    between atoms: C9_9  and  O10_10 
ROOT
ATOM      1  N4  ZIN A   1      18.764   0.645  11.125  0.00  0.00     0.094 N 
ENDROOT
BRANCH   1   2
ATOM      2  C3  ZIN A   1      18.769   1.486   9.921  0.00  0.00     0.298 C 
BRANCH   2   3
ATOM      3  C2  ZIN A   1      19.595   0.806   8.827  0.00  0.00     0.194 C 
BRANCH   3   4
ATOM      4  O1  ZIN A   1      20.512  -0.113   9.424  0.00  0.00    -0.399 OA
ATOM      5  H11 ZIN A   1      20.132  -0.981   9.613  0.00  0.00     0.209 HD
ENDBRANCH   3   4
ENDBRANCH   2   3
ENDBRANCH   1   2
BRANCH   1   6
ATOM      6  C5  ZIN A   1      19.349   1.358  12.267  0.00  0.00     0.298 C 
BRANCH   6   7
ATOM      7  C6  ZIN A   1      20.449   0.501  12.896  0.00  0.00     0.194 C 
BRANCH   7   8
ATOM      8  O7  ZIN A   1      21.642   0.611  12.118  0.00  0.00    -0.399 OA
ATOM      9  H20 ZIN A   1      22.214  -0.168  12.162  0.00  0.00     0.209 HD
ENDBRANCH   7   8
ENDBRANCH   6   7
ENDBRANCH   1   6
BRANCH   1  10
ATOM     10  C8  ZIN A   1      17.407   0.176  11.434  0.00  0.00     0.298 C 
BRANCH  10  11
ATOM     11  C9  ZIN A   1      17.417  -1.345  11.595  0.00  0.00     0.194 C 
BRANCH  11  12
ATOM     12  O10 ZIN A   1      18.577  -1.884  10.957  0.00  0.00    -0.399 OA
ATOM     13  H25 ZIN A   1      18.922  -1.334  10.240  0.00  0.00     0.209 HD
ENDBRANCH  11  12
ENDBRANCH  10  11
ENDBRANCH   1  10
TORSDOF 9
ENDMDL
