MODEL 1
REMARK VINA RESULT:      -8.5      0.000      0.000
REMARK  6 active torsions:
REMARK  status: ('A' for Active; 'I' for Inactive)
REMARK    1  A    between atoms: O2_2  and  C3_3 
REMARK    2  A    between atoms: C8_8  and  O9_9 
REMARK    3  A    between atoms: C13_13  and  C15_14 
REMARK    4  A    between atoms: C15_14  and  C16_15 
REMARK    5  A    between atoms: N19_18  and  C21_20 
REMARK    6  A    between atoms: C21_20  and  C22_21 
ROOT
ATOM      1  C15 ZIN A   1      18.315  -5.908  10.025  0.00  0.00     0.017 C 
ENDROOT
BRANCH   1   2
ATOM      2  C13 ZIN A   1      18.826  -6.200   8.612  0.00  0.00     0.065 A 
ATOM      3  C11 ZIN A   1      17.699  -6.089   7.615  0.00  0.00     0.164 A 
ATOM      4  C6  ZIN A   1      18.037  -5.028   6.657  0.00  0.00     0.019 A 
ATOM      5  O12 ZIN A   1      16.689  -6.761   7.606  0.00  0.00    -0.292 OA
ATOM      6  C5  ZIN A   1      19.277  -4.463   6.965  0.00  0.00    -0.041 A 
ATOM      7  C7  ZIN A   1      17.315  -4.549   5.549  0.00  0.00     0.055 A 
ATOM      8  C4  ZIN A   1      19.784  -3.444   6.185  0.00  0.00     0.047 A 
ATOM      9  C30 ZIN A   1      19.851  -5.140   8.186  0.00  0.00     0.052 A 
ATOM     10  C3  ZIN A   1      19.070  -2.973   5.093  0.00  0.00     0.102 A 
ATOM     11  C8  ZIN A   1      17.828  -3.527   4.780  0.00  0.00     0.102 A 
BRANCH  10  12
ATOM     12  O2  ZIN A   1      19.577  -1.970   4.331  0.00  0.00    -0.353 OA
ATOM     13  C1  ZIN A   1      19.395  -0.636   4.810  0.00  0.00     0.210 C 
ENDBRANCH  10  12
BRANCH  11  14
ATOM     14  O9  ZIN A   1      17.127  -3.065   3.710  0.00  0.00    -0.353 OA
ATOM     15  C10 ZIN A   1      16.259  -3.991   3.053  0.00  0.00     0.210 C 
ENDBRANCH  11  14
ENDBRANCH   1   2
BRANCH   1  16
ATOM     16  C16 ZIN A   1      18.571  -4.438  10.366  0.00  0.00    -0.011 C 
ATOM     17  C29 ZIN A   1      19.685  -4.341  11.412  0.00  0.00     0.032 C 
ATOM     18  C28 ZIN A   1      19.880  -2.876  11.807  0.00  0.00     0.235 C 
ATOM     19  N19 ZIN A   1      18.632  -2.347  12.369  0.00  0.00    -0.067 N 
ATOM     20  C18 ZIN A   1      17.576  -2.370  11.349  0.00  0.00     0.235 C 
ATOM     21  H20 ZIN A   1      18.351  -2.914  13.156  0.00  0.00     0.280 HD
ATOM     22  C17 ZIN A   1      17.292  -3.816  10.937  0.00  0.00     0.032 C 
BRANCH  19  23
ATOM     23  C21 ZIN A   1      18.846  -0.965  12.817  0.00  0.00     0.273 C 
BRANCH  23  24
ATOM     24  C22 ZIN A   1      18.563  -0.864  14.294  0.00  0.00    -0.033 A 
ATOM     25  C27 ZIN A   1      17.586   0.000  14.753  0.00  0.00     0.009 A 
ATOM     26  C26 ZIN A   1      17.325   0.090  16.108  0.00  0.00     0.001 A 
ATOM     27  C25 ZIN A   1      18.045  -0.678  17.003  0.00  0.00     0.000 A 
ATOM     28  C24 ZIN A   1      19.025  -1.538  16.545  0.00  0.00     0.001 A 
ATOM     29  C23 ZIN A   1      19.285  -1.631  15.190  0.00  0.00     0.009 A 
ENDBRANCH  23  24
ENDBRANCH  19  23
ENDBRANCH   1  16
TORSDOF 6
ENDMDL
MODEL 2
REMARK VINA RESULT:      -8.4      5.607      9.799
REMARK  6 active torsions:
REMARK  status: ('A' for Active; 'I' for Inactive)
REMARK    1  A    between atoms: O2_2  and  C3_3 
REMARK    2  A    between atoms: C8_8  and  O9_9 
REMARK    3  A    between atoms: C13_13  and  C15_14 
REMARK    4  A    between atoms: C15_14  and  C16_15 
REMARK    5  A    between atoms: N19_18  and  C21_20 
REMARK    6  A    between atoms: C21_20  and  C22_21 
ROOT
ATOM      1  C15 ZIN A   1      18.106   2.370  10.029  0.00  0.00     0.017 C 
ENDROOT
BRANCH   1   2
ATOM      2  C13 ZIN A   1      18.632   3.635  10.708  0.00  0.00     0.065 A 
ATOM      3  C11 ZIN A   1      17.529   4.656  10.840  0.00  0.00     0.164 A 
ATOM      4  C6  ZIN A   1      17.329   4.933  12.269  0.00  0.00     0.019 A 
ATOM      5  O12 ZIN A   1      16.914   5.161   9.925  0.00  0.00    -0.292 OA
ATOM      6  C5  ZIN A   1      18.209   4.176  13.045  0.00  0.00    -0.041 A 
ATOM      7  C7  ZIN A   1      16.424   5.804  12.902  0.00  0.00     0.055 A 
ATOM      8  C4  ZIN A   1      18.187   4.286  14.421  0.00  0.00     0.047 A 
ATOM      9  C30 ZIN A   1      19.073   3.325  12.146  0.00  0.00     0.052 A 
ATOM     10  C3  ZIN A   1      17.293   5.147  15.042  0.00  0.00     0.102 A 
ATOM     11  C8  ZIN A   1      16.406   5.903  14.275  0.00  0.00     0.102 A 
BRANCH  10  12
ATOM     12  O2  ZIN A   1      17.279   5.249  16.395  0.00  0.00    -0.353 OA
ATOM     13  C1  ZIN A   1      18.281   4.526  17.112  0.00  0.00     0.210 C 
ENDBRANCH  10  12
BRANCH  11  14
ATOM     14  O9  ZIN A   1      15.529   6.746  14.884  0.00  0.00    -0.353 OA
ATOM     15  C10 ZIN A   1      14.168   6.321  14.964  0.00  0.00     0.210 C 
ENDBRANCH  11  14
ENDBRANCH   1   2
BRANCH   1  16
ATOM     16  C16 ZIN A   1      18.393   1.157  10.916  0.00  0.00    -0.011 C 
ATOM     17  C29 ZIN A   1      19.446   0.269  10.246  0.00  0.00     0.032 C 
ATOM     18  C28 ZIN A   1      19.668  -0.980  11.100  0.00  0.00     0.235 C 
ATOM     19  N19 ZIN A   1      18.409  -1.724  11.225  0.00  0.00    -0.067 N 
ATOM     20  C18 ZIN A   1      17.415  -0.904  11.931  0.00  0.00     0.235 C 
ATOM     21  H20 ZIN A   1      18.062  -1.953  10.306  0.00  0.00     0.280 HD
ATOM     22  C17 ZIN A   1      17.105   0.348  11.109  0.00  0.00     0.032 C 
BRANCH  19  23
ATOM     23  C21 ZIN A   1      18.646  -2.960  11.980  0.00  0.00     0.273 C 
BRANCH  23  24
ATOM     24  C22 ZIN A   1      18.389  -4.150  11.091  0.00  0.00    -0.033 A 
ATOM     25  C27 ZIN A   1      19.366  -4.579  10.211  0.00  0.00     0.009 A 
ATOM     26  C26 ZIN A   1      19.131  -5.671   9.397  0.00  0.00     0.001 A 
ATOM     27  C25 ZIN A   1      17.918  -6.330   9.457  0.00  0.00     0.000 A 
ATOM     28  C24 ZIN A   1      16.938  -5.898  10.332  0.00  0.00     0.001 A 
ATOM     29  C23 ZIN A   1      17.174  -4.807  11.149  0.00  0.00     0.009 A 
ENDBRANCH  23  24
ENDBRANCH  19  23
ENDBRANCH   1  16
TORSDOF 6
ENDMDL
MODEL 3
REMARK VINA RESULT:      -8.1      4.278      6.167
REMARK  6 active torsions:
REMARK  status: ('A' for Active; 'I' for Inactive)
REMARK    1  A    between atoms: O2_2  and  C3_3 
REMARK    2  A    between atoms: C8_8  and  O9_9 
REMARK    3  A    between atoms: C13_13  and  C15_14 
REMARK    4  A    between atoms: C15_14  and  C16_15 
REMARK    5  A    between atoms: N19_18  and  C21_20 
REMARK    6  A    between atoms: C21_20  and  C22_21 
ROOT
ATOM      1  C15 ZIN A   1      17.752   2.788  10.368  0.00  0.00     0.017 C 
ENDROOT
BRANCH   1   2
ATOM      2  C13 ZIN A   1      19.027   2.292   9.683  0.00  0.00     0.065 A 
ATOM      3  C11 ZIN A   1      19.230   0.822   9.957  0.00  0.00     0.164 A 
ATOM      4  C6  ZIN A   1      19.215   0.109   8.672  0.00  0.00     0.019 A 
ATOM      5  O12 ZIN A   1      19.379   0.316  11.049  0.00  0.00    -0.292 OA
ATOM      6  C5  ZIN A   1      19.022   1.002   7.616  0.00  0.00    -0.041 A 
ATOM      7  C7  ZIN A   1      19.362  -1.263   8.399  0.00  0.00     0.055 A 
ATOM      8  C4  ZIN A   1      18.976   0.537   6.318  0.00  0.00     0.047 A 
ATOM      9  C30 ZIN A   1      18.892   2.405   8.158  0.00  0.00     0.052 A 
ATOM     10  C3  ZIN A   1      19.122  -0.818   6.052  0.00  0.00     0.102 A 
ATOM     11  C8  ZIN A   1      19.310  -1.718   7.100  0.00  0.00     0.102 A 
BRANCH  10  12
ATOM     12  O2  ZIN A   1      19.076  -1.266   4.771  0.00  0.00    -0.353 OA
ATOM     13  C1  ZIN A   1      17.782  -1.432   4.187  0.00  0.00     0.210 C 
ENDBRANCH  10  12
BRANCH  11  14
ATOM     14  O9  ZIN A   1      19.452  -3.046   6.839  0.00  0.00    -0.353 OA
ATOM     15  C10 ZIN A   1      19.131  -3.953   7.896  0.00  0.00     0.210 C 
ENDBRANCH  11  14
ENDBRANCH   1   2
BRANCH   1  16
ATOM     16  C16 ZIN A   1      18.119   3.798  11.457  0.00  0.00    -0.011 C 
ATOM     17  C29 ZIN A   1      19.634   3.779  11.685  0.00  0.00     0.032 C 
ATOM     18  C28 ZIN A   1      19.983   4.731  12.830  0.00  0.00     0.235 C 
ATOM     19  N19 ZIN A   1      19.298   4.301  14.055  0.00  0.00    -0.067 N 
ATOM     20  C18 ZIN A   1      17.844   4.385  13.868  0.00  0.00     0.235 C 
ATOM     21  H20 ZIN A   1      19.555   3.349  14.267  0.00  0.00     0.280 HD
ATOM     22  C17 ZIN A   1      17.412   3.420  12.763  0.00  0.00     0.032 C 
BRANCH  19  23
ATOM     23  C21 ZIN A   1      19.698   5.173  15.167  0.00  0.00     0.273 C 
BRANCH  23  24
ATOM     24  C22 ZIN A   1      19.157   4.618  16.461  0.00  0.00    -0.033 A 
ATOM     25  C27 ZIN A   1      18.259   5.357  17.208  0.00  0.00     0.009 A 
ATOM     26  C26 ZIN A   1      17.762   4.847  18.393  0.00  0.00     0.001 A 
ATOM     27  C25 ZIN A   1      18.168   3.601  18.834  0.00  0.00     0.000 A 
ATOM     28  C24 ZIN A   1      19.070   2.864  18.089  0.00  0.00     0.001 A 
ATOM     29  C23 ZIN A   1      19.566   3.373  16.903  0.00  0.00     0.009 A 
ENDBRANCH  23  24
ENDBRANCH  19  23
ENDBRANCH   1  16
TORSDOF 6
ENDMDL
MODEL 4
REMARK VINA RESULT:      -8.0      3.142      5.221
REMARK  6 active torsions:
REMARK  status: ('A' for Active; 'I' for Inactive)
REMARK    1  A    between atoms: O2_2  and  C3_3 
REMARK    2  A    between atoms: C8_8  and  O9_9 
REMARK    3  A    between atoms: C13_13  and  C15_14 
REMARK    4  A    between atoms: C15_14  and  C16_15 
REMARK    5  A    between atoms: N19_18  and  C21_20 
REMARK    6  A    between atoms: C21_20  and  C22_21 
ROOT
ATOM      1  C15 ZIN A   1      18.668  -3.192  12.207  0.00  0.00     0.017 C 
ENDROOT
BRANCH   1   2
ATOM      2  C13 ZIN A   1      17.675  -3.317  11.049  0.00  0.00     0.065 A 
ATOM      3  C11 ZIN A   1      18.410  -3.347   9.731  0.00  0.00     0.164 A 
ATOM      4  C6  ZIN A   1      18.116  -4.625   9.071  0.00  0.00     0.019 A 
ATOM      5  O12 ZIN A   1      19.119  -2.466   9.292  0.00  0.00    -0.292 OA
ATOM      6  C5  ZIN A   1      17.262  -5.401   9.858  0.00  0.00    -0.041 A 
ATOM      7  C7  ZIN A   1      18.559  -5.125   7.833  0.00  0.00     0.055 A 
ATOM      8  C4  ZIN A   1      16.859  -6.647   9.420  0.00  0.00     0.047 A 
ATOM      9  C30 ZIN A   1      16.929  -4.656  11.128  0.00  0.00     0.052 A 
ATOM     10  C3  ZIN A   1      17.298  -7.136   8.198  0.00  0.00     0.102 A 
ATOM     11  C8  ZIN A   1      18.156  -6.372   7.407  0.00  0.00     0.102 A 
BRANCH  10  12
ATOM     12  O2  ZIN A   1      16.896  -8.362   7.774  0.00  0.00    -0.353 OA
ATOM     13  C1  ZIN A   1      15.547  -8.482   7.319  0.00  0.00     0.210 C 
ENDBRANCH  10  12
BRANCH  11  14
ATOM     14  O9  ZIN A   1      18.586  -6.852   6.209  0.00  0.00    -0.353 OA
ATOM     15  C10 ZIN A   1      17.881  -6.419   5.044  0.00  0.00     0.210 C 
ENDBRANCH  11  14
ENDBRANCH   1   2
BRANCH   1  16
ATOM     16  C16 ZIN A   1      18.459  -1.852  12.915  0.00  0.00    -0.011 C 
ATOM     17  C29 ZIN A   1      17.334  -1.076  12.223  0.00  0.00     0.032 C 
ATOM     18  C28 ZIN A   1      17.185   0.294  12.886  0.00  0.00     0.235 C 
ATOM     19  N19 ZIN A   1      18.443   1.041  12.762  0.00  0.00    -0.067 N 
ATOM     20  C18 ZIN A   1      19.512   0.339  13.484  0.00  0.00     0.235 C 
ATOM     21  H20 ZIN A   1      18.692   1.119  11.787  0.00  0.00     0.280 HD
ATOM     22  C17 ZIN A   1      19.750  -1.030  12.844  0.00  0.00     0.032 C 
BRANCH  19  23
ATOM     23  C21 ZIN A   1      18.270   2.384  13.331  0.00  0.00     0.273 C 
BRANCH  23  24
ATOM     24  C22 ZIN A   1      17.931   3.357  12.231  0.00  0.00    -0.033 A 
ATOM     25  C27 ZIN A   1      17.161   4.471  12.507  0.00  0.00     0.009 A 
ATOM     26  C26 ZIN A   1      16.852   5.365  11.498  0.00  0.00     0.001 A 
ATOM     27  C25 ZIN A   1      17.307   5.140  10.213  0.00  0.00     0.000 A 
ATOM     28  C24 ZIN A   1      18.073   4.023   9.935  0.00  0.00     0.001 A 
ATOM     29  C23 ZIN A   1      18.384   3.131  10.944  0.00  0.00     0.009 A 
ENDBRANCH  23  24
ENDBRANCH  19  23
ENDBRANCH   1  16
TORSDOF 6
ENDMDL
MODEL 5
REMARK VINA RESULT:      -7.9      3.219      4.593
REMARK  6 active torsions:
REMARK  status: ('A' for Active; 'I' for Inactive)
REMARK    1  A    between atoms: O2_2  and  C3_3 
REMARK    2  A    between atoms: C8_8  and  O9_9 
REMARK    3  A    between atoms: C13_13  and  C15_14 
REMARK    4  A    between atoms: C15_14  and  C16_15 
REMARK    5  A    between atoms: N19_18  and  C21_20 
REMARK    6  A    between atoms: C21_20  and  C22_21 
ROOT
ATOM      1  C15 ZIN A   1      19.300  -3.265  12.101  0.00  0.00     0.017 C 
ENDROOT
BRANCH   1   2
ATOM      2  C13 ZIN A   1      19.255  -4.626  11.404  0.00  0.00     0.065 A 
ATOM      3  C11 ZIN A   1      17.838  -5.146  11.363  0.00  0.00     0.164 A 
ATOM      4  C6  ZIN A   1      17.449  -5.306   9.956  0.00  0.00     0.019 A 
ATOM      5  O12 ZIN A   1      17.143  -5.391  12.326  0.00  0.00    -0.292 OA
ATOM      6  C5  ZIN A   1      18.495  -4.932   9.109  0.00  0.00    -0.041 A 
ATOM      7  C7  ZIN A   1      16.238  -5.756   9.400  0.00  0.00     0.055 A 
ATOM      8  C4  ZIN A   1      18.336  -5.005   7.741  0.00  0.00     0.047 A 
ATOM      9  C30 ZIN A   1      19.679  -4.488   9.935  0.00  0.00     0.052 A 
ATOM     10  C3  ZIN A   1      17.140  -5.451   7.196  0.00  0.00     0.102 A 
ATOM     11  C8  ZIN A   1      16.087  -5.821   8.032  0.00  0.00     0.102 A 
BRANCH  10  12
ATOM     12  O2  ZIN A   1      16.993  -5.521   5.848  0.00  0.00    -0.353 OA
ATOM     13  C1  ZIN A   1      17.763  -4.608   5.062  0.00  0.00     0.210 C 
ENDBRANCH  10  12
BRANCH  11  14
ATOM     14  O9  ZIN A   1      14.915  -6.257   7.498  0.00  0.00    -0.353 OA
ATOM     15  C10 ZIN A   1      14.623  -7.650   7.621  0.00  0.00     0.210 C 
ENDBRANCH  11  14
ENDBRANCH   1   2
BRANCH   1  16
ATOM     16  C16 ZIN A   1      19.114  -2.155  11.065  0.00  0.00    -0.011 C 
ATOM     17  C29 ZIN A   1      20.149  -1.051  11.305  0.00  0.00     0.032 C 
ATOM     18  C28 ZIN A   1      19.905   0.091  10.317  0.00  0.00     0.235 C 
ATOM     19  N19 ZIN A   1      18.556   0.634  10.513  0.00  0.00    -0.067 N 
ATOM     20  C18 ZIN A   1      17.555  -0.400  10.215  0.00  0.00     0.235 C 
ATOM     21  H20 ZIN A   1      18.451   0.936  11.470  0.00  0.00     0.280 HD
ATOM     22  C17 ZIN A   1      17.708  -1.561  11.199  0.00  0.00     0.032 C 
BRANCH  19  23
ATOM     23  C21 ZIN A   1      18.356   1.779   9.616  0.00  0.00     0.273 C 
BRANCH  23  24
ATOM     24  C22 ZIN A   1      17.953   2.986  10.423  0.00  0.00    -0.033 A 
ATOM     25  C27 ZIN A   1      17.785   4.210   9.800  0.00  0.00     0.009 A 
ATOM     26  C26 ZIN A   1      17.413   5.316  10.540  0.00  0.00     0.001 A 
ATOM     27  C25 ZIN A   1      17.216   5.202  11.904  0.00  0.00     0.000 A 
ATOM     28  C24 ZIN A   1      17.388   3.980  12.527  0.00  0.00     0.001 A 
ATOM     29  C23 ZIN A   1      17.757   2.872  11.787  0.00  0.00     0.009 A 
ENDBRANCH  23  24
ENDBRANCH  19  23
ENDBRANCH   1  16
TORSDOF 6
ENDMDL
MODEL 6
REMARK VINA RESULT:      -7.8      2.909      6.481
REMARK  6 active torsions:
REMARK  status: ('A' for Active; 'I' for Inactive)
REMARK    1  A    between atoms: O2_2  and  C3_3 
REMARK    2  A    between atoms: C8_8  and  O9_9 
REMARK    3  A    between atoms: C13_13  and  C15_14 
REMARK    4  A    between atoms: C15_14  and  C16_15 
REMARK    5  A    between atoms: N19_18  and  C21_20 
REMARK    6  A    between atoms: C21_20  and  C22_21 
ROOT
ATOM      1  C15 ZIN A   1      19.685  -1.072  12.232  0.00  0.00     0.017 C 
ENDROOT
BRANCH   1   2
ATOM      2  C13 ZIN A   1      19.289  -2.542  12.389  0.00  0.00     0.065 A 
ATOM      3  C11 ZIN A   1      17.912  -2.777  11.817  0.00  0.00     0.164 A 
ATOM      4  C6  ZIN A   1      18.030  -3.753  10.725  0.00  0.00     0.019 A 
ATOM      5  O12 ZIN A   1      16.886  -2.252  12.194  0.00  0.00    -0.292 OA
ATOM      6  C5  ZIN A   1      19.359  -4.151  10.560  0.00  0.00    -0.041 A 
ATOM      7  C7  ZIN A   1      17.038  -4.294   9.887  0.00  0.00     0.055 A 
ATOM      8  C4  ZIN A   1      19.690  -5.066   9.583  0.00  0.00     0.047 A 
ATOM      9  C30 ZIN A   1      20.228  -3.438  11.568  0.00  0.00     0.052 A 
ATOM     10  C3  ZIN A   1      18.709  -5.599   8.758  0.00  0.00     0.102 A 
ATOM     11  C8  ZIN A   1      17.380  -5.203   8.910  0.00  0.00     0.102 A 
BRANCH  10  12
ATOM     12  O2  ZIN A   1      19.044  -6.500   7.799  0.00  0.00    -0.353 OA
ATOM     13  C1  ZIN A   1      19.237  -5.998   6.475  0.00  0.00     0.210 C 
ENDBRANCH  10  12
BRANCH  11  14
ATOM     14  O9  ZIN A   1      16.419  -5.725   8.101  0.00  0.00    -0.353 OA
ATOM     15  C10 ZIN A   1      15.088  -5.770   8.620  0.00  0.00     0.210 C 
ENDBRANCH  11  14
ENDBRANCH   1   2
BRANCH   1  16
ATOM     16  C16 ZIN A   1      19.143  -0.537  10.905  0.00  0.00    -0.011 C 
ATOM     17  C29 ZIN A   1      20.270  -0.503   9.868  0.00  0.00     0.032 C 
ATOM     18  C28 ZIN A   1      19.741   0.108   8.569  0.00  0.00     0.235 C 
ATOM     19  N19 ZIN A   1      19.267   1.473   8.823  0.00  0.00    -0.067 N 
ATOM     20  C18 ZIN A   1      18.138   1.442   9.762  0.00  0.00     0.235 C 
ATOM     21  H20 ZIN A   1      20.017   2.021   9.218  0.00  0.00     0.280 HD
ATOM     22  C17 ZIN A   1      18.606   0.883  11.107  0.00  0.00     0.032 C 
BRANCH  19  23
ATOM     23  C21 ZIN A   1      18.832   2.081   7.558  0.00  0.00     0.273 C 
BRANCH  23  24
ATOM     24  C22 ZIN A   1      18.571   0.997   6.543  0.00  0.00    -0.033 A 
ATOM     25  C27 ZIN A   1      19.500   0.743   5.550  0.00  0.00     0.009 A 
ATOM     26  C26 ZIN A   1      19.262  -0.252   4.621  0.00  0.00     0.001 A 
ATOM     27  C25 ZIN A   1      18.093  -0.988   4.679  0.00  0.00     0.000 A 
ATOM     28  C24 ZIN A   1      17.162  -0.730   5.669  0.00  0.00     0.001 A 
ATOM     29  C23 ZIN A   1      17.401   0.263   6.600  0.00  0.00     0.009 A 
ENDBRANCH  23  24
ENDBRANCH  19  23
ENDBRANCH   1  16
TORSDOF 6
ENDMDL
MODEL 7
REMARK VINA RESULT:      -7.7      4.313      5.955
REMARK  6 active torsions:
REMARK  status: ('A' for Active; 'I' for Inactive)
REMARK    1  A    between atoms: O2_2  and  C3_3 
REMARK    2  A    between atoms: C8_8  and  O9_9 
REMARK    3  A    between atoms: C13_13  and  C15_14 
REMARK    4  A    between atoms: C15_14  and  C16_15 
REMARK    5  A    between atoms: N19_18  and  C21_20 
REMARK    6  A    between atoms: C21_20  and  C22_21 
ROOT
ATOM      1  C15 ZIN A   1      17.986   1.503   9.377  0.00  0.00     0.017 C 
ENDROOT
BRANCH   1   2
ATOM      2  C13 ZIN A   1      19.144   1.009   8.507  0.00  0.00     0.065 A 
ATOM      3  C11 ZIN A   1      19.510  -0.407   8.879  0.00  0.00     0.164 A 
ATOM      4  C6  ZIN A   1      19.310  -1.258   7.698  0.00  0.00     0.019 A 
ATOM      5  O12 ZIN A   1      19.902  -0.779   9.965  0.00  0.00    -0.292 OA
ATOM      6  C5  ZIN A   1      18.850  -0.501   6.618  0.00  0.00    -0.041 A 
ATOM      7  C7  ZIN A   1      19.511  -2.641   7.537  0.00  0.00     0.055 A 
ATOM      8  C4  ZIN A   1      18.597  -1.109   5.406  0.00  0.00     0.047 A 
ATOM      9  C30 ZIN A   1      18.715   0.944   7.035  0.00  0.00     0.052 A 
ATOM     10  C3  ZIN A   1      18.797  -2.474   5.250  0.00  0.00     0.102 A 
ATOM     11  C8  ZIN A   1      19.250  -3.240   6.324  0.00  0.00     0.102 A 
BRANCH  10  12
ATOM     12  O2  ZIN A   1      18.546  -3.064   4.053  0.00  0.00    -0.353 OA
ATOM     13  C1  ZIN A   1      17.183  -3.375   3.756  0.00  0.00     0.210 C 
ENDBRANCH  10  12
BRANCH  11  14
ATOM     14  O9  ZIN A   1      19.445  -4.577   6.171  0.00  0.00    -0.353 OA
ATOM     15  C10 ZIN A   1      19.811  -5.318   7.337  0.00  0.00     0.210 C 
ENDBRANCH  11  14
ENDBRANCH   1   2
BRANCH   1  16
ATOM     16  C16 ZIN A   1      18.520   2.468  10.437  0.00  0.00    -0.011 C 
ATOM     17  C29 ZIN A   1      18.251   1.897  11.833  0.00  0.00     0.032 C 
ATOM     18  C28 ZIN A   1      18.715   2.903  12.887  0.00  0.00     0.235 C 
ATOM     19  N19 ZIN A   1      17.981   4.163  12.724  0.00  0.00    -0.067 N 
ATOM     20  C18 ZIN A   1      18.290   4.754  11.415  0.00  0.00     0.235 C 
ATOM     21  H20 ZIN A   1      16.989   3.984  12.785  0.00  0.00     0.280 HD
ATOM     22  C17 ZIN A   1      17.809   3.819  10.303  0.00  0.00     0.032 C 
BRANCH  19  23
ATOM     23  C21 ZIN A   1      18.375   5.098  13.785  0.00  0.00     0.273 C 
BRANCH  23  24
ATOM     24  C22 ZIN A   1      17.153   5.525  14.558  0.00  0.00    -0.033 A 
ATOM     25  C27 ZIN A   1      17.239   5.747  15.920  0.00  0.00     0.009 A 
ATOM     26  C26 ZIN A   1      16.119   6.141  16.628  0.00  0.00     0.001 A 
ATOM     27  C25 ZIN A   1      14.912   6.306  15.977  0.00  0.00     0.000 A 
ATOM     28  C24 ZIN A   1      14.824   6.079  14.615  0.00  0.00     0.001 A 
ATOM     29  C23 ZIN A   1      15.944   5.688  13.906  0.00  0.00     0.009 A 
ENDBRANCH  23  24
ENDBRANCH  19  23
ENDBRANCH   1  16
TORSDOF 6
ENDMDL
MODEL 8
REMARK VINA RESULT:      -7.4      6.037     10.973
REMARK  6 active torsions:
REMARK  status: ('A' for Active; 'I' for Inactive)
REMARK    1  A    between atoms: O2_2  and  C3_3 
REMARK    2  A    between atoms: C8_8  and  O9_9 
REMARK    3  A    between atoms: C13_13  and  C15_14 
REMARK    4  A    between atoms: C15_14  and  C16_15 
REMARK    5  A    between atoms: N19_18  and  C21_20 
REMARK    6  A    between atoms: C21_20  and  C22_21 
ROOT
ATOM      1  C15 ZIN A   1      17.595   1.051  14.456  0.00  0.00     0.017 C 
ENDROOT
BRANCH   1   2
ATOM      2  C13 ZIN A   1      18.566   2.232  14.405  0.00  0.00     0.065 A 
ATOM      3  C11 ZIN A   1      17.894   3.435  13.790  0.00  0.00     0.164 A 
ATOM      4  C6  ZIN A   1      17.886   4.515  14.786  0.00  0.00     0.019 A 
ATOM      5  O12 ZIN A   1      17.441   3.500  12.667  0.00  0.00    -0.292 OA
ATOM      6  C5  ZIN A   1      18.493   4.096  15.972  0.00  0.00    -0.041 A 
ATOM      7  C7  ZIN A   1      17.377   5.823  14.695  0.00  0.00     0.055 A 
ATOM      8  C4  ZIN A   1      18.589   4.962  17.042  0.00  0.00     0.047 A 
ATOM      9  C30 ZIN A   1      18.954   2.666  15.825  0.00  0.00     0.052 A 
ATOM     10  C3  ZIN A   1      18.087   6.252  16.948  0.00  0.00     0.102 A 
ATOM     11  C8  ZIN A   1      17.474   6.678  15.770  0.00  0.00     0.102 A 
BRANCH  10  12
ATOM     12  O2  ZIN A   1      18.187   7.098  18.006  0.00  0.00    -0.353 OA
ATOM     13  C1  ZIN A   1      17.465   6.747  19.188  0.00  0.00     0.210 C 
ENDBRANCH  10  12
BRANCH  11  14
ATOM     14  O9  ZIN A   1      16.980   7.943  15.679  0.00  0.00    -0.353 OA
ATOM     15  C10 ZIN A   1      17.670   8.849  14.816  0.00  0.00     0.210 C 
ENDBRANCH  11  14
ENDBRANCH   1   2
BRANCH   1  16
ATOM     16  C16 ZIN A   1      18.006   0.007  13.416  0.00  0.00    -0.011 C 
ATOM     17  C29 ZIN A   1      19.414   0.323  12.901  0.00  0.00     0.032 C 
ATOM     18  C28 ZIN A   1      19.786  -0.676  11.805  0.00  0.00     0.235 C 
ATOM     19  N19 ZIN A   1      18.826  -0.575  10.698  0.00  0.00    -0.067 N 
ATOM     20  C18 ZIN A   1      17.484  -0.945  11.168  0.00  0.00     0.235 C 
ATOM     21  H20 ZIN A   1      18.811   0.374  10.354  0.00  0.00     0.280 HD
ATOM     22  C17 ZIN A   1      17.024   0.044  12.240  0.00  0.00     0.032 C 
BRANCH  19  23
ATOM     23  C21 ZIN A   1      19.232  -1.481   9.616  0.00  0.00     0.273 C 
BRANCH  23  24
ATOM     24  C22 ZIN A   1      19.123  -0.765   8.294  0.00  0.00    -0.033 A 
ATOM     25  C27 ZIN A   1      19.170   0.616   8.250  0.00  0.00     0.009 A 
ATOM     26  C26 ZIN A   1      19.073   1.272   7.037  0.00  0.00     0.001 A 
ATOM     27  C25 ZIN A   1      18.922   0.548   5.870  0.00  0.00     0.000 A 
ATOM     28  C24 ZIN A   1      18.870  -0.833   5.914  0.00  0.00     0.001 A 
ATOM     29  C23 ZIN A   1      18.970  -1.489   7.126  0.00  0.00     0.009 A 
ENDBRANCH  23  24
ENDBRANCH  19  23
ENDBRANCH   1  16
TORSDOF 6
ENDMDL
MODEL 9
REMARK VINA RESULT:      -7.4      4.345      9.513
REMARK  6 active torsions:
REMARK  status: ('A' for Active; 'I' for Inactive)
REMARK    1  A    between atoms: O2_2  and  C3_3 
REMARK    2  A    between atoms: C8_8  and  O9_9 
REMARK    3  A    between atoms: C13_13  and  C15_14 
REMARK    4  A    between atoms: C15_14  and  C16_15 
REMARK    5  A    between atoms: N19_18  and  C21_20 
REMARK    6  A    between atoms: C21_20  and  C22_21 
ROOT
ATOM      1  C15 ZIN A   1      17.813  -2.040  13.097  0.00  0.00     0.017 C 
ENDROOT
BRANCH   1   2
ATOM      2  C13 ZIN A   1      19.044  -1.162  13.334  0.00  0.00     0.065 A 
ATOM      3  C11 ZIN A   1      18.832   0.208  12.738  0.00  0.00     0.164 A 
ATOM      4  C6  ZIN A   1      18.907   1.196  13.823  0.00  0.00     0.019 A 
ATOM      5  O12 ZIN A   1      18.635   0.451  11.567  0.00  0.00    -0.292 OA
ATOM      6  C5  ZIN A   1      19.147   0.567  15.047  0.00  0.00    -0.041 A 
ATOM      7  C7  ZIN A   1      18.775   2.596  13.779  0.00  0.00     0.055 A 
ATOM      8  C4  ZIN A   1      19.252   1.317  16.200  0.00  0.00     0.047 A 
ATOM      9  C30 ZIN A   1      19.248  -0.925  14.837  0.00  0.00     0.052 A 
ATOM     10  C3  ZIN A   1      19.123   2.698  16.153  0.00  0.00     0.102 A 
ATOM     11  C8  ZIN A   1      18.877   3.335  14.937  0.00  0.00     0.102 A 
BRANCH  10  12
ATOM     12  O2  ZIN A   1      19.229   3.429  17.293  0.00  0.00    -0.353 OA
ATOM     13  C1  ZIN A   1      18.200   3.260  18.270  0.00  0.00     0.210 C 
ENDBRANCH  10  12
BRANCH  11  14
ATOM     14  O9  ZIN A   1      18.749   4.689  14.892  0.00  0.00    -0.353 OA
ATOM     15  C10 ZIN A   1      19.640   5.397  14.027  0.00  0.00     0.210 C 
ENDBRANCH  11  14
ENDBRANCH   1   2
BRANCH   1  16
ATOM     16  C16 ZIN A   1      18.165  -3.157  12.113  0.00  0.00    -0.011 C 
ATOM     17  C29 ZIN A   1      19.670  -3.135  11.829  0.00  0.00     0.032 C 
ATOM     18  C28 ZIN A   1      20.002  -4.201  10.784  0.00  0.00     0.235 C 
ATOM     19  N19 ZIN A   1      19.266  -3.923   9.545  0.00  0.00    -0.067 N 
ATOM     20  C18 ZIN A   1      17.821  -4.013   9.793  0.00  0.00     0.235 C 
ATOM     21  H20 ZIN A   1      19.493  -2.995   9.220  0.00  0.00     0.280 HD
ATOM     22  C17 ZIN A   1      17.405  -2.939  10.800  0.00  0.00     0.032 C 
BRANCH  19  23
ATOM     23  C21 ZIN A   1      19.647  -4.905   8.521  0.00  0.00     0.273 C 
BRANCH  23  24
ATOM     24  C22 ZIN A   1      19.242  -4.396   7.161  0.00  0.00    -0.033 A 
ATOM     25  C27 ZIN A   1      18.497  -5.198   6.317  0.00  0.00     0.009 A 
ATOM     26  C26 ZIN A   1      18.124  -4.731   5.071  0.00  0.00     0.001 A 
ATOM     27  C25 ZIN A   1      18.502  -3.465   4.665  0.00  0.00     0.000 A 
ATOM     28  C24 ZIN A   1      19.252  -2.665   5.507  0.00  0.00     0.001 A 
ATOM     29  C23 ZIN A   1      19.623  -3.131   6.755  0.00  0.00     0.009 A 
ENDBRANCH  23  24
ENDBRANCH  19  23
ENDBRANCH   1  16
TORSDOF 6
ENDMDL
