MODEL 1
REMARK VINA RESULT:      -7.1      0.000      0.000
REMARK  9 active torsions:
REMARK  status: ('A' for Active; 'I' for Inactive)
REMARK    1  A    between atoms: C2_2  and  C3_3 
REMARK    2  A    between atoms: C3_3  and  C4_4 
REMARK    3  A    between atoms: C4_4  and  N5_5 
REMARK    4  A    between atoms: N5_5  and  C6_6 
REMARK    5  A    between atoms: C8_8  and  C9_9 
REMARK    6  A    between atoms: C13_13  and  S14_14 
REMARK    7  A    between atoms: S14_14  and  N15_15 
REMARK    8  A    between atoms: C18_18  and  O19_19 
REMARK    9  A    between atoms: O19_19  and  C20_20 
ROOT
ATOM      1  C6  <0> d   1      19.326   1.379  10.548  0.00  0.00     0.065 A 
ATOM      2  C7  <0> d   1      18.684   2.519  10.100  0.00  0.00     0.050 A 
ATOM      3  C8  <0> d   1      17.916   3.279  10.989  0.00  0.00     0.044 A 
ATOM      4  C12 <0> d   1      17.801   2.883  12.324  0.00  0.00     0.046 A 
ATOM      5  C13 <0> d   1      18.444   1.746  12.764  0.00  0.00     0.116 A 
ATOM      6  C18 <0> d   1      19.201   0.986  11.883  0.00  0.00     0.125 A 
ENDROOT
BRANCH   6   7
ATOM      7  O19 <0> d   1      19.831  -0.133  12.322  0.00  0.00    -0.307 OA
BRANCH   7   8
ATOM      8  C20 <0> d   1      19.321  -1.337  11.954  0.00  0.00     0.076 A 
ATOM      9  C25 <0> d   1      20.172  -2.403  11.701  0.00  0.00     0.037 A 
ATOM     10  C24 <0> d   1      19.651  -3.629  11.332  0.00  0.00     0.003 A 
ATOM     11  C23 <0> d   1      18.284  -3.790  11.204  0.00  0.00     0.000 A 
ATOM     12  C22 <0> d   1      17.434  -2.727  11.450  0.00  0.00     0.003 A 
ATOM     13  C21 <0> d   1      17.949  -1.501  11.825  0.00  0.00     0.037 A 
ENDBRANCH   7   8
ENDBRANCH   6   7
BRANCH   1  14
ATOM     14  N5  <0> d   1      20.095   0.615   9.663  0.00  0.00    -0.388 N 
ATOM     15  H35 <0> d   1      20.978   0.311   9.926  0.00  0.00     0.159 HD
BRANCH  14  16
ATOM     16  C4  <0> d   1      19.568   0.276   8.339  0.00  0.00     0.120 C 
BRANCH  16  17
ATOM     17  C3  <0> d   1      19.394  -1.241   8.234  0.00  0.00     0.019 C 
BRANCH  17  18
ATOM     18  C2  <0> d   1      17.935  -1.565   7.904  0.00  0.00    -0.003 C 
ATOM     19  C1  <0> d   1      17.111  -0.276   7.915  0.00  0.00     0.005 C 
ENDBRANCH  17  18
ENDBRANCH  16  17
ENDBRANCH  14  16
ENDBRANCH   1  14
BRANCH   5  20
ATOM     20  S14 <0> d   1      18.298   1.250  14.449  0.00  0.00     0.259 S 
ATOM     21  O16 <0> d   1      17.262   0.279  14.494  0.00  0.00    -0.201 OA
ATOM     22  O17 <0> d   1      19.619   0.999  14.909  0.00  0.00    -0.201 OA
BRANCH  20  23
ATOM     23  N15 <0> d   1      17.747   2.560  15.299  0.00  0.00    -0.324 N 
ATOM     24  H38 <0> d   1      16.803   2.644  15.505  0.00  0.00     0.169 HD
ATOM     25  H39 <0> d   1      18.370   3.244  15.591  0.00  0.00     0.169 HD
ENDBRANCH  20  23
ENDBRANCH   5  20
BRANCH   3  26
ATOM     26  C9  <0> d   1      17.230   4.493  10.518  0.00  0.00     0.209 C 
ATOM     27  O10 <0> d   1      16.195   4.859  11.058  0.00  0.00    -0.644 OA
ATOM     28  O11 <0> d   1      17.694   5.137   9.587  0.00  0.00    -0.644 OA
ENDBRANCH   3  26
TORSDOF 9
ENDMDL
MODEL 2
REMARK VINA RESULT:      -6.9      2.124      4.591
REMARK  9 active torsions:
REMARK  status: ('A' for Active; 'I' for Inactive)
REMARK    1  A    between atoms: C2_2  and  C3_3 
REMARK    2  A    between atoms: C3_3  and  C4_4 
REMARK    3  A    between atoms: C4_4  and  N5_5 
REMARK    4  A    between atoms: N5_5  and  C6_6 
REMARK    5  A    between atoms: C8_8  and  C9_9 
REMARK    6  A    between atoms: C13_13  and  S14_14 
REMARK    7  A    between atoms: S14_14  and  N15_15 
REMARK    8  A    between atoms: C18_18  and  O19_19 
REMARK    9  A    between atoms: O19_19  and  C20_20 
ROOT
ATOM      1  C6  <0> d   1      19.641  -0.761  12.616  0.00  0.00     0.065 A 
ATOM      2  C7  <0> d   1      19.297  -1.330  13.829  0.00  0.00     0.050 A 
ATOM      3  C8  <0> d   1      18.668  -0.554  14.808  0.00  0.00     0.044 A 
ATOM      4  C12 <0> d   1      18.390   0.793  14.556  0.00  0.00     0.046 A 
ATOM      5  C13 <0> d   1      18.734   1.354  13.345  0.00  0.00     0.116 A 
ATOM      6  C18 <0> d   1      19.365   0.587  12.375  0.00  0.00     0.125 A 
ENDROOT
BRANCH   6   7
ATOM      7  O19 <0> d   1      19.702   1.145  11.184  0.00  0.00    -0.307 OA
BRANCH   7   8
ATOM      8  C20 <0> d   1      19.028   0.740  10.077  0.00  0.00     0.076 A 
ATOM      9  C25 <0> d   1      19.668   0.709   8.846  0.00  0.00     0.037 A 
ATOM     10  C24 <0> d   1      18.982   0.291   7.722  0.00  0.00     0.003 A 
ATOM     11  C23 <0> d   1      17.655  -0.085   7.821  0.00  0.00     0.000 A 
ATOM     12  C22 <0> d   1      17.013  -0.049   9.045  0.00  0.00     0.003 A 
ATOM     13  C21 <0> d   1      17.696   0.362  10.173  0.00  0.00     0.037 A 
ENDBRANCH   7   8
ENDBRANCH   6   7
BRANCH   1  14
ATOM     14  N5  <0> d   1      20.270  -1.534  11.634  0.00  0.00    -0.388 N 
ATOM     15  H35 <0> d   1      21.004  -1.161  11.120  0.00  0.00     0.159 HD
BRANCH  14  16
ATOM     16  C4  <0> d   1      19.822  -2.905  11.382  0.00  0.00     0.120 C 
BRANCH  16  17
ATOM     17  C3  <0> d   1      19.219  -2.994   9.978  0.00  0.00     0.019 C 
BRANCH  17  18
ATOM     18  C2  <0> d   1      17.772  -3.483  10.075  0.00  0.00    -0.003 C 
ATOM     19  C1  <0> d   1      17.397  -3.679  11.545  0.00  0.00     0.005 C 
ENDBRANCH  17  18
ENDBRANCH  16  17
ENDBRANCH  14  16
ENDBRANCH   1  14
BRANCH   5  20
ATOM     20  S14 <0> d   1      18.381   3.051  13.031  0.00  0.00     0.259 S 
ATOM     21  O16 <0> d   1      17.356   3.073  12.047  0.00  0.00    -0.201 OA
ATOM     22  O17 <0> d   1      18.253   3.676  14.301  0.00  0.00    -0.201 OA
BRANCH  20  23
ATOM     23  N15 <0> d   1      19.725   3.707  12.320  0.00  0.00    -0.324 N 
ATOM     24  H38 <0> d   1      20.609   3.472  12.643  0.00  0.00     0.169 HD
ATOM     25  H39 <0> d   1      19.629   4.328  11.581  0.00  0.00     0.169 HD
ENDBRANCH  20  23
ENDBRANCH   5  20
BRANCH   3  26
ATOM     26  C9  <0> d   1      18.300  -1.154  16.101  0.00  0.00     0.209 C 
ATOM     27  O10 <0> d   1      19.132  -1.780  16.743  0.00  0.00    -0.644 OA
ATOM     28  O11 <0> d   1      17.163  -1.027  16.534  0.00  0.00    -0.644 OA
ENDBRANCH   3  26
TORSDOF 9
ENDMDL
MODEL 3
REMARK VINA RESULT:      -6.9      3.066      5.178
REMARK  9 active torsions:
REMARK  status: ('A' for Active; 'I' for Inactive)
REMARK    1  A    between atoms: C2_2  and  C3_3 
REMARK    2  A    between atoms: C3_3  and  C4_4 
REMARK    3  A    between atoms: C4_4  and  N5_5 
REMARK    4  A    between atoms: N5_5  and  C6_6 
REMARK    5  A    between atoms: C8_8  and  C9_9 
REMARK    6  A    between atoms: C13_13  and  S14_14 
REMARK    7  A    between atoms: S14_14  and  N15_15 
REMARK    8  A    between atoms: C18_18  and  O19_19 
REMARK    9  A    between atoms: O19_19  and  C20_20 
ROOT
ATOM      1  C6  <0> d   1      19.439   0.361   9.568  0.00  0.00     0.065 A 
ATOM      2  C7  <0> d   1      18.898   0.334   8.295  0.00  0.00     0.050 A 
ATOM      3  C8  <0> d   1      18.489  -0.883   7.739  0.00  0.00     0.044 A 
ATOM      4  C12 <0> d   1      18.630  -2.065   8.473  0.00  0.00     0.046 A 
ATOM      5  C13 <0> d   1      19.168  -2.031   9.741  0.00  0.00     0.116 A 
ATOM      6  C18 <0> d   1      19.581  -0.825  10.291  0.00  0.00     0.125 A 
ENDROOT
BRANCH   6   7
ATOM      7  O19 <0> d   1      20.111  -0.797  11.541  0.00  0.00    -0.307 OA
BRANCH   7   8
ATOM      8  C20 <0> d   1      19.381  -0.218  12.529  0.00  0.00     0.076 A 
ATOM      9  C25 <0> d   1      20.007   0.578  13.479  0.00  0.00     0.037 A 
ATOM     10  C24 <0> d   1      19.263   1.171  14.480  0.00  0.00     0.003 A 
ATOM     11  C23 <0> d   1      17.898   0.963  14.544  0.00  0.00     0.000 A 
ATOM     12  C22 <0> d   1      17.272   0.165  13.603  0.00  0.00     0.003 A 
ATOM     13  C21 <0> d   1      18.011  -0.425  12.596  0.00  0.00     0.037 A 
ENDBRANCH   7   8
ENDBRANCH   6   7
BRANCH   1  14
ATOM     14  N5  <0> d   1      19.849   1.576  10.128  0.00  0.00    -0.388 N 
ATOM     15  H35 <0> d   1      20.682   1.626  10.622  0.00  0.00     0.159 HD
BRANCH  14  16
ATOM     16  C4  <0> d   1      19.020   2.774   9.968  0.00  0.00     0.120 C 
BRANCH  16  17
ATOM     17  C3  <0> d   1      17.745   2.626  10.801  0.00  0.00     0.019 C 
BRANCH  17  18
ATOM     18  C2  <0> d   1      17.593   3.840  11.720  0.00  0.00    -0.003 C 
ATOM     19  C1  <0> d   1      18.957   4.211  12.306  0.00  0.00     0.005 C 
ENDBRANCH  17  18
ENDBRANCH  16  17
ENDBRANCH  14  16
ENDBRANCH   1  14
BRANCH   5  20
ATOM     20  S14 <0> d   1      19.341  -3.522  10.663  0.00  0.00     0.259 S 
ATOM     21  O16 <0> d   1      18.329  -3.499  11.659  0.00  0.00    -0.201 OA
ATOM     22  O17 <0> d   1      19.471  -4.570   9.710  0.00  0.00    -0.201 OA
BRANCH  20  23
ATOM     23  N15 <0> d   1      20.789  -3.437  11.464  0.00  0.00    -0.324 N 
ATOM     24  H38 <0> d   1      21.365  -2.667  11.345  0.00  0.00     0.169 HD
ATOM     25  H39 <0> d   1      21.059  -4.159  12.053  0.00  0.00     0.169 HD
ENDBRANCH  20  23
ENDBRANCH   5  20
BRANCH   3  26
ATOM     26  C9  <0> d   1      17.914  -0.919   6.385  0.00  0.00     0.209 C 
ATOM     27  O10 <0> d   1      18.101  -1.892   5.667  0.00  0.00    -0.644 OA
ATOM     28  O11 <0> d   1      17.251   0.024   5.976  0.00  0.00    -0.644 OA
ENDBRANCH   3  26
TORSDOF 9
ENDMDL
MODEL 4
REMARK VINA RESULT:      -6.8      2.679      4.376
REMARK  9 active torsions:
REMARK  status: ('A' for Active; 'I' for Inactive)
REMARK    1  A    between atoms: C2_2  and  C3_3 
REMARK    2  A    between atoms: C3_3  and  C4_4 
REMARK    3  A    between atoms: C4_4  and  N5_5 
REMARK    4  A    between atoms: N5_5  and  C6_6 
REMARK    5  A    between atoms: C8_8  and  C9_9 
REMARK    6  A    between atoms: C13_13  and  S14_14 
REMARK    7  A    between atoms: S14_14  and  N15_15 
REMARK    8  A    between atoms: C18_18  and  O19_19 
REMARK    9  A    between atoms: O19_19  and  C20_20 
ROOT
ATOM      1  C6  <0> d   1      19.855   0.908  11.519  0.00  0.00     0.065 A 
ATOM      2  C7  <0> d   1      19.417   2.200  11.747  0.00  0.00     0.050 A 
ATOM      3  C8  <0> d   1      18.701   2.878  10.754  0.00  0.00     0.044 A 
ATOM      4  C12 <0> d   1      18.433   2.246   9.536  0.00  0.00     0.046 A 
ATOM      5  C13 <0> d   1      18.872   0.958   9.315  0.00  0.00     0.116 A 
ATOM      6  C18 <0> d   1      19.588   0.287  10.297  0.00  0.00     0.125 A 
ENDROOT
BRANCH   6   7
ATOM      7  O19 <0> d   1      20.017  -0.981  10.074  0.00  0.00    -0.307 OA
BRANCH   7   8
ATOM      8  C20 <0> d   1      19.341  -1.997  10.670  0.00  0.00     0.076 A 
ATOM      9  C25 <0> d   1      20.020  -3.135  11.083  0.00  0.00     0.037 A 
ATOM     10  C24 <0> d   1      19.331  -4.165  11.695  0.00  0.00     0.003 A 
ATOM     11  C23 <0> d   1      17.966  -4.068  11.885  0.00  0.00     0.000 A 
ATOM     12  C22 <0> d   1      17.286  -2.938  11.469  0.00  0.00     0.003 A 
ATOM     13  C21 <0> d   1      17.970  -1.902  10.862  0.00  0.00     0.037 A 
ENDBRANCH   7   8
ENDBRANCH   6   7
BRANCH   1  14
ATOM     14  N5  <0> d   1      20.570   0.227  12.510  0.00  0.00    -0.388 N 
ATOM     15  H35 <0> d   1      21.409  -0.209  12.290  0.00  0.00     0.159 HD
BRANCH  14  16
ATOM     16  C4  <0> d   1      20.054   0.171  13.879  0.00  0.00     0.120 C 
BRANCH  16  17
ATOM     17  C3  <0> d   1      19.689  -1.273  14.228  0.00  0.00     0.019 C 
BRANCH  17  18
ATOM     18  C2  <0> d   1      18.239  -1.329  14.714  0.00  0.00    -0.003 C 
ATOM     19  C1  <0> d   1      18.215  -1.366  16.244  0.00  0.00     0.005 C 
ENDBRANCH  17  18
ENDBRANCH  16  17
ENDBRANCH  14  16
ENDBRANCH   1  14
BRANCH   5  20
ATOM     20  S14 <0> d   1      18.530   0.165   7.779  0.00  0.00     0.259 S 
ATOM     21  O16 <0> d   1      19.547  -0.810   7.596  0.00  0.00    -0.201 OA
ATOM     22  O17 <0> d   1      17.144  -0.150   7.790  0.00  0.00    -0.201 OA
BRANCH  20  23
ATOM     23  N15 <0> d   1      18.744   1.294   6.587  0.00  0.00    -0.324 N 
ATOM     24  H38 <0> d   1      18.092   2.001   6.465  0.00  0.00     0.169 HD
ATOM     25  H39 <0> d   1      19.523   1.247   6.010  0.00  0.00     0.169 HD
ENDBRANCH  20  23
ENDBRANCH   5  20
BRANCH   3  26
ATOM     26  C9  <0> d   1      18.233   4.253  10.990  0.00  0.00     0.209 C 
ATOM     27  O10 <0> d   1      18.381   4.769  12.090  0.00  0.00    -0.644 OA
ATOM     28  O11 <0> d   1      17.696   4.880  10.089  0.00  0.00    -0.644 OA
ENDBRANCH   3  26
TORSDOF 9
ENDMDL
MODEL 5
REMARK VINA RESULT:      -6.8      2.852      4.304
REMARK  9 active torsions:
REMARK  status: ('A' for Active; 'I' for Inactive)
REMARK    1  A    between atoms: C2_2  and  C3_3 
REMARK    2  A    between atoms: C3_3  and  C4_4 
REMARK    3  A    between atoms: C4_4  and  N5_5 
REMARK    4  A    between atoms: N5_5  and  C6_6 
REMARK    5  A    between atoms: C8_8  and  C9_9 
REMARK    6  A    between atoms: C13_13  and  S14_14 
REMARK    7  A    between atoms: S14_14  and  N15_15 
REMARK    8  A    between atoms: C18_18  and  O19_19 
REMARK    9  A    between atoms: O19_19  and  C20_20 
ROOT
ATOM      1  C6  <0> d   1      18.243   3.309  13.938  0.00  0.00     0.065 A 
ATOM      2  C7  <0> d   1      18.922   4.469  14.266  0.00  0.00     0.050 A 
ATOM      3  C8  <0> d   1      19.600   4.556  15.487  0.00  0.00     0.044 A 
ATOM      4  C12 <0> d   1      19.587   3.471  16.369  0.00  0.00     0.046 A 
ATOM      5  C13 <0> d   1      18.909   2.319  16.036  0.00  0.00     0.116 A 
ATOM      6  C18 <0> d   1      18.230   2.233  14.828  0.00  0.00     0.125 A 
ENDROOT
BRANCH   6   7
ATOM      7  O19 <0> d   1      17.564   1.094  14.505  0.00  0.00    -0.307 OA
BRANCH   7   8
ATOM      8  C20 <0> d   1      18.001   0.383  13.434  0.00  0.00     0.076 A 
ATOM      9  C25 <0> d   1      19.359   0.311  13.155  0.00  0.00     0.037 A 
ATOM     10  C24 <0> d   1      19.801  -0.418  12.068  0.00  0.00     0.003 A 
ATOM     11  C23 <0> d   1      18.893  -1.067  11.252  0.00  0.00     0.000 A 
ATOM     12  C22 <0> d   1      17.539  -0.991  11.524  0.00  0.00     0.003 A 
ATOM     13  C21 <0> d   1      17.091  -0.269  12.613  0.00  0.00     0.037 A 
ENDBRANCH   7   8
ENDBRANCH   6   7
BRANCH   1  14
ATOM     14  N5  <0> d   1      17.564   3.217  12.718  0.00  0.00    -0.388 N 
ATOM     15  H35 <0> d   1      17.197   2.367  12.430  0.00  0.00     0.159 HD
BRANCH  14  16
ATOM     16  C4  <0> d   1      17.405   4.406  11.876  0.00  0.00     0.120 C 
BRANCH  16  17
ATOM     17  C3  <0> d   1      17.747   4.053  10.427  0.00  0.00     0.019 C 
BRANCH  17  18
ATOM     18  C2  <0> d   1      17.890   2.535  10.292  0.00  0.00    -0.003 C 
ATOM     19  C1  <0> d   1      19.001   2.214   9.290  0.00  0.00     0.005 C 
ENDBRANCH  17  18
ENDBRANCH  16  17
ENDBRANCH  14  16
ENDBRANCH   1  14
BRANCH   5  20
ATOM     20  S14 <0> d   1      18.897   0.953  17.149  0.00  0.00     0.259 S 
ATOM     21  O16 <0> d   1      19.321  -0.178  16.403  0.00  0.00    -0.201 OA
ATOM     22  O17 <0> d   1      19.551   1.394  18.332  0.00  0.00    -0.201 OA
BRANCH  20  23
ATOM     23  N15 <0> d   1      17.318   0.675  17.565  0.00  0.00    -0.324 N 
ATOM     24  H38 <0> d   1      16.610   0.854  16.928  0.00  0.00     0.169 HD
ATOM     25  H39 <0> d   1      17.102   0.332  18.446  0.00  0.00     0.169 HD
ENDBRANCH  20  23
ENDBRANCH   5  20
BRANCH   3  26
ATOM     26  C9  <0> d   1      20.323   5.787  15.842  0.00  0.00     0.209 C 
ATOM     27  O10 <0> d   1      21.506   5.906  15.554  0.00  0.00    -0.644 OA
ATOM     28  O11 <0> d   1      19.743   6.692  16.425  0.00  0.00    -0.644 OA
ENDBRANCH   3  26
TORSDOF 9
ENDMDL
MODEL 6
REMARK VINA RESULT:      -6.7      3.495      5.665
REMARK  9 active torsions:
REMARK  status: ('A' for Active; 'I' for Inactive)
REMARK    1  A    between atoms: C2_2  and  C3_3 
REMARK    2  A    between atoms: C3_3  and  C4_4 
REMARK    3  A    between atoms: C4_4  and  N5_5 
REMARK    4  A    between atoms: N5_5  and  C6_6 
REMARK    5  A    between atoms: C8_8  and  C9_9 
REMARK    6  A    between atoms: C13_13  and  S14_14 
REMARK    7  A    between atoms: S14_14  and  N15_15 
REMARK    8  A    between atoms: C18_18  and  O19_19 
REMARK    9  A    between atoms: O19_19  and  C20_20 
ROOT
ATOM      1  C6  <0> d   1      18.152   0.093   8.653  0.00  0.00     0.065 A 
ATOM      2  C7  <0> d   1      18.558   0.230   7.337  0.00  0.00     0.050 A 
ATOM      3  C8  <0> d   1      18.969  -0.897   6.616  0.00  0.00     0.044 A 
ATOM      4  C12 <0> d   1      18.968  -2.154   7.229  0.00  0.00     0.046 A 
ATOM      5  C13 <0> d   1      18.562  -2.282   8.539  0.00  0.00     0.116 A 
ATOM      6  C18 <0> d   1      18.160  -1.165   9.258  0.00  0.00     0.125 A 
ENDROOT
BRANCH   6   7
ATOM      7  O19 <0> d   1      17.761  -1.298  10.549  0.00  0.00    -0.307 OA
BRANCH   7   8
ATOM      8  C20 <0> d   1      18.504  -0.692  11.511  0.00  0.00     0.076 A 
ATOM      9  C25 <0> d   1      17.892  -0.202  12.656  0.00  0.00     0.037 A 
ATOM     10  C24 <0> d   1      18.651   0.409  13.636  0.00  0.00     0.003 A 
ATOM     11  C23 <0> d   1      20.018   0.541  13.472  0.00  0.00     0.000 A 
ATOM     12  C22 <0> d   1      20.629   0.059  12.329  0.00  0.00     0.003 A 
ATOM     13  C21 <0> d   1      19.876  -0.558  11.348  0.00  0.00     0.037 A 
ENDBRANCH   7   8
ENDBRANCH   6   7
BRANCH   1  14
ATOM     14  N5  <0> d   1      17.739   1.217   9.377  0.00  0.00    -0.388 N 
ATOM     15  H35 <0> d   1      16.938   1.176   9.922  0.00  0.00     0.159 HD
BRANCH  14  16
ATOM     16  C4  <0> d   1      18.518   2.456   9.315  0.00  0.00     0.120 C 
BRANCH  16  17
ATOM     17  C3  <0> d   1      18.812   2.946  10.734  0.00  0.00     0.019 C 
BRANCH  17  18
ATOM     18  C2  <0> d   1      17.594   3.699  11.275  0.00  0.00    -0.003 C 
ATOM     19  C1  <0> d   1      17.313   4.916  10.392  0.00  0.00     0.005 C 
ENDBRANCH  17  18
ENDBRANCH  16  17
ENDBRANCH  14  16
ENDBRANCH   1  14
BRANCH   5  20
ATOM     20  S14 <0> d   1      18.560  -3.868   9.307  0.00  0.00     0.259 S 
ATOM     21  O16 <0> d   1      18.478  -4.823   8.259  0.00  0.00    -0.201 OA
ATOM     22  O17 <0> d   1      19.613  -3.852  10.263  0.00  0.00    -0.201 OA
BRANCH  20  23
ATOM     23  N15 <0> d   1      17.150  -3.994  10.167  0.00  0.00    -0.324 N 
ATOM     24  H38 <0> d   1      16.407  -3.404   9.969  0.00  0.00     0.169 HD
ATOM     25  H39 <0> d   1      17.068  -4.660  10.868  0.00  0.00     0.169 HD
ENDBRANCH  20  23
ENDBRANCH   5  20
BRANCH   3  26
ATOM     26  C9  <0> d   1      19.403  -0.758   5.217  0.00  0.00     0.209 C 
ATOM     27  O10 <0> d   1      19.787  -1.740   4.596  0.00  0.00    -0.644 OA
ATOM     28  O11 <0> d   1      19.381   0.337   4.674  0.00  0.00    -0.644 OA
ENDBRANCH   3  26
TORSDOF 9
ENDMDL
MODEL 7
REMARK VINA RESULT:      -6.7      2.691      4.579
REMARK  9 active torsions:
REMARK  status: ('A' for Active; 'I' for Inactive)
REMARK    1  A    between atoms: C2_2  and  C3_3 
REMARK    2  A    between atoms: C3_3  and  C4_4 
REMARK    3  A    between atoms: C4_4  and  N5_5 
REMARK    4  A    between atoms: N5_5  and  C6_6 
REMARK    5  A    between atoms: C8_8  and  C9_9 
REMARK    6  A    between atoms: C13_13  and  S14_14 
REMARK    7  A    between atoms: S14_14  and  N15_15 
REMARK    8  A    between atoms: C18_18  and  O19_19 
REMARK    9  A    between atoms: O19_19  and  C20_20 
ROOT
ATOM      1  C6  <0> d   1      19.673  -0.761  10.304  0.00  0.00     0.065 A 
ATOM      2  C7  <0> d   1      19.233  -1.175   9.060  0.00  0.00     0.050 A 
ATOM      3  C8  <0> d   1      18.501  -0.297   8.253  0.00  0.00     0.044 A 
ATOM      4  C12 <0> d   1      18.219   0.995   8.709  0.00  0.00     0.046 A 
ATOM      5  C13 <0> d   1      18.661   1.401   9.949  0.00  0.00     0.116 A 
ATOM      6  C18 <0> d   1      19.381   0.529  10.754  0.00  0.00     0.125 A 
ENDROOT
BRANCH   6   7
ATOM      7  O19 <0> d   1      19.814   0.935  11.974  0.00  0.00    -0.307 OA
BRANCH   7   8
ATOM      8  C20 <0> d   1      19.212   0.407  13.072  0.00  0.00     0.076 A 
ATOM      9  C25 <0> d   1      17.830   0.443  13.189  0.00  0.00     0.037 A 
ATOM     10  C24 <0> d   1      17.219  -0.099  14.304  0.00  0.00     0.003 A 
ATOM     11  C23 <0> d   1      17.983  -0.667  15.306  0.00  0.00     0.000 A 
ATOM     12  C22 <0> d   1      19.361  -0.698  15.194  0.00  0.00     0.003 A 
ATOM     13  C21 <0> d   1      19.978  -0.163  14.079  0.00  0.00     0.037 A 
ENDBRANCH   7   8
ENDBRANCH   6   7
BRANCH   1  14
ATOM     14  N5  <0> d   1      20.405  -1.636  11.114  0.00  0.00    -0.388 N 
ATOM     15  H35 <0> d   1      21.203  -1.324  11.568  0.00  0.00     0.159 HD
BRANCH  14  16
ATOM     16  C4  <0> d   1      19.967  -3.024  11.277  0.00  0.00     0.120 C 
BRANCH  16  17
ATOM     17  C3  <0> d   1      18.770  -3.071  12.230  0.00  0.00     0.019 C 
BRANCH  17  18
ATOM     18  C2  <0> d   1      17.551  -3.627  11.490  0.00  0.00    -0.003 C 
ATOM     19  C1  <0> d   1      17.344  -5.093  11.876  0.00  0.00     0.005 C 
ENDBRANCH  17  18
ENDBRANCH  16  17
ENDBRANCH  14  16
ENDBRANCH   1  14
BRANCH   5  20
ATOM     20  S14 <0> d   1      18.305   3.030  10.519  0.00  0.00     0.259 S 
ATOM     21  O16 <0> d   1      18.278   3.862   9.368  0.00  0.00    -0.201 OA
ATOM     22  O17 <0> d   1      17.209   2.910  11.417  0.00  0.00    -0.201 OA
BRANCH  20  23
ATOM     23  N15 <0> d   1      19.600   3.526  11.424  0.00  0.00    -0.324 N 
ATOM     24  H38 <0> d   1      19.492   4.233  12.079  0.00  0.00     0.169 HD
ATOM     25  H39 <0> d   1      20.467   3.109  11.299  0.00  0.00     0.169 HD
ENDBRANCH  20  23
ENDBRANCH   5  20
BRANCH   3  26
ATOM     26  C9  <0> d   1      18.029  -0.732   6.929  0.00  0.00     0.209 C 
ATOM     27  O10 <0> d   1      17.203  -0.061   6.324  0.00  0.00    -0.644 OA
ATOM     28  O11 <0> d   1      18.460  -1.763   6.433  0.00  0.00    -0.644 OA
ENDBRANCH   3  26
TORSDOF 9
ENDMDL
MODEL 8
REMARK VINA RESULT:      -6.6      3.274      6.694
REMARK  9 active torsions:
REMARK  status: ('A' for Active; 'I' for Inactive)
REMARK    1  A    between atoms: C2_2  and  C3_3 
REMARK    2  A    between atoms: C3_3  and  C4_4 
REMARK    3  A    between atoms: C4_4  and  N5_5 
REMARK    4  A    between atoms: N5_5  and  C6_6 
REMARK    5  A    between atoms: C8_8  and  C9_9 
REMARK    6  A    between atoms: C13_13  and  S14_14 
REMARK    7  A    between atoms: S14_14  and  N15_15 
REMARK    8  A    between atoms: C18_18  and  O19_19 
REMARK    9  A    between atoms: O19_19  and  C20_20 
ROOT
ATOM      1  C6  <0> d   1      19.140  -1.704  12.005  0.00  0.00     0.065 A 
ATOM      2  C7  <0> d   1      18.487  -2.891  12.283  0.00  0.00     0.050 A 
ATOM      3  C8  <0> d   1      17.750  -3.530  11.281  0.00  0.00     0.044 A 
ATOM      4  C12 <0> d   1      17.677  -2.967  10.003  0.00  0.00     0.046 A 
ATOM      5  C13 <0> d   1      18.331  -1.785   9.732  0.00  0.00     0.116 A 
ATOM      6  C18 <0> d   1      19.057  -1.145  10.728  0.00  0.00     0.125 A 
ENDROOT
BRANCH   6   7
ATOM      7  O19 <0> d   1      19.699   0.020  10.455  0.00  0.00    -0.307 OA
BRANCH   7   8
ATOM      8  C20 <0> d   1      19.008   1.179  10.612  0.00  0.00     0.076 A 
ATOM      9  C25 <0> d   1      18.145   1.333  11.687  0.00  0.00     0.037 A 
ATOM     10  C24 <0> d   1      17.447   2.515  11.847  0.00  0.00     0.003 A 
ATOM     11  C23 <0> d   1      17.601   3.540  10.933  0.00  0.00     0.000 A 
ATOM     12  C22 <0> d   1      18.456   3.387   9.856  0.00  0.00     0.003 A 
ATOM     13  C21 <0> d   1      19.160   2.210   9.694  0.00  0.00     0.037 A 
ENDBRANCH   7   8
ENDBRANCH   6   7
BRANCH   1  14
ATOM     14  N5  <0> d   1      19.879  -1.061  13.004  0.00  0.00    -0.388 N 
ATOM     15  H35 <0> d   1      20.597  -0.456  12.763  0.00  0.00     0.159 HD
BRANCH  14  16
ATOM     16  C4  <0> d   1      19.566  -1.300  14.415  0.00  0.00     0.120 C 
BRANCH  16  17
ATOM     17  C3  <0> d   1      19.129   0.012  15.070  0.00  0.00     0.019 C 
BRANCH  17  18
ATOM     18  C2  <0> d   1      17.615  -0.010  15.295  0.00  0.00    -0.003 C 
ATOM     19  C1  <0> d   1      17.304  -0.746  16.601  0.00  0.00     0.005 C 
ENDBRANCH  17  18
ENDBRANCH  16  17
ENDBRANCH  14  16
ENDBRANCH   1  14
BRANCH   5  20
ATOM     20  S14 <0> d   1      18.238  -1.078   8.121  0.00  0.00     0.259 S 
ATOM     21  O16 <0> d   1      17.166  -0.147   8.151  0.00  0.00    -0.201 OA
ATOM     22  O17 <0> d   1      19.567  -0.723   7.761  0.00  0.00    -0.201 OA
BRANCH  20  23
ATOM     23  N15 <0> d   1      17.780  -2.285   7.083  0.00  0.00    -0.324 N 
ATOM     24  H38 <0> d   1      18.363  -3.045   6.935  0.00  0.00     0.169 HD
ATOM     25  H39 <0> d   1      16.928  -2.230   6.623  0.00  0.00     0.169 HD
ENDBRANCH  20  23
ENDBRANCH   5  20
BRANCH   3  26
ATOM     26  C9  <0> d   1      17.052  -4.793  11.570  0.00  0.00     0.209 C 
ATOM     27  O10 <0> d   1      17.326  -5.426  12.581  0.00  0.00    -0.644 OA
ATOM     28  O11 <0> d   1      16.198  -5.211  10.801  0.00  0.00    -0.644 OA
ENDBRANCH   3  26
TORSDOF 9
ENDMDL
MODEL 9
REMARK VINA RESULT:      -6.6      2.740      5.397
REMARK  9 active torsions:
REMARK  status: ('A' for Active; 'I' for Inactive)
REMARK    1  A    between atoms: C2_2  and  C3_3 
REMARK    2  A    between atoms: C3_3  and  C4_4 
REMARK    3  A    between atoms: C4_4  and  N5_5 
REMARK    4  A    between atoms: N5_5  and  C6_6 
REMARK    5  A    between atoms: C8_8  and  C9_9 
REMARK    6  A    between atoms: C13_13  and  S14_14 
REMARK    7  A    between atoms: S14_14  and  N15_15 
REMARK    8  A    between atoms: C18_18  and  O19_19 
REMARK    9  A    between atoms: O19_19  and  C20_20 
ROOT
ATOM      1  C6  <0> d   1      19.455   0.146  11.550  0.00  0.00     0.065 A 
ATOM      2  C7  <0> d   1      19.028   0.319  12.853  0.00  0.00     0.050 A 
ATOM      3  C8  <0> d   1      18.464  -0.756  13.549  0.00  0.00     0.044 A 
ATOM      4  C12 <0> d   1      18.334  -1.999  12.922  0.00  0.00     0.046 A 
ATOM      5  C13 <0> d   1      18.763  -2.165  11.623  0.00  0.00     0.116 A 
ATOM      6  C18 <0> d   1      19.317  -1.097  10.929  0.00  0.00     0.125 A 
ENDROOT
BRANCH   6   7
ATOM      7  O19 <0> d   1      19.737  -1.266   9.649  0.00  0.00    -0.307 OA
BRANCH   7   8
ATOM      8  C20 <0> d   1      19.042  -0.642   8.663  0.00  0.00     0.076 A 
ATOM      9  C25 <0> d   1      17.674  -0.842   8.545  0.00  0.00     0.037 A 
ATOM     10  C24 <0> d   1      16.968  -0.202   7.544  0.00  0.00     0.003 A 
ATOM     11  C23 <0> d   1      17.624   0.629   6.655  0.00  0.00     0.000 A 
ATOM     12  C22 <0> d   1      18.989   0.825   6.767  0.00  0.00     0.003 A 
ATOM     13  C21 <0> d   1      19.699   0.192   7.769  0.00  0.00     0.037 A 
ENDBRANCH   7   8
ENDBRANCH   6   7
BRANCH   1  14
ATOM     14  N5  <0> d   1      20.021   1.219  10.851  0.00  0.00    -0.388 N 
ATOM     15  H35 <0> d   1      20.754   1.064  10.235  0.00  0.00     0.159 HD
BRANCH  14  16
ATOM     16  C4  <0> d   1      19.504   2.575  11.048  0.00  0.00     0.120 C 
BRANCH  16  17
ATOM     17  C3  <0> d   1      18.530   2.919   9.919  0.00  0.00     0.019 C 
BRANCH  17  18
ATOM     18  C2  <0> d   1      17.627   4.073  10.360  0.00  0.00    -0.003 C 
ATOM     19  C1  <0> d   1      17.404   3.999  11.872  0.00  0.00     0.005 C 
ENDBRANCH  17  18
ENDBRANCH  16  17
ENDBRANCH  14  16
ENDBRANCH   1  14
BRANCH   5  20
ATOM     20  S14 <0> d   1      18.600  -3.733  10.836  0.00  0.00     0.259 S 
ATOM     21  O16 <0> d   1      18.563  -4.702  11.874  0.00  0.00    -0.201 OA
ATOM     22  O17 <0> d   1      17.568  -3.591   9.868  0.00  0.00    -0.201 OA
BRANCH  20  23
ATOM     23  N15 <0> d   1      19.999  -4.005   9.992  0.00  0.00    -0.324 N 
ATOM     24  H38 <0> d   1      19.969  -4.461   9.137  0.00  0.00     0.169 HD
ATOM     25  H39 <0> d   1      20.848  -3.709  10.355  0.00  0.00     0.169 HD
ENDBRANCH  20  23
ENDBRANCH   5  20
BRANCH   3  26
ATOM     26  C9  <0> d   1      18.006  -0.579  14.936  0.00  0.00     0.209 C 
ATOM     27  O10 <0> d   1      18.215  -1.454  15.765  0.00  0.00    -0.644 OA
ATOM     28  O11 <0> d   1      17.417   0.442  15.261  0.00  0.00    -0.644 OA
ENDBRANCH   3  26
TORSDOF 9
ENDMDL
