MODEL 1
REMARK VINA RESULT:      -8.4      0.000      0.000
REMARK  9 active torsions:
REMARK  status: ('A' for Active; 'I' for Inactive)
REMARK    1  A    between atoms: N2_2  and  C4_4 
REMARK    2  A    between atoms: C6_6  and  N7_7 
REMARK       I    between atoms: N7_7  and  C8_8 
REMARK    3  A    between atoms: C8_8  and  C10_10 
REMARK    4  A    between atoms: C10_10  and  N11_11 
REMARK    5  A    between atoms: N11_11  and  C14_14 
REMARK    6  A    between atoms: C18_18  and  O19_19 
REMARK    7  A    between atoms: C28_26  and  N30_27 
REMARK    8  A    between atoms: C36_33  and  C37_34 
REMARK       I    between atoms: C37_34  and  N38_35 
REMARK    9  A    between atoms: C42_39  and  O43_40 
ROOT
ATOM      1  C4  ZIN A   1      18.012  -1.473  10.899  0.00  0.00     0.019 A 
ATOM      2  C5  ZIN A   1      17.860  -2.066   9.649  0.00  0.00     0.056 A 
ATOM      3  C6  ZIN A   1      17.831  -1.287   8.504  0.00  0.00     0.070 A 
ATOM      4  C18 ZIN A   1      17.950   0.098   8.599  0.00  0.00     0.106 A 
ATOM      5  C20 ZIN A   1      18.092   0.697   9.856  0.00  0.00     0.045 A 
ATOM      6  C21 ZIN A   1      18.128  -0.100  11.007  0.00  0.00    -0.020 A 
ATOM      7  C22 ZIN A   1      18.322   0.547  12.354  0.00  0.00     0.051 C 
ATOM      8  C23 ZIN A   1      17.617   1.900  12.381  0.00  0.00     0.030 C 
ATOM      9  C25 ZIN A   1      17.915   2.618  13.701  0.00  0.00     0.021 C 
ATOM     10  C26 ZIN A   1      17.312   4.017  13.623  0.00  0.00     0.074 C 
ATOM     11  C28 ZIN A   1      17.234   4.680  14.984  0.00  0.00     0.255 C 
ATOM     12  C34 ZIN A   1      18.576   5.138  15.471  0.00  0.00     0.135 C 
ATOM     13  O35 ZIN A   1      18.749   5.352  16.784  0.00  0.00    -0.193 OA
ATOM     14  C36 ZIN A   1      19.632   5.346  14.619  0.00  0.00     0.115 C 
ATOM     15  C40 ZIN A   1      19.487   5.092  13.187  0.00  0.00     0.210 C 
ATOM     16  O41 ZIN A   1      20.461   5.064  12.463  0.00  0.00    -0.288 OA
ATOM     17  C42 ZIN A   1      18.109   4.870  12.639  0.00  0.00     0.194 C 
ATOM     18  C44 ZIN A   1      18.253   4.107  11.348  0.00  0.00     0.201 C 
ATOM     19  O45 ZIN A   1      18.588   4.719  10.352  0.00  0.00    -0.289 OA
ATOM     20  C46 ZIN A   1      18.071   2.756  11.231  0.00  0.00     0.033 C 
ATOM     21  C47 ZIN A   1      18.222   2.156   9.983  0.00  0.00     0.131 C 
ATOM     22  O48 ZIN A   1      18.457   2.912   8.888  0.00  0.00    -0.190 OA
ENDROOT
BRANCH   3  23
ATOM     23  N7  ZIN A   1      17.683  -1.892   7.249  0.00  0.00    -0.323 N 
ATOM     24  C8  ZIN A   1      18.762  -2.378   6.603  0.00  0.00     0.247 C 
ATOM     25  O9  ZIN A   1      19.848  -2.364   7.142  0.00  0.00    -0.271 OA
ATOM     26  H56 ZIN A   1      16.804  -1.960   6.845  0.00  0.00     0.169 HD
BRANCH  24  27
ATOM     27  C10 ZIN A   1      18.617  -2.940   5.212  0.00  0.00     0.335 C 
BRANCH  27  28
ATOM     28  N11 ZIN A   1      17.220  -3.335   4.987  0.00  0.00    -0.059 N 
ATOM     29  H12 ZIN A   1      16.725  -3.335   5.866  0.00  0.00     0.278 HD
ATOM     30  H13 ZIN A   1      16.783  -2.680   4.356  0.00  0.00     0.278 HD
BRANCH  28  31
ATOM     31  C14 ZIN A   1      17.180  -4.681   4.402  0.00  0.00     0.115 C 
ATOM     32  C15 ZIN A   1      15.731  -5.164   4.331  0.00  0.00     0.045 C 
ATOM     33  C16 ZIN A   1      17.773  -4.641   2.992  0.00  0.00     0.045 C 
ATOM     34  C17 ZIN A   1      17.996  -5.640   5.271  0.00  0.00     0.045 C 
ENDBRANCH  28  31
ENDBRANCH  27  28
ENDBRANCH  24  27
ENDBRANCH   3  23
BRANCH   4  35
ATOM     35  O19 ZIN A   1      17.930   0.863   7.477  0.00  0.00    -0.357 OA
ATOM     36  H68 ZIN A   1      18.401   0.474   6.728  0.00  0.00     0.217 HD
ENDBRANCH   4  35
BRANCH   1  37
ATOM     37  N2  ZIN A   1      18.042  -2.269  12.050  0.00  0.00    -0.291 NA
ATOM     38  C1  ZIN A   1      17.302  -3.522  11.844  0.00  0.00     0.116 C 
ATOM     39  C3  ZIN A   1      19.424  -2.537  12.469  0.00  0.00     0.116 C 
ENDBRANCH   1  37
BRANCH  17  40
ATOM     40  O43 ZIN A   1      17.453   6.120  12.425  0.00  0.00    -0.373 OA
ATOM     41  H81 ZIN A   1      17.811   6.632  11.687  0.00  0.00     0.211 HD
ENDBRANCH  17  40
BRANCH  11  42
ATOM     42  N30 ZIN A   1      16.339   5.842  14.897  0.00  0.00    -0.068 N 
ATOM     43  H31 ZIN A   1      16.822   6.605  14.448  0.00  0.00     0.279 HD
ATOM     44  C32 ZIN A   1      15.149   5.485  14.113  0.00  0.00     0.270 C 
ATOM     45  C33 ZIN A   1      15.930   6.247  16.249  0.00  0.00     0.270 C 
ENDBRANCH  11  42
BRANCH  14  46
ATOM     46  C37 ZIN A   1      20.918   5.826  15.152  0.00  0.00     0.255 C 
ATOM     47  N38 ZIN A   1      21.639   5.041  15.977  0.00  0.00    -0.366 N 
ATOM     48  H79 ZIN A   1      21.354   4.131  16.154  0.00  0.00     0.159 HD
ATOM     49  H80 ZIN A   1      22.445   5.386  16.392  0.00  0.00     0.159 HD
ATOM     50  O39 ZIN A   1      21.328   6.930  14.849  0.00  0.00    -0.268 OA
ENDBRANCH  14  46
TORSDOF 9
ENDMDL
MODEL 2
REMARK VINA RESULT:      -7.9      3.156     10.687
REMARK  9 active torsions:
REMARK  status: ('A' for Active; 'I' for Inactive)
REMARK    1  A    between atoms: N2_2  and  C4_4 
REMARK    2  A    between atoms: C6_6  and  N7_7 
REMARK       I    between atoms: N7_7  and  C8_8 
REMARK    3  A    between atoms: C8_8  and  C10_10 
REMARK    4  A    between atoms: C10_10  and  N11_11 
REMARK    5  A    between atoms: N11_11  and  C14_14 
REMARK    6  A    between atoms: C18_18  and  O19_19 
REMARK    7  A    between atoms: C28_26  and  N30_27 
REMARK    8  A    between atoms: C36_33  and  C37_34 
REMARK       I    between atoms: C37_34  and  N38_35 
REMARK    9  A    between atoms: C42_39  and  O43_40 
ROOT
ATOM      1  C4  ZIN A   1      17.852   2.191  11.313  0.00  0.00     0.019 A 
ATOM      2  C5  ZIN A   1      17.732   3.022  12.423  0.00  0.00     0.056 A 
ATOM      3  C6  ZIN A   1      17.766   2.490  13.702  0.00  0.00     0.070 A 
ATOM      4  C18 ZIN A   1      17.917   1.117  13.883  0.00  0.00     0.106 A 
ATOM      5  C20 ZIN A   1      18.026   0.279  12.768  0.00  0.00     0.045 A 
ATOM      6  C21 ZIN A   1      17.998   0.827  11.480  0.00  0.00    -0.020 A 
ATOM      7  C22 ZIN A   1      18.158  -0.075  10.283  0.00  0.00     0.051 C 
ATOM      8  C23 ZIN A   1      17.486  -1.418  10.559  0.00  0.00     0.030 C 
ATOM      9  C25 ZIN A   1      17.753  -2.383   9.400  0.00  0.00     0.021 C 
ATOM     10  C26 ZIN A   1      17.188  -3.748   9.783  0.00  0.00     0.074 C 
ATOM     11  C28 ZIN A   1      17.076  -4.674   8.588  0.00  0.00     0.255 C 
ATOM     12  C34 ZIN A   1      18.410  -5.198   8.147  0.00  0.00     0.135 C 
ATOM     13  O35 ZIN A   1      18.539  -5.670   6.898  0.00  0.00    -0.193 OA
ATOM     14  C36 ZIN A   1      19.503  -5.211   8.978  0.00  0.00     0.115 C 
ATOM     15  C40 ZIN A   1      19.405  -4.674  10.334  0.00  0.00     0.210 C 
ATOM     16  O41 ZIN A   1      20.404  -4.484  10.997  0.00  0.00    -0.288 OA
ATOM     17  C42 ZIN A   1      18.044  -4.370  10.885  0.00  0.00     0.194 C 
ATOM     18  C44 ZIN A   1      18.217  -3.359  11.988  0.00  0.00     0.201 C 
ATOM     19  O45 ZIN A   1      18.604  -3.751  13.072  0.00  0.00    -0.289 OA
ATOM     20  C46 ZIN A   1      18.005  -2.015  11.838  0.00  0.00     0.033 C 
ATOM     21  C47 ZIN A   1      18.187  -1.174  12.932  0.00  0.00     0.131 C 
ATOM     22  O48 ZIN A   1      18.483  -1.688  14.145  0.00  0.00    -0.190 OA
ENDROOT
BRANCH   3  23
ATOM     23  N7  ZIN A   1      17.650   3.334  14.814  0.00  0.00    -0.323 N 
ATOM     24  C8  ZIN A   1      18.618   4.233  15.083  0.00  0.00     0.247 C 
ATOM     25  O9  ZIN A   1      19.550   4.367  14.318  0.00  0.00    -0.271 OA
ATOM     26  H56 ZIN A   1      16.873   3.271  15.392  0.00  0.00     0.169 HD
BRANCH  24  27
ATOM     27  C10 ZIN A   1      18.541   5.073  16.332  0.00  0.00     0.335 C 
BRANCH  27  28
ATOM     28  N11 ZIN A   1      17.300   4.762  17.055  0.00  0.00    -0.059 N 
ATOM     29  H12 ZIN A   1      16.778   4.067  16.543  0.00  0.00     0.278 HD
ATOM     30  H13 ZIN A   1      17.525   4.406  17.971  0.00  0.00     0.278 HD
BRANCH  28  31
ATOM     31  C14 ZIN A   1      16.493   5.982  17.187  0.00  0.00     0.115 C 
ATOM     32  C15 ZIN A   1      15.669   6.189  15.916  0.00  0.00     0.045 C 
ATOM     33  C16 ZIN A   1      15.554   5.843  18.387  0.00  0.00     0.045 C 
ATOM     34  C17 ZIN A   1      17.417   7.184  17.398  0.00  0.00     0.045 C 
ENDBRANCH  28  31
ENDBRANCH  27  28
ENDBRANCH  24  27
ENDBRANCH   3  23
BRANCH   4  35
ATOM     35  O19 ZIN A   1      17.958   0.594  15.136  0.00  0.00    -0.357 OA
ATOM     36  H68 ZIN A   1      18.068   1.255  15.834  0.00  0.00     0.217 HD
ENDBRANCH   4  35
BRANCH   1  37
ATOM     37  N2  ZIN A   1      17.818   2.738  10.025  0.00  0.00    -0.291 NA
ATOM     38  C1  ZIN A   1      17.545   4.181  10.072  0.00  0.00     0.116 C 
ATOM     39  C3  ZIN A   1      19.067   2.462   9.303  0.00  0.00     0.116 C 
ENDBRANCH   1  37
BRANCH  17  40
ATOM     40  O43 ZIN A   1      17.428  -5.562  11.373  0.00  0.00    -0.373 OA
ATOM     41  H81 ZIN A   1      16.648  -5.407  11.922  0.00  0.00     0.211 HD
ENDBRANCH  17  40
BRANCH  11  42
ATOM     42  N30 ZIN A   1      16.214  -5.809   8.945  0.00  0.00    -0.068 N 
ATOM     43  H31 ZIN A   1      16.076  -5.825   9.944  0.00  0.00     0.279 HD
ATOM     44  C32 ZIN A   1      14.916  -5.668   8.272  0.00  0.00     0.270 C 
ATOM     45  C33 ZIN A   1      16.853  -7.061   8.518  0.00  0.00     0.270 C 
ENDBRANCH  11  42
BRANCH  14  46
ATOM     46  C37 ZIN A   1      20.779  -5.766   8.499  0.00  0.00     0.255 C 
ATOM     47  N38 ZIN A   1      21.436  -5.167   7.486  0.00  0.00    -0.366 N 
ATOM     48  H79 ZIN A   1      21.111  -4.326   7.128  0.00  0.00     0.159 HD
ATOM     49  H80 ZIN A   1      22.233  -5.577   7.117  0.00  0.00     0.159 HD
ATOM     50  O39 ZIN A   1      21.240  -6.766   9.017  0.00  0.00    -0.268 OA
ENDBRANCH  14  46
TORSDOF 9
ENDMDL
MODEL 3
REMARK VINA RESULT:      -7.8      3.951     12.660
REMARK  9 active torsions:
REMARK  status: ('A' for Active; 'I' for Inactive)
REMARK    1  A    between atoms: N2_2  and  C4_4 
REMARK    2  A    between atoms: C6_6  and  N7_7 
REMARK       I    between atoms: N7_7  and  C8_8 
REMARK    3  A    between atoms: C8_8  and  C10_10 
REMARK    4  A    between atoms: C10_10  and  N11_11 
REMARK    5  A    between atoms: N11_11  and  C14_14 
REMARK    6  A    between atoms: C18_18  and  O19_19 
REMARK    7  A    between atoms: C28_26  and  N30_27 
REMARK    8  A    between atoms: C36_33  and  C37_34 
REMARK       I    between atoms: C37_34  and  N38_35 
REMARK    9  A    between atoms: C42_39  and  O43_40 
ROOT
ATOM      1  C4  ZIN A   1      18.560  -3.592   8.487  0.00  0.00     0.019 A 
ATOM      2  C5  ZIN A   1      19.059  -2.349   8.867  0.00  0.00     0.056 A 
ATOM      3  C6  ZIN A   1      19.093  -1.302   7.959  0.00  0.00     0.070 A 
ATOM      4  C18 ZIN A   1      18.631  -1.491   6.659  0.00  0.00     0.106 A 
ATOM      5  C20 ZIN A   1      18.140  -2.742   6.272  0.00  0.00     0.045 A 
ATOM      6  C21 ZIN A   1      18.102  -3.792   7.199  0.00  0.00    -0.020 A 
ATOM      7  C22 ZIN A   1      17.534  -5.126   6.789  0.00  0.00     0.051 C 
ATOM      8  C23 ZIN A   1      17.878  -5.406   5.329  0.00  0.00     0.030 C 
ATOM      9  C25 ZIN A   1      17.198  -6.699   4.870  0.00  0.00     0.021 C 
ATOM     10  C26 ZIN A   1      17.452  -6.860   3.375  0.00  0.00     0.074 C 
ATOM     11  C28 ZIN A   1      17.138  -8.262   2.891  0.00  0.00     0.255 C 
ATOM     12  C34 ZIN A   1      15.662  -8.517   2.806  0.00  0.00     0.135 C 
ATOM     13  O35 ZIN A   1      15.224  -9.784   2.806  0.00  0.00    -0.193 OA
ATOM     14  C36 ZIN A   1      14.746  -7.497   2.728  0.00  0.00     0.115 C 
ATOM     15  C40 ZIN A   1      15.188  -6.104   2.758  0.00  0.00     0.210 C 
ATOM     16  O41 ZIN A   1      14.386  -5.205   2.906  0.00  0.00    -0.288 OA
ATOM     17  C42 ZIN A   1      16.651  -5.816   2.599  0.00  0.00     0.194 C 
ATOM     18  C44 ZIN A   1      16.914  -4.462   3.202  0.00  0.00     0.201 C 
ATOM     19  O45 ZIN A   1      16.616  -3.476   2.556  0.00  0.00    -0.289 OA
ATOM     20  C46 ZIN A   1      17.433  -4.267   4.454  0.00  0.00     0.033 C 
ATOM     21  C47 ZIN A   1      17.643  -2.967   4.906  0.00  0.00     0.131 C 
ATOM     22  O48 ZIN A   1      17.422  -1.916   4.087  0.00  0.00    -0.190 OA
ENDROOT
BRANCH   3  23
ATOM     23  N7  ZIN A   1      19.591  -0.053   8.350  0.00  0.00    -0.323 N 
ATOM     24  C8  ZIN A   1      18.755   0.885   8.838  0.00  0.00     0.247 C 
ATOM     25  O9  ZIN A   1      17.584   0.621   9.012  0.00  0.00    -0.271 OA
ATOM     26  H56 ZIN A   1      20.539   0.137   8.271  0.00  0.00     0.169 HD
BRANCH  24  27
ATOM     27  C10 ZIN A   1      19.274   2.261   9.166  0.00  0.00     0.335 C 
BRANCH  27  28
ATOM     28  N11 ZIN A   1      19.659   2.313  10.583  0.00  0.00    -0.059 N 
ATOM     29  H12 ZIN A   1      19.592   1.389  10.984  0.00  0.00     0.278 HD
ATOM     30  H13 ZIN A   1      20.609   2.644  10.662  0.00  0.00     0.278 HD
BRANCH  28  31
ATOM     31  C14 ZIN A   1      18.761   3.227  11.301  0.00  0.00     0.115 C 
ATOM     32  C15 ZIN A   1      19.584   4.146  12.204  0.00  0.00     0.045 C 
ATOM     33  C16 ZIN A   1      17.979   4.070  10.292  0.00  0.00     0.045 C 
ATOM     34  C17 ZIN A   1      17.783   2.415  12.154  0.00  0.00     0.045 C 
ENDBRANCH  28  31
ENDBRANCH  27  28
ENDBRANCH  24  27
ENDBRANCH   3  23
BRANCH   4  35
ATOM     35  O19 ZIN A   1      18.656  -0.464   5.770  0.00  0.00    -0.357 OA
ATOM     36  H68 ZIN A   1      17.791  -0.060   5.612  0.00  0.00     0.217 HD
ENDBRANCH   4  35
BRANCH   1  37
ATOM     37  N2  ZIN A   1      18.529  -4.642   9.411  0.00  0.00    -0.291 NA
ATOM     38  C1  ZIN A   1      19.811  -4.762  10.118  0.00  0.00     0.116 C 
ATOM     39  C3  ZIN A   1      17.418  -4.477  10.359  0.00  0.00     0.116 C 
ENDBRANCH   1  37
BRANCH  17  40
ATOM     40  O43 ZIN A   1      17.014  -5.842   1.218  0.00  0.00    -0.373 OA
ATOM     41  H81 ZIN A   1      16.267  -5.739   0.612  0.00  0.00     0.211 HD
ENDBRANCH  17  40
BRANCH  11  42
ATOM     42  N30 ZIN A   1      17.729  -8.450   1.559  0.00  0.00    -0.068 N 
ATOM     43  H31 ZIN A   1      17.418  -7.712   0.946  0.00  0.00     0.279 HD
ATOM     44  C32 ZIN A   1      19.194  -8.414   1.665  0.00  0.00     0.270 C 
ATOM     45  C33 ZIN A   1      17.309  -9.750   1.017  0.00  0.00     0.270 C 
ENDBRANCH  11  42
BRANCH  14  46
ATOM     46  C37 ZIN A   1      13.312  -7.810   2.616  0.00  0.00     0.255 C 
ATOM     47  N38 ZIN A   1      12.626  -8.219   3.701  0.00  0.00    -0.366 N 
ATOM     48  H79 ZIN A   1      13.054  -8.229   4.571  0.00  0.00     0.159 HD
ATOM     49  H80 ZIN A   1      11.702  -8.502   3.611  0.00  0.00     0.159 HD
ATOM     50  O39 ZIN A   1      12.748  -7.699   1.544  0.00  0.00    -0.268 OA
ENDBRANCH  14  46
TORSDOF 9
ENDMDL
MODEL 4
REMARK VINA RESULT:      -7.4      2.940     10.502
REMARK  9 active torsions:
REMARK  status: ('A' for Active; 'I' for Inactive)
REMARK    1  A    between atoms: N2_2  and  C4_4 
REMARK    2  A    between atoms: C6_6  and  N7_7 
REMARK       I    between atoms: N7_7  and  C8_8 
REMARK    3  A    between atoms: C8_8  and  C10_10 
REMARK    4  A    between atoms: C10_10  and  N11_11 
REMARK    5  A    between atoms: N11_11  and  C14_14 
REMARK    6  A    between atoms: C18_18  and  O19_19 
REMARK    7  A    between atoms: C28_26  and  N30_27 
REMARK    8  A    between atoms: C36_33  and  C37_34 
REMARK       I    between atoms: C37_34  and  N38_35 
REMARK    9  A    between atoms: C42_39  and  O43_40 
ROOT
ATOM      1  C4  ZIN A   1      18.797  -0.373  15.190  0.00  0.00     0.019 A 
ATOM      2  C5  ZIN A   1      19.018   0.921  15.652  0.00  0.00     0.056 A 
ATOM      3  C6  ZIN A   1      19.237   1.956  14.756  0.00  0.00     0.070 A 
ATOM      4  C18 ZIN A   1      19.242   1.704  13.387  0.00  0.00     0.106 A 
ATOM      5  C20 ZIN A   1      19.031   0.402  12.921  0.00  0.00     0.045 A 
ATOM      6  C21 ZIN A   1      18.803  -0.636  13.832  0.00  0.00    -0.020 A 
ATOM      7  C22 ZIN A   1      18.536  -2.029  13.324  0.00  0.00     0.051 C 
ATOM      8  C23 ZIN A   1      19.361  -2.284  12.065  0.00  0.00     0.030 C 
ATOM      9  C25 ZIN A   1      19.000  -3.649  11.472  0.00  0.00     0.021 C 
ATOM     10  C26 ZIN A   1      19.739  -3.797  10.146  0.00  0.00     0.074 C 
ATOM     11  C28 ZIN A   1      19.742  -5.230   9.651  0.00  0.00     0.255 C 
ATOM     12  C34 ZIN A   1      18.407  -5.647   9.109  0.00  0.00     0.135 C 
ATOM     13  O35 ZIN A   1      18.123  -6.955   9.027  0.00  0.00    -0.193 OA
ATOM     14  C36 ZIN A   1      17.467  -4.735   8.696  0.00  0.00     0.115 C 
ATOM     15  C40 ZIN A   1      17.732  -3.302   8.803  0.00  0.00     0.210 C 
ATOM     16  O41 ZIN A   1      16.839  -2.495   8.644  0.00  0.00    -0.288 OA
ATOM     17  C42 ZIN A   1      19.131  -2.855   9.108  0.00  0.00     0.194 C 
ATOM     18  C44 ZIN A   1      19.046  -1.474   9.701  0.00  0.00     0.201 C 
ATOM     19  O45 ZIN A   1      18.874  -0.534   8.949  0.00  0.00    -0.289 OA
ATOM     20  C46 ZIN A   1      19.109  -1.210  11.043  0.00  0.00     0.033 C 
ATOM     21  C47 ZIN A   1      19.029   0.110  11.479  0.00  0.00     0.131 C 
ATOM     22  O48 ZIN A   1      18.980   1.121  10.585  0.00  0.00    -0.190 OA
ENDROOT
BRANCH   3  23
ATOM     23  N7  ZIN A   1      19.453   3.257  15.229  0.00  0.00    -0.323 N 
ATOM     24  C8  ZIN A   1      18.501   4.198  15.073  0.00  0.00     0.247 C 
ATOM     25  O9  ZIN A   1      17.427   3.900  14.594  0.00  0.00    -0.271 OA
ATOM     26  H56 ZIN A   1      20.288   3.480  15.670  0.00  0.00     0.169 HD
BRANCH  24  27
ATOM     27  C10 ZIN A   1      18.771   5.620  15.493  0.00  0.00     0.335 C 
BRANCH  27  28
ATOM     28  N11 ZIN A   1      18.198   6.541  14.503  0.00  0.00    -0.059 N 
ATOM     29  H12 ZIN A   1      18.938   7.076  14.073  0.00  0.00     0.278 HD
ATOM     30  H13 ZIN A   1      17.711   6.012  13.794  0.00  0.00     0.278 HD
BRANCH  28  31
ATOM     31  C14 ZIN A   1      17.257   7.451  15.167  0.00  0.00     0.115 C 
ATOM     32  C15 ZIN A   1      15.824   6.980  14.912  0.00  0.00     0.045 C 
ATOM     33  C16 ZIN A   1      17.531   7.457  16.673  0.00  0.00     0.045 C 
ATOM     34  C17 ZIN A   1      17.435   8.865  14.611  0.00  0.00     0.045 C 
ENDBRANCH  28  31
ENDBRANCH  27  28
ENDBRANCH  24  27
ENDBRANCH   3  23
BRANCH   4  35
ATOM     35  O19 ZIN A   1      19.449   2.718  12.507  0.00  0.00    -0.357 OA
ATOM     36  H68 ZIN A   1      18.653   2.994  12.031  0.00  0.00     0.217 HD
ENDBRANCH   4  35
BRANCH   1  37
ATOM     37  N2  ZIN A   1      18.574  -1.411  16.101  0.00  0.00    -0.291 NA
ATOM     38  C1  ZIN A   1      19.651  -1.476  17.099  0.00  0.00     0.116 C 
ATOM     39  C3  ZIN A   1      17.264  -1.271  16.750  0.00  0.00     0.116 C 
ENDBRANCH   1  37
BRANCH  17  40
ATOM     40  O43 ZIN A   1      19.921  -2.855   7.918  0.00  0.00    -0.373 OA
ATOM     41  H81 ZIN A   1      19.612  -3.470   7.239  0.00  0.00     0.211 HD
ENDBRANCH  17  40
BRANCH  11  42
ATOM     42  N30 ZIN A   1      20.748  -5.365   8.589  0.00  0.00    -0.068 N 
ATOM     43  H31 ZIN A   1      21.270  -4.505   8.509  0.00  0.00     0.279 HD
ATOM     44  C32 ZIN A   1      21.664  -6.465   8.921  0.00  0.00     0.270 C 
ATOM     45  C33 ZIN A   1      20.078  -5.655   7.314  0.00  0.00     0.270 C 
ENDBRANCH  11  42
BRANCH  14  46
ATOM     46  C37 ZIN A   1      16.186  -5.206   8.144  0.00  0.00     0.255 C 
ATOM     47  N38 ZIN A   1      16.070  -5.442   6.822  0.00  0.00    -0.366 N 
ATOM     48  H79 ZIN A   1      16.849  -5.382   6.248  0.00  0.00     0.159 HD
ATOM     49  H80 ZIN A   1      15.206  -5.674   6.446  0.00  0.00     0.159 HD
ATOM     50  O39 ZIN A   1      15.234  -5.380   8.880  0.00  0.00    -0.268 OA
ENDBRANCH  14  46
TORSDOF 9
ENDMDL
MODEL 5
REMARK VINA RESULT:      -7.1      1.646      2.246
REMARK  9 active torsions:
REMARK  status: ('A' for Active; 'I' for Inactive)
REMARK    1  A    between atoms: N2_2  and  C4_4 
REMARK    2  A    between atoms: C6_6  and  N7_7 
REMARK       I    between atoms: N7_7  and  C8_8 
REMARK    3  A    between atoms: C8_8  and  C10_10 
REMARK    4  A    between atoms: C10_10  and  N11_11 
REMARK    5  A    between atoms: N11_11  and  C14_14 
REMARK    6  A    between atoms: C18_18  and  O19_19 
REMARK    7  A    between atoms: C28_26  and  N30_27 
REMARK    8  A    between atoms: C36_33  and  C37_34 
REMARK       I    between atoms: C37_34  and  N38_35 
REMARK    9  A    between atoms: C42_39  and  O43_40 
ROOT
ATOM      1  C4  ZIN A   1      18.179  -1.725  13.486  0.00  0.00     0.019 A 
ATOM      2  C5  ZIN A   1      17.880  -2.701  12.540  0.00  0.00     0.056 A 
ATOM      3  C6  ZIN A   1      17.616  -2.346  11.227  0.00  0.00     0.070 A 
ATOM      4  C18 ZIN A   1      17.645  -1.006  10.848  0.00  0.00     0.106 A 
ATOM      5  C20 ZIN A   1      17.934  -0.022  11.799  0.00  0.00     0.045 A 
ATOM      6  C21 ZIN A   1      18.208  -0.391  13.122  0.00  0.00    -0.020 A 
ATOM      7  C22 ZIN A   1      18.560   0.668  14.134  0.00  0.00     0.051 C 
ATOM      8  C23 ZIN A   1      17.768   1.941  13.842  0.00  0.00     0.030 C 
ATOM      9  C25 ZIN A   1      18.213   3.061  14.787  0.00  0.00     0.021 C 
ATOM     10  C26 ZIN A   1      17.503   4.343  14.366  0.00  0.00     0.074 C 
ATOM     11  C28 ZIN A   1      17.587   5.418  15.431  0.00  0.00     0.255 C 
ATOM     12  C34 ZIN A   1      18.951   6.038  15.507  0.00  0.00     0.135 C 
ATOM     13  O35 ZIN A   1      19.309   6.677  16.630  0.00  0.00    -0.193 OA
ATOM     14  C36 ZIN A   1      19.844   5.971  14.467  0.00  0.00     0.115 C 
ATOM     15  C40 ZIN A   1      19.498   5.254  13.241  0.00  0.00     0.210 C 
ATOM     16  O41 ZIN A   1      20.347   5.008  12.409  0.00  0.00    -0.288 OA
ATOM     17  C42 ZIN A   1      18.072   4.837  13.037  0.00  0.00     0.194 C 
ATOM     18  C44 ZIN A   1      18.071   3.693  12.058  0.00  0.00     0.201 C 
ATOM     19  O45 ZIN A   1      18.200   3.947  10.876  0.00  0.00    -0.289 OA
ATOM     20  C46 ZIN A   1      17.974   2.375  12.417  0.00  0.00     0.033 C 
ATOM     21  C47 ZIN A   1      17.973   1.400  11.424  0.00  0.00     0.131 C 
ATOM     22  O48 ZIN A   1      17.979   1.754  10.121  0.00  0.00    -0.190 OA
ENDROOT
BRANCH   3  23
ATOM     23  N7  ZIN A   1      17.321  -3.335  10.280  0.00  0.00    -0.323 N 
ATOM     24  C8  ZIN A   1      18.320  -3.997   9.662  0.00  0.00     0.247 C 
ATOM     25  O9  ZIN A   1      19.471  -3.793   9.984  0.00  0.00    -0.271 OA
ATOM     26  H56 ZIN A   1      16.397  -3.543  10.069  0.00  0.00     0.169 HD
BRANCH  24  27
ATOM     27  C10 ZIN A   1      18.005  -4.991   8.574  0.00  0.00     0.335 C 
BRANCH  27  28
ATOM     28  N11 ZIN A   1      17.523  -4.278   7.384  0.00  0.00    -0.059 N 
ATOM     29  H12 ZIN A   1      16.621  -4.643   7.115  0.00  0.00     0.278 HD
ATOM     30  H13 ZIN A   1      17.437  -3.294   7.593  0.00  0.00     0.278 HD
BRANCH  28  31
ATOM     31  C14 ZIN A   1      18.476  -4.464   6.283  0.00  0.00     0.115 C 
ATOM     32  C15 ZIN A   1      19.359  -5.679   6.571  0.00  0.00     0.045 C 
ATOM     33  C16 ZIN A   1      17.709  -4.689   4.978  0.00  0.00     0.045 C 
ATOM     34  C17 ZIN A   1      19.352  -3.216   6.150  0.00  0.00     0.045 C 
ENDBRANCH  28  31
ENDBRANCH  27  28
ENDBRANCH  24  27
ENDBRANCH   3  23
BRANCH   4  35
ATOM     35  O19 ZIN A   1      17.394  -0.656   9.559  0.00  0.00    -0.357 OA
ATOM     36  H68 ZIN A   1      18.174  -0.352   9.076  0.00  0.00     0.217 HD
ENDBRANCH   4  35
BRANCH   1  37
ATOM     37  N2  ZIN A   1      18.446  -2.094  14.809  0.00  0.00    -0.291 NA
ATOM     38  C1  ZIN A   1      19.828  -1.760  15.181  0.00  0.00     0.116 C 
ATOM     39  C3  ZIN A   1      17.487  -1.473  15.733  0.00  0.00     0.116 C 
ENDBRANCH   1  37
BRANCH  17  40
ATOM     40  O43 ZIN A   1      17.300   5.933  12.546  0.00  0.00    -0.373 OA
ATOM     41  H81 ZIN A   1      17.802   6.753  12.440  0.00  0.00     0.211 HD
ENDBRANCH  17  40
BRANCH  11  42
ATOM     42  N30 ZIN A   1      16.605   6.468  15.128  0.00  0.00    -0.068 N 
ATOM     43  H31 ZIN A   1      16.814   6.873  14.227  0.00  0.00     0.279 HD
ATOM     44  C32 ZIN A   1      15.257   5.884  15.102  0.00  0.00     0.270 C 
ATOM     45  C33 ZIN A   1      16.667   7.510  16.162  0.00  0.00     0.270 C 
ENDBRANCH  11  42
BRANCH  14  46
ATOM     46  C37 ZIN A   1      21.157   6.626  14.588  0.00  0.00     0.255 C 
ATOM     47  N38 ZIN A   1      22.119   6.067  15.349  0.00  0.00    -0.366 N 
ATOM     48  H79 ZIN A   1      21.976   5.195  15.750  0.00  0.00     0.159 HD
ATOM     49  H80 ZIN A   1      22.955   6.537  15.494  0.00  0.00     0.159 HD
ATOM     50  O39 ZIN A   1      21.373   7.670  14.003  0.00  0.00    -0.268 OA
ENDBRANCH  14  46
TORSDOF 9
ENDMDL
MODEL 6
REMARK VINA RESULT:      -6.7      4.646     12.138
REMARK  9 active torsions:
REMARK  status: ('A' for Active; 'I' for Inactive)
REMARK    1  A    between atoms: N2_2  and  C4_4 
REMARK    2  A    between atoms: C6_6  and  N7_7 
REMARK       I    between atoms: N7_7  and  C8_8 
REMARK    3  A    between atoms: C8_8  and  C10_10 
REMARK    4  A    between atoms: C10_10  and  N11_11 
REMARK    5  A    between atoms: N11_11  and  C14_14 
REMARK    6  A    between atoms: C18_18  and  O19_19 
REMARK    7  A    between atoms: C28_26  and  N30_27 
REMARK    8  A    between atoms: C36_33  and  C37_34 
REMARK       I    between atoms: C37_34  and  N38_35 
REMARK    9  A    between atoms: C42_39  and  O43_40 
ROOT
ATOM      1  C4  ZIN A   1      18.982  -1.417   8.726  0.00  0.00     0.019 A 
ATOM      2  C5  ZIN A   1      19.419  -1.176  10.025  0.00  0.00     0.056 A 
ATOM      3  C6  ZIN A   1      19.569  -2.226  10.918  0.00  0.00     0.070 A 
ATOM      4  C18 ZIN A   1      19.279  -3.528  10.519  0.00  0.00     0.106 A 
ATOM      5  C20 ZIN A   1      18.829  -3.770   9.217  0.00  0.00     0.045 A 
ATOM      6  C21 ZIN A   1      18.688  -2.705   8.319  0.00  0.00    -0.020 A 
ATOM      7  C22 ZIN A   1      18.243  -2.976   6.905  0.00  0.00     0.051 C 
ATOM      8  C23 ZIN A   1      17.238  -4.125   6.894  0.00  0.00     0.030 C 
ATOM      9  C25 ZIN A   1      16.878  -4.489   5.451  0.00  0.00     0.021 C 
ATOM     10  C26 ZIN A   1      15.988  -5.728   5.485  0.00  0.00     0.074 C 
ATOM     11  C28 ZIN A   1      15.288  -5.964   4.162  0.00  0.00     0.255 C 
ATOM     12  C34 ZIN A   1      16.218  -6.495   3.113  0.00  0.00     0.135 C 
ATOM     13  O35 ZIN A   1      15.881  -6.363   1.822  0.00  0.00    -0.193 OA
ATOM     14  C36 ZIN A   1      17.404  -7.111   3.430  0.00  0.00     0.115 C 
ATOM     15  C40 ZIN A   1      17.818  -7.242   4.825  0.00  0.00     0.210 C 
ATOM     16  O41 ZIN A   1      18.947  -7.587   5.105  0.00  0.00    -0.288 OA
ATOM     17  C42 ZIN A   1      16.813  -6.945   5.898  0.00  0.00     0.194 C 
ATOM     18  C44 ZIN A   1      17.575  -6.607   7.152  0.00  0.00     0.201 C 
ATOM     19  O45 ZIN A   1      18.049  -7.520   7.801  0.00  0.00    -0.289 OA
ATOM     20  C46 ZIN A   1      17.807  -5.331   7.589  0.00  0.00     0.033 C 
ATOM     21  C47 ZIN A   1      18.518  -5.137   8.770  0.00  0.00     0.131 C 
ATOM     22  O48 ZIN A   1      18.897  -6.195   9.519  0.00  0.00    -0.190 OA
ENDROOT
BRANCH   3  23
ATOM     23  N7  ZIN A   1      20.014  -1.976  12.223  0.00  0.00    -0.323 N 
ATOM     24  C8  ZIN A   1      19.141  -1.570  13.167  0.00  0.00     0.247 C 
ATOM     25  O9  ZIN A   1      17.959  -1.497  12.908  0.00  0.00    -0.271 OA
ATOM     26  H56 ZIN A   1      20.950  -2.096  12.447  0.00  0.00     0.169 HD
BRANCH  24  27
ATOM     27  C10 ZIN A   1      19.635  -1.208  14.544  0.00  0.00     0.335 C 
BRANCH  27  28
ATOM     28  N11 ZIN A   1      18.854  -0.078  15.063  0.00  0.00    -0.059 N 
ATOM     29  H12 ZIN A   1      19.380   0.776  14.950  0.00  0.00     0.278 HD
ATOM     30  H13 ZIN A   1      17.986  -0.006  14.552  0.00  0.00     0.278 HD
BRANCH  28  31
ATOM     31  C14 ZIN A   1      18.568  -0.293  16.487  0.00  0.00     0.115 C 
ATOM     32  C15 ZIN A   1      17.056  -0.389  16.695  0.00  0.00     0.045 C 
ATOM     33  C16 ZIN A   1      19.229  -1.594  16.948  0.00  0.00     0.045 C 
ATOM     34  C17 ZIN A   1      19.122   0.878  17.301  0.00  0.00     0.045 C 
ENDBRANCH  28  31
ENDBRANCH  27  28
ENDBRANCH  24  27
ENDBRANCH   3  23
BRANCH   4  35
ATOM     35  O19 ZIN A   1      19.433  -4.559  11.391  0.00  0.00    -0.357 OA
ATOM     36  H68 ZIN A   1      20.355  -4.771  11.589  0.00  0.00     0.217 HD
ENDBRANCH   4  35
BRANCH   1  37
ATOM     37  N2  ZIN A   1      18.836  -0.351   7.831  0.00  0.00    -0.291 NA
ATOM     38  C1  ZIN A   1      17.419  -0.003   7.652  0.00  0.00     0.116 C 
ATOM     39  C3  ZIN A   1      19.613   0.816   8.269  0.00  0.00     0.116 C 
ENDBRANCH   1  37
BRANCH  17  40
ATOM     40  O43 ZIN A   1      15.960  -8.072   6.104  0.00  0.00    -0.373 OA
ATOM     41  H81 ZIN A   1      16.391  -8.925   5.957  0.00  0.00     0.211 HD
ENDBRANCH  17  40
BRANCH  11  42
ATOM     42  N30 ZIN A   1      14.200  -6.930   4.364  0.00  0.00    -0.068 N 
ATOM     43  H31 ZIN A   1      14.590  -7.837   4.571  0.00  0.00     0.279 HD
ATOM     44  C32 ZIN A   1      13.358  -6.491   5.486  0.00  0.00     0.270 C 
ATOM     45  C33 ZIN A   1      13.385  -7.012   3.144  0.00  0.00     0.270 C 
ENDBRANCH  11  42
BRANCH  14  46
ATOM     46  C37 ZIN A   1      18.262  -7.640   2.357  0.00  0.00     0.255 C 
ATOM     47  N38 ZIN A   1      18.887  -6.793   1.516  0.00  0.00    -0.366 N 
ATOM     48  H79 ZIN A   1      18.837  -5.836   1.666  0.00  0.00     0.159 HD
ATOM     49  H80 ZIN A   1      19.386  -7.141   0.760  0.00  0.00     0.159 HD
ATOM     50  O39 ZIN A   1      18.407  -8.841   2.231  0.00  0.00    -0.268 OA
ENDBRANCH  14  46
TORSDOF 9
ENDMDL
MODEL 7
REMARK VINA RESULT:      -6.3      4.059      7.383
REMARK  9 active torsions:
REMARK  status: ('A' for Active; 'I' for Inactive)
REMARK    1  A    between atoms: N2_2  and  C4_4 
REMARK    2  A    between atoms: C6_6  and  N7_7 
REMARK       I    between atoms: N7_7  and  C8_8 
REMARK    3  A    between atoms: C8_8  and  C10_10 
REMARK    4  A    between atoms: C10_10  and  N11_11 
REMARK    5  A    between atoms: N11_11  and  C14_14 
REMARK    6  A    between atoms: C18_18  and  O19_19 
REMARK    7  A    between atoms: C28_26  and  N30_27 
REMARK    8  A    between atoms: C36_33  and  C37_34 
REMARK       I    between atoms: C37_34  and  N38_35 
REMARK    9  A    between atoms: C42_39  and  O43_40 
ROOT
ATOM      1  C4  ZIN A   1      18.715   3.459  13.851  0.00  0.00     0.019 A 
ATOM      2  C5  ZIN A   1      19.210   2.230  13.423  0.00  0.00     0.056 A 
ATOM      3  C6  ZIN A   1      19.289   1.163  14.304  0.00  0.00     0.070 A 
ATOM      4  C18 ZIN A   1      18.877   1.317  15.625  0.00  0.00     0.106 A 
ATOM      5  C20 ZIN A   1      18.389   2.554  16.060  0.00  0.00     0.045 A 
ATOM      6  C21 ZIN A   1      18.305   3.624  15.161  0.00  0.00    -0.020 A 
ATOM      7  C22 ZIN A   1      17.741   4.943  15.623  0.00  0.00     0.051 C 
ATOM      8  C23 ZIN A   1      18.141   5.192  17.075  0.00  0.00     0.030 C 
ATOM      9  C25 ZIN A   1      17.467   6.468  17.591  0.00  0.00     0.021 C 
ATOM     10  C26 ZIN A   1      17.778   6.597  19.078  0.00  0.00     0.074 C 
ATOM     11  C28 ZIN A   1      17.470   7.984  19.607  0.00  0.00     0.255 C 
ATOM     12  C34 ZIN A   1      15.997   8.221  19.755  0.00  0.00     0.135 C 
ATOM     13  O35 ZIN A   1      15.547   9.484  19.802  0.00  0.00    -0.193 OA
ATOM     14  C36 ZIN A   1      15.094   7.191  19.845  0.00  0.00     0.115 C 
ATOM     15  C40 ZIN A   1      15.547   5.803  19.765  0.00  0.00     0.210 C 
ATOM     16  O41 ZIN A   1      14.748   4.900  19.627  0.00  0.00    -0.288 OA
ATOM     17  C42 ZIN A   1      17.018   5.527  19.860  0.00  0.00     0.194 C 
ATOM     18  C44 ZIN A   1      17.270   4.189  19.215  0.00  0.00     0.201 C 
ATOM     19  O45 ZIN A   1      17.006   3.186  19.849  0.00  0.00    -0.289 OA
ATOM     20  C46 ZIN A   1      17.741   4.029  17.940  0.00  0.00     0.033 C 
ATOM     21  C47 ZIN A   1      17.945   2.742  17.449  0.00  0.00     0.131 C 
ATOM     22  O48 ZIN A   1      17.766   1.670  18.252  0.00  0.00    -0.190 OA
ENDROOT
BRANCH   3  23
ATOM     23  N7  ZIN A   1      19.783  -0.072  13.864  0.00  0.00    -0.323 N 
ATOM     24  C8  ZIN A   1      18.936  -1.011  13.398  0.00  0.00     0.247 C 
ATOM     25  O9  ZIN A   1      17.755  -0.758  13.284  0.00  0.00    -0.271 OA
ATOM     26  H56 ZIN A   1      20.736  -0.251  13.895  0.00  0.00     0.169 HD
BRANCH  24  27
ATOM     27  C10 ZIN A   1      19.456  -2.373  13.017  0.00  0.00     0.335 C 
BRANCH  27  28
ATOM     28  N11 ZIN A   1      19.787  -2.388  11.586  0.00  0.00    -0.059 N 
ATOM     29  H12 ZIN A   1      19.515  -1.510  11.168  0.00  0.00     0.278 HD
ATOM     30  H13 ZIN A   1      20.781  -2.518  11.472  0.00  0.00     0.278 HD
BRANCH  28  31
ATOM     31  C14 ZIN A   1      19.070  -3.487  10.929  0.00  0.00     0.115 C 
ATOM     32  C15 ZIN A   1      18.615  -3.041   9.538  0.00  0.00     0.045 C 
ATOM     33  C16 ZIN A   1      19.999  -4.696  10.797  0.00  0.00     0.045 C 
ATOM     34  C17 ZIN A   1      17.848  -3.872  11.766  0.00  0.00     0.045 C 
ENDBRANCH  28  31
ENDBRANCH  27  28
ENDBRANCH  24  27
ENDBRANCH   3  23
BRANCH   4  35
ATOM     35  O19 ZIN A   1      18.946   0.270  16.488  0.00  0.00    -0.357 OA
ATOM     36  H68 ZIN A   1      19.838  -0.086  16.602  0.00  0.00     0.217 HD
ENDBRANCH   4  35
BRANCH   1  37
ATOM     37  N2  ZIN A   1      18.637   4.530  12.954  0.00  0.00    -0.291 NA
ATOM     38  C1  ZIN A   1      19.902   4.703  12.227  0.00  0.00     0.116 C 
ATOM     39  C3  ZIN A   1      17.515   4.356  12.022  0.00  0.00     0.116 C 
ENDBRANCH   1  37
BRANCH  17  40
ATOM     40  O43 ZIN A   1      17.435   5.524  21.226  0.00  0.00    -0.373 OA
ATOM     41  H81 ZIN A   1      18.360   5.278  21.356  0.00  0.00     0.211 HD
ENDBRANCH  17  40
BRANCH  11  42
ATOM     42  N30 ZIN A   1      18.111   8.147  20.918  0.00  0.00    -0.068 N 
ATOM     43  H31 ZIN A   1      17.554   7.690  21.624  0.00  0.00     0.279 HD
ATOM     44  C32 ZIN A   1      19.451   7.546  20.885  0.00  0.00     0.270 C 
ATOM     45  C33 ZIN A   1      18.225   9.578  21.233  0.00  0.00     0.270 C 
ENDBRANCH  11  42
BRANCH  14  46
ATOM     46  C37 ZIN A   1      13.663   7.486  20.021  0.00  0.00     0.255 C 
ATOM     47  N38 ZIN A   1      12.915   7.846  18.959  0.00  0.00    -0.366 N 
ATOM     48  H79 ZIN A   1      13.298   7.833  18.068  0.00  0.00     0.159 HD
ATOM     49  H80 ZIN A   1      11.992   8.119  19.086  0.00  0.00     0.159 HD
ATOM     50  O39 ZIN A   1      13.156   7.405  21.123  0.00  0.00    -0.268 OA
ENDBRANCH  14  46
TORSDOF 9
ENDMDL
MODEL 8
REMARK VINA RESULT:      -6.2      2.606      4.154
REMARK  9 active torsions:
REMARK  status: ('A' for Active; 'I' for Inactive)
REMARK    1  A    between atoms: N2_2  and  C4_4 
REMARK    2  A    between atoms: C6_6  and  N7_7 
REMARK       I    between atoms: N7_7  and  C8_8 
REMARK    3  A    between atoms: C8_8  and  C10_10 
REMARK    4  A    between atoms: C10_10  and  N11_11 
REMARK    5  A    between atoms: N11_11  and  C14_14 
REMARK    6  A    between atoms: C18_18  and  O19_19 
REMARK    7  A    between atoms: C28_26  and  N30_27 
REMARK    8  A    between atoms: C36_33  and  C37_34 
REMARK       I    between atoms: C37_34  and  N38_35 
REMARK    9  A    between atoms: C42_39  and  O43_40 
ROOT
ATOM      1  C4  ZIN A   1      18.458  -0.121   8.793  0.00  0.00     0.019 A 
ATOM      2  C5  ZIN A   1      18.688  -1.455   8.472  0.00  0.00     0.056 A 
ATOM      3  C6  ZIN A   1      19.002  -2.369   9.465  0.00  0.00     0.070 A 
ATOM      4  C18 ZIN A   1      19.094  -1.954  10.791  0.00  0.00     0.106 A 
ATOM      5  C20 ZIN A   1      18.874  -0.611  11.114  0.00  0.00     0.045 A 
ATOM      6  C21 ZIN A   1      18.549   0.304  10.105  0.00  0.00    -0.020 A 
ATOM      7  C22 ZIN A   1      18.273   1.741  10.463  0.00  0.00     0.051 C 
ATOM      8  C23 ZIN A   1      19.174   2.165  11.620  0.00  0.00     0.030 C 
ATOM      9  C25 ZIN A   1      18.812   3.583  12.072  0.00  0.00     0.021 C 
ATOM     10  C26 ZIN A   1      19.635   3.907  13.314  0.00  0.00     0.074 C 
ATOM     11  C28 ZIN A   1      19.626   5.388  13.634  0.00  0.00     0.255 C 
ATOM     12  C34 ZIN A   1      18.319   5.836  14.218  0.00  0.00     0.135 C 
ATOM     13  O35 ZIN A   1      17.999   7.137  14.166  0.00  0.00    -0.193 OA
ATOM     14  C36 ZIN A   1      17.440   4.958  14.804  0.00  0.00     0.115 C 
ATOM     15  C40 ZIN A   1      17.743   3.529  14.849  0.00  0.00     0.210 C 
ATOM     16  O41 ZIN A   1      16.890   2.726  15.166  0.00  0.00    -0.288 OA
ATOM     17  C42 ZIN A   1      19.131   3.083  14.498  0.00  0.00     0.194 C 
ATOM     18  C44 ZIN A   1      19.051   1.639  14.079  0.00  0.00     0.201 C 
ATOM     19  O45 ZIN A   1      18.962   0.792  14.948  0.00  0.00    -0.289 OA
ATOM     20  C46 ZIN A   1      19.029   1.217  12.778  0.00  0.00     0.033 C 
ATOM     21  C47 ZIN A   1      18.962  -0.148  12.507  0.00  0.00     0.131 C 
ATOM     22  O48 ZIN A   1      19.007  -1.045  13.516  0.00  0.00    -0.190 OA
ENDROOT
BRANCH   3  23
ATOM     23  N7  ZIN A   1      19.227  -3.712   9.135  0.00  0.00    -0.323 N 
ATOM     24  C8  ZIN A   1      18.196  -4.580   9.101  0.00  0.00     0.247 C 
ATOM     25  O9  ZIN A   1      17.064  -4.183   9.278  0.00  0.00    -0.271 OA
ATOM     26  H56 ZIN A   1      20.125  -4.017   8.931  0.00  0.00     0.169 HD
BRANCH  24  27
ATOM     27  C10 ZIN A   1      18.451  -6.043   8.842  0.00  0.00     0.335 C 
BRANCH  27  28
ATOM     28  N11 ZIN A   1      17.199  -6.794   9.002  0.00  0.00    -0.059 N 
ATOM     29  H12 ZIN A   1      17.356  -7.585   9.608  0.00  0.00     0.278 HD
ATOM     30  H13 ZIN A   1      16.497  -6.194   9.410  0.00  0.00     0.278 HD
BRANCH  28  31
ATOM     31  C14 ZIN A   1      16.739  -7.264   7.689  0.00  0.00     0.115 C 
ATOM     32  C15 ZIN A   1      15.424  -6.572   7.331  0.00  0.00     0.045 C 
ATOM     33  C16 ZIN A   1      17.794  -6.934   6.631  0.00  0.00     0.045 C 
ATOM     34  C17 ZIN A   1      16.522  -8.778   7.738  0.00  0.00     0.045 C 
ENDBRANCH  28  31
ENDBRANCH  27  28
ENDBRANCH  24  27
ENDBRANCH   3  23
BRANCH   4  35
ATOM     35  O19 ZIN A   1      19.394  -2.850  11.768  0.00  0.00    -0.357 OA
ATOM     36  H68 ZIN A   1      20.342  -2.967  11.915  0.00  0.00     0.217 HD
ENDBRANCH   4  35
BRANCH   1  37
ATOM     37  N2  ZIN A   1      18.139   0.794   7.783  0.00  0.00    -0.291 NA
ATOM     38  C1  ZIN A   1      19.354   1.365   7.185  0.00  0.00     0.116 C 
ATOM     39  C3  ZIN A   1      17.290   0.173   6.758  0.00  0.00     0.116 C 
ENDBRANCH   1  37
BRANCH  17  40
ATOM     40  O43 ZIN A   1      20.002   3.245  15.618  0.00  0.00    -0.373 OA
ATOM     41  H81 ZIN A   1      20.584   4.015  15.557  0.00  0.00     0.211 HD
ENDBRANCH  17  40
BRANCH  11  42
ATOM     42  N30 ZIN A   1      20.698   5.675  14.597  0.00  0.00    -0.068 N 
ATOM     43  H31 ZIN A   1      21.285   4.860  14.699  0.00  0.00     0.279 HD
ATOM     44  C32 ZIN A   1      21.506   6.801  14.108  0.00  0.00     0.270 C 
ATOM     45  C33 ZIN A   1      20.109   6.023  15.897  0.00  0.00     0.270 C 
ENDBRANCH  11  42
BRANCH  14  46
ATOM     46  C37 ZIN A   1      16.186   5.461  15.388  0.00  0.00     0.255 C 
ATOM     47  N38 ZIN A   1      16.112   5.709  16.711  0.00  0.00    -0.366 N 
ATOM     48  H79 ZIN A   1      16.906   5.635  17.263  0.00  0.00     0.159 HD
ATOM     49  H80 ZIN A   1      15.264   5.962  17.109  0.00  0.00     0.159 HD
ATOM     50  O39 ZIN A   1      15.217   5.652  14.678  0.00  0.00    -0.268 OA
ENDBRANCH  14  46
TORSDOF 9
ENDMDL
MODEL 9
REMARK VINA RESULT:      -6.1      4.472     12.552
REMARK  9 active torsions:
REMARK  status: ('A' for Active; 'I' for Inactive)
REMARK    1  A    between atoms: N2_2  and  C4_4 
REMARK    2  A    between atoms: C6_6  and  N7_7 
REMARK       I    between atoms: N7_7  and  C8_8 
REMARK    3  A    between atoms: C8_8  and  C10_10 
REMARK    4  A    between atoms: C10_10  and  N11_11 
REMARK    5  A    between atoms: N11_11  and  C14_14 
REMARK    6  A    between atoms: C18_18  and  O19_19 
REMARK    7  A    between atoms: C28_26  and  N30_27 
REMARK    8  A    between atoms: C36_33  and  C37_34 
REMARK       I    between atoms: C37_34  and  N38_35 
REMARK    9  A    between atoms: C42_39  and  O43_40 
ROOT
ATOM      1  C4  ZIN A   1      18.573  -2.183   8.641  0.00  0.00     0.019 A 
ATOM      2  C5  ZIN A   1      18.511  -1.931  10.008  0.00  0.00     0.056 A 
ATOM      3  C6  ZIN A   1      17.933  -2.856  10.864  0.00  0.00     0.070 A 
ATOM      4  C18 ZIN A   1      17.406  -4.041  10.357  0.00  0.00     0.106 A 
ATOM      5  C20 ZIN A   1      17.457  -4.290   8.981  0.00  0.00     0.045 A 
ATOM      6  C21 ZIN A   1      18.051  -3.354   8.126  0.00  0.00    -0.020 A 
ATOM      7  C22 ZIN A   1      18.140  -3.646   6.650  0.00  0.00     0.051 C 
ATOM      8  C23 ZIN A   1      16.901  -4.415   6.202  0.00  0.00     0.030 C 
ATOM      9  C25 ZIN A   1      17.043  -4.824   4.732  0.00  0.00     0.021 C 
ATOM     10  C26 ZIN A   1      15.853  -5.709   4.372  0.00  0.00     0.074 C 
ATOM     11  C28 ZIN A   1      15.701  -5.876   2.873  0.00  0.00     0.255 C 
ATOM     12  C34 ZIN A   1      16.734  -6.797   2.296  0.00  0.00     0.135 C 
ATOM     13  O35 ZIN A   1      17.002  -6.728   0.984  0.00  0.00    -0.193 OA
ATOM     14  C36 ZIN A   1      17.414  -7.708   3.065  0.00  0.00     0.115 C 
ATOM     15  C40 ZIN A   1      17.170  -7.789   4.504  0.00  0.00     0.210 C 
ATOM     16  O41 ZIN A   1      17.909  -8.431   5.221  0.00  0.00    -0.288 OA
ATOM     17  C42 ZIN A   1      15.985  -7.062   5.068  0.00  0.00     0.194 C 
ATOM     18  C44 ZIN A   1      16.253  -6.826   6.531  0.00  0.00     0.201 C 
ATOM     19  O45 ZIN A   1      16.093  -7.753   7.302  0.00  0.00    -0.289 OA
ATOM     20  C46 ZIN A   1      16.706  -5.643   7.048  0.00  0.00     0.033 C 
ATOM     21  C47 ZIN A   1      16.910  -5.535   8.421  0.00  0.00     0.131 C 
ATOM     22  O48 ZIN A   1      16.581  -6.557   9.241  0.00  0.00    -0.190 OA
ENDROOT
BRANCH   3  23
ATOM     23  N7  ZIN A   1      17.879  -2.598  12.240  0.00  0.00    -0.323 N 
ATOM     24  C8  ZIN A   1      18.877  -1.918  12.838  0.00  0.00     0.247 C 
ATOM     25  O9  ZIN A   1      19.783  -1.461  12.173  0.00  0.00    -0.271 OA
ATOM     26  H56 ZIN A   1      17.123  -2.909  12.762  0.00  0.00     0.169 HD
BRANCH  24  27
ATOM     27  C10 ZIN A   1      18.867  -1.726  14.333  0.00  0.00     0.335 C 
BRANCH  27  28
ATOM     28  N11 ZIN A   1      18.297  -0.410  14.653  0.00  0.00    -0.059 N 
ATOM     29  H12 ZIN A   1      18.849   0.312  14.213  0.00  0.00     0.278 HD
ATOM     30  H13 ZIN A   1      17.349  -0.362  14.312  0.00  0.00     0.278 HD
BRANCH  28  31
ATOM     31  C14 ZIN A   1      18.305  -0.215  16.109  0.00  0.00     0.115 C 
ATOM     32  C15 ZIN A   1      19.225  -1.249  16.758  0.00  0.00     0.045 C 
ATOM     33  C16 ZIN A   1      18.811   1.193  16.431  0.00  0.00     0.045 C 
ATOM     34  C17 ZIN A   1      16.884  -0.383  16.653  0.00  0.00     0.045 C 
ENDBRANCH  28  31
ENDBRANCH  27  28
ENDBRANCH  24  27
ENDBRANCH   3  23
BRANCH   4  35
ATOM     35  O19 ZIN A   1      16.846  -4.952  11.195  0.00  0.00    -0.357 OA
ATOM     36  H68 ZIN A   1      17.004  -5.871  10.938  0.00  0.00     0.217 HD
ENDBRANCH   4  35
BRANCH   1  37
ATOM     37  N2  ZIN A   1      19.161  -1.244   7.785  0.00  0.00    -0.291 NA
ATOM     38  C1  ZIN A   1      18.153  -0.618   6.918  0.00  0.00     0.116 C 
ATOM     39  C3  ZIN A   1      19.904  -0.231   8.546  0.00  0.00     0.116 C 
ENDBRANCH   1  37
BRANCH  17  40
ATOM     40  O43 ZIN A   1      14.797  -7.831   4.881  0.00  0.00    -0.373 OA
ATOM     41  H81 ZIN A   1      14.049  -7.538   5.419  0.00  0.00     0.211 HD
ENDBRANCH  17  40
BRANCH  11  42
ATOM     42  N30 ZIN A   1      14.367  -6.421   2.588  0.00  0.00    -0.068 N 
ATOM     43  H31 ZIN A   1      14.007  -6.878   3.413  0.00  0.00     0.279 HD
ATOM     44  C32 ZIN A   1      13.465  -5.328   2.200  0.00  0.00     0.270 C 
ATOM     45  C33 ZIN A   1      14.459  -7.392   1.489  0.00  0.00     0.270 C 
ENDBRANCH  11  42
BRANCH  14  46
ATOM     46  C37 ZIN A   1      18.395  -8.608   2.437  0.00  0.00     0.255 C 
ATOM     47  N38 ZIN A   1      19.427  -8.095   1.738  0.00  0.00    -0.366 N 
ATOM     48  H79 ZIN A   1      19.570  -7.136   1.717  0.00  0.00     0.159 HD
ATOM     49  H80 ZIN A   1      20.027  -8.686   1.256  0.00  0.00     0.159 HD
ATOM     50  O39 ZIN A   1      18.274  -9.813   2.548  0.00  0.00    -0.268 OA
ENDBRANCH  14  46
TORSDOF 9
ENDMDL
