MODEL 1
REMARK VINA RESULT:      -8.9      0.000      0.000
REMARK  11 active torsions:
REMARK  status: ('A' for Active; 'I' for Inactive)
REMARK    1  A    between atoms: O2_2  and  C3_3 
REMARK    2  A    between atoms: C3_3  and  C5_5 
REMARK    3  A    between atoms: C11_11  and  C12_12 
REMARK    4  A    between atoms: C12_12  and  O14_14 
REMARK    5  A    between atoms: O14_14  and  C15_15 
REMARK    6  A    between atoms: C15_15  and  C16_16 
REMARK    7  A    between atoms: C16_16  and  N17_17 
REMARK    8  A    between atoms: N17_17  and  C20_20 
REMARK    9  A    between atoms: C20_20  and  C21_21 
REMARK   10  A    between atoms: C27_27  and  C29_28 
REMARK   11  A    between atoms: C33_32  and  N34_33 
ROOT
ATOM      1  C5  ZIN A   1      18.437  -2.571  10.671  0.00  0.00     0.052 C 
ATOM      2  C6  ZIN A   1      19.682  -2.818  11.115  0.00  0.00     0.018 C 
ATOM      3  C7  ZIN A   1      20.085  -4.231  11.454  0.00  0.00     0.069 C 
ATOM      4  N8  ZIN A   1      20.588  -1.803  11.264  0.00  0.00    -0.362 N 
ATOM      5  C9  ZIN A   1      20.166  -0.503  11.316  0.00  0.00     0.018 C 
ATOM      6  C10 ZIN A   1      21.084   0.556  11.869  0.00  0.00     0.069 C 
ATOM      7  C11 ZIN A   1      18.940  -0.159  10.881  0.00  0.00     0.052 C 
ATOM      8  C27 ZIN A   1      17.997  -1.181  10.309  0.00  0.00     0.101 C 
ATOM      9  H44 ZIN A   1      21.534  -2.007  11.333  0.00  0.00     0.165 HD
ENDROOT
BRANCH   7  10
ATOM     10  C12 ZIN A   1      18.535   1.193  10.957  0.00  0.00     0.292 C 
ATOM     11  O13 ZIN A   1      18.998   2.012  10.185  0.00  0.00    -0.259 OA
BRANCH  10  12
ATOM     12  O14 ZIN A   1      17.635   1.576  11.886  0.00  0.00    -0.316 OA
BRANCH  12  13
ATOM     13  C15 ZIN A   1      17.769   2.899  12.412  0.00  0.00     0.206 C 
BRANCH  13  14
ATOM     14  C16 ZIN A   1      17.731   2.845  13.941  0.00  0.00     0.261 C 
BRANCH  14  15
ATOM     15  N17 ZIN A   1      19.093   2.998  14.470  0.00  0.00    -0.069 N 
ATOM     16  H18 ZIN A   1      19.734   2.457  13.908  0.00  0.00     0.279 HD
ATOM     17  C19 ZIN A   1      19.479   4.414  14.427  0.00  0.00     0.270 C 
BRANCH  15  18
ATOM     18  C20 ZIN A   1      19.136   2.519  15.858  0.00  0.00     0.273 C 
BRANCH  18  19
ATOM     19  C21 ZIN A   1      18.797   1.051  15.894  0.00  0.00    -0.033 A 
ATOM     20  C26 ZIN A   1      17.961   0.559  16.878  0.00  0.00     0.009 A 
ATOM     21  C25 ZIN A   1      17.646  -0.787  16.909  0.00  0.00     0.001 A 
ATOM     22  C24 ZIN A   1      18.176  -1.642  15.961  0.00  0.00     0.000 A 
ATOM     23  C23 ZIN A   1      19.017  -1.150  14.980  0.00  0.00     0.001 A 
ATOM     24  C22 ZIN A   1      19.327   0.196  14.946  0.00  0.00     0.009 A 
ENDBRANCH  18  19
ENDBRANCH  15  18
ENDBRANCH  14  15
ENDBRANCH  13  14
ENDBRANCH  12  13
ENDBRANCH  10  12
ENDBRANCH   7  10
BRANCH   8  25
ATOM     25  C29 ZIN A   1      17.961  -1.038   8.809  0.00  0.00    -0.042 A 
ATOM     26  C37 ZIN A   1      18.793  -1.813   8.021  0.00  0.00     0.044 A 
ATOM     27  C33 ZIN A   1      18.757  -1.685   6.645  0.00  0.00     0.103 A 
ATOM     28  C32 ZIN A   1      17.895  -0.777   6.058  0.00  0.00     0.036 A 
ATOM     29  C31 ZIN A   1      17.067   0.001   6.846  0.00  0.00     0.003 A 
ATOM     30  C30 ZIN A   1      17.101  -0.130   8.222  0.00  0.00     0.008 A 
BRANCH  27  31
ATOM     31  N34 ZIN A   1      19.642  -2.518   5.801  0.00  0.00    -0.116 N 
ATOM     32  O35 ZIN A   1      20.253  -3.449   6.293  0.00  0.00    -0.532 OA
ATOM     33  O36 ZIN A   1      19.759  -2.273   4.614  0.00  0.00    -0.532 OA
ENDBRANCH  27  31
ENDBRANCH   8  25
BRANCH   1  34
ATOM     34  C3  ZIN A   1      17.525  -3.642  10.538  0.00  0.00     0.291 C 
ATOM     35  O4  ZIN A   1      16.719  -3.869  11.420  0.00  0.00    -0.260 OA
BRANCH  34  36
ATOM     36  O2  ZIN A   1      17.549  -4.415   9.431  0.00  0.00    -0.323 OA
ATOM     37  C1  ZIN A   1      16.370  -5.169   9.140  0.00  0.00     0.213 C 
ENDBRANCH  34  36
ENDBRANCH   1  34
TORSDOF 11
ENDMDL
MODEL 2
REMARK VINA RESULT:      -8.6      2.450      8.236
REMARK  11 active torsions:
REMARK  status: ('A' for Active; 'I' for Inactive)
REMARK    1  A    between atoms: O2_2  and  C3_3 
REMARK    2  A    between atoms: C3_3  and  C5_5 
REMARK    3  A    between atoms: C11_11  and  C12_12 
REMARK    4  A    between atoms: C12_12  and  O14_14 
REMARK    5  A    between atoms: O14_14  and  C15_15 
REMARK    6  A    between atoms: C15_15  and  C16_16 
REMARK    7  A    between atoms: C16_16  and  N17_17 
REMARK    8  A    between atoms: N17_17  and  C20_20 
REMARK    9  A    between atoms: C20_20  and  C21_21 
REMARK   10  A    between atoms: C27_27  and  C29_28 
REMARK   11  A    between atoms: C33_32  and  N34_33 
ROOT
ATOM      1  C5  ZIN A   1      18.480   2.479  12.586  0.00  0.00     0.052 C 
ATOM      2  C6  ZIN A   1      19.723   2.743  12.147  0.00  0.00     0.018 C 
ATOM      3  C7  ZIN A   1      20.114   4.165  11.833  0.00  0.00     0.069 C 
ATOM      4  N8  ZIN A   1      20.636   1.738  11.983  0.00  0.00    -0.362 N 
ATOM      5  C9  ZIN A   1      20.224   0.436  11.908  0.00  0.00     0.018 C 
ATOM      6  C10 ZIN A   1      21.151  -0.607  11.338  0.00  0.00     0.069 C 
ATOM      7  C11 ZIN A   1      19.002   0.075  12.336  0.00  0.00     0.052 C 
ATOM      8  C27 ZIN A   1      18.050   1.079  12.924  0.00  0.00     0.101 C 
ATOM      9  H44 ZIN A   1      21.581   1.950  11.918  0.00  0.00     0.165 HD
ENDROOT
BRANCH   7  10
ATOM     10  C12 ZIN A   1      18.607  -1.280  12.238  0.00  0.00     0.292 C 
ATOM     11  O13 ZIN A   1      19.089  -2.110  12.985  0.00  0.00    -0.259 OA
BRANCH  10  12
ATOM     12  O14 ZIN A   1      17.697  -1.651  11.313  0.00  0.00    -0.316 OA
BRANCH  12  13
ATOM     13  C15 ZIN A   1      17.485  -3.053  11.137  0.00  0.00     0.206 C 
BRANCH  13  14
ATOM     14  C16 ZIN A   1      17.615  -3.407   9.654  0.00  0.00     0.261 C 
BRANCH  14  15
ATOM     15  N17 ZIN A   1      19.021  -3.291   9.244  0.00  0.00    -0.069 N 
ATOM     16  H18 ZIN A   1      19.458  -2.534   9.752  0.00  0.00     0.279 HD
ATOM     17  C19 ZIN A   1      19.722  -4.547   9.538  0.00  0.00     0.270 C 
BRANCH  15  18
ATOM     18  C20 ZIN A   1      19.090  -3.015   7.803  0.00  0.00     0.273 C 
BRANCH  18  19
ATOM     19  C21 ZIN A   1      18.936  -1.535   7.566  0.00  0.00    -0.033 A 
ATOM     20  C26 ZIN A   1      18.236  -1.080   6.465  0.00  0.00     0.009 A 
ATOM     21  C25 ZIN A   1      18.091   0.278   6.251  0.00  0.00     0.001 A 
ATOM     22  C24 ZIN A   1      18.655   1.182   7.132  0.00  0.00     0.000 A 
ATOM     23  C23 ZIN A   1      19.359   0.726   8.230  0.00  0.00     0.001 A 
ATOM     24  C22 ZIN A   1      19.500  -0.631   8.448  0.00  0.00     0.009 A 
ENDBRANCH  18  19
ENDBRANCH  15  18
ENDBRANCH  14  15
ENDBRANCH  13  14
ENDBRANCH  12  13
ENDBRANCH  10  12
ENDBRANCH   7  10
BRANCH   8  25
ATOM     25  C29 ZIN A   1      18.014   0.911  14.422  0.00  0.00    -0.042 A 
ATOM     26  C37 ZIN A   1      18.794   1.721  15.227  0.00  0.00     0.044 A 
ATOM     27  C33 ZIN A   1      18.758   1.569  16.601  0.00  0.00     0.103 A 
ATOM     28  C32 ZIN A   1      17.948   0.603  17.168  0.00  0.00     0.036 A 
ATOM     29  C31 ZIN A   1      17.172  -0.210  16.363  0.00  0.00     0.003 A 
ATOM     30  C30 ZIN A   1      17.206  -0.056  14.989  0.00  0.00     0.008 A 
BRANCH  27  31
ATOM     31  N34 ZIN A   1      19.587   2.440  17.463  0.00  0.00    -0.116 N 
ATOM     32  O35 ZIN A   1      20.117   3.432  16.997  0.00  0.00    -0.532 OA
ATOM     33  O36 ZIN A   1      19.739   2.165  18.640  0.00  0.00    -0.532 OA
ENDBRANCH  27  31
ENDBRANCH   8  25
BRANCH   1  34
ATOM     34  C3  ZIN A   1      17.558   3.540  12.737  0.00  0.00     0.291 C 
ATOM     35  O4  ZIN A   1      17.475   4.129  13.798  0.00  0.00    -0.260 OA
BRANCH  34  36
ATOM     36  O2  ZIN A   1      16.770   3.901  11.702  0.00  0.00    -0.323 OA
ATOM     37  C1  ZIN A   1      16.538   5.299  11.519  0.00  0.00     0.213 C 
ENDBRANCH  34  36
ENDBRANCH   1  34
TORSDOF 11
ENDMDL
MODEL 3
REMARK VINA RESULT:      -8.1      2.092      6.896
REMARK  11 active torsions:
REMARK  status: ('A' for Active; 'I' for Inactive)
REMARK    1  A    between atoms: O2_2  and  C3_3 
REMARK    2  A    between atoms: C3_3  and  C5_5 
REMARK    3  A    between atoms: C11_11  and  C12_12 
REMARK    4  A    between atoms: C12_12  and  O14_14 
REMARK    5  A    between atoms: O14_14  and  C15_15 
REMARK    6  A    between atoms: C15_15  and  C16_16 
REMARK    7  A    between atoms: C16_16  and  N17_17 
REMARK    8  A    between atoms: N17_17  and  C20_20 
REMARK    9  A    between atoms: C20_20  and  C21_21 
REMARK   10  A    between atoms: C27_27  and  C29_28 
REMARK   11  A    between atoms: C33_32  and  N34_33 
ROOT
ATOM      1  C5  ZIN A   1      18.224   1.333  14.783  0.00  0.00     0.052 C 
ATOM      2  C6  ZIN A   1      19.018   2.195  15.440  0.00  0.00     0.018 C 
ATOM      3  C7  ZIN A   1      19.292   1.984  16.908  0.00  0.00     0.069 C 
ATOM      4  N8  ZIN A   1      19.581   3.262  14.795  0.00  0.00    -0.362 N 
ATOM      5  C9  ZIN A   1      19.081   3.684  13.593  0.00  0.00     0.018 C 
ATOM      6  C10 ZIN A   1      19.422   5.062  13.087  0.00  0.00     0.069 C 
ATOM      7  C11 ZIN A   1      18.289   2.884  12.858  0.00  0.00     0.052 C 
ATOM      8  C27 ZIN A   1      17.935   1.497  13.317  0.00  0.00     0.101 C 
ATOM      9  H44 ZIN A   1      20.337   3.722  15.191  0.00  0.00     0.165 HD
ENDROOT
BRANCH   7  10
ATOM     10  C12 ZIN A   1      17.785   3.355  11.624  0.00  0.00     0.292 C 
ATOM     11  O13 ZIN A   1      16.694   3.891  11.576  0.00  0.00    -0.259 OA
BRANCH  10  12
ATOM     12  O14 ZIN A   1      18.514   3.209  10.498  0.00  0.00    -0.316 OA
BRANCH  12  13
ATOM     13  C15 ZIN A   1      18.041   2.263   9.536  0.00  0.00     0.206 C 
BRANCH  13  14
ATOM     14  C16 ZIN A   1      19.232   1.617   8.826  0.00  0.00     0.261 C 
BRANCH  14  15
ATOM     15  N17 ZIN A   1      18.786   0.409   8.120  0.00  0.00    -0.069 N 
ATOM     16  H18 ZIN A   1      19.376  -0.369   8.380  0.00  0.00     0.279 HD
ATOM     17  C19 ZIN A   1      17.395   0.113   8.487  0.00  0.00     0.270 C 
BRANCH  15  18
ATOM     18  C20 ZIN A   1      18.876   0.627   6.671  0.00  0.00     0.273 C 
BRANCH  18  19
ATOM     19  C21 ZIN A   1      18.642  -0.676   5.951  0.00  0.00    -0.033 A 
ATOM     20  C26 ZIN A   1      19.376  -1.796   6.292  0.00  0.00     0.009 A 
ATOM     21  C25 ZIN A   1      19.159  -2.992   5.635  0.00  0.00     0.001 A 
ATOM     22  C24 ZIN A   1      18.213  -3.067   4.629  0.00  0.00     0.000 A 
ATOM     23  C23 ZIN A   1      17.483  -1.945   4.284  0.00  0.00     0.001 A 
ATOM     24  C22 ZIN A   1      17.697  -0.750   4.945  0.00  0.00     0.009 A 
ENDBRANCH  18  19
ENDBRANCH  15  18
ENDBRANCH  14  15
ENDBRANCH  13  14
ENDBRANCH  12  13
ENDBRANCH  10  12
ENDBRANCH   7  10
BRANCH   8  25
ATOM     25  C29 ZIN A   1      18.737   0.492  12.530  0.00  0.00    -0.042 A 
ATOM     26  C37 ZIN A   1      18.121  -0.633  12.013  0.00  0.00     0.044 A 
ATOM     27  C33 ZIN A   1      18.856  -1.551  11.288  0.00  0.00     0.103 A 
ATOM     28  C32 ZIN A   1      20.209  -1.349  11.087  0.00  0.00     0.036 A 
ATOM     29  C31 ZIN A   1      20.826  -0.227  11.607  0.00  0.00     0.003 A 
ATOM     30  C30 ZIN A   1      20.089   0.693  12.330  0.00  0.00     0.008 A 
BRANCH  27  31
ATOM     31  N34 ZIN A   1      18.196  -2.752  10.729  0.00  0.00    -0.116 N 
ATOM     32  O35 ZIN A   1      17.105  -3.097  11.148  0.00  0.00    -0.532 OA
ATOM     33  O36 ZIN A   1      18.741  -3.394   9.850  0.00  0.00    -0.532 OA
ENDBRANCH  27  31
ENDBRANCH   8  25
BRANCH   1  34
ATOM     34  C3  ZIN A   1      17.652   0.246  15.483  0.00  0.00     0.291 C 
ATOM     35  O4  ZIN A   1      16.609   0.394  16.091  0.00  0.00    -0.260 OA
BRANCH  34  36
ATOM     36  O2  ZIN A   1      18.266  -0.957  15.479  0.00  0.00    -0.323 OA
ATOM     37  C1  ZIN A   1      18.194  -1.726  16.681  0.00  0.00     0.213 C 
ENDBRANCH  34  36
ENDBRANCH   1  34
TORSDOF 11
ENDMDL
MODEL 4
REMARK VINA RESULT:      -8.1      2.129      4.385
REMARK  11 active torsions:
REMARK  status: ('A' for Active; 'I' for Inactive)
REMARK    1  A    between atoms: O2_2  and  C3_3 
REMARK    2  A    between atoms: C3_3  and  C5_5 
REMARK    3  A    between atoms: C11_11  and  C12_12 
REMARK    4  A    between atoms: C12_12  and  O14_14 
REMARK    5  A    between atoms: O14_14  and  C15_15 
REMARK    6  A    between atoms: C15_15  and  C16_16 
REMARK    7  A    between atoms: C16_16  and  N17_17 
REMARK    8  A    between atoms: N17_17  and  C20_20 
REMARK    9  A    between atoms: C20_20  and  C21_21 
REMARK   10  A    between atoms: C27_27  and  C29_28 
REMARK   11  A    between atoms: C33_32  and  N34_33 
ROOT
ATOM      1  C5  ZIN A   1      18.754  -1.668   6.913  0.00  0.00     0.052 C 
ATOM      2  C6  ZIN A   1      17.684  -0.855   6.866  0.00  0.00     0.018 C 
ATOM      3  C7  ZIN A   1      17.202  -0.338   5.534  0.00  0.00     0.069 C 
ATOM      4  N8  ZIN A   1      17.028  -0.492   8.010  0.00  0.00    -0.362 N 
ATOM      5  C9  ZIN A   1      17.632  -0.637   9.228  0.00  0.00     0.018 C 
ATOM      6  C10 ZIN A   1      17.095   0.112  10.420  0.00  0.00     0.069 C 
ATOM      7  C11 ZIN A   1      18.701  -1.441   9.375  0.00  0.00     0.052 C 
ATOM      8  C27 ZIN A   1      19.261  -2.218   8.216  0.00  0.00     0.101 C 
ATOM      9  H44 ZIN A   1      16.130  -0.129   7.957  0.00  0.00     0.165 HD
ENDROOT
BRANCH   7  10
ATOM     10  C12 ZIN A   1      19.305  -1.562  10.648  0.00  0.00     0.292 C 
ATOM     11  O13 ZIN A   1      18.764  -2.218  11.518  0.00  0.00    -0.259 OA
BRANCH  10  12
ATOM     12  O14 ZIN A   1      20.480  -0.949  10.898  0.00  0.00    -0.316 OA
BRANCH  12  13
ATOM     13  C15 ZIN A   1      20.422   0.400  11.367  0.00  0.00     0.206 C 
BRANCH  13  14
ATOM     14  C16 ZIN A   1      20.399   0.406  12.897  0.00  0.00     0.261 C 
BRANCH  14  15
ATOM     15  N17 ZIN A   1      19.594   1.541  13.370  0.00  0.00    -0.069 N 
ATOM     16  H18 ZIN A   1      20.091   2.021  14.107  0.00  0.00     0.279 HD
ATOM     17  C19 ZIN A   1      19.352   2.467  12.257  0.00  0.00     0.270 C 
BRANCH  15  18
ATOM     18  C20 ZIN A   1      18.311   1.049  13.888  0.00  0.00     0.273 C 
BRANCH  18  19
ATOM     19  C21 ZIN A   1      18.478   0.625  15.325  0.00  0.00    -0.033 A 
ATOM     20  C26 ZIN A   1      19.008   1.506  16.249  0.00  0.00     0.009 A 
ATOM     21  C25 ZIN A   1      19.156   1.118  17.567  0.00  0.00     0.001 A 
ATOM     22  C24 ZIN A   1      18.785  -0.154  17.960  0.00  0.00     0.000 A 
ATOM     23  C23 ZIN A   1      18.260  -1.037  17.035  0.00  0.00     0.001 A 
ATOM     24  C22 ZIN A   1      18.107  -0.648  15.718  0.00  0.00     0.009 A 
ENDBRANCH  18  19
ENDBRANCH  15  18
ENDBRANCH  14  15
ENDBRANCH  13  14
ENDBRANCH  12  13
ENDBRANCH  10  12
ENDBRANCH   7  10
BRANCH   8  25
ATOM     25  C29 ZIN A   1      18.855  -3.664   8.345  0.00  0.00    -0.042 A 
ATOM     26  C37 ZIN A   1      17.546  -4.038   8.103  0.00  0.00     0.044 A 
ATOM     27  C33 ZIN A   1      17.175  -5.365   8.217  0.00  0.00     0.103 A 
ATOM     28  C32 ZIN A   1      18.110  -6.315   8.582  0.00  0.00     0.036 A 
ATOM     29  C31 ZIN A   1      19.417  -5.940   8.829  0.00  0.00     0.003 A 
ATOM     30  C30 ZIN A   1      19.789  -4.613   8.711  0.00  0.00     0.008 A 
BRANCH  27  31
ATOM     31  N34 ZIN A   1      15.776  -5.767   7.951  0.00  0.00    -0.116 N 
ATOM     32  O35 ZIN A   1      15.450  -6.139   6.838  0.00  0.00    -0.532 OA
ATOM     33  O36 ZIN A   1      14.949  -5.726   8.845  0.00  0.00    -0.532 OA
ENDBRANCH  27  31
ENDBRANCH   8  25
BRANCH   1  34
ATOM     34  C3  ZIN A   1      19.414  -2.016   5.712  0.00  0.00     0.291 C 
ATOM     35  O4  ZIN A   1      19.955  -1.156   5.043  0.00  0.00    -0.260 OA
BRANCH  34  36
ATOM     36  O2  ZIN A   1      19.441  -3.303   5.306  0.00  0.00    -0.323 OA
ATOM     37  C1  ZIN A   1      18.393  -3.731   4.434  0.00  0.00     0.213 C 
ENDBRANCH  34  36
ENDBRANCH   1  34
TORSDOF 11
ENDMDL
MODEL 5
REMARK VINA RESULT:      -8.1      1.639      2.587
REMARK  11 active torsions:
REMARK  status: ('A' for Active; 'I' for Inactive)
REMARK    1  A    between atoms: O2_2  and  C3_3 
REMARK    2  A    between atoms: C3_3  and  C5_5 
REMARK    3  A    between atoms: C11_11  and  C12_12 
REMARK    4  A    between atoms: C12_12  and  O14_14 
REMARK    5  A    between atoms: O14_14  and  C15_15 
REMARK    6  A    between atoms: C15_15  and  C16_16 
REMARK    7  A    between atoms: C16_16  and  N17_17 
REMARK    8  A    between atoms: N17_17  and  C20_20 
REMARK    9  A    between atoms: C20_20  and  C21_21 
REMARK   10  A    between atoms: C27_27  and  C29_28 
REMARK   11  A    between atoms: C33_32  and  N34_33 
ROOT
ATOM      1  C5  ZIN A   1      17.772  -4.569   9.106  0.00  0.00     0.052 C 
ATOM      2  C6  ZIN A   1      18.880  -5.320   9.230  0.00  0.00     0.018 C 
ATOM      3  C7  ZIN A   1      18.939  -6.674   8.569  0.00  0.00     0.069 C 
ATOM      4  N8  ZIN A   1      19.955  -4.871   9.947  0.00  0.00    -0.362 N 
ATOM      5  C9  ZIN A   1      19.810  -3.843  10.837  0.00  0.00     0.018 C 
ATOM      6  C10 ZIN A   1      20.861  -3.618  11.893  0.00  0.00     0.069 C 
ATOM      7  C11 ZIN A   1      18.740  -3.030  10.782  0.00  0.00     0.052 C 
ATOM      8  C27 ZIN A   1      17.675  -3.209   9.736  0.00  0.00     0.101 C 
ATOM      9  H44 ZIN A   1      20.824  -5.285   9.824  0.00  0.00     0.165 HD
ENDROOT
BRANCH   7  10
ATOM     10  C12 ZIN A   1      18.620  -1.981  11.722  0.00  0.00     0.292 C 
ATOM     11  O13 ZIN A   1      17.679  -1.959  12.493  0.00  0.00    -0.259 OA
BRANCH  10  12
ATOM     12  O14 ZIN A   1      19.549  -1.003  11.763  0.00  0.00    -0.316 OA
BRANCH  12  13
ATOM     13  C15 ZIN A   1      19.072   0.340  11.869  0.00  0.00     0.206 C 
BRANCH  13  14
ATOM     14  C16 ZIN A   1      20.053   1.165  12.705  0.00  0.00     0.261 C 
BRANCH  14  15
ATOM     15  N17 ZIN A   1      19.306   2.000  13.654  0.00  0.00    -0.069 N 
ATOM     16  H18 ZIN A   1      19.918   2.286  14.405  0.00  0.00     0.279 HD
ATOM     17  C19 ZIN A   1      18.792   3.189  12.961  0.00  0.00     0.270 C 
BRANCH  15  18
ATOM     18  C20 ZIN A   1      18.183   1.230  14.207  0.00  0.00     0.273 C 
BRANCH  18  19
ATOM     19  C21 ZIN A   1      18.581   0.647  15.538  0.00  0.00    -0.033 A 
ATOM     20  C26 ZIN A   1      18.898   1.483  16.592  0.00  0.00     0.009 A 
ATOM     21  C25 ZIN A   1      19.258   0.947  17.814  0.00  0.00     0.001 A 
ATOM     22  C24 ZIN A   1      19.311  -0.424  17.980  0.00  0.00     0.000 A 
ATOM     23  C23 ZIN A   1      18.999  -1.259  16.924  0.00  0.00     0.001 A 
ATOM     24  C22 ZIN A   1      18.634  -0.724  15.704  0.00  0.00     0.009 A 
ENDBRANCH  18  19
ENDBRANCH  15  18
ENDBRANCH  14  15
ENDBRANCH  13  14
ENDBRANCH  12  13
ENDBRANCH  10  12
ENDBRANCH   7  10
BRANCH   8  25
ATOM     25  C29 ZIN A   1      17.837  -2.150   8.676  0.00  0.00    -0.042 A 
ATOM     26  C37 ZIN A   1      18.558  -2.425   7.529  0.00  0.00     0.044 A 
ATOM     27  C33 ZIN A   1      18.703  -1.455   6.554  0.00  0.00     0.103 A 
ATOM     28  C32 ZIN A   1      18.134  -0.208   6.732  0.00  0.00     0.036 A 
ATOM     29  C31 ZIN A   1      17.418   0.069   7.881  0.00  0.00     0.003 A 
ATOM     30  C30 ZIN A   1      17.270  -0.902   8.853  0.00  0.00     0.008 A 
BRANCH  27  31
ATOM     31  N34 ZIN A   1      19.469  -1.752   5.324  0.00  0.00    -0.116 N 
ATOM     32  O35 ZIN A   1      19.949  -0.842   4.671  0.00  0.00    -0.532 OA
ATOM     33  O36 ZIN A   1      19.620  -2.905   4.963  0.00  0.00    -0.532 OA
ENDBRANCH  27  31
ENDBRANCH   8  25
BRANCH   1  34
ATOM     34  C3  ZIN A   1      16.677  -5.068   8.365  0.00  0.00     0.291 C 
ATOM     35  O4  ZIN A   1      16.767  -5.201   7.159  0.00  0.00    -0.260 OA
BRANCH  34  36
ATOM     36  O2  ZIN A   1      15.529  -5.397   8.996  0.00  0.00    -0.323 OA
ATOM     37  C1  ZIN A   1      14.527  -6.056   8.218  0.00  0.00     0.213 C 
ENDBRANCH  34  36
ENDBRANCH   1  34
TORSDOF 11
ENDMDL
MODEL 6
REMARK VINA RESULT:      -8.0      2.447      7.865
REMARK  11 active torsions:
REMARK  status: ('A' for Active; 'I' for Inactive)
REMARK    1  A    between atoms: O2_2  and  C3_3 
REMARK    2  A    between atoms: C3_3  and  C5_5 
REMARK    3  A    between atoms: C11_11  and  C12_12 
REMARK    4  A    between atoms: C12_12  and  O14_14 
REMARK    5  A    between atoms: O14_14  and  C15_15 
REMARK    6  A    between atoms: C15_15  and  C16_16 
REMARK    7  A    between atoms: C16_16  and  N17_17 
REMARK    8  A    between atoms: N17_17  and  C20_20 
REMARK    9  A    between atoms: C20_20  and  C21_21 
REMARK   10  A    between atoms: C27_27  and  C29_28 
REMARK   11  A    between atoms: C33_32  and  N34_33 
ROOT
ATOM      1  C5  ZIN A   1      18.469   2.710  12.603  0.00  0.00     0.052 C 
ATOM      2  C6  ZIN A   1      19.722   2.972  12.190  0.00  0.00     0.018 C 
ATOM      3  C7  ZIN A   1      20.146   4.401  11.962  0.00  0.00     0.069 C 
ATOM      4  N8  ZIN A   1      20.615   1.959  11.974  0.00  0.00    -0.362 N 
ATOM      5  C9  ZIN A   1      20.177   0.672  11.821  0.00  0.00     0.018 C 
ATOM      6  C10 ZIN A   1      21.086  -0.355  11.199  0.00  0.00     0.069 C 
ATOM      7  C11 ZIN A   1      18.943   0.314  12.218  0.00  0.00     0.052 C 
ATOM      8  C27 ZIN A   1      18.007   1.303  12.856  0.00  0.00     0.101 C 
ATOM      9  H44 ZIN A   1      21.564   2.154  11.930  0.00  0.00     0.165 HD
ENDROOT
BRANCH   7  10
ATOM     10  C12 ZIN A   1      18.520  -1.024  12.038  0.00  0.00     0.292 C 
ATOM     11  O13 ZIN A   1      19.001  -1.911  12.718  0.00  0.00    -0.259 OA
BRANCH  10  12
ATOM     12  O14 ZIN A   1      17.585  -1.316  11.111  0.00  0.00    -0.316 OA
BRANCH  12  13
ATOM     13  C15 ZIN A   1      17.653  -0.604   9.873  0.00  0.00     0.206 C 
BRANCH  13  14
ATOM     14  C16 ZIN A   1      18.680  -1.273   8.957  0.00  0.00     0.261 C 
BRANCH  14  15
ATOM     15  N17 ZIN A   1      17.988  -2.146   8.000  0.00  0.00    -0.069 N 
ATOM     16  H18 ZIN A   1      17.009  -2.201   8.243  0.00  0.00     0.279 HD
ATOM     17  C19 ZIN A   1      18.127  -1.596   6.646  0.00  0.00     0.270 C 
BRANCH  15  18
ATOM     18  C20 ZIN A   1      18.579  -3.490   8.047  0.00  0.00     0.273 C 
BRANCH  18  19
ATOM     19  C21 ZIN A   1      18.219  -4.152   9.352  0.00  0.00    -0.033 A 
ATOM     20  C26 ZIN A   1      16.903  -4.473   9.625  0.00  0.00     0.009 A 
ATOM     21  C25 ZIN A   1      16.574  -5.084  10.820  0.00  0.00     0.001 A 
ATOM     22  C24 ZIN A   1      17.560  -5.366  11.747  0.00  0.00     0.000 A 
ATOM     23  C23 ZIN A   1      18.875  -5.040  11.476  0.00  0.00     0.001 A 
ATOM     24  C22 ZIN A   1      19.205  -4.433  10.279  0.00  0.00     0.009 A 
ENDBRANCH  18  19
ENDBRANCH  15  18
ENDBRANCH  14  15
ENDBRANCH  13  14
ENDBRANCH  12  13
ENDBRANCH  10  12
ENDBRANCH   7  10
BRANCH   8  25
ATOM     25  C29 ZIN A   1      17.953   1.050  14.341  0.00  0.00    -0.042 A 
ATOM     26  C37 ZIN A   1      18.759   1.780  15.196  0.00  0.00     0.044 A 
ATOM     27  C33 ZIN A   1      18.707   1.550  16.558  0.00  0.00     0.103 A 
ATOM     28  C32 ZIN A   1      17.856   0.585  17.064  0.00  0.00     0.036 A 
ATOM     29  C31 ZIN A   1      17.055  -0.149  16.209  0.00  0.00     0.003 A 
ATOM     30  C30 ZIN A   1      17.105   0.084  14.846  0.00  0.00     0.008 A 
BRANCH  27  31
ATOM     31  N34 ZIN A   1      19.563   2.335  17.474  0.00  0.00    -0.116 N 
ATOM     32  O35 ZIN A   1      19.796   1.921  18.595  0.00  0.00    -0.532 OA
ATOM     33  O36 ZIN A   1      20.036   3.396  17.107  0.00  0.00    -0.532 OA
ENDBRANCH  27  31
ENDBRANCH   8  25
BRANCH   1  34
ATOM     34  C3  ZIN A   1      17.569   3.781  12.807  0.00  0.00     0.291 C 
ATOM     35  O4  ZIN A   1      17.619   4.431  13.834  0.00  0.00    -0.260 OA
BRANCH  34  36
ATOM     36  O2  ZIN A   1      16.653   4.082  11.862  0.00  0.00    -0.323 OA
ATOM     37  C1  ZIN A   1      16.865   5.279  11.111  0.00  0.00     0.213 C 
ENDBRANCH  34  36
ENDBRANCH   1  34
TORSDOF 11
ENDMDL
MODEL 7
REMARK VINA RESULT:      -8.0      2.509      7.651
REMARK  11 active torsions:
REMARK  status: ('A' for Active; 'I' for Inactive)
REMARK    1  A    between atoms: O2_2  and  C3_3 
REMARK    2  A    between atoms: C3_3  and  C5_5 
REMARK    3  A    between atoms: C11_11  and  C12_12 
REMARK    4  A    between atoms: C12_12  and  O14_14 
REMARK    5  A    between atoms: O14_14  and  C15_15 
REMARK    6  A    between atoms: C15_15  and  C16_16 
REMARK    7  A    between atoms: C16_16  and  N17_17 
REMARK    8  A    between atoms: N17_17  and  C20_20 
REMARK    9  A    between atoms: C20_20  and  C21_21 
REMARK   10  A    between atoms: C27_27  and  C29_28 
REMARK   11  A    between atoms: C33_32  and  N34_33 
ROOT
ATOM      1  C5  ZIN A   1      19.114  -0.923  11.112  0.00  0.00     0.052 C 
ATOM      2  C6  ZIN A   1      18.195  -1.106  12.077  0.00  0.00     0.018 C 
ATOM      3  C7  ZIN A   1      18.079  -0.102  13.195  0.00  0.00     0.069 C 
ATOM      4  N8  ZIN A   1      17.364  -2.193  12.055  0.00  0.00    -0.362 N 
ATOM      5  C9  ZIN A   1      17.671  -3.282  11.287  0.00  0.00     0.018 C 
ATOM      6  C10 ZIN A   1      16.996  -4.601  11.561  0.00  0.00     0.069 C 
ATOM      7  C11 ZIN A   1      18.569  -3.190  10.290  0.00  0.00     0.052 C 
ATOM      8  C27 ZIN A   1      19.256  -1.891   9.972  0.00  0.00     0.101 C 
ATOM      9  H44 ZIN A   1      16.554  -2.191  12.588  0.00  0.00     0.165 HD
ENDROOT
BRANCH   7  10
ATOM     10  C12 ZIN A   1      18.867  -4.338   9.520  0.00  0.00     0.292 C 
ATOM     11  O13 ZIN A   1      19.916  -4.930   9.691  0.00  0.00    -0.259 OA
BRANCH  10  12
ATOM     12  O14 ZIN A   1      17.988  -4.776   8.595  0.00  0.00    -0.316 OA
BRANCH  12  13
ATOM     13  C15 ZIN A   1      18.524  -5.472   7.468  0.00  0.00     0.206 C 
BRANCH  13  14
ATOM     14  C16 ZIN A   1      18.083  -4.773   6.180  0.00  0.00     0.261 C 
BRANCH  14  15
ATOM     15  N17 ZIN A   1      16.701  -5.157   5.863  0.00  0.00    -0.069 N 
ATOM     16  H18 ZIN A   1      16.063  -4.612   6.425  0.00  0.00     0.279 HD
ATOM     17  C19 ZIN A   1      16.437  -4.907   4.440  0.00  0.00     0.270 C 
BRANCH  15  18
ATOM     18  C20 ZIN A   1      16.510  -6.584   6.154  0.00  0.00     0.273 C 
BRANCH  18  19
ATOM     19  C21 ZIN A   1      15.115  -6.809   6.676  0.00  0.00    -0.033 A 
ATOM     20  C26 ZIN A   1      14.649  -6.067   7.746  0.00  0.00     0.009 A 
ATOM     21  C25 ZIN A   1      13.368  -6.270   8.222  0.00  0.00     0.001 A 
ATOM     22  C24 ZIN A   1      12.554  -7.222   7.636  0.00  0.00     0.000 A 
ATOM     23  C23 ZIN A   1      13.022  -7.967   6.570  0.00  0.00     0.001 A 
ATOM     24  C22 ZIN A   1      14.302  -7.761   6.090  0.00  0.00     0.009 A 
ENDBRANCH  18  19
ENDBRANCH  15  18
ENDBRANCH  14  15
ENDBRANCH  13  14
ENDBRANCH  12  13
ENDBRANCH  10  12
ENDBRANCH   7  10
BRANCH   8  25
ATOM     25  C29 ZIN A   1      18.645  -1.297   8.728  0.00  0.00    -0.042 A 
ATOM     26  C37 ZIN A   1      19.307  -1.397   7.518  0.00  0.00     0.044 A 
ATOM     27  C33 ZIN A   1      18.745  -0.856   6.377  0.00  0.00     0.103 A 
ATOM     28  C32 ZIN A   1      17.526  -0.209   6.448  0.00  0.00     0.036 A 
ATOM     29  C31 ZIN A   1      16.867  -0.104   7.658  0.00  0.00     0.003 A 
ATOM     30  C30 ZIN A   1      17.427  -0.649   8.799  0.00  0.00     0.008 A 
BRANCH  27  31
ATOM     31  N34 ZIN A   1      19.450  -0.969   5.081  0.00  0.00    -0.116 N 
ATOM     32  O35 ZIN A   1      19.765  -2.064   4.652  0.00  0.00    -0.532 OA
ATOM     33  O36 ZIN A   1      19.714   0.033   4.442  0.00  0.00    -0.532 OA
ENDBRANCH  27  31
ENDBRANCH   8  25
BRANCH   1  34
ATOM     34  C3  ZIN A   1      19.962   0.207  11.170  0.00  0.00     0.291 C 
ATOM     35  O4  ZIN A   1      21.035   0.135  11.739  0.00  0.00    -0.260 OA
BRANCH  34  36
ATOM     36  O2  ZIN A   1      19.580   1.367  10.594  0.00  0.00    -0.323 OA
ATOM     37  C1  ZIN A   1      19.641   2.544  11.402  0.00  0.00     0.213 C 
ENDBRANCH  34  36
ENDBRANCH   1  34
TORSDOF 11
ENDMDL
MODEL 8
REMARK VINA RESULT:      -7.8      2.992      8.194
REMARK  11 active torsions:
REMARK  status: ('A' for Active; 'I' for Inactive)
REMARK    1  A    between atoms: O2_2  and  C3_3 
REMARK    2  A    between atoms: C3_3  and  C5_5 
REMARK    3  A    between atoms: C11_11  and  C12_12 
REMARK    4  A    between atoms: C12_12  and  O14_14 
REMARK    5  A    between atoms: O14_14  and  C15_15 
REMARK    6  A    between atoms: C15_15  and  C16_16 
REMARK    7  A    between atoms: C16_16  and  N17_17 
REMARK    8  A    between atoms: N17_17  and  C20_20 
REMARK    9  A    between atoms: C20_20  and  C21_21 
REMARK   10  A    between atoms: C27_27  and  C29_28 
REMARK   11  A    between atoms: C33_32  and  N34_33 
ROOT
ATOM      1  C5  ZIN A   1      19.230   3.342  16.121  0.00  0.00     0.052 C 
ATOM      2  C6  ZIN A   1      18.536   2.876  17.175  0.00  0.00     0.018 C 
ATOM      3  C7  ZIN A   1      18.624   3.591  18.499  0.00  0.00     0.069 C 
ATOM      4  N8  ZIN A   1      17.751   1.761  17.059  0.00  0.00    -0.362 N 
ATOM      5  C9  ZIN A   1      17.925   0.900  16.011  0.00  0.00     0.018 C 
ATOM      6  C10 ZIN A   1      17.360  -0.495  16.093  0.00  0.00     0.069 C 
ATOM      7  C11 ZIN A   1      18.594   1.282  14.909  0.00  0.00     0.052 C 
ATOM      8  C27 ZIN A   1      19.162   2.668  14.780  0.00  0.00     0.101 C 
ATOM      9  H44 ZIN A   1      17.068   1.581  17.725  0.00  0.00     0.165 HD
ENDROOT
BRANCH   7  10
ATOM     10  C12 ZIN A   1      18.760   0.363  13.848  0.00  0.00     0.292 C 
ATOM     11  O13 ZIN A   1      19.866  -0.074  13.588  0.00  0.00    -0.259 OA
BRANCH  10  12
ATOM     12  O14 ZIN A   1      17.692  -0.028  13.122  0.00  0.00    -0.316 OA
BRANCH  12  13
ATOM     13  C15 ZIN A   1      17.957  -0.691  11.883  0.00  0.00     0.206 C 
BRANCH  13  14
ATOM     14  C16 ZIN A   1      17.622   0.247  10.722  0.00  0.00     0.261 C 
BRANCH  14  15
ATOM     15  N17 ZIN A   1      18.621   0.086   9.658  0.00  0.00    -0.069 N 
ATOM     16  H18 ZIN A   1      18.694   0.945   9.132  0.00  0.00     0.279 HD
ATOM     17  C19 ZIN A   1      19.924  -0.235  10.254  0.00  0.00     0.270 C 
BRANCH  15  18
ATOM     18  C20 ZIN A   1      18.211  -1.003   8.761  0.00  0.00     0.273 C 
BRANCH  18  19
ATOM     19  C21 ZIN A   1      18.602  -0.663   7.346  0.00  0.00    -0.033 A 
ATOM     20  C26 ZIN A   1      18.698   0.659   6.954  0.00  0.00     0.009 A 
ATOM     21  C25 ZIN A   1      19.061   0.971   5.657  0.00  0.00     0.001 A 
ATOM     22  C24 ZIN A   1      19.318  -0.040   4.749  0.00  0.00     0.000 A 
ATOM     23  C23 ZIN A   1      19.217  -1.361   5.140  0.00  0.00     0.001 A 
ATOM     24  C22 ZIN A   1      18.859  -1.673   6.438  0.00  0.00     0.009 A 
ENDBRANCH  18  19
ENDBRANCH  15  18
ENDBRANCH  14  15
ENDBRANCH  13  14
ENDBRANCH  12  13
ENDBRANCH  10  12
ENDBRANCH   7  10
BRANCH   8  25
ATOM     25  C29 ZIN A   1      18.290   3.478  13.854  0.00  0.00    -0.042 A 
ATOM     26  C37 ZIN A   1      18.531   3.467  12.492  0.00  0.00     0.044 A 
ATOM     27  C33 ZIN A   1      17.729   4.206  11.643  0.00  0.00     0.103 A 
ATOM     28  C32 ZIN A   1      16.692   4.962  12.156  0.00  0.00     0.036 A 
ATOM     29  C31 ZIN A   1      16.453   4.976  13.517  0.00  0.00     0.003 A 
ATOM     30  C30 ZIN A   1      17.254   4.234  14.366  0.00  0.00     0.008 A 
BRANCH  27  31
ATOM     31  N34 ZIN A   1      17.983   4.190  10.185  0.00  0.00    -0.116 N 
ATOM     32  O35 ZIN A   1      17.624   5.126   9.494  0.00  0.00    -0.532 OA
ATOM     33  O36 ZIN A   1      18.552   3.241   9.676  0.00  0.00    -0.532 OA
ENDBRANCH  27  31
ENDBRANCH   8  25
BRANCH   1  34
ATOM     34  C3  ZIN A   1      20.038   4.491  16.278  0.00  0.00     0.291 C 
ATOM     35  O4  ZIN A   1      21.248   4.382  16.338  0.00  0.00    -0.260 OA
BRANCH  34  36
ATOM     36  O2  ZIN A   1      19.465   5.711  16.363  0.00  0.00    -0.323 OA
ATOM     37  C1  ZIN A   1      19.633   6.586  15.245  0.00  0.00     0.213 C 
ENDBRANCH  34  36
ENDBRANCH   1  34
TORSDOF 11
ENDMDL
MODEL 9
REMARK VINA RESULT:      -7.8      2.280      5.202
REMARK  11 active torsions:
REMARK  status: ('A' for Active; 'I' for Inactive)
REMARK    1  A    between atoms: O2_2  and  C3_3 
REMARK    2  A    between atoms: C3_3  and  C5_5 
REMARK    3  A    between atoms: C11_11  and  C12_12 
REMARK    4  A    between atoms: C12_12  and  O14_14 
REMARK    5  A    between atoms: O14_14  and  C15_15 
REMARK    6  A    between atoms: C15_15  and  C16_16 
REMARK    7  A    between atoms: C16_16  and  N17_17 
REMARK    8  A    between atoms: N17_17  and  C20_20 
REMARK    9  A    between atoms: C20_20  and  C21_21 
REMARK   10  A    between atoms: C27_27  and  C29_28 
REMARK   11  A    between atoms: C33_32  and  N34_33 
ROOT
ATOM      1  C5  ZIN A   1      18.763  -1.316   6.650  0.00  0.00     0.052 C 
ATOM      2  C6  ZIN A   1      17.654  -0.558   6.704  0.00  0.00     0.018 C 
ATOM      3  C7  ZIN A   1      17.120   0.070   5.441  0.00  0.00     0.069 C 
ATOM      4  N8  ZIN A   1      17.004  -0.349   7.889  0.00  0.00    -0.362 N 
ATOM      5  C9  ZIN A   1      17.638  -0.590   9.076  0.00  0.00     0.018 C 
ATOM      6  C10 ZIN A   1      17.089   0.003  10.348  0.00  0.00     0.069 C 
ATOM      7  C11 ZIN A   1      18.748  -1.349   9.122  0.00  0.00     0.052 C 
ATOM      8  C27 ZIN A   1      19.322  -1.972   7.880  0.00  0.00     0.101 C 
ATOM      9  H44 ZIN A   1      16.088  -0.029   7.888  0.00  0.00     0.165 HD
ENDROOT
BRANCH   7  10
ATOM     10  C12 ZIN A   1      19.382  -1.572  10.367  0.00  0.00     0.292 C 
ATOM     11  O13 ZIN A   1      18.907  -2.365  11.158  0.00  0.00    -0.259 OA
BRANCH  10  12
ATOM     12  O14 ZIN A   1      20.512  -0.903  10.676  0.00  0.00    -0.316 OA
BRANCH  12  13
ATOM     13  C15 ZIN A   1      20.366   0.449  11.117  0.00  0.00     0.206 C 
BRANCH  13  14
ATOM     14  C16 ZIN A   1      20.143   0.471  12.630  0.00  0.00     0.261 C 
BRANCH  14  15
ATOM     15  N17 ZIN A   1      18.936   1.250  12.937  0.00  0.00    -0.069 N 
ATOM     16  H18 ZIN A   1      18.286   1.178  12.167  0.00  0.00     0.279 HD
ATOM     17  C19 ZIN A   1      18.311   0.725  14.157  0.00  0.00     0.270 C 
BRANCH  15  18
ATOM     18  C20 ZIN A   1      19.300   2.659  13.138  0.00  0.00     0.273 C 
BRANCH  18  19
ATOM     19  C21 ZIN A   1      18.413   3.533  12.291  0.00  0.00    -0.033 A 
ATOM     20  C26 ZIN A   1      17.440   4.314  12.885  0.00  0.00     0.009 A 
ATOM     21  C25 ZIN A   1      16.629   5.119  12.108  0.00  0.00     0.001 A 
ATOM     22  C24 ZIN A   1      16.784   5.137  10.735  0.00  0.00     0.000 A 
ATOM     23  C23 ZIN A   1      17.754   4.353  10.140  0.00  0.00     0.001 A 
ATOM     24  C22 ZIN A   1      18.568   3.551  10.917  0.00  0.00     0.009 A 
ENDBRANCH  18  19
ENDBRANCH  15  18
ENDBRANCH  14  15
ENDBRANCH  13  14
ENDBRANCH  12  13
ENDBRANCH  10  12
ENDBRANCH   7  10
BRANCH   8  25
ATOM     25  C29 ZIN A   1      18.990  -3.442   7.863  0.00  0.00    -0.042 A 
ATOM     26  C37 ZIN A   1      17.698  -3.862   8.123  0.00  0.00     0.044 A 
ATOM     27  C33 ZIN A   1      17.392  -5.210   8.103  0.00  0.00     0.103 A 
ATOM     28  C32 ZIN A   1      18.380  -6.138   7.831  0.00  0.00     0.036 A 
ATOM     29  C31 ZIN A   1      19.673  -5.719   7.576  0.00  0.00     0.003 A 
ATOM     30  C30 ZIN A   1      19.977  -4.370   7.593  0.00  0.00     0.008 A 
BRANCH  27  31
ATOM     31  N34 ZIN A   1      16.009  -5.659   8.374  0.00  0.00    -0.116 N 
ATOM     32  O35 ZIN A   1      15.364  -6.208   7.499  0.00  0.00    -0.532 OA
ATOM     33  O36 ZIN A   1      15.515  -5.480   9.473  0.00  0.00    -0.532 OA
ENDBRANCH  27  31
ENDBRANCH   8  25
BRANCH   1  34
ATOM     34  C3  ZIN A   1      19.414  -1.503   5.410  0.00  0.00     0.291 C 
ATOM     35  O4  ZIN A   1      19.998  -0.575   4.882  0.00  0.00    -0.260 OA
BRANCH  34  36
ATOM     36  O2  ZIN A   1      19.387  -2.712   4.809  0.00  0.00    -0.323 OA
ATOM     37  C1  ZIN A   1      18.138  -3.137   4.261  0.00  0.00     0.213 C 
ENDBRANCH  34  36
ENDBRANCH   1  34
TORSDOF 11
ENDMDL
