MODEL 1
REMARK VINA RESULT:      -4.5      0.000      0.000
REMARK  1 active torsions:
REMARK  status: ('A' for Active; 'I' for Inactive)
REMARK    1  A    between atoms: N1_1  and  C2_2 
ROOT
ATOM      1  C2  <0> d   1      18.144   0.610  16.103  0.00  0.00     0.167 A 
ATOM      2  N3  <0> d   1      18.571   1.505  16.984  0.00  0.00    -0.174 NA
ATOM      3  C4  <0> d   1      19.319   1.135  18.021  0.00  0.00     0.347 A 
ATOM      4  O5  <0> d   1      19.699   1.977  18.818  0.00  0.00    -0.245 OA
ATOM      5  N6  <0> d   1      19.665  -0.153  18.205  0.00  0.00    -0.314 N 
ATOM      6  C7  <0> d   1      19.251  -1.110  17.326  0.00  0.00     0.139 A 
ATOM      7  C8  <0> d   1      18.483  -0.750  16.268  0.00  0.00     0.177 A 
ATOM      8  F9  <0> d   1      18.059  -1.676  15.381  0.00  0.00    -0.201 F 
ATOM      9  H12 <0> d   1      20.212  -0.402  18.967  0.00  0.00     0.170 HD
ENDROOT
BRANCH   1  10
ATOM     10  N1  <0> d   1      17.371   1.006  15.035  0.00  0.00    -0.381 N 
ATOM     11  H10 <0> d   1      16.468   0.665  14.939  0.00  0.00     0.157 HD
ATOM     12  H11 <0> d   1      17.726   1.629  14.383  0.00  0.00     0.157 HD
ENDBRANCH   1  10
TORSDOF 1
ENDMDL
MODEL 2
REMARK VINA RESULT:      -4.3      9.926     10.863
REMARK  1 active torsions:
REMARK  status: ('A' for Active; 'I' for Inactive)
REMARK    1  A    between atoms: N1_1  and  C2_2 
ROOT
ATOM      1  C2  <0> d   1      18.241  -1.121   7.330  0.00  0.00     0.167 A 
ATOM      2  N3  <0> d   1      18.804  -1.638   6.246  0.00  0.00    -0.174 NA
ATOM      3  C4  <0> d   1      19.331  -0.850   5.311  0.00  0.00     0.347 A 
ATOM      4  O5  <0> d   1      19.843  -1.351   4.323  0.00  0.00    -0.245 OA
ATOM      5  N6  <0> d   1      19.310   0.490   5.437  0.00  0.00    -0.314 N 
ATOM      6  C7  <0> d   1      18.742   1.069   6.535  0.00  0.00     0.139 A 
ATOM      7  C8  <0> d   1      18.197   0.281   7.492  0.00  0.00     0.177 A 
ATOM      8  F9  <0> d   1      17.628   0.827   8.589  0.00  0.00    -0.201 F 
ATOM      9  H12 <0> d   1      19.700   1.046   4.745  0.00  0.00     0.170 HD
ENDROOT
BRANCH   1  10
ATOM     10  N1  <0> d   1      17.700  -1.946   8.289  0.00  0.00    -0.381 N 
ATOM     11  H10 <0> d   1      18.041  -2.848   8.401  0.00  0.00     0.157 HD
ATOM     12  H11 <0> d   1      16.982  -1.626   8.856  0.00  0.00     0.157 HD
ENDBRANCH   1  10
TORSDOF 1
ENDMDL
MODEL 3
REMARK VINA RESULT:      -4.1      4.649      5.312
REMARK  1 active torsions:
REMARK  status: ('A' for Active; 'I' for Inactive)
REMARK    1  A    between atoms: N1_1  and  C2_2 
ROOT
ATOM      1  C2  <0> d   1      20.061   0.660  12.325  0.00  0.00     0.167 A 
ATOM      2  N3  <0> d   1      19.329   1.431  11.533  0.00  0.00    -0.174 NA
ATOM      3  C4  <0> d   1      18.006   1.494  11.678  0.00  0.00     0.347 A 
ATOM      4  O5  <0> d   1      17.355   2.211  10.936  0.00  0.00    -0.245 OA
ATOM      5  N6  <0> d   1      17.376   0.782  12.631  0.00  0.00    -0.314 N 
ATOM      6  C7  <0> d   1      18.087  -0.025  13.471  0.00  0.00     0.139 A 
ATOM      7  C8  <0> d   1      19.433  -0.105  13.331  0.00  0.00     0.177 A 
ATOM      8  F9  <0> d   1      20.162  -0.896  14.149  0.00  0.00    -0.201 F 
ATOM      9  H12 <0> d   1      16.412   0.842  12.721  0.00  0.00     0.170 HD
ENDROOT
BRANCH   1  10
ATOM     10  N1  <0> d   1      21.427   0.604  12.165  0.00  0.00    -0.381 N 
ATOM     11  H10 <0> d   1      21.998   0.427  12.929  0.00  0.00     0.157 HD
ATOM     12  H11 <0> d   1      21.819   0.735  11.287  0.00  0.00     0.157 HD
ENDBRANCH   1  10
TORSDOF 1
ENDMDL
MODEL 4
REMARK VINA RESULT:      -4.1      8.317      9.061
REMARK  1 active torsions:
REMARK  status: ('A' for Active; 'I' for Inactive)
REMARK    1  A    between atoms: N1_1  and  C2_2 
ROOT
ATOM      1  C2  <0> d   1      19.728  -0.604   9.159  0.00  0.00     0.167 A 
ATOM      2  N3  <0> d   1      19.186  -1.807   9.285  0.00  0.00    -0.174 NA
ATOM      3  C4  <0> d   1      18.082  -2.130   8.613  0.00  0.00     0.347 A 
ATOM      4  O5  <0> d   1      17.603  -3.244   8.745  0.00  0.00    -0.245 OA
ATOM      5  N6  <0> d   1      17.487  -1.248   7.788  0.00  0.00    -0.314 N 
ATOM      6  C7  <0> d   1      18.007   0.003   7.626  0.00  0.00     0.139 A 
ATOM      7  C8  <0> d   1      19.127   0.348   8.307  0.00  0.00     0.177 A 
ATOM      8  F9  <0> d   1      19.664   1.579   8.166  0.00  0.00    -0.201 F 
ATOM      9  H12 <0> d   1      16.684  -1.503   7.307  0.00  0.00     0.170 HD
ENDROOT
BRANCH   1  10
ATOM     10  N1  <0> d   1      20.868  -0.283   9.859  0.00  0.00    -0.381 N 
ATOM     11  H10 <0> d   1      21.714  -0.698   9.624  0.00  0.00     0.157 HD
ATOM     12  H11 <0> d   1      20.829   0.361  10.583  0.00  0.00     0.157 HD
ENDBRANCH   1  10
TORSDOF 1
ENDMDL
MODEL 5
REMARK VINA RESULT:      -4.1      2.762      3.419
REMARK  1 active torsions:
REMARK  status: ('A' for Active; 'I' for Inactive)
REMARK    1  A    between atoms: N1_1  and  C2_2 
ROOT
ATOM      1  C2  <0> d   1      19.758   0.581  13.824  0.00  0.00     0.167 A 
ATOM      2  N3  <0> d   1      19.231   1.795  13.737  0.00  0.00    -0.174 NA
ATOM      3  C4  <0> d   1      18.127   2.107  14.413  0.00  0.00     0.347 A 
ATOM      4  O5  <0> d   1      17.662   3.231  14.317  0.00  0.00    -0.245 OA
ATOM      5  N6  <0> d   1      17.515   1.204  15.202  0.00  0.00    -0.314 N 
ATOM      6  C7  <0> d   1      18.020  -0.058  15.323  0.00  0.00     0.139 A 
ATOM      7  C8  <0> d   1      19.139  -0.393  14.637  0.00  0.00     0.177 A 
ATOM      8  F9  <0> d   1      19.661  -1.635  14.738  0.00  0.00    -0.201 F 
ATOM      9  H12 <0> d   1      16.712   1.451  15.686  0.00  0.00     0.170 HD
ENDROOT
BRANCH   1  10
ATOM     10  N1  <0> d   1      20.899   0.271  13.120  0.00  0.00    -0.381 N 
ATOM     11  H10 <0> d   1      21.428  -0.503  13.371  0.00  0.00     0.157 HD
ATOM     12  H11 <0> d   1      21.172   0.822  12.370  0.00  0.00     0.157 HD
ENDBRANCH   1  10
TORSDOF 1
ENDMDL
MODEL 6
REMARK VINA RESULT:      -4.1      5.340      5.938
REMARK  1 active torsions:
REMARK  status: ('A' for Active; 'I' for Inactive)
REMARK    1  A    between atoms: N1_1  and  C2_2 
ROOT
ATOM      1  C2  <0> d   1      20.194   0.841  12.130  0.00  0.00     0.167 A 
ATOM      2  N3  <0> d   1      19.357  -0.159  12.370  0.00  0.00    -0.174 NA
ATOM      3  C4  <0> d   1      18.040   0.040  12.363  0.00  0.00     0.347 A 
ATOM      4  O5  <0> d   1      17.291  -0.897  12.587  0.00  0.00    -0.245 OA
ATOM      5  N6  <0> d   1      17.521   1.256  12.111  0.00  0.00    -0.314 N 
ATOM      6  C7  <0> d   1      18.342   2.316  11.858  0.00  0.00     0.139 A 
ATOM      7  C8  <0> d   1      19.685   2.131  11.868  0.00  0.00     0.177 A 
ATOM      8  F9  <0> d   1      20.522   3.162  11.621  0.00  0.00    -0.201 F 
ATOM      9  H12 <0> d   1      16.559   1.379  12.110  0.00  0.00     0.170 HD
ENDROOT
BRANCH   1  10
ATOM     10  N1  <0> d   1      21.553   0.622  12.141  0.00  0.00    -0.381 N 
ATOM     11  H10 <0> d   1      22.137   1.228  12.623  0.00  0.00     0.157 HD
ATOM     12  H11 <0> d   1      21.926  -0.140  11.672  0.00  0.00     0.157 HD
ENDBRANCH   1  10
TORSDOF 1
ENDMDL
MODEL 7
REMARK VINA RESULT:      -4.0      7.064      7.764
REMARK  1 active torsions:
REMARK  status: ('A' for Active; 'I' for Inactive)
REMARK    1  A    between atoms: N1_1  and  C2_2 
ROOT
ATOM      1  C2  <0> d   1      20.346  -0.783  10.367  0.00  0.00     0.167 A 
ATOM      2  N3  <0> d   1      20.028  -0.165   9.237  0.00  0.00    -0.174 NA
ATOM      3  C4  <0> d   1      18.860  -0.396   8.640  0.00  0.00     0.347 A 
ATOM      4  O5  <0> d   1      18.592   0.185   7.602  0.00  0.00    -0.245 OA
ATOM      5  N6  <0> d   1      17.970  -1.259   9.164  0.00  0.00    -0.314 N 
ATOM      6  C7  <0> d   1      18.251  -1.919  10.326  0.00  0.00     0.139 A 
ATOM      7  C8  <0> d   1      19.438  -1.699  10.941  0.00  0.00     0.177 A 
ATOM      8  F9  <0> d   1      19.743  -2.337  12.092  0.00  0.00    -0.201 F 
ATOM      9  H12 <0> d   1      17.124  -1.413   8.714  0.00  0.00     0.170 HD
ENDROOT
BRANCH   1  10
ATOM     10  N1  <0> d   1      21.556  -0.535  10.973  0.00  0.00    -0.381 N 
ATOM     11  H10 <0> d   1      22.071   0.249  10.726  0.00  0.00     0.157 HD
ATOM     12  H11 <0> d   1      21.892  -1.142  11.651  0.00  0.00     0.157 HD
ENDBRANCH   1  10
TORSDOF 1
ENDMDL
MODEL 8
REMARK VINA RESULT:      -4.0      8.184      8.996
REMARK  1 active torsions:
REMARK  status: ('A' for Active; 'I' for Inactive)
REMARK    1  A    between atoms: N1_1  and  C2_2 
ROOT
ATOM      1  C2  <0> d   1      19.060  -0.535   7.486  0.00  0.00     0.167 A 
ATOM      2  N3  <0> d   1      19.586  -1.021   8.602  0.00  0.00    -0.174 NA
ATOM      3  C4  <0> d   1      20.015  -0.206   9.565  0.00  0.00     0.347 A 
ATOM      4  O5  <0> d   1      20.495  -0.679  10.582  0.00  0.00    -0.245 OA
ATOM      5  N6  <0> d   1      19.927   1.130   9.434  0.00  0.00    -0.314 N 
ATOM      6  C7  <0> d   1      19.393   1.679   8.304  0.00  0.00     0.139 A 
ATOM      7  C8  <0> d   1      18.958   0.863   7.314  0.00  0.00     0.177 A 
ATOM      8  F9  <0> d   1      18.425   1.377   6.185  0.00  0.00    -0.201 F 
ATOM      9  H12 <0> d   1      20.244   1.707  10.147  0.00  0.00     0.170 HD
ENDROOT
BRANCH   1  10
ATOM     10  N1  <0> d   1      18.621  -1.388   6.500  0.00  0.00    -0.381 N 
ATOM     11  H10 <0> d   1      17.939  -1.095   5.875  0.00  0.00     0.157 HD
ATOM     12  H11 <0> d   1      18.997  -2.279   6.425  0.00  0.00     0.157 HD
ENDBRANCH   1  10
TORSDOF 1
ENDMDL
MODEL 9
REMARK VINA RESULT:      -3.9      1.485      2.650
REMARK  1 active torsions:
REMARK  status: ('A' for Active; 'I' for Inactive)
REMARK    1  A    between atoms: N1_1  and  C2_2 
ROOT
ATOM      1  C2  <0> d   1      18.944   0.235  17.243  0.00  0.00     0.167 A 
ATOM      2  N3  <0> d   1      19.247   1.506  17.017  0.00  0.00    -0.174 NA
ATOM      3  C4  <0> d   1      18.685   2.172  16.010  0.00  0.00     0.347 A 
ATOM      4  O5  <0> d   1      18.980   3.341  15.824  0.00  0.00    -0.245 OA
ATOM      5  N6  <0> d   1      17.795   1.577  15.194  0.00  0.00    -0.314 N 
ATOM      6  C7  <0> d   1      17.450   0.270  15.386  0.00  0.00     0.139 A 
ATOM      7  C8  <0> d   1      18.019  -0.422  16.403  0.00  0.00     0.177 A 
ATOM      8  F9  <0> d   1      17.697  -1.716  16.616  0.00  0.00    -0.201 F 
ATOM      9  H12 <0> d   1      17.396   2.079  14.467  0.00  0.00     0.170 HD
ENDROOT
BRANCH   1  10
ATOM     10  N1  <0> d   1      19.533  -0.442  18.287  0.00  0.00    -0.381 N 
ATOM     11  H10 <0> d   1      18.986  -0.786  19.010  0.00  0.00     0.157 HD
ATOM     12  H11 <0> d   1      20.493  -0.579  18.296  0.00  0.00     0.157 HD
ENDBRANCH   1  10
TORSDOF 1
ENDMDL
