MODEL 1
REMARK VINA RESULT:      -6.4      0.000      0.000
REMARK  26 active torsions:
REMARK  status: ('A' for Active; 'I' for Inactive)
REMARK    1  A    between atoms: C2_2  and  C3_3 
REMARK    2  A    between atoms: C3_3  and  N4_4 
REMARK    3  A    between atoms: C12_12  and  O13_13 
REMARK    4  A    between atoms: C18_17  and  O20_18 
REMARK    5  A    between atoms: O20_18  and  C21_19 
REMARK    6  A    between atoms: C21_19  and  C22_20 
REMARK    7  A    between atoms: C22_20  and  O23_21 
REMARK    8  A    between atoms: O23_21  and  C24_22 
REMARK    9  A    between atoms: C24_22  and  C25_23 
REMARK   10  A    between atoms: C25_23  and  O26_24 
REMARK   11  A    between atoms: O26_24  and  C27_25 
REMARK   12  A    between atoms: C27_25  and  C28_26 
REMARK   13  A    between atoms: C28_26  and  O29_27 
REMARK   14  A    between atoms: O29_27  and  C30_28 
REMARK   15  A    between atoms: C30_28  and  C31_29 
REMARK   16  A    between atoms: C31_29  and  O32_30 
REMARK   17  A    between atoms: O32_30  and  C33_31 
REMARK   18  A    between atoms: C33_31  and  C34_32 
REMARK   19  A    between atoms: C34_32  and  O35_33 
REMARK   20  A    between atoms: O35_33  and  C36_34 
REMARK   21  A    between atoms: C36_34  and  C37_35 
REMARK   22  A    between atoms: C37_35  and  O38_36 
REMARK   23  A    between atoms: O38_36  and  C39_37 
REMARK   24  A    between atoms: C39_37  and  C40_38 
REMARK   25  A    between atoms: C40_38  and  O41_39 
REMARK   26  A    between atoms: C45_43  and  O46_44 
ROOT
ATOM      1  N4  ZIN A   1      18.610   0.339   7.463  0.00  0.00     0.099 N 
ATOM      2  C5  ZIN A   1      17.279  -0.083   7.912  0.00  0.00     0.275 C 
ATOM      3  C6  ZIN A   1      17.037   0.376   9.356  0.00  0.00     0.050 C 
ATOM      4  C7  ZIN A   1      18.147  -0.209  10.231  0.00  0.00     0.054 C 
ATOM      5  C8  ZIN A   1      18.159  -1.711  10.072  0.00  0.00    -0.001 A 
ATOM      6  C9  ZIN A   1      18.853  -2.437   9.134  0.00  0.00    -0.046 A 
ATOM      7  C10 ZIN A   1      18.688  -3.811   9.190  0.00  0.00     0.011 A 
ATOM      8  C11 ZIN A   1      17.906  -4.379  10.183  0.00  0.00     0.040 A 
ATOM      9  C12 ZIN A   1      17.268  -3.635  11.171  0.00  0.00     0.099 A 
ATOM     10  C14 ZIN A   1      17.421  -2.245  11.120  0.00  0.00     0.110 A 
ATOM     11  O15 ZIN A   1      17.004  -1.261  11.946  0.00  0.00    -0.339 OA
ATOM     12  C16 ZIN A   1      17.839  -0.079  11.712  0.00  0.00     0.174 C 
ATOM     13  C18 ZIN A   1      19.038  -0.209  12.628  0.00  0.00     0.152 C 
ATOM     14  C43 ZIN A   1      20.341   0.320  12.073  0.00  0.00     0.037 C 
ATOM     15  C44 ZIN A   1      20.616  -0.227  10.674  0.00  0.00     0.044 C 
ATOM     16  C45 ZIN A   1      19.494   0.286   9.736  0.00  0.00     0.103 C 
ATOM     17  C47 ZIN A   1      19.682  -0.211   8.303  0.00  0.00     0.262 C 
ATOM     18  C49 ZIN A   1      19.739  -1.723   8.164  0.00  0.00     0.078 C 
ENDROOT
BRANCH  13  19
ATOM     19  O20 ZIN A   1      19.217  -1.592  12.940  0.00  0.00    -0.381 OA
BRANCH  19  20
ATOM     20  C21 ZIN A   1      19.626  -1.836  14.287  0.00  0.00     0.194 C 
BRANCH  20  21
ATOM     21  C22 ZIN A   1      18.614  -1.212  15.250  0.00  0.00     0.193 C 
BRANCH  21  22
ATOM     22  O23 ZIN A   1      18.917  -1.615  16.587  0.00  0.00    -0.387 OA
BRANCH  22  23
ATOM     23  C24 ZIN A   1      19.038  -0.529  17.507  0.00  0.00     0.193 C 
BRANCH  23  24
ATOM     24  C25 ZIN A   1      17.687   0.177  17.646  0.00  0.00     0.193 C 
BRANCH  24  25
ATOM     25  O26 ZIN A   1      17.891   1.502  18.141  0.00  0.00    -0.387 OA
BRANCH  25  26
ATOM     26  C27 ZIN A   1      19.192   2.027  17.875  0.00  0.00     0.193 C 
BRANCH  26  27
ATOM     27  C28 ZIN A   1      19.076   3.220  16.924  0.00  0.00     0.193 C 
BRANCH  27  28
ATOM     28  O29 ZIN A   1      20.351   3.848  16.789  0.00  0.00    -0.387 OA
BRANCH  28  29
ATOM     29  C30 ZIN A   1      20.333   5.037  15.995  0.00  0.00     0.193 C 
BRANCH  29  30
ATOM     30  C31 ZIN A   1      18.926   5.639  16.009  0.00  0.00     0.193 C 
BRANCH  30  31
ATOM     31  O32 ZIN A   1      19.011   7.041  16.272  0.00  0.00    -0.387 OA
BRANCH  31  32
ATOM     32  C33 ZIN A   1      17.753   7.656  16.556  0.00  0.00     0.193 C 
BRANCH  32  33
ATOM     33  C34 ZIN A   1      16.777   6.602  17.083  0.00  0.00     0.193 C 
BRANCH  33  34
ATOM     34  O35 ZIN A   1      15.491   6.806  16.495  0.00  0.00    -0.387 OA
BRANCH  34  35
ATOM     35  C36 ZIN A   1      15.534   7.187  15.119  0.00  0.00     0.193 C 
BRANCH  35  36
ATOM     36  C37 ZIN A   1      15.094   6.008  14.249  0.00  0.00     0.193 C 
BRANCH  36  37
ATOM     37  O38 ZIN A   1      16.200   5.126  14.047  0.00  0.00    -0.387 OA
BRANCH  37  38
ATOM     38  C39 ZIN A   1      16.713   5.133  12.713  0.00  0.00     0.193 C 
BRANCH  38  39
ATOM     39  C40 ZIN A   1      17.571   3.886  12.490  0.00  0.00     0.193 C 
BRANCH  39  40
ATOM     40  O41 ZIN A   1      17.625   3.589  11.094  0.00  0.00    -0.394 OA
ATOM     41  C42 ZIN A   1      17.556   4.741  10.252  0.00  0.00     0.201 C 
ENDBRANCH  39  40
ENDBRANCH  38  39
ENDBRANCH  37  38
ENDBRANCH  36  37
ENDBRANCH  35  36
ENDBRANCH  34  35
ENDBRANCH  33  34
ENDBRANCH  32  33
ENDBRANCH  31  32
ENDBRANCH  30  31
ENDBRANCH  29  30
ENDBRANCH  28  29
ENDBRANCH  27  28
ENDBRANCH  26  27
ENDBRANCH  25  26
ENDBRANCH  24  25
ENDBRANCH  23  24
ENDBRANCH  22  23
ENDBRANCH  21  22
ENDBRANCH  20  21
ENDBRANCH  19  20
ENDBRANCH  13  19
BRANCH  16  42
ATOM     42  O46 ZIN A   1      19.501   1.714   9.727  0.00  0.00    -0.386 OA
ATOM     43  H97 ZIN A   1      20.198   2.101   9.180  0.00  0.00     0.210 HD
ENDBRANCH  16  42
BRANCH   9  44
ATOM     44  O13 ZIN A   1      16.528  -4.232  12.145  0.00  0.00    -0.358 OA
ATOM     45  H61 ZIN A   1      15.732  -3.742  12.390  0.00  0.00     0.217 HD
ENDBRANCH   9  44
BRANCH   1  46
ATOM     46  C3  ZIN A   1      18.821  -0.002   6.049  0.00  0.00     0.299 C 
BRANCH  46  47
ATOM     47  C2  ZIN A   1      17.550  -0.575   5.476  0.00  0.00    -0.007 C 
ATOM     48  C1  ZIN A   1      17.604  -1.404   4.463  0.00  0.00     0.008 C 
ENDBRANCH  46  47
ENDBRANCH   1  46
TORSDOF 26
ENDMDL
MODEL 2
REMARK VINA RESULT:      -6.2      3.516     10.759
REMARK  26 active torsions:
REMARK  status: ('A' for Active; 'I' for Inactive)
REMARK    1  A    between atoms: C2_2  and  C3_3 
REMARK    2  A    between atoms: C3_3  and  N4_4 
REMARK    3  A    between atoms: C12_12  and  O13_13 
REMARK    4  A    between atoms: C18_17  and  O20_18 
REMARK    5  A    between atoms: O20_18  and  C21_19 
REMARK    6  A    between atoms: C21_19  and  C22_20 
REMARK    7  A    between atoms: C22_20  and  O23_21 
REMARK    8  A    between atoms: O23_21  and  C24_22 
REMARK    9  A    between atoms: C24_22  and  C25_23 
REMARK   10  A    between atoms: C25_23  and  O26_24 
REMARK   11  A    between atoms: O26_24  and  C27_25 
REMARK   12  A    between atoms: C27_25  and  C28_26 
REMARK   13  A    between atoms: C28_26  and  O29_27 
REMARK   14  A    between atoms: O29_27  and  C30_28 
REMARK   15  A    between atoms: C30_28  and  C31_29 
REMARK   16  A    between atoms: C31_29  and  O32_30 
REMARK   17  A    between atoms: O32_30  and  C33_31 
REMARK   18  A    between atoms: C33_31  and  C34_32 
REMARK   19  A    between atoms: C34_32  and  O35_33 
REMARK   20  A    between atoms: O35_33  and  C36_34 
REMARK   21  A    between atoms: C36_34  and  C37_35 
REMARK   22  A    between atoms: C37_35  and  O38_36 
REMARK   23  A    between atoms: O38_36  and  C39_37 
REMARK   24  A    between atoms: C39_37  and  C40_38 
REMARK   25  A    between atoms: C40_38  and  O41_39 
REMARK   26  A    between atoms: C45_43  and  O46_44 
ROOT
ATOM      1  N4  ZIN A   1      18.602  -1.058  13.975  0.00  0.00     0.099 N 
ATOM      2  C5  ZIN A   1      17.396  -0.253  13.753  0.00  0.00     0.275 C 
ATOM      3  C6  ZIN A   1      16.889  -0.445  12.318  0.00  0.00     0.050 C 
ATOM      4  C7  ZIN A   1      18.018  -0.059  11.361  0.00  0.00     0.054 C 
ATOM      5  C8  ZIN A   1      18.455   1.355  11.660  0.00  0.00    -0.001 A 
ATOM      6  C9  ZIN A   1      19.414   1.752  12.561  0.00  0.00    -0.046 A 
ATOM      7  C10 ZIN A   1      19.623   3.117  12.659  0.00  0.00     0.011 A 
ATOM      8  C11 ZIN A   1      18.926   3.990  11.839  0.00  0.00     0.040 A 
ATOM      9  C12 ZIN A   1      18.010   3.568  10.879  0.00  0.00     0.099 A 
ATOM     10  C14 ZIN A   1      17.784   2.192  10.777  0.00  0.00     0.110 A 
ATOM     11  O15 ZIN A   1      17.031   1.462   9.924  0.00  0.00    -0.339 OA
ATOM     12  C16 ZIN A   1      17.533   0.085   9.929  0.00  0.00     0.174 C 
ATOM     13  C18 ZIN A   1      18.620   0.017   8.876  0.00  0.00     0.152 C 
ATOM     14  C43 ZIN A   1      19.781  -0.896   9.197  0.00  0.00     0.037 C 
ATOM     15  C44 ZIN A   1      20.339  -0.622  10.593  0.00  0.00     0.044 C 
ATOM     16  C45 ZIN A   1      19.225  -0.944  11.620  0.00  0.00     0.103 C 
ATOM     17  C47 ZIN A   1      19.690  -0.701  13.055  0.00  0.00     0.262 C 
ATOM     18  C49 ZIN A   1      20.169   0.715  13.329  0.00  0.00     0.078 C 
ENDROOT
BRANCH  13  19
ATOM     19  O20 ZIN A   1      19.135   1.336   8.676  0.00  0.00    -0.381 OA
BRANCH  19  20
ATOM     20  C21 ZIN A   1      19.364   1.669   7.306  0.00  0.00     0.194 C 
BRANCH  20  21
ATOM     21  C22 ZIN A   1      18.471   0.806   6.414  0.00  0.00     0.193 C 
BRANCH  21  22
ATOM     22  O23 ZIN A   1      19.035   0.733   5.103  0.00  0.00    -0.387 OA
BRANCH  22  23
ATOM     23  C24 ZIN A   1      19.620  -0.533   4.792  0.00  0.00     0.193 C 
BRANCH  23  24
ATOM     24  C25 ZIN A   1      18.742  -1.653   5.356  0.00  0.00     0.193 C 
BRANCH  24  25
ATOM     25  O26 ZIN A   1      19.212  -2.914   4.874  0.00  0.00    -0.387 OA
BRANCH  25  26
ATOM     26  C27 ZIN A   1      18.214  -3.689   4.208  0.00  0.00     0.193 C 
BRANCH  26  27
ATOM     27  C28 ZIN A   1      16.980  -2.821   3.954  0.00  0.00     0.193 C 
BRANCH  27  28
ATOM     28  O29 ZIN A   1      15.844  -3.659   3.737  0.00  0.00    -0.387 OA
BRANCH  28  29
ATOM     29  C30 ZIN A   1      15.794  -4.247   2.436  0.00  0.00     0.193 C 
BRANCH  29  30
ATOM     30  C31 ZIN A   1      15.245  -5.672   2.540  0.00  0.00     0.193 C 
BRANCH  30  31
ATOM     31  O32 ZIN A   1      16.239  -6.524   3.113  0.00  0.00    -0.387 OA
BRANCH  31  32
ATOM     32  C33 ZIN A   1      15.797  -7.237   4.270  0.00  0.00     0.193 C 
BRANCH  32  33
ATOM     33  C34 ZIN A   1      14.422  -6.717   4.694  0.00  0.00     0.193 C 
BRANCH  33  34
ATOM     34  O35 ZIN A   1      14.542  -6.002   5.926  0.00  0.00    -0.387 OA
BRANCH  34  35
ATOM     35  C36 ZIN A   1      15.536  -6.526   6.808  0.00  0.00     0.193 C 
BRANCH  35  36
ATOM     36  C37 ZIN A   1      15.127  -6.254   8.257  0.00  0.00     0.193 C 
BRANCH  36  37
ATOM     37  O38 ZIN A   1      15.931  -5.198   8.788  0.00  0.00    -0.387 OA
BRANCH  37  38
ATOM     38  C39 ZIN A   1      16.484  -5.481  10.075  0.00  0.00     0.193 C 
BRANCH  38  39
ATOM     39  C40 ZIN A   1      18.003  -5.302  10.029  0.00  0.00     0.193 C 
BRANCH  39  40
ATOM     40  O41 ZIN A   1      18.325  -4.177   9.209  0.00  0.00    -0.394 OA
ATOM     41  C42 ZIN A   1      19.308  -4.450   8.209  0.00  0.00     0.201 C 
ENDBRANCH  39  40
ENDBRANCH  38  39
ENDBRANCH  37  38
ENDBRANCH  36  37
ENDBRANCH  35  36
ENDBRANCH  34  35
ENDBRANCH  33  34
ENDBRANCH  32  33
ENDBRANCH  31  32
ENDBRANCH  30  31
ENDBRANCH  29  30
ENDBRANCH  28  29
ENDBRANCH  27  28
ENDBRANCH  26  27
ENDBRANCH  25  26
ENDBRANCH  24  25
ENDBRANCH  23  24
ENDBRANCH  22  23
ENDBRANCH  21  22
ENDBRANCH  20  21
ENDBRANCH  19  20
ENDBRANCH  13  19
BRANCH  16  42
ATOM     42  O46 ZIN A   1      18.844  -2.315  11.491  0.00  0.00    -0.386 OA
ATOM     43  H97 ZIN A   1      18.946  -2.669  10.598  0.00  0.00     0.210 HD
ENDBRANCH  16  42
BRANCH   9  44
ATOM     44  O13 ZIN A   1      17.362   4.455  10.076  0.00  0.00    -0.358 OA
ATOM     45  H61 ZIN A   1      17.522   4.320   9.132  0.00  0.00     0.217 HD
ENDBRANCH   9  44
BRANCH   1  46
ATOM     46  C3  ZIN A   1      19.045  -0.967  15.374  0.00  0.00     0.299 C 
BRANCH  46  47
ATOM     47  C2  ZIN A   1      17.851  -0.732  16.264  0.00  0.00    -0.007 C 
ATOM     48  C1  ZIN A   1      18.023  -0.327  17.498  0.00  0.00     0.008 C 
ENDBRANCH  46  47
ENDBRANCH   1  46
TORSDOF 26
ENDMDL
MODEL 3
REMARK VINA RESULT:      -6.0      2.120      4.487
REMARK  26 active torsions:
REMARK  status: ('A' for Active; 'I' for Inactive)
REMARK    1  A    between atoms: C2_2  and  C3_3 
REMARK    2  A    between atoms: C3_3  and  N4_4 
REMARK    3  A    between atoms: C12_12  and  O13_13 
REMARK    4  A    between atoms: C18_17  and  O20_18 
REMARK    5  A    between atoms: O20_18  and  C21_19 
REMARK    6  A    between atoms: C21_19  and  C22_20 
REMARK    7  A    between atoms: C22_20  and  O23_21 
REMARK    8  A    between atoms: O23_21  and  C24_22 
REMARK    9  A    between atoms: C24_22  and  C25_23 
REMARK   10  A    between atoms: C25_23  and  O26_24 
REMARK   11  A    between atoms: O26_24  and  C27_25 
REMARK   12  A    between atoms: C27_25  and  C28_26 
REMARK   13  A    between atoms: C28_26  and  O29_27 
REMARK   14  A    between atoms: O29_27  and  C30_28 
REMARK   15  A    between atoms: C30_28  and  C31_29 
REMARK   16  A    between atoms: C31_29  and  O32_30 
REMARK   17  A    between atoms: O32_30  and  C33_31 
REMARK   18  A    between atoms: C33_31  and  C34_32 
REMARK   19  A    between atoms: C34_32  and  O35_33 
REMARK   20  A    between atoms: O35_33  and  C36_34 
REMARK   21  A    between atoms: C36_34  and  C37_35 
REMARK   22  A    between atoms: C37_35  and  O38_36 
REMARK   23  A    between atoms: O38_36  and  C39_37 
REMARK   24  A    between atoms: C39_37  and  C40_38 
REMARK   25  A    between atoms: C40_38  and  O41_39 
REMARK   26  A    between atoms: C45_43  and  O46_44 
ROOT
ATOM      1  N4  ZIN A   1      18.713  -1.101   8.558  0.00  0.00     0.099 N 
ATOM      2  C5  ZIN A   1      19.905  -0.249   8.638  0.00  0.00     0.275 C 
ATOM      3  C6  ZIN A   1      20.631  -0.481   9.970  0.00  0.00     0.050 C 
ATOM      4  C7  ZIN A   1      19.646  -0.192  11.103  0.00  0.00     0.054 C 
ATOM      5  C8  ZIN A   1      19.112   1.211  10.946  0.00  0.00    -0.001 A 
ATOM      6  C9  ZIN A   1      18.012   1.601  10.221  0.00  0.00    -0.046 A 
ATOM      7  C10 ZIN A   1      17.734   2.958  10.225  0.00  0.00     0.011 A 
ATOM      8  C11 ZIN A   1      18.511   3.826  10.974  0.00  0.00     0.040 A 
ATOM      9  C12 ZIN A   1      19.579   3.406  11.763  0.00  0.00     0.099 A 
ATOM     10  C14 ZIN A   1      19.874   2.039  11.760  0.00  0.00     0.110 A 
ATOM     11  O15 ZIN A   1      20.777   1.309  12.452  0.00  0.00    -0.339 OA
ATOM     12  C16 ZIN A   1      20.337  -0.088  12.452  0.00  0.00     0.174 C 
ATOM     13  C18 ZIN A   1      19.426  -0.255  13.651  0.00  0.00     0.152 C 
ATOM     14  C43 ZIN A   1      18.268  -1.208  13.461  0.00  0.00     0.037 C 
ATOM     15  C44 ZIN A   1      17.494  -0.900  12.181  0.00  0.00     0.044 C 
ATOM     16  C45 ZIN A   1      18.452  -1.122  10.983  0.00  0.00     0.103 C 
ATOM     17  C47 ZIN A   1      17.764  -0.837   9.648  0.00  0.00     0.262 C 
ATOM     18  C49 ZIN A   1      17.191   0.565   9.522  0.00  0.00     0.078 C 
ENDROOT
BRANCH  13  19
ATOM     19  O20 ZIN A   1      18.894   1.027  13.993  0.00  0.00    -0.381 OA
BRANCH  19  20
ATOM     20  C21 ZIN A   1      18.119   1.035  15.193  0.00  0.00     0.194 C 
BRANCH  20  21
ATOM     21  C22 ZIN A   1      18.908   1.728  16.306  0.00  0.00     0.193 C 
BRANCH  21  22
ATOM     22  O23 ZIN A   1      18.214   1.578  17.546  0.00  0.00    -0.387 OA
BRANCH  22  23
ATOM     23  C24 ZIN A   1      17.953   2.811  18.218  0.00  0.00     0.193 C 
BRANCH  23  24
ATOM     24  C25 ZIN A   1      16.981   2.566  19.375  0.00  0.00     0.193 C 
BRANCH  24  25
ATOM     25  O26 ZIN A   1      16.094   3.680  19.495  0.00  0.00    -0.387 OA
BRANCH  25  26
ATOM     26  C27 ZIN A   1      15.880   4.108  20.841  0.00  0.00     0.193 C 
BRANCH  26  27
ATOM     27  C28 ZIN A   1      14.810   5.202  20.864  0.00  0.00     0.193 C 
BRANCH  27  28
ATOM     28  O29 ZIN A   1      14.204   5.302  19.574  0.00  0.00    -0.387 OA
BRANCH  28  29
ATOM     29  C30 ZIN A   1      13.824   6.632  19.212  0.00  0.00     0.193 C 
BRANCH  29  30
ATOM     30  C31 ZIN A   1      12.683   6.577  18.192  0.00  0.00     0.193 C 
BRANCH  30  31
ATOM     31  O32 ZIN A   1      13.026   7.365  17.051  0.00  0.00    -0.387 OA
BRANCH  31  32
ATOM     32  C33 ZIN A   1      13.577   6.613  15.969  0.00  0.00     0.193 C 
BRANCH  32  33
ATOM     33  C34 ZIN A   1      14.610   7.465  15.229  0.00  0.00     0.193 C 
BRANCH  33  34
ATOM     34  O35 ZIN A   1      15.504   8.057  16.173  0.00  0.00    -0.387 OA
BRANCH  34  35
ATOM     35  C36 ZIN A   1      16.514   8.878  15.582  0.00  0.00     0.193 C 
BRANCH  35  36
ATOM     36  C37 ZIN A   1      17.769   8.040  15.328  0.00  0.00     0.193 C 
BRANCH  36  37
ATOM     37  O38 ZIN A   1      18.362   7.680  16.577  0.00  0.00    -0.387 OA
BRANCH  37  38
ATOM     38  C39 ZIN A   1      18.437   6.271  16.799  0.00  0.00     0.193 C 
BRANCH  38  39
ATOM     39  C40 ZIN A   1      18.626   5.552  15.462  0.00  0.00     0.193 C 
BRANCH  39  40
ATOM     40  O41 ZIN A   1      19.922   4.952  15.423  0.00  0.00    -0.394 OA
ATOM     41  C42 ZIN A   1      20.997   5.880  15.583  0.00  0.00     0.201 C 
ENDBRANCH  39  40
ENDBRANCH  38  39
ENDBRANCH  37  38
ENDBRANCH  36  37
ENDBRANCH  35  36
ENDBRANCH  34  35
ENDBRANCH  33  34
ENDBRANCH  32  33
ENDBRANCH  31  32
ENDBRANCH  30  31
ENDBRANCH  29  30
ENDBRANCH  28  29
ENDBRANCH  27  28
ENDBRANCH  26  27
ENDBRANCH  25  26
ENDBRANCH  24  25
ENDBRANCH  23  24
ENDBRANCH  22  23
ENDBRANCH  21  22
ENDBRANCH  20  21
ENDBRANCH  19  20
ENDBRANCH  13  19
BRANCH  16  42
ATOM     42  O46 ZIN A   1      18.903  -2.477  10.983  0.00  0.00    -0.386 OA
ATOM     43  H97 ZIN A   1      18.192  -3.128  11.059  0.00  0.00     0.210 HD
ENDBRANCH  16  42
BRANCH   9  44
ATOM     44  O13 ZIN A   1      20.304   4.287  12.505  0.00  0.00    -0.358 OA
ATOM     45  H61 ZIN A   1      20.420   4.023  13.428  0.00  0.00     0.217 HD
ENDBRANCH   9  44
BRANCH   1  46
ATOM     46  C3  ZIN A   1      18.060  -0.969   7.248  0.00  0.00     0.299 C 
BRANCH  46  47
ATOM     47  C2  ZIN A   1      18.704   0.154   6.477  0.00  0.00    -0.007 C 
ATOM     48  C1  ZIN A   1      18.442   0.308   5.203  0.00  0.00     0.008 C 
ENDBRANCH  46  47
ENDBRANCH   1  46
TORSDOF 26
ENDMDL
MODEL 4
REMARK VINA RESULT:      -5.6      1.299      1.903
REMARK  26 active torsions:
REMARK  status: ('A' for Active; 'I' for Inactive)
REMARK    1  A    between atoms: C2_2  and  C3_3 
REMARK    2  A    between atoms: C3_3  and  N4_4 
REMARK    3  A    between atoms: C12_12  and  O13_13 
REMARK    4  A    between atoms: C18_17  and  O20_18 
REMARK    5  A    between atoms: O20_18  and  C21_19 
REMARK    6  A    between atoms: C21_19  and  C22_20 
REMARK    7  A    between atoms: C22_20  and  O23_21 
REMARK    8  A    between atoms: O23_21  and  C24_22 
REMARK    9  A    between atoms: C24_22  and  C25_23 
REMARK   10  A    between atoms: C25_23  and  O26_24 
REMARK   11  A    between atoms: O26_24  and  C27_25 
REMARK   12  A    between atoms: C27_25  and  C28_26 
REMARK   13  A    between atoms: C28_26  and  O29_27 
REMARK   14  A    between atoms: O29_27  and  C30_28 
REMARK   15  A    between atoms: C30_28  and  C31_29 
REMARK   16  A    between atoms: C31_29  and  O32_30 
REMARK   17  A    between atoms: O32_30  and  C33_31 
REMARK   18  A    between atoms: C33_31  and  C34_32 
REMARK   19  A    between atoms: C34_32  and  O35_33 
REMARK   20  A    between atoms: O35_33  and  C36_34 
REMARK   21  A    between atoms: C36_34  and  C37_35 
REMARK   22  A    between atoms: C37_35  and  O38_36 
REMARK   23  A    between atoms: O38_36  and  C39_37 
REMARK   24  A    between atoms: C39_37  and  C40_38 
REMARK   25  A    between atoms: C40_38  and  O41_39 
REMARK   26  A    between atoms: C45_43  and  O46_44 
ROOT
ATOM      1  N4  ZIN A   1      18.623   0.198   7.140  0.00  0.00     0.099 N 
ATOM      2  C5  ZIN A   1      17.290  -0.212   7.595  0.00  0.00     0.275 C 
ATOM      3  C6  ZIN A   1      17.058   0.250   9.039  0.00  0.00     0.050 C 
ATOM      4  C7  ZIN A   1      18.167  -0.343   9.910  0.00  0.00     0.054 C 
ATOM      5  C8  ZIN A   1      18.165  -1.845   9.753  0.00  0.00    -0.001 A 
ATOM      6  C9  ZIN A   1      18.849  -2.578   8.812  0.00  0.00    -0.046 A 
ATOM      7  C10 ZIN A   1      18.672  -3.950   8.871  0.00  0.00     0.011 A 
ATOM      8  C11 ZIN A   1      17.890  -4.511   9.868  0.00  0.00     0.040 A 
ATOM      9  C12 ZIN A   1      17.262  -3.760  10.858  0.00  0.00     0.099 A 
ATOM     10  C14 ZIN A   1      17.427  -2.372  10.804  0.00  0.00     0.110 A 
ATOM     11  O15 ZIN A   1      17.022  -1.383  11.631  0.00  0.00    -0.339 OA
ATOM     12  C16 ZIN A   1      17.866  -0.209  11.393  0.00  0.00     0.174 C 
ATOM     13  C18 ZIN A   1      19.068  -0.348  12.303  0.00  0.00     0.152 C 
ATOM     14  C43 ZIN A   1      20.373   0.169  11.742  0.00  0.00     0.037 C 
ATOM     15  C44 ZIN A   1      20.637  -0.382  10.342  0.00  0.00     0.044 C 
ATOM     16  C45 ZIN A   1      19.516   0.140   9.409  0.00  0.00     0.103 C 
ATOM     17  C47 ZIN A   1      19.694  -0.360   7.975  0.00  0.00     0.262 C 
ATOM     18  C49 ZIN A   1      19.737  -1.873   7.839  0.00  0.00     0.078 C 
ENDROOT
BRANCH  13  19
ATOM     19  O20 ZIN A   1      19.237  -1.732  12.616  0.00  0.00    -0.381 OA
BRANCH  19  20
ATOM     20  C21 ZIN A   1      18.959  -2.059  13.980  0.00  0.00     0.194 C 
BRANCH  20  21
ATOM     21  C22 ZIN A   1      19.805  -1.176  14.899  0.00  0.00     0.193 C 
BRANCH  21  22
ATOM     22  O23 ZIN A   1      18.961  -0.545  15.863  0.00  0.00    -0.387 OA
BRANCH  22  23
ATOM     23  C24 ZIN A   1      19.073  -1.090  17.179  0.00  0.00     0.193 C 
BRANCH  23  24
ATOM     24  C25 ZIN A   1      19.158   0.048  18.198  0.00  0.00     0.193 C 
BRANCH  24  25
ATOM     25  O26 ZIN A   1      19.202   1.300  17.510  0.00  0.00    -0.387 OA
BRANCH  25  26
ATOM     26  C27 ZIN A   1      19.225   2.437  18.375  0.00  0.00     0.193 C 
BRANCH  26  27
ATOM     27  C28 ZIN A   1      17.845   3.098  18.388  0.00  0.00     0.193 C 
BRANCH  27  28
ATOM     28  O29 ZIN A   1      17.643   3.755  19.639  0.00  0.00    -0.387 OA
BRANCH  28  29
ATOM     29  C30 ZIN A   1      16.276   4.067  19.919  0.00  0.00     0.193 C 
BRANCH  29  30
ATOM     30  C31 ZIN A   1      15.954   5.467  19.392  0.00  0.00     0.193 C 
BRANCH  30  31
ATOM     31  O32 ZIN A   1      15.161   5.360  18.208  0.00  0.00    -0.387 OA
BRANCH  31  32
ATOM     32  C33 ZIN A   1      14.741   6.617  17.674  0.00  0.00     0.193 C 
BRANCH  32  33
ATOM     33  C34 ZIN A   1      15.146   6.705  16.201  0.00  0.00     0.193 C 
BRANCH  33  34
ATOM     34  O35 ZIN A   1      16.402   6.051  16.012  0.00  0.00    -0.387 OA
BRANCH  34  35
ATOM     35  C36 ZIN A   1      17.535   6.883  16.268  0.00  0.00     0.193 C 
BRANCH  35  36
ATOM     36  C37 ZIN A   1      18.351   7.045  14.983  0.00  0.00     0.193 C 
BRANCH  36  37
ATOM     37  O38 ZIN A   1      18.280   5.840  14.219  0.00  0.00    -0.387 OA
BRANCH  37  38
ATOM     38  C39 ZIN A   1      19.550   5.236  13.966  0.00  0.00     0.193 C 
BRANCH  38  39
ATOM     39  C40 ZIN A   1      19.550   4.612  12.570  0.00  0.00     0.193 C 
BRANCH  39  40
ATOM     40  O41 ZIN A   1      18.746   3.430  12.577  0.00  0.00    -0.394 OA
ATOM     41  C42 ZIN A   1      17.561   3.530  11.784  0.00  0.00     0.201 C 
ENDBRANCH  39  40
ENDBRANCH  38  39
ENDBRANCH  37  38
ENDBRANCH  36  37
ENDBRANCH  35  36
ENDBRANCH  34  35
ENDBRANCH  33  34
ENDBRANCH  32  33
ENDBRANCH  31  32
ENDBRANCH  30  31
ENDBRANCH  29  30
ENDBRANCH  28  29
ENDBRANCH  27  28
ENDBRANCH  26  27
ENDBRANCH  25  26
ENDBRANCH  24  25
ENDBRANCH  23  24
ENDBRANCH  22  23
ENDBRANCH  21  22
ENDBRANCH  20  21
ENDBRANCH  19  20
ENDBRANCH  13  19
BRANCH  16  42
ATOM     42  O46 ZIN A   1      19.535   1.568   9.398  0.00  0.00    -0.386 OA
ATOM     43  H97 ZIN A   1      20.105   1.949   8.717  0.00  0.00     0.210 HD
ENDBRANCH  16  42
BRANCH   9  44
ATOM     44  O13 ZIN A   1      16.522  -4.350  11.835  0.00  0.00    -0.358 OA
ATOM     45  H61 ZIN A   1      16.518  -5.316  11.797  0.00  0.00     0.217 HD
ENDBRANCH   9  44
BRANCH   1  46
ATOM     46  C3  ZIN A   1      18.824  -0.146   5.726  0.00  0.00     0.299 C 
BRANCH  46  47
ATOM     47  C2  ZIN A   1      17.601  -0.853   5.201  0.00  0.00    -0.007 C 
ATOM     48  C1  ZIN A   1      17.725  -1.986   4.555  0.00  0.00     0.008 C 
ENDBRANCH  46  47
ENDBRANCH   1  46
TORSDOF 26
ENDMDL
MODEL 5
REMARK VINA RESULT:      -5.4      3.051      9.956
REMARK  26 active torsions:
REMARK  status: ('A' for Active; 'I' for Inactive)
REMARK    1  A    between atoms: C2_2  and  C3_3 
REMARK    2  A    between atoms: C3_3  and  N4_4 
REMARK    3  A    between atoms: C12_12  and  O13_13 
REMARK    4  A    between atoms: C18_17  and  O20_18 
REMARK    5  A    between atoms: O20_18  and  C21_19 
REMARK    6  A    between atoms: C21_19  and  C22_20 
REMARK    7  A    between atoms: C22_20  and  O23_21 
REMARK    8  A    between atoms: O23_21  and  C24_22 
REMARK    9  A    between atoms: C24_22  and  C25_23 
REMARK   10  A    between atoms: C25_23  and  O26_24 
REMARK   11  A    between atoms: O26_24  and  C27_25 
REMARK   12  A    between atoms: C27_25  and  C28_26 
REMARK   13  A    between atoms: C28_26  and  O29_27 
REMARK   14  A    between atoms: O29_27  and  C30_28 
REMARK   15  A    between atoms: C30_28  and  C31_29 
REMARK   16  A    between atoms: C31_29  and  O32_30 
REMARK   17  A    between atoms: O32_30  and  C33_31 
REMARK   18  A    between atoms: C33_31  and  C34_32 
REMARK   19  A    between atoms: C34_32  and  O35_33 
REMARK   20  A    between atoms: O35_33  and  C36_34 
REMARK   21  A    between atoms: C36_34  and  C37_35 
REMARK   22  A    between atoms: C37_35  and  O38_36 
REMARK   23  A    between atoms: O38_36  and  C39_37 
REMARK   24  A    between atoms: C39_37  and  C40_38 
REMARK   25  A    between atoms: C40_38  and  O41_39 
REMARK   26  A    between atoms: C45_43  and  O46_44 
ROOT
ATOM      1  N4  ZIN A   1      18.573   0.324  15.527  0.00  0.00     0.099 N 
ATOM      2  C5  ZIN A   1      17.254   0.705  15.009  0.00  0.00     0.275 C 
ATOM      3  C6  ZIN A   1      17.040   0.101  13.615  0.00  0.00     0.050 C 
ATOM      4  C7  ZIN A   1      18.172   0.588  12.709  0.00  0.00     0.054 C 
ATOM      5  C8  ZIN A   1      18.192   2.098  12.713  0.00  0.00    -0.001 A 
ATOM      6  C9  ZIN A   1      18.871   2.913  13.587  0.00  0.00    -0.046 A 
ATOM      7  C10 ZIN A   1      18.717   4.275  13.387  0.00  0.00     0.011 A 
ATOM      8  C11 ZIN A   1      17.960   4.742  12.324  0.00  0.00     0.040 A 
ATOM      9  C12 ZIN A   1      17.338   3.903  11.403  0.00  0.00     0.099 A 
ATOM     10  C14 ZIN A   1      17.480   2.526  11.600  0.00  0.00     0.110 A 
ATOM     11  O15 ZIN A   1      17.073   1.463  10.871  0.00  0.00    -0.339 OA
ATOM     12  C16 ZIN A   1      17.894   0.308  11.242  0.00  0.00     0.174 C 
ATOM     13  C18 ZIN A   1      19.114   0.337  10.344  0.00  0.00     0.152 C 
ATOM     14  C43 ZIN A   1      20.400  -0.138  10.978  0.00  0.00     0.037 C 
ATOM     15  C44 ZIN A   1      20.650   0.548  12.320  0.00  0.00     0.044 C 
ATOM     16  C45 ZIN A   1      19.505   0.140  13.281  0.00  0.00     0.103 C 
ATOM     17  C47 ZIN A   1      19.667   0.780  14.659  0.00  0.00     0.262 C 
ATOM     18  C49 ZIN A   1      19.731   2.298  14.643  0.00  0.00     0.078 C 
ENDROOT
BRANCH  13  19
ATOM     19  O20 ZIN A   1      19.309   1.680   9.896  0.00  0.00    -0.381 OA
BRANCH  19  20
ATOM     20  C21 ZIN A   1      19.239   1.836   8.477  0.00  0.00     0.194 C 
BRANCH  20  21
ATOM     21  C22 ZIN A   1      19.288   0.460   7.809  0.00  0.00     0.193 C 
BRANCH  21  22
ATOM     22  O23 ZIN A   1      18.431   0.455   6.666  0.00  0.00    -0.387 OA
BRANCH  22  23
ATOM     23  C24 ZIN A   1      19.119   0.285   5.425  0.00  0.00     0.193 C 
BRANCH  23  24
ATOM     24  C25 ZIN A   1      18.256  -0.546   4.473  0.00  0.00     0.193 C 
BRANCH  24  25
ATOM     25  O26 ZIN A   1      18.132  -1.876   4.981  0.00  0.00    -0.387 OA
BRANCH  25  26
ATOM     26  C27 ZIN A   1      17.721  -2.835   4.005  0.00  0.00     0.193 C 
BRANCH  26  27
ATOM     27  C28 ZIN A   1      18.048  -4.243   4.505  0.00  0.00     0.193 C 
BRANCH  27  28
ATOM     28  O29 ZIN A   1      17.194  -4.570   5.602  0.00  0.00    -0.387 OA
BRANCH  28  29
ATOM     29  C30 ZIN A   1      16.319  -5.671   5.351  0.00  0.00     0.193 C 
BRANCH  29  30
ATOM     30  C31 ZIN A   1      16.438  -6.688   6.489  0.00  0.00     0.193 C 
BRANCH  30  31
ATOM     31  O32 ZIN A   1      17.603  -6.399   7.265  0.00  0.00    -0.387 OA
BRANCH  31  32
ATOM     32  C33 ZIN A   1      17.369  -6.363   8.674  0.00  0.00     0.193 C 
BRANCH  32  33
ATOM     33  C34 ZIN A   1      16.223  -5.395   8.975  0.00  0.00     0.193 C 
BRANCH  33  34
ATOM     34  O35 ZIN A   1      16.606  -4.518  10.037  0.00  0.00    -0.387 OA
BRANCH  34  35
ATOM     35  C36 ZIN A   1      16.499  -5.099  11.338  0.00  0.00     0.193 C 
BRANCH  35  36
ATOM     36  C37 ZIN A   1      17.328  -4.282  12.331  0.00  0.00     0.193 C 
BRANCH  36  37
ATOM     37  O38 ZIN A   1      18.361  -3.586  11.630  0.00  0.00    -0.387 OA
BRANCH  37  38
ATOM     38  C39 ZIN A   1      19.533  -4.369  11.397  0.00  0.00     0.193 C 
BRANCH  38  39
ATOM     39  C40 ZIN A   1      20.214  -3.898  10.110  0.00  0.00     0.193 C 
BRANCH  39  40
ATOM     40  O41 ZIN A   1      19.358  -2.980   9.427  0.00  0.00    -0.394 OA
ATOM     41  C42 ZIN A   1      19.280  -3.200   8.017  0.00  0.00     0.201 C 
ENDBRANCH  39  40
ENDBRANCH  38  39
ENDBRANCH  37  38
ENDBRANCH  36  37
ENDBRANCH  35  36
ENDBRANCH  34  35
ENDBRANCH  33  34
ENDBRANCH  32  33
ENDBRANCH  31  32
ENDBRANCH  30  31
ENDBRANCH  29  30
ENDBRANCH  28  29
ENDBRANCH  27  28
ENDBRANCH  26  27
ENDBRANCH  25  26
ENDBRANCH  24  25
ENDBRANCH  23  24
ENDBRANCH  22  23
ENDBRANCH  21  22
ENDBRANCH  20  21
ENDBRANCH  19  20
ENDBRANCH  13  19
BRANCH  16  42
ATOM     42  O46 ZIN A   1      19.501  -1.280  13.436  0.00  0.00    -0.386 OA
ATOM     43  H97 ZIN A   1      19.537  -1.768  12.602  0.00  0.00     0.210 HD
ENDBRANCH  16  42
BRANCH   9  44
ATOM     44  O13 ZIN A   1      16.623   4.401  10.358  0.00  0.00    -0.358 OA
ATOM     45  H61 ZIN A   1      16.203   3.723   9.811  0.00  0.00     0.217 HD
ENDBRANCH   9  44
BRANCH   1  46
ATOM     46  C3  ZIN A   1      18.756   0.808  16.903  0.00  0.00     0.299 C 
BRANCH  46  47
ATOM     47  C2  ZIN A   1      19.148  -0.344  17.792  0.00  0.00    -0.007 C 
ATOM     48  C1  ZIN A   1      19.408  -1.517  17.269  0.00  0.00     0.008 C 
ENDBRANCH  46  47
ENDBRANCH   1  46
TORSDOF 26
ENDMDL
MODEL 6
REMARK VINA RESULT:      -5.4      1.572      2.924
REMARK  26 active torsions:
REMARK  status: ('A' for Active; 'I' for Inactive)
REMARK    1  A    between atoms: C2_2  and  C3_3 
REMARK    2  A    between atoms: C3_3  and  N4_4 
REMARK    3  A    between atoms: C12_12  and  O13_13 
REMARK    4  A    between atoms: C18_17  and  O20_18 
REMARK    5  A    between atoms: O20_18  and  C21_19 
REMARK    6  A    between atoms: C21_19  and  C22_20 
REMARK    7  A    between atoms: C22_20  and  O23_21 
REMARK    8  A    between atoms: O23_21  and  C24_22 
REMARK    9  A    between atoms: C24_22  and  C25_23 
REMARK   10  A    between atoms: C25_23  and  O26_24 
REMARK   11  A    between atoms: O26_24  and  C27_25 
REMARK   12  A    between atoms: C27_25  and  C28_26 
REMARK   13  A    between atoms: C28_26  and  O29_27 
REMARK   14  A    between atoms: O29_27  and  C30_28 
REMARK   15  A    between atoms: C30_28  and  C31_29 
REMARK   16  A    between atoms: C31_29  and  O32_30 
REMARK   17  A    between atoms: O32_30  and  C33_31 
REMARK   18  A    between atoms: C33_31  and  C34_32 
REMARK   19  A    between atoms: C34_32  and  O35_33 
REMARK   20  A    between atoms: O35_33  and  C36_34 
REMARK   21  A    between atoms: C36_34  and  C37_35 
REMARK   22  A    between atoms: C37_35  and  O38_36 
REMARK   23  A    between atoms: O38_36  and  C39_37 
REMARK   24  A    between atoms: C39_37  and  C40_38 
REMARK   25  A    between atoms: C40_38  and  O41_39 
REMARK   26  A    between atoms: C45_43  and  O46_44 
ROOT
ATOM      1  N4  ZIN A   1      18.471   1.022   7.982  0.00  0.00     0.099 N 
ATOM      2  C5  ZIN A   1      17.415   0.011   8.113  0.00  0.00     0.275 C 
ATOM      3  C6  ZIN A   1      16.590   0.270   9.380  0.00  0.00     0.050 C 
ATOM      4  C7  ZIN A   1      17.543   0.259  10.576  0.00  0.00     0.054 C 
ATOM      5  C8  ZIN A   1      18.286  -1.055  10.602  0.00  0.00    -0.001 A 
ATOM      6  C9  ZIN A   1      19.470  -1.347   9.968  0.00  0.00    -0.046 A 
ATOM      7  C10 ZIN A   1      19.945  -2.637  10.138  0.00  0.00     0.011 A 
ATOM      8  C11 ZIN A   1      19.264  -3.528  10.952  0.00  0.00     0.040 A 
ATOM      9  C12 ZIN A   1      18.104  -3.195  11.646  0.00  0.00     0.099 A 
ATOM     10  C14 ZIN A   1      17.611  -1.897  11.475  0.00  0.00     0.110 A 
ATOM     11  O15 ZIN A   1      16.573  -1.244  12.043  0.00  0.00    -0.339 OA
ATOM     12  C16 ZIN A   1      16.801   0.196  11.900  0.00  0.00     0.174 C 
ATOM     13  C18 ZIN A   1      17.610   0.628  13.106  0.00  0.00     0.152 C 
ATOM     14  C43 ZIN A   1      18.623   1.720  12.854  0.00  0.00     0.037 C 
ATOM     15  C44 ZIN A   1      19.504   1.399  11.648  0.00  0.00     0.044 C 
ATOM     16  C45 ZIN A   1      18.591   1.342  10.397  0.00  0.00     0.103 C 
ATOM     17  C47 ZIN A   1      19.386   1.025   9.130  0.00  0.00     0.262 C 
ATOM     18  C49 ZIN A   1      20.166  -0.278   9.188  0.00  0.00     0.078 C 
ENDROOT
BRANCH  13  19
ATOM     19  O20 ZIN A   1      18.305  -0.513  13.613  0.00  0.00    -0.381 OA
BRANCH  19  20
ATOM     20  C21 ZIN A   1      17.970  -0.848  14.961  0.00  0.00     0.194 C 
BRANCH  20  21
ATOM     21  C22 ZIN A   1      19.012  -1.819  15.520  0.00  0.00     0.193 C 
BRANCH  21  22
ATOM     22  O23 ZIN A   1      19.369  -1.423  16.846  0.00  0.00    -0.387 OA
BRANCH  22  23
ATOM     23  C24 ZIN A   1      18.458  -0.499  17.442  0.00  0.00     0.193 C 
BRANCH  23  24
ATOM     24  C25 ZIN A   1      19.072   0.069  18.723  0.00  0.00     0.193 C 
BRANCH  24  25
ATOM     25  O26 ZIN A   1      19.599   1.372  18.462  0.00  0.00    -0.387 OA
BRANCH  25  26
ATOM     26  C27 ZIN A   1      18.992   2.031  17.349  0.00  0.00     0.193 C 
BRANCH  26  27
ATOM     27  C28 ZIN A   1      19.638   3.404  17.154  0.00  0.00     0.193 C 
BRANCH  27  28
ATOM     28  O29 ZIN A   1      19.504   3.804  15.790  0.00  0.00    -0.387 OA
BRANCH  28  29
ATOM     29  C30 ZIN A   1      19.335   5.212  15.611  0.00  0.00     0.193 C 
BRANCH  29  30
ATOM     30  C31 ZIN A   1      19.030   5.507  14.140  0.00  0.00     0.193 C 
BRANCH  30  31
ATOM     31  O32 ZIN A   1      18.004   6.498  14.056  0.00  0.00    -0.387 OA
BRANCH  31  32
ATOM     32  C33 ZIN A   1      16.767   6.107  14.655  0.00  0.00     0.193 C 
BRANCH  32  33
ATOM     33  C34 ZIN A   1      15.923   7.350  14.940  0.00  0.00     0.193 C 
BRANCH  33  34
ATOM     34  O35 ZIN A   1      14.629   6.953  15.399  0.00  0.00    -0.387 OA
BRANCH  34  35
ATOM     35  C36 ZIN A   1      14.090   7.798  16.418  0.00  0.00     0.193 C 
BRANCH  35  36
ATOM     36  C37 ZIN A   1      15.192   8.165  17.413  0.00  0.00     0.193 C 
BRANCH  36  37
ATOM     37  O38 ZIN A   1      14.883   7.609  18.693  0.00  0.00    -0.387 OA
BRANCH  37  38
ATOM     38  C39 ZIN A   1      14.459   6.245  18.646  0.00  0.00     0.193 C 
BRANCH  38  39
ATOM     39  C40 ZIN A   1      15.685   5.330  18.634  0.00  0.00     0.193 C 
BRANCH  39  40
ATOM     40  O41 ZIN A   1      15.500   4.273  19.577  0.00  0.00    -0.394 OA
ATOM     41  C42 ZIN A   1      16.683   3.518  19.844  0.00  0.00     0.201 C 
ENDBRANCH  39  40
ENDBRANCH  38  39
ENDBRANCH  37  38
ENDBRANCH  36  37
ENDBRANCH  35  36
ENDBRANCH  34  35
ENDBRANCH  33  34
ENDBRANCH  32  33
ENDBRANCH  31  32
ENDBRANCH  30  31
ENDBRANCH  29  30
ENDBRANCH  28  29
ENDBRANCH  27  28
ENDBRANCH  26  27
ENDBRANCH  25  26
ENDBRANCH  24  25
ENDBRANCH  23  24
ENDBRANCH  22  23
ENDBRANCH  21  22
ENDBRANCH  20  21
ENDBRANCH  19  20
ENDBRANCH  13  19
BRANCH  16  42
ATOM     42  O46 ZIN A   1      17.946   2.604  10.224  0.00  0.00    -0.386 OA
ATOM     43  H97 ZIN A   1      18.506   3.365  10.432  0.00  0.00     0.210 HD
ENDBRANCH  16  42
BRANCH   9  44
ATOM     44  O13 ZIN A   1      17.477  -4.092  12.455  0.00  0.00    -0.358 OA
ATOM     45  H61 ZIN A   1      16.719  -4.529  12.044  0.00  0.00     0.217 HD
ENDBRANCH   9  44
BRANCH   1  46
ATOM     46  C3  ZIN A   1      19.208   0.852   6.722  0.00  0.00     0.299 C 
BRANCH  46  47
ATOM     47  C2  ZIN A   1      18.571  -0.249   5.912  0.00  0.00    -0.007 C 
ATOM     48  C1  ZIN A   1      19.320  -1.079   5.230  0.00  0.00     0.008 C 
ENDBRANCH  46  47
ENDBRANCH   1  46
TORSDOF 26
ENDMDL
MODEL 7
REMARK VINA RESULT:      -5.3      1.929      4.320
REMARK  26 active torsions:
REMARK  status: ('A' for Active; 'I' for Inactive)
REMARK    1  A    between atoms: C2_2  and  C3_3 
REMARK    2  A    between atoms: C3_3  and  N4_4 
REMARK    3  A    between atoms: C12_12  and  O13_13 
REMARK    4  A    between atoms: C18_17  and  O20_18 
REMARK    5  A    between atoms: O20_18  and  C21_19 
REMARK    6  A    between atoms: C21_19  and  C22_20 
REMARK    7  A    between atoms: C22_20  and  O23_21 
REMARK    8  A    between atoms: O23_21  and  C24_22 
REMARK    9  A    between atoms: C24_22  and  C25_23 
REMARK   10  A    between atoms: C25_23  and  O26_24 
REMARK   11  A    between atoms: O26_24  and  C27_25 
REMARK   12  A    between atoms: C27_25  and  C28_26 
REMARK   13  A    between atoms: C28_26  and  O29_27 
REMARK   14  A    between atoms: O29_27  and  C30_28 
REMARK   15  A    between atoms: C30_28  and  C31_29 
REMARK   16  A    between atoms: C31_29  and  O32_30 
REMARK   17  A    between atoms: O32_30  and  C33_31 
REMARK   18  A    between atoms: C33_31  and  C34_32 
REMARK   19  A    between atoms: C34_32  and  O35_33 
REMARK   20  A    between atoms: O35_33  and  C36_34 
REMARK   21  A    between atoms: C36_34  and  C37_35 
REMARK   22  A    between atoms: C37_35  and  O38_36 
REMARK   23  A    between atoms: O38_36  and  C39_37 
REMARK   24  A    between atoms: C39_37  and  C40_38 
REMARK   25  A    between atoms: C40_38  and  O41_39 
REMARK   26  A    between atoms: C45_43  and  O46_44 
ROOT
ATOM      1  N4  ZIN A   1      18.466  -0.805   8.178  0.00  0.00     0.099 N 
ATOM      2  C5  ZIN A   1      19.632   0.062   8.382  0.00  0.00     0.275 C 
ATOM      3  C6  ZIN A   1      20.420  -0.393   9.618  0.00  0.00     0.050 C 
ATOM      4  C7  ZIN A   1      19.472  -0.368  10.819  0.00  0.00     0.054 C 
ATOM      5  C8  ZIN A   1      18.888   1.017  10.955  0.00  0.00    -0.001 A 
ATOM      6  C9  ZIN A   1      17.747   1.496  10.357  0.00  0.00    -0.046 A 
ATOM      7  C10 ZIN A   1      17.427   2.815  10.634  0.00  0.00     0.011 A 
ATOM      8  C11 ZIN A   1      18.206   3.552  11.511  0.00  0.00     0.040 A 
ATOM      9  C12 ZIN A   1      19.318   3.030  12.167  0.00  0.00     0.099 A 
ATOM     10  C14 ZIN A   1      19.655   1.702  11.889  0.00  0.00     0.110 A 
ATOM     11  O15 ZIN A   1      20.609   0.889  12.394  0.00  0.00    -0.339 OA
ATOM     12  C16 ZIN A   1      20.214  -0.499  12.138  0.00  0.00     0.174 C 
ATOM     13  C18 ZIN A   1      19.359  -0.930  13.311  0.00  0.00     0.152 C 
ATOM     14  C43 ZIN A   1      18.225  -1.872  12.979  0.00  0.00     0.037 C 
ATOM     15  C44 ZIN A   1      17.390  -1.354  11.810  0.00  0.00     0.044 C 
ATOM     16  C45 ZIN A   1      18.305  -1.303  10.561  0.00  0.00     0.103 C 
ATOM     17  C47 ZIN A   1      17.555  -0.794   9.330  0.00  0.00     0.262 C 
ATOM     18  C49 ZIN A   1      16.933   0.583   9.499  0.00  0.00     0.078 C 
ENDROOT
BRANCH  13  19
ATOM     19  O20 ZIN A   1      18.801   0.240  13.914  0.00  0.00    -0.381 OA
BRANCH  19  20
ATOM     20  C21 ZIN A   1      18.307   0.034  15.238  0.00  0.00     0.194 C 
BRANCH  20  21
ATOM     21  C22 ZIN A   1      19.123  -1.064  15.923  0.00  0.00     0.193 C 
BRANCH  21  22
ATOM     22  O23 ZIN A   1      18.933  -0.988  17.337  0.00  0.00    -0.387 OA
BRANCH  22  23
ATOM     23  C24 ZIN A   1      19.258   0.285  17.899  0.00  0.00     0.193 C 
BRANCH  23  24
ATOM     24  C25 ZIN A   1      18.175   0.692  18.900  0.00  0.00     0.193 C 
BRANCH  24  25
ATOM     25  O26 ZIN A   1      18.024   2.113  18.886  0.00  0.00    -0.387 OA
BRANCH  25  26
ATOM     26  C27 ZIN A   1      19.105   2.805  18.259  0.00  0.00     0.193 C 
BRANCH  26  27
ATOM     27  C28 ZIN A   1      18.566   3.656  17.107  0.00  0.00     0.193 C 
BRANCH  27  28
ATOM     28  O29 ZIN A   1      18.170   4.935  17.604  0.00  0.00    -0.387 OA
BRANCH  28  29
ATOM     29  C30 ZIN A   1      17.881   5.892  16.583  0.00  0.00     0.193 C 
BRANCH  29  30
ATOM     30  C31 ZIN A   1      17.779   5.182  15.232  0.00  0.00     0.193 C 
BRANCH  30  31
ATOM     31  O32 ZIN A   1      16.405   5.070  14.855  0.00  0.00    -0.387 OA
BRANCH  31  32
ATOM     32  C33 ZIN A   1      15.919   6.177  14.093  0.00  0.00     0.193 C 
BRANCH  32  33
ATOM     33  C34 ZIN A   1      15.293   7.208  15.035  0.00  0.00     0.193 C 
BRANCH  33  34
ATOM     34  O35 ZIN A   1      14.389   6.552  15.926  0.00  0.00    -0.387 OA
BRANCH  34  35
ATOM     35  C36 ZIN A   1      13.869   7.398  16.953  0.00  0.00     0.193 C 
BRANCH  35  36
ATOM     36  C37 ZIN A   1      12.816   6.635  17.760  0.00  0.00     0.193 C 
BRANCH  36  37
ATOM     37  O38 ZIN A   1      13.445   5.979  18.863  0.00  0.00    -0.387 OA
BRANCH  37  38
ATOM     38  C39 ZIN A   1      13.622   6.812  20.010  0.00  0.00     0.193 C 
BRANCH  38  39
ATOM     39  C40 ZIN A   1      14.870   6.369  20.775  0.00  0.00     0.193 C 
BRANCH  39  40
ATOM     40  O41 ZIN A   1      15.982   6.310  19.879  0.00  0.00    -0.394 OA
ATOM     41  C42 ZIN A   1      16.552   7.586  19.577  0.00  0.00     0.201 C 
ENDBRANCH  39  40
ENDBRANCH  38  39
ENDBRANCH  37  38
ENDBRANCH  36  37
ENDBRANCH  35  36
ENDBRANCH  34  35
ENDBRANCH  33  34
ENDBRANCH  32  33
ENDBRANCH  31  32
ENDBRANCH  30  31
ENDBRANCH  29  30
ENDBRANCH  28  29
ENDBRANCH  27  28
ENDBRANCH  26  27
ENDBRANCH  25  26
ENDBRANCH  24  25
ENDBRANCH  23  24
ENDBRANCH  22  23
ENDBRANCH  21  22
ENDBRANCH  20  21
ENDBRANCH  19  20
ENDBRANCH  13  19
BRANCH  16  42
ATOM     42  O46 ZIN A   1      18.799  -2.614  10.282  0.00  0.00    -0.386 OA
ATOM     43  H97 ZIN A   1      19.405  -2.654   9.529  0.00  0.00     0.210 HD
ENDBRANCH  16  42
BRANCH   9  44
ATOM     44  O13 ZIN A   1      20.044   3.779  13.041  0.00  0.00    -0.358 OA
ATOM     45  H61 ZIN A   1      20.802   4.225  12.640  0.00  0.00     0.217 HD
ENDBRANCH   9  44
BRANCH   1  46
ATOM     46  C3  ZIN A   1      17.756  -0.448   6.942  0.00  0.00     0.299 C 
BRANCH  46  47
ATOM     47  C2  ZIN A   1      18.515  -0.984   5.755  0.00  0.00    -0.007 C 
ATOM     48  C1  ZIN A   1      17.976  -0.947   4.561  0.00  0.00     0.008 C 
ENDBRANCH  46  47
ENDBRANCH   1  46
TORSDOF 26
ENDMDL
MODEL 8
REMARK VINA RESULT:      -5.2      3.074      9.783
REMARK  26 active torsions:
REMARK  status: ('A' for Active; 'I' for Inactive)
REMARK    1  A    between atoms: C2_2  and  C3_3 
REMARK    2  A    between atoms: C3_3  and  N4_4 
REMARK    3  A    between atoms: C12_12  and  O13_13 
REMARK    4  A    between atoms: C18_17  and  O20_18 
REMARK    5  A    between atoms: O20_18  and  C21_19 
REMARK    6  A    between atoms: C21_19  and  C22_20 
REMARK    7  A    between atoms: C22_20  and  O23_21 
REMARK    8  A    between atoms: O23_21  and  C24_22 
REMARK    9  A    between atoms: C24_22  and  C25_23 
REMARK   10  A    between atoms: C25_23  and  O26_24 
REMARK   11  A    between atoms: O26_24  and  C27_25 
REMARK   12  A    between atoms: C27_25  and  C28_26 
REMARK   13  A    between atoms: C28_26  and  O29_27 
REMARK   14  A    between atoms: O29_27  and  C30_28 
REMARK   15  A    between atoms: C30_28  and  C31_29 
REMARK   16  A    between atoms: C31_29  and  O32_30 
REMARK   17  A    between atoms: O32_30  and  C33_31 
REMARK   18  A    between atoms: C33_31  and  C34_32 
REMARK   19  A    between atoms: C34_32  and  O35_33 
REMARK   20  A    between atoms: O35_33  and  C36_34 
REMARK   21  A    between atoms: C36_34  and  C37_35 
REMARK   22  A    between atoms: C37_35  and  O38_36 
REMARK   23  A    between atoms: O38_36  and  C39_37 
REMARK   24  A    between atoms: C39_37  and  C40_38 
REMARK   25  A    between atoms: C40_38  and  O41_39 
REMARK   26  A    between atoms: C45_43  and  O46_44 
ROOT
ATOM      1  N4  ZIN A   1      18.739   6.109  14.123  0.00  0.00     0.099 N 
ATOM      2  C5  ZIN A   1      20.011   5.391  14.263  0.00  0.00     0.275 C 
ATOM      3  C6  ZIN A   1      20.454   4.830  12.906  0.00  0.00     0.050 C 
ATOM      4  C7  ZIN A   1      19.340   3.921  12.383  0.00  0.00     0.054 C 
ATOM      5  C8  ZIN A   1      19.053   2.853  13.410  0.00  0.00    -0.001 A 
ATOM      6  C9  ZIN A   1      18.165   2.929  14.456  0.00  0.00    -0.046 A 
ATOM      7  C10 ZIN A   1      18.093   1.811  15.271  0.00  0.00     0.011 A 
ATOM      8  C11 ZIN A   1      18.847   0.686  14.979  0.00  0.00     0.040 A 
ATOM      9  C12 ZIN A   1      19.689   0.597  13.873  0.00  0.00     0.099 A 
ATOM     10  C14 ZIN A   1      19.776   1.723  13.048  0.00  0.00     0.110 A 
ATOM     11  O15 ZIN A   1      20.428   1.941  11.885  0.00  0.00    -0.339 OA
ATOM     12  C16 ZIN A   1      19.794   3.075  11.206  0.00  0.00     0.174 C 
ATOM     13  C18 ZIN A   1      18.675   2.502  10.361  0.00  0.00     0.152 C 
ATOM     14  C43 ZIN A   1      17.441   3.366  10.244  0.00  0.00     0.037 C 
ATOM     15  C44 ZIN A   1      16.954   3.835  11.614  0.00  0.00     0.044 C 
ATOM     16  C45 ZIN A   1      18.061   4.725  12.232  0.00  0.00     0.103 C 
ATOM     17  C47 ZIN A   1      17.665   5.246  13.613  0.00  0.00     0.262 C 
ATOM     18  C49 ZIN A   1      17.335   4.160  14.623  0.00  0.00     0.078 C 
ENDROOT
BRANCH  13  19
ATOM     19  O20 ZIN A   1      18.287   1.246  10.922  0.00  0.00    -0.381 OA
BRANCH  19  20
ATOM     20  C21 ZIN A   1      17.712   0.340   9.977  0.00  0.00     0.194 C 
BRANCH  20  21
ATOM     21  C22 ZIN A   1      18.073  -1.095  10.363  0.00  0.00     0.193 C 
BRANCH  21  22
ATOM     22  O23 ZIN A   1      18.002  -1.240  11.783  0.00  0.00    -0.387 OA
BRANCH  22  23
ATOM     23  C24 ZIN A   1      18.089  -2.593  12.234  0.00  0.00     0.193 C 
BRANCH  23  24
ATOM     24  C25 ZIN A   1      18.631  -3.473  11.106  0.00  0.00     0.193 C 
BRANCH  24  25
ATOM     25  O26 ZIN A   1      18.629  -4.839  11.525  0.00  0.00    -0.387 OA
BRANCH  25  26
ATOM     26  C27 ZIN A   1      17.341  -5.456  11.486  0.00  0.00     0.193 C 
BRANCH  26  27
ATOM     27  C28 ZIN A   1      17.102  -6.049  10.095  0.00  0.00     0.193 C 
BRANCH  27  28
ATOM     28  O29 ZIN A   1      16.271  -5.168   9.338  0.00  0.00    -0.387 OA
BRANCH  28  29
ATOM     29  C30 ZIN A   1      15.171  -5.815   8.695  0.00  0.00     0.193 C 
BRANCH  29  30
ATOM     30  C31 ZIN A   1      15.698  -6.808   7.657  0.00  0.00     0.193 C 
BRANCH  30  31
ATOM     31  O32 ZIN A   1      15.153  -6.491   6.375  0.00  0.00    -0.387 OA
BRANCH  31  32
ATOM     32  C33 ZIN A   1      16.032  -5.733   5.541  0.00  0.00     0.193 C 
BRANCH  32  33
ATOM     33  C34 ZIN A   1      17.393  -6.428   5.471  0.00  0.00     0.193 C 
BRANCH  33  34
ATOM     34  O35 ZIN A   1      18.432  -5.450   5.554  0.00  0.00    -0.387 OA
BRANCH  34  35
ATOM     35  C36 ZIN A   1      18.910  -5.222   6.881  0.00  0.00     0.193 C 
BRANCH  35  36
ATOM     36  C37 ZIN A   1      18.752  -3.742   7.233  0.00  0.00     0.193 C 
BRANCH  36  37
ATOM     37  O38 ZIN A   1      18.653  -2.974   6.032  0.00  0.00    -0.387 OA
BRANCH  37  38
ATOM     38  C39 ZIN A   1      19.285  -1.694   6.107  0.00  0.00     0.193 C 
BRANCH  38  39
ATOM     39  C40 ZIN A   1      19.260  -1.031   4.728  0.00  0.00     0.193 C 
BRANCH  39  40
ATOM     40  O41 ZIN A   1      18.777   0.308   4.852  0.00  0.00    -0.394 OA
ATOM     41  C42 ZIN A   1      18.891   0.846   6.171  0.00  0.00     0.201 C 
ENDBRANCH  39  40
ENDBRANCH  38  39
ENDBRANCH  37  38
ENDBRANCH  36  37
ENDBRANCH  35  36
ENDBRANCH  34  35
ENDBRANCH  33  34
ENDBRANCH  32  33
ENDBRANCH  31  32
ENDBRANCH  30  31
ENDBRANCH  29  30
ENDBRANCH  28  29
ENDBRANCH  27  28
ENDBRANCH  26  27
ENDBRANCH  25  26
ENDBRANCH  24  25
ENDBRANCH  23  24
ENDBRANCH  22  23
ENDBRANCH  21  22
ENDBRANCH  20  21
ENDBRANCH  19  20
ENDBRANCH  13  19
BRANCH  16  42
ATOM     42  O46 ZIN A   1      18.302   5.843  11.375  0.00  0.00    -0.386 OA
ATOM     43  H97 ZIN A   1      18.853   6.531  11.772  0.00  0.00     0.210 HD
ENDBRANCH  16  42
BRANCH   9  44
ATOM     44  O13 ZIN A   1      20.396  -0.534  13.607  0.00  0.00    -0.358 OA
ATOM     45  H61 ZIN A   1      19.905  -1.194  13.099  0.00  0.00     0.217 HD
ENDBRANCH   9  44
BRANCH   1  46
ATOM     46  C3  ZIN A   1      18.349   6.741  15.391  0.00  0.00     0.299 C 
BRANCH  46  47
ATOM     47  C2  ZIN A   1      17.557   7.991  15.106  0.00  0.00    -0.007 C 
ATOM     48  C1  ZIN A   1      16.573   8.338  15.899  0.00  0.00     0.008 C 
ENDBRANCH  46  47
ENDBRANCH   1  46
TORSDOF 26
ENDMDL
MODEL 9
REMARK VINA RESULT:      -5.1      3.605      9.978
REMARK  26 active torsions:
REMARK  status: ('A' for Active; 'I' for Inactive)
REMARK    1  A    between atoms: C2_2  and  C3_3 
REMARK    2  A    between atoms: C3_3  and  N4_4 
REMARK    3  A    between atoms: C12_12  and  O13_13 
REMARK    4  A    between atoms: C18_17  and  O20_18 
REMARK    5  A    between atoms: O20_18  and  C21_19 
REMARK    6  A    between atoms: C21_19  and  C22_20 
REMARK    7  A    between atoms: C22_20  and  O23_21 
REMARK    8  A    between atoms: O23_21  and  C24_22 
REMARK    9  A    between atoms: C24_22  and  C25_23 
REMARK   10  A    between atoms: C25_23  and  O26_24 
REMARK   11  A    between atoms: O26_24  and  C27_25 
REMARK   12  A    between atoms: C27_25  and  C28_26 
REMARK   13  A    between atoms: C28_26  and  O29_27 
REMARK   14  A    between atoms: O29_27  and  C30_28 
REMARK   15  A    between atoms: C30_28  and  C31_29 
REMARK   16  A    between atoms: C31_29  and  O32_30 
REMARK   17  A    between atoms: O32_30  and  C33_31 
REMARK   18  A    between atoms: C33_31  and  C34_32 
REMARK   19  A    between atoms: C34_32  and  O35_33 
REMARK   20  A    between atoms: O35_33  and  C36_34 
REMARK   21  A    between atoms: C36_34  and  C37_35 
REMARK   22  A    between atoms: C37_35  and  O38_36 
REMARK   23  A    between atoms: O38_36  and  C39_37 
REMARK   24  A    between atoms: C39_37  and  C40_38 
REMARK   25  A    between atoms: C40_38  and  O41_39 
REMARK   26  A    between atoms: C45_43  and  O46_44 
ROOT
ATOM      1  N4  ZIN A   1      18.579   4.481  12.023  0.00  0.00     0.099 N 
ATOM      2  C5  ZIN A   1      19.797   3.931  12.629  0.00  0.00     0.275 C 
ATOM      3  C6  ZIN A   1      20.480   2.962  11.655  0.00  0.00     0.050 C 
ATOM      4  C7  ZIN A   1      19.476   1.866  11.294  0.00  0.00     0.054 C 
ATOM      5  C8  ZIN A   1      18.994   1.203  12.562  0.00  0.00    -0.001 A 
ATOM      6  C9  ZIN A   1      17.927   1.584  13.340  0.00  0.00    -0.046 A 
ATOM      7  C10 ZIN A   1      17.695   0.813  14.467  0.00  0.00     0.011 A 
ATOM      8  C11 ZIN A   1      18.481  -0.298  14.725  0.00  0.00     0.040 A 
ATOM      9  C12 ZIN A   1      19.514  -0.714  13.888  0.00  0.00     0.099 A 
ATOM     10  C14 ZIN A   1      19.762   0.061  12.751  0.00  0.00     0.110 A 
ATOM     11  O15 ZIN A   1      20.621  -0.098  11.721  0.00  0.00    -0.339 OA
ATOM     12  C16 ZIN A   1      20.134   0.694  10.588  0.00  0.00     0.174 C 
ATOM     13  C18 ZIN A   1      19.187  -0.198   9.811  0.00  0.00     0.152 C 
ATOM     14  C43 ZIN A   1      18.004   0.500   9.183  0.00  0.00     0.037 C 
ATOM     15  C44 ZIN A   1      17.274   1.383  10.194  0.00  0.00     0.044 C 
ATOM     16  C45 ZIN A   1      18.254   2.494  10.647  0.00  0.00     0.103 C 
ATOM     17  C47 ZIN A   1      17.612   3.436  11.665  0.00  0.00     0.262 C 
ATOM     18  C49 ZIN A   1      17.090   2.747  12.916  0.00  0.00     0.078 C 
ENDROOT
BRANCH  13  19
ATOM     19  O20 ZIN A   1      18.691  -1.204  10.697  0.00  0.00    -0.381 OA
BRANCH  19  20
ATOM     20  C21 ZIN A   1      17.882  -2.194  10.059  0.00  0.00     0.194 C 
BRANCH  20  21
ATOM     21  C22 ZIN A   1      17.585  -3.324  11.045  0.00  0.00     0.193 C 
BRANCH  21  22
ATOM     22  O23 ZIN A   1      18.298  -4.499  10.654  0.00  0.00    -0.387 OA
BRANCH  22  23
ATOM     23  C24 ZIN A   1      17.495  -5.680  10.612  0.00  0.00     0.193 C 
BRANCH  23  24
ATOM     24  C25 ZIN A   1      16.360  -5.490   9.602  0.00  0.00     0.193 C 
BRANCH  24  25
ATOM     25  O26 ZIN A   1      16.329  -6.604   8.708  0.00  0.00    -0.387 OA
BRANCH  25  26
ATOM     26  C27 ZIN A   1      17.603  -6.943   8.157  0.00  0.00     0.193 C 
BRANCH  26  27
ATOM     27  C28 ZIN A   1      17.680  -6.452   6.710  0.00  0.00     0.193 C 
BRANCH  27  28
ATOM     28  O29 ZIN A   1      18.925  -5.783   6.500  0.00  0.00    -0.387 OA
BRANCH  28  29
ATOM     29  C30 ZIN A   1      19.058  -4.559   7.224  0.00  0.00     0.193 C 
BRANCH  29  30
ATOM     30  C31 ZIN A   1      19.888  -3.568   6.405  0.00  0.00     0.193 C 
BRANCH  30  31
ATOM     31  O32 ZIN A   1      19.131  -2.375   6.191  0.00  0.00    -0.387 OA
BRANCH  31  32
ATOM     32  C33 ZIN A   1      19.080  -1.957   4.825  0.00  0.00     0.193 C 
BRANCH  32  33
ATOM     33  C34 ZIN A   1      17.622  -1.890   4.367  0.00  0.00     0.193 C 
BRANCH  33  34
ATOM     34  O35 ZIN A   1      16.987  -3.148   4.609  0.00  0.00    -0.387 OA
BRANCH  34  35
ATOM     35  C36 ZIN A   1      17.277  -4.143   3.626  0.00  0.00     0.193 C 
BRANCH  35  36
ATOM     36  C37 ZIN A   1      16.094  -4.269   2.664  0.00  0.00     0.193 C 
BRANCH  36  37
ATOM     37  O38 ZIN A   1      15.650  -5.627   2.630  0.00  0.00    -0.387 OA
BRANCH  37  38
ATOM     38  C39 ZIN A   1      14.327  -5.818   3.135  0.00  0.00     0.193 C 
BRANCH  38  39
ATOM     39  C40 ZIN A   1      14.382  -6.003   4.653  0.00  0.00     0.193 C 
BRANCH  39  40
ATOM     40  O41 ZIN A   1      14.818  -7.329   4.956  0.00  0.00    -0.394 OA
ATOM     41  C42 ZIN A   1      13.753  -8.250   5.201  0.00  0.00     0.201 C 
ENDBRANCH  39  40
ENDBRANCH  38  39
ENDBRANCH  37  38
ENDBRANCH  36  37
ENDBRANCH  35  36
ENDBRANCH  34  35
ENDBRANCH  33  34
ENDBRANCH  32  33
ENDBRANCH  31  32
ENDBRANCH  30  31
ENDBRANCH  29  30
ENDBRANCH  28  29
ENDBRANCH  27  28
ENDBRANCH  26  27
ENDBRANCH  25  26
ENDBRANCH  24  25
ENDBRANCH  23  24
ENDBRANCH  22  23
ENDBRANCH  21  22
ENDBRANCH  20  21
ENDBRANCH  19  20
ENDBRANCH  13  19
BRANCH  16  42
ATOM     42  O46 ZIN A   1      18.660   3.260   9.511  0.00  0.00    -0.386 OA
ATOM     43  H97 ZIN A   1      18.186   4.097   9.412  0.00  0.00     0.210 HD
ENDBRANCH  16  42
BRANCH   9  44
ATOM     44  O13 ZIN A   1      20.248  -1.825  14.164  0.00  0.00    -0.358 OA
ATOM     45  H61 ZIN A   1      19.768  -2.655  14.041  0.00  0.00     0.217 HD
ENDBRANCH   9  44
BRANCH   1  46
ATOM     46  C3  ZIN A   1      17.965   5.488  12.900  0.00  0.00     0.299 C 
BRANCH  46  47
ATOM     47  C2  ZIN A   1      18.773   5.611  14.167  0.00  0.00    -0.007 C 
ATOM     48  C1  ZIN A   1      18.168   5.656  15.328  0.00  0.00     0.008 C 
ENDBRANCH  46  47
ENDBRANCH   1  46
TORSDOF 26
ENDMDL
