MODEL 1
REMARK VINA RESULT:      -9.0      0.000      0.000
REMARK  5 active torsions:
REMARK  status: ('A' for Active; 'I' for Inactive)
REMARK    1  A    between atoms: N2_2  and  C4_4 
REMARK    2  A    between atoms: C8_7  and  C9_8 
REMARK       I    between atoms: C9_8  and  N10_9 
REMARK    3  A    between atoms: C14_13  and  O15_14 
REMARK    4  A    between atoms: C22_21  and  O23_22 
REMARK    5  A    between atoms: C28_27  and  O30_29 
ROOT
ATOM      1  C4  ZIN A   1      17.222   5.027  14.810  0.00  0.00     0.290 C 
ATOM      2  C6  ZIN A   1      18.530   5.682  15.138  0.00  0.00     0.138 C 
ATOM      3  O7  ZIN A   1      18.657   6.330  16.305  0.00  0.00    -0.193 OA
ATOM      4  C8  ZIN A   1      19.604   5.639  14.283  0.00  0.00     0.115 C 
ATOM      5  C12 ZIN A   1      19.512   4.916  13.016  0.00  0.00     0.210 C 
ATOM      6  O13 ZIN A   1      20.507   4.693  12.358  0.00  0.00    -0.288 OA
ATOM      7  C14 ZIN A   1      18.149   4.449  12.538  0.00  0.00     0.194 C 
ATOM      8  C16 ZIN A   1      18.370   3.309  11.581  0.00  0.00     0.201 C 
ATOM      9  O17 ZIN A   1      18.714   3.569  10.444  0.00  0.00    -0.289 OA
ATOM     10  C18 ZIN A   1      18.201   1.974  11.929  0.00  0.00     0.036 C 
ATOM     11  C19 ZIN A   1      18.405   1.000  10.968  0.00  0.00     0.131 C 
ATOM     12  O20 ZIN A   1      18.678   1.348   9.692  0.00  0.00    -0.190 OA
ATOM     13  C21 ZIN A   1      18.324  -0.418  11.349  0.00  0.00     0.043 A 
ATOM     14  C22 ZIN A   1      18.200  -1.415  10.372  0.00  0.00     0.079 A 
ATOM     15  C24 ZIN A   1      18.115  -2.745  10.759  0.00  0.00     0.037 A 
ATOM     16  C25 ZIN A   1      18.150  -3.081  12.098  0.00  0.00     0.003 A 
ATOM     17  C26 ZIN A   1      18.275  -2.097  13.068  0.00  0.00     0.011 A 
ATOM     18  C27 ZIN A   1      18.366  -0.773  12.701  0.00  0.00    -0.008 A 
ATOM     19  C28 ZIN A   1      18.527   0.300  13.747  0.00  0.00     0.090 C 
ATOM     20  C29 ZIN A   1      17.960  -0.197  15.079  0.00  0.00     0.052 C 
ATOM     21  C31 ZIN A   1      17.774   1.554  13.311  0.00  0.00     0.065 C 
ATOM     22  C33 ZIN A   1      18.023   2.690  14.305  0.00  0.00     0.024 C 
ATOM     23  C34 ZIN A   1      17.368   3.952  13.752  0.00  0.00     0.077 C 
ENDROOT
BRANCH   4  24
ATOM     24  C9  ZIN A   1      20.854   6.325  14.645  0.00  0.00     0.255 C 
ATOM     25  N10 ZIN A   1      21.697   5.767  15.535  0.00  0.00    -0.366 N 
ATOM     26  H42 ZIN A   1      21.522   4.876  15.876  0.00  0.00     0.159 HD
ATOM     27  H43 ZIN A   1      22.479   6.255  15.836  0.00  0.00     0.159 HD
ATOM     28  O11 ZIN A   1      21.127   7.398  14.139  0.00  0.00    -0.268 OA
ENDBRANCH   4  24
BRANCH   1  29
ATOM     29  N2  ZIN A   1      16.287   6.051  14.323  0.00  0.00     0.091 N 
ATOM     30  C1  ZIN A   1      14.970   5.907  14.959  0.00  0.00     0.310 C 
ATOM     31  C3  ZIN A   1      16.827   7.401  14.532  0.00  0.00     0.310 C 
ENDBRANCH   1  29
BRANCH   7  32
ATOM     32  O15 ZIN A   1      17.451   5.524  11.907  0.00  0.00    -0.373 OA
ATOM     33  H44 ZIN A   1      16.489   5.418  11.901  0.00  0.00     0.211 HD
ENDBRANCH   7  32
BRANCH  19  34
ATOM     34  O30 ZIN A   1      19.913   0.608  13.906  0.00  0.00    -0.385 OA
ATOM     35  H52 ZIN A   1      20.244   1.269  13.284  0.00  0.00     0.211 HD
ENDBRANCH  19  34
BRANCH  14  36
ATOM     36  O23 ZIN A   1      18.165  -1.083   9.058  0.00  0.00    -0.360 OA
ATOM     37  H45 ZIN A   1      17.415  -1.461   8.576  0.00  0.00     0.217 HD
ENDBRANCH  14  36
TORSDOF 5
ENDMDL
MODEL 2
REMARK VINA RESULT:      -9.0      4.626      9.491
REMARK  5 active torsions:
REMARK  status: ('A' for Active; 'I' for Inactive)
REMARK    1  A    between atoms: N2_2  and  C4_4 
REMARK    2  A    between atoms: C8_7  and  C9_8 
REMARK       I    between atoms: C9_8  and  N10_9 
REMARK    3  A    between atoms: C14_13  and  O15_14 
REMARK    4  A    between atoms: C22_21  and  O23_22 
REMARK    5  A    between atoms: C28_27  and  O30_29 
ROOT
ATOM      1  C4  ZIN A   1      17.338  -4.990   8.265  0.00  0.00     0.290 C 
ATOM      2  C6  ZIN A   1      18.691  -5.584   8.012  0.00  0.00     0.138 C 
ATOM      3  O7  ZIN A   1      18.894  -6.275   6.880  0.00  0.00    -0.193 OA
ATOM      4  C8  ZIN A   1      19.729  -5.444   8.900  0.00  0.00     0.115 C 
ATOM      5  C12 ZIN A   1      19.551  -4.673  10.129  0.00  0.00     0.210 C 
ATOM      6  O13 ZIN A   1      20.509  -4.366  10.809  0.00  0.00    -0.288 OA
ATOM      7  C14 ZIN A   1      18.149  -4.262  10.538  0.00  0.00     0.194 C 
ATOM      8  C16 ZIN A   1      18.273  -3.070  11.449  0.00  0.00     0.201 C 
ATOM      9  O17 ZIN A   1      18.589  -3.261  12.607  0.00  0.00    -0.289 OA
ATOM     10  C18 ZIN A   1      18.045  -1.763  11.034  0.00  0.00     0.036 C 
ATOM     11  C19 ZIN A   1      18.162  -0.738  11.956  0.00  0.00     0.131 C 
ATOM     12  O20 ZIN A   1      18.406  -1.014  13.256  0.00  0.00    -0.190 OA
ATOM     13  C21 ZIN A   1      18.018   0.655  11.508  0.00  0.00     0.043 A 
ATOM     14  C22 ZIN A   1      17.805   1.686  12.434  0.00  0.00     0.079 A 
ATOM     15  C24 ZIN A   1      17.663   2.990  11.984  0.00  0.00     0.037 A 
ATOM     16  C25 ZIN A   1      17.729   3.269  10.632  0.00  0.00     0.003 A 
ATOM     17  C26 ZIN A   1      17.941   2.251   9.714  0.00  0.00     0.011 A 
ATOM     18  C27 ZIN A   1      18.091   0.952  10.144  0.00  0.00    -0.008 A 
ATOM     19  C28 ZIN A   1      18.346  -0.155   9.154  0.00  0.00     0.090 C 
ATOM     20  C29 ZIN A   1      17.803   0.251   7.782  0.00  0.00     0.052 C 
ATOM     21  C31 ZIN A   1      17.647  -1.428   9.622  0.00  0.00     0.065 C 
ATOM     22  C33 ZIN A   1      17.993  -2.591   8.689  0.00  0.00     0.024 C 
ATOM     23  C34 ZIN A   1      17.387  -3.862   9.277  0.00  0.00     0.077 C 
ENDROOT
BRANCH   4  24
ATOM     24  C9  ZIN A   1      21.026  -6.076   8.613  0.00  0.00     0.255 C 
ATOM     25  N10 ZIN A   1      21.833  -5.558   7.667  0.00  0.00    -0.366 N 
ATOM     26  H42 ZIN A   1      21.598  -4.723   7.232  0.00  0.00     0.159 HD
ATOM     27  H43 ZIN A   1      22.650  -6.020   7.418  0.00  0.00     0.159 HD
ATOM     28  O11 ZIN A   1      21.371  -7.066   9.231  0.00  0.00    -0.268 OA
ENDBRANCH   4  24
BRANCH   1  29
ATOM     29  N2  ZIN A   1      16.443  -6.041   8.767  0.00  0.00     0.091 N 
ATOM     30  C1  ZIN A   1      15.040  -5.731   8.455  0.00  0.00     0.310 C 
ATOM     31  C3  ZIN A   1      16.822  -7.356   8.232  0.00  0.00     0.310 C 
ENDBRANCH   1  29
BRANCH   7  32
ATOM     32  O15 ZIN A   1      17.487  -5.345  11.194  0.00  0.00    -0.373 OA
ATOM     33  H44 ZIN A   1      18.076  -5.907  11.716  0.00  0.00     0.211 HD
ENDBRANCH   7  32
BRANCH  19  34
ATOM     34  O30 ZIN A   1      19.753  -0.392   9.057  0.00  0.00    -0.385 OA
ATOM     35  H52 ZIN A   1      20.075  -0.482   8.151  0.00  0.00     0.211 HD
ENDBRANCH  19  34
BRANCH  14  36
ATOM     36  O23 ZIN A   1      17.740   1.410  13.760  0.00  0.00    -0.360 OA
ATOM     37  H45 ZIN A   1      18.530   1.668  14.255  0.00  0.00     0.217 HD
ENDBRANCH  14  36
TORSDOF 5
ENDMDL
