MODEL 1
REMARK VINA RESULT:      -7.5      0.000      0.000
REMARK  3 active torsions:
REMARK  status: ('A' for Active; 'I' for Inactive)
REMARK    1  A    between atoms: N5_5  and  C7_7 
REMARK    2  A    between atoms: C7_7  and  C8_8 
REMARK    3  A    between atoms: C7_7  and  C14_14 
ROOT
ATOM      1  C7  ZIN A   1      19.339  -0.863  12.882  0.00  0.00     0.254 C 
ENDROOT
BRANCH   1   2
ATOM      2  N5  ZIN A   1      18.707   0.224  12.123  0.00  0.00    -0.055 N 
ATOM      3  C4  ZIN A   1      19.048   0.092  10.700  0.00  0.00     0.266 C 
ATOM      4  C3  ZIN A   1      18.375   1.214   9.907  0.00  0.00     0.299 C 
ATOM      5  N2  ZIN A   1      18.833   2.514  10.419  0.00  0.00     0.087 N 
ATOM      6  C1  ZIN A   1      18.251   3.619   9.644  0.00  0.00     0.310 C 
ATOM      7  C21 ZIN A   1      18.521   2.652  11.849  0.00  0.00     0.299 C 
ATOM      8  C20 ZIN A   1      19.193   1.517  12.625  0.00  0.00     0.266 C 
ATOM      9  H6  ZIN A   1      17.706   0.176  12.235  0.00  0.00     0.281 HD
ENDBRANCH   1   2
BRANCH   1  10
ATOM     10  C8  ZIN A   1      18.837  -0.842  14.302  0.00  0.00    -0.023 A 
ATOM     11  C13 ZIN A   1      19.510  -1.546  15.284  0.00  0.00     0.009 A 
ATOM     12  C12 ZIN A   1      19.053  -1.522  16.588  0.00  0.00     0.001 A 
ATOM     13  C11 ZIN A   1      17.918  -0.803  16.910  0.00  0.00     0.000 A 
ATOM     14  C10 ZIN A   1      17.242  -0.103  15.928  0.00  0.00     0.001 A 
ATOM     15  C9  ZIN A   1      17.701  -0.124  14.624  0.00  0.00     0.009 A 
ENDBRANCH   1  10
BRANCH   1  16
ATOM     16  C14 ZIN A   1      18.993  -2.186  12.246  0.00  0.00    -0.023 A 
ATOM     17  C19 ZIN A   1      17.673  -2.510  12.001  0.00  0.00     0.009 A 
ATOM     18  C18 ZIN A   1      17.357  -3.721  11.414  0.00  0.00     0.001 A 
ATOM     19  C17 ZIN A   1      18.361  -4.611  11.080  0.00  0.00     0.000 A 
ATOM     20  C16 ZIN A   1      19.682  -4.287  11.329  0.00  0.00     0.001 A 
ATOM     21  C15 ZIN A   1      19.998  -3.074  11.913  0.00  0.00     0.009 A 
ENDBRANCH   1  16
TORSDOF 3
ENDMDL
MODEL 2
REMARK VINA RESULT:      -7.5      0.081      1.516
REMARK  3 active torsions:
REMARK  status: ('A' for Active; 'I' for Inactive)
REMARK    1  A    between atoms: N5_5  and  C7_7 
REMARK    2  A    between atoms: C7_7  and  C8_8 
REMARK    3  A    between atoms: C7_7  and  C14_14 
ROOT
ATOM      1  C7  ZIN A   1      19.301  -0.822  12.896  0.00  0.00     0.254 C 
ENDROOT
BRANCH   1   2
ATOM      2  N5  ZIN A   1      18.665   0.277  12.157  0.00  0.00    -0.055 N 
ATOM      3  C4  ZIN A   1      19.003   0.169  10.731  0.00  0.00     0.266 C 
ATOM      4  C3  ZIN A   1      18.324   1.302   9.959  0.00  0.00     0.299 C 
ATOM      5  N2  ZIN A   1      18.780   2.595  10.491  0.00  0.00     0.087 N 
ATOM      6  C1  ZIN A   1      18.195   3.711   9.736  0.00  0.00     0.310 C 
ATOM      7  C21 ZIN A   1      18.472   2.708  11.924  0.00  0.00     0.299 C 
ATOM      8  C20 ZIN A   1      19.149   1.562  12.679  0.00  0.00     0.266 C 
ATOM      9  H6  ZIN A   1      17.664   0.223  12.271  0.00  0.00     0.281 HD
ENDBRANCH   1   2
BRANCH   1  10
ATOM     10  C8  ZIN A   1      18.811  -0.820  14.321  0.00  0.00    -0.023 A 
ATOM     11  C13 ZIN A   1      17.675  -0.110  14.660  0.00  0.00     0.009 A 
ATOM     12  C12 ZIN A   1      17.223  -0.112  15.966  0.00  0.00     0.001 A 
ATOM     13  C11 ZIN A   1      17.913  -0.816  16.936  0.00  0.00     0.000 A 
ATOM     14  C10 ZIN A   1      19.052  -1.521  16.597  0.00  0.00     0.001 A 
ATOM     15  C9  ZIN A   1      19.502  -1.523  15.290  0.00  0.00     0.009 A 
ENDBRANCH   1  10
BRANCH   1  16
ATOM     16  C14 ZIN A   1      18.949  -2.135  12.245  0.00  0.00    -0.023 A 
ATOM     17  C19 ZIN A   1      19.946  -3.030  11.911  0.00  0.00     0.009 A 
ATOM     18  C18 ZIN A   1      19.622  -4.236  11.318  0.00  0.00     0.001 A 
ATOM     19  C17 ZIN A   1      18.300  -4.543  11.052  0.00  0.00     0.000 A 
ATOM     20  C16 ZIN A   1      17.303  -3.646  11.384  0.00  0.00     0.001 A 
ATOM     21  C15 ZIN A   1      17.627  -2.441  11.980  0.00  0.00     0.009 A 
ENDBRANCH   1  16
TORSDOF 3
ENDMDL
MODEL 3
REMARK VINA RESULT:      -7.4      2.459      4.521
REMARK  3 active torsions:
REMARK  status: ('A' for Active; 'I' for Inactive)
REMARK    1  A    between atoms: N5_5  and  C7_7 
REMARK    2  A    between atoms: C7_7  and  C8_8 
REMARK    3  A    between atoms: C7_7  and  C14_14 
ROOT
ATOM      1  C7  ZIN A   1      19.016   0.897  10.143  0.00  0.00     0.254 C 
ENDROOT
BRANCH   1   2
ATOM      2  N5  ZIN A   1      18.158   1.894  10.797  0.00  0.00    -0.055 N 
ATOM      3  C4  ZIN A   1      18.165   3.137  10.014  0.00  0.00     0.266 C 
ATOM      4  C3  ZIN A   1      17.256   4.168  10.685  0.00  0.00     0.299 C 
ATOM      5  N2  ZIN A   1      17.738   4.428  12.049  0.00  0.00     0.087 N 
ATOM      6  C1  ZIN A   1      16.924   5.458  12.709  0.00  0.00     0.310 C 
ATOM      7  C21 ZIN A   1      17.761   3.188  12.839  0.00  0.00     0.299 C 
ATOM      8  C20 ZIN A   1      18.665   2.164  12.149  0.00  0.00     0.266 C 
ATOM      9  H6  ZIN A   1      17.216   1.539  10.857  0.00  0.00     0.281 HD
ENDBRANCH   1   2
BRANCH   1  10
ATOM     10  C8  ZIN A   1      18.871  -0.428  10.844  0.00  0.00    -0.023 A 
ATOM     11  C13 ZIN A   1      19.948  -1.292  10.920  0.00  0.00     0.009 A 
ATOM     12  C12 ZIN A   1      19.817  -2.505  11.568  0.00  0.00     0.001 A 
ATOM     13  C11 ZIN A   1      18.606  -2.861  12.131  0.00  0.00     0.000 A 
ATOM     14  C10 ZIN A   1      17.528  -2.000  12.051  0.00  0.00     0.001 A 
ATOM     15  C9  ZIN A   1      17.660  -0.784  11.407  0.00  0.00     0.009 A 
ENDBRANCH   1  10
BRANCH   1  16
ATOM     16  C14 ZIN A   1      18.606   0.751   8.700  0.00  0.00    -0.023 A 
ATOM     17  C19 ZIN A   1      19.361   1.337   7.704  0.00  0.00     0.009 A 
ATOM     18  C18 ZIN A   1      18.987   1.199   6.380  0.00  0.00     0.001 A 
ATOM     19  C17 ZIN A   1      17.851   0.480   6.054  0.00  0.00     0.000 A 
ATOM     20  C16 ZIN A   1      17.094  -0.103   7.052  0.00  0.00     0.001 A 
ATOM     21  C15 ZIN A   1      17.470   0.032   8.376  0.00  0.00     0.009 A 
ENDBRANCH   1  16
TORSDOF 3
ENDMDL
MODEL 4
REMARK VINA RESULT:      -7.4      2.471      5.269
REMARK  3 active torsions:
REMARK  status: ('A' for Active; 'I' for Inactive)
REMARK    1  A    between atoms: N5_5  and  C7_7 
REMARK    2  A    between atoms: C7_7  and  C8_8 
REMARK    3  A    between atoms: C7_7  and  C14_14 
ROOT
ATOM      1  C7  ZIN A   1      17.655   0.520  10.304  0.00  0.00     0.254 C 
ENDROOT
BRANCH   1   2
ATOM      2  N5  ZIN A   1      18.324   1.652  10.959  0.00  0.00    -0.055 N 
ATOM      3  C4  ZIN A   1      18.292   1.463  12.416  0.00  0.00     0.266 C 
ATOM      4  C3  ZIN A   1      19.006   2.633  13.097  0.00  0.00     0.299 C 
ATOM      5  N2  ZIN A   1      18.336   3.890  12.735  0.00  0.00     0.087 N 
ATOM      6  C1  ZIN A   1      18.957   5.033  13.417  0.00  0.00     0.310 C 
ATOM      7  C21 ZIN A   1      18.337   4.081  11.277  0.00  0.00     0.299 C 
ATOM      8  C20 ZIN A   1      17.630   2.899  10.611  0.00  0.00     0.266 C 
ATOM      9  H6  ZIN A   1      19.282   1.703  10.647  0.00  0.00     0.281 HD
ENDBRANCH   1   2
BRANCH   1  10
ATOM     10  C8  ZIN A   1      17.909   0.577   8.820  0.00  0.00    -0.023 A 
ATOM     11  C13 ZIN A   1      17.154  -0.198   7.959  0.00  0.00     0.009 A 
ATOM     12  C12 ZIN A   1      17.384  -0.142   6.598  0.00  0.00     0.001 A 
ATOM     13  C11 ZIN A   1      18.374   0.682   6.097  0.00  0.00     0.000 A 
ATOM     14  C10 ZIN A   1      19.133   1.453   6.958  0.00  0.00     0.001 A 
ATOM     15  C9  ZIN A   1      18.900   1.400   8.320  0.00  0.00     0.009 A 
ENDBRANCH   1  10
BRANCH   1  16
ATOM     16  C14 ZIN A   1      18.197  -0.773  10.858  0.00  0.00    -0.023 A 
ATOM     17  C19 ZIN A   1      19.541  -1.068  10.733  0.00  0.00     0.009 A 
ATOM     18  C18 ZIN A   1      20.038  -2.252  11.245  0.00  0.00     0.001 A 
ATOM     19  C17 ZIN A   1      19.189  -3.144  11.874  0.00  0.00     0.000 A 
ATOM     20  C16 ZIN A   1      17.844  -2.850  11.995  0.00  0.00     0.001 A 
ATOM     21  C15 ZIN A   1      17.347  -1.664  11.486  0.00  0.00     0.009 A 
ENDBRANCH   1  16
TORSDOF 3
ENDMDL
MODEL 5
REMARK VINA RESULT:      -7.3      1.714      4.710
REMARK  3 active torsions:
REMARK  status: ('A' for Active; 'I' for Inactive)
REMARK    1  A    between atoms: N5_5  and  C7_7 
REMARK    2  A    between atoms: C7_7  and  C8_8 
REMARK    3  A    between atoms: C7_7  and  C14_14 
ROOT
ATOM      1  C7  ZIN A   1      17.748  -0.513  11.151  0.00  0.00     0.254 C 
ENDROOT
BRANCH   1   2
ATOM      2  N5  ZIN A   1      18.353   0.335  12.188  0.00  0.00    -0.055 N 
ATOM      3  C4  ZIN A   1      18.257  -0.339  13.490  0.00  0.00     0.266 C 
ATOM      4  C3  ZIN A   1      18.904   0.535  14.566  0.00  0.00     0.299 C 
ATOM      5  N2  ZIN A   1      18.216   1.833  14.617  0.00  0.00     0.087 N 
ATOM      6  C1  ZIN A   1      18.771   2.682  15.679  0.00  0.00     0.310 C 
ATOM      7  C21 ZIN A   1      18.280   2.510  13.313  0.00  0.00     0.299 C 
ATOM      8  C20 ZIN A   1      17.640   1.618  12.247  0.00  0.00     0.266 C 
ATOM      9  H6  ZIN A   1      19.323   0.500  11.964  0.00  0.00     0.281 HD
ENDBRANCH   1   2
BRANCH   1  10
ATOM     10  C8  ZIN A   1      18.100   0.029   9.790  0.00  0.00    -0.023 A 
ATOM     11  C13 ZIN A   1      19.133   0.938   9.654  0.00  0.00     0.009 A 
ATOM     12  C12 ZIN A   1      19.459   1.431   8.404  0.00  0.00     0.001 A 
ATOM     13  C11 ZIN A   1      18.746   1.023   7.292  0.00  0.00     0.000 A 
ATOM     14  C10 ZIN A   1      17.710   0.118   7.430  0.00  0.00     0.001 A 
ATOM     15  C9  ZIN A   1      17.387  -0.378   8.679  0.00  0.00     0.009 A 
ENDBRANCH   1  10
BRANCH   1  16
ATOM     16  C14 ZIN A   1      18.273  -1.919  11.284  0.00  0.00    -0.023 A 
ATOM     17  C19 ZIN A   1      17.393  -2.978  11.395  0.00  0.00     0.009 A 
ATOM     18  C18 ZIN A   1      17.875  -4.268  11.512  0.00  0.00     0.001 A 
ATOM     19  C17 ZIN A   1      19.238  -4.499  11.526  0.00  0.00     0.000 A 
ATOM     20  C16 ZIN A   1      20.118  -3.439  11.419  0.00  0.00     0.001 A 
ATOM     21  C15 ZIN A   1      19.637  -2.149  11.299  0.00  0.00     0.009 A 
ENDBRANCH   1  16
TORSDOF 3
ENDMDL
MODEL 6
REMARK VINA RESULT:      -7.3      1.405      5.021
REMARK  3 active torsions:
REMARK  status: ('A' for Active; 'I' for Inactive)
REMARK    1  A    between atoms: N5_5  and  C7_7 
REMARK    2  A    between atoms: C7_7  and  C8_8 
REMARK    3  A    between atoms: C7_7  and  C14_14 
ROOT
ATOM      1  C7  ZIN A   1      19.585  -0.915  12.063  0.00  0.00     0.254 C 
ENDROOT
BRANCH   1   2
ATOM      2  N5  ZIN A   1      18.953  -0.404  13.286  0.00  0.00    -0.055 N 
ATOM      3  C4  ZIN A   1      19.718   0.743  13.792  0.00  0.00     0.266 C 
ATOM      4  C3  ZIN A   1      19.048   1.287  15.056  0.00  0.00     0.299 C 
ATOM      5  N2  ZIN A   1      18.994   0.227  16.073  0.00  0.00     0.087 N 
ATOM      6  C1  ZIN A   1      18.408   0.727  17.324  0.00  0.00     0.310 C 
ATOM      7  C21 ZIN A   1      18.252  -0.939  15.572  0.00  0.00     0.299 C 
ATOM      8  C20 ZIN A   1      18.928  -1.464  14.304  0.00  0.00     0.266 C 
ATOM      9  H6  ZIN A   1      18.008  -0.114  13.081  0.00  0.00     0.281 HD
ENDBRANCH   1   2
BRANCH   1  10
ATOM     10  C8  ZIN A   1      19.075  -2.303  11.775  0.00  0.00    -0.023 A 
ATOM     11  C13 ZIN A   1      19.964  -3.354  11.650  0.00  0.00     0.009 A 
ATOM     12  C12 ZIN A   1      19.495  -4.628  11.391  0.00  0.00     0.001 A 
ATOM     13  C11 ZIN A   1      18.139  -4.850  11.246  0.00  0.00     0.000 A 
ATOM     14  C10 ZIN A   1      17.250  -3.798  11.366  0.00  0.00     0.001 A 
ATOM     15  C9  ZIN A   1      17.719  -2.524  11.630  0.00  0.00     0.009 A 
ENDBRANCH   1  10
BRANCH   1  16
ATOM     16  C14 ZIN A   1      19.251  -0.006  10.908  0.00  0.00    -0.023 A 
ATOM     17  C19 ZIN A   1      19.936  -0.126   9.714  0.00  0.00     0.009 A 
ATOM     18  C18 ZIN A   1      19.627   0.705   8.654  0.00  0.00     0.001 A 
ATOM     19  C17 ZIN A   1      18.637   1.661   8.790  0.00  0.00     0.000 A 
ATOM     20  C16 ZIN A   1      17.955   1.783   9.986  0.00  0.00     0.001 A 
ATOM     21  C15 ZIN A   1      18.262   0.949  11.045  0.00  0.00     0.009 A 
ENDBRANCH   1  16
TORSDOF 3
ENDMDL
MODEL 7
REMARK VINA RESULT:      -7.2      2.437      4.723
REMARK  3 active torsions:
REMARK  status: ('A' for Active; 'I' for Inactive)
REMARK    1  A    between atoms: N5_5  and  C7_7 
REMARK    2  A    between atoms: C7_7  and  C8_8 
REMARK    3  A    between atoms: C7_7  and  C14_14 
ROOT
ATOM      1  C7  ZIN A   1      19.510   0.821  10.222  0.00  0.00     0.254 C 
ENDROOT
BRANCH   1   2
ATOM      2  N5  ZIN A   1      18.969   0.565   8.880  0.00  0.00    -0.055 N 
ATOM      3  C4  ZIN A   1      19.452  -0.736   8.398  0.00  0.00     0.266 C 
ATOM      4  C3  ZIN A   1      18.874  -1.012   7.009  0.00  0.00     0.299 C 
ATOM      5  N2  ZIN A   1      19.289   0.056   6.087  0.00  0.00     0.087 N 
ATOM      6  C1  ZIN A   1      18.800  -0.203   4.726  0.00  0.00     0.310 C 
ATOM      7  C21 ZIN A   1      18.835   1.368   6.570  0.00  0.00     0.299 C 
ATOM      8  C20 ZIN A   1      19.413   1.623   7.963  0.00  0.00     0.266 C 
ATOM      9  H6  ZIN A   1      17.961   0.556   8.920  0.00  0.00     0.281 HD
ENDBRANCH   1   2
BRANCH   1  10
ATOM     10  C8  ZIN A   1      19.034   2.166  10.707  0.00  0.00    -0.023 A 
ATOM     11  C13 ZIN A   1      17.763   2.606  10.388  0.00  0.00     0.009 A 
ATOM     12  C12 ZIN A   1      17.325   3.838  10.838  0.00  0.00     0.001 A 
ATOM     13  C11 ZIN A   1      18.162   4.634  11.597  0.00  0.00     0.000 A 
ATOM     14  C10 ZIN A   1      19.435   4.196  11.911  0.00  0.00     0.001 A 
ATOM     15  C9  ZIN A   1      19.871   2.962  11.466  0.00  0.00     0.009 A 
ENDBRANCH   1  10
BRANCH   1  16
ATOM     16  C14 ZIN A   1      19.035  -0.251  11.168  0.00  0.00    -0.023 A 
ATOM     17  C19 ZIN A   1      17.784  -0.814  11.004  0.00  0.00     0.009 A 
ATOM     18  C18 ZIN A   1      17.351  -1.800  11.870  0.00  0.00     0.001 A 
ATOM     19  C17 ZIN A   1      18.166  -2.218  12.906  0.00  0.00     0.000 A 
ATOM     20  C16 ZIN A   1      19.415  -1.652  13.072  0.00  0.00     0.001 A 
ATOM     21  C15 ZIN A   1      19.851  -0.668  12.204  0.00  0.00     0.009 A 
ENDBRANCH   1  16
TORSDOF 3
ENDMDL
MODEL 8
REMARK VINA RESULT:      -7.2      2.068      6.647
REMARK  3 active torsions:
REMARK  status: ('A' for Active; 'I' for Inactive)
REMARK    1  A    between atoms: N5_5  and  C7_7 
REMARK    2  A    between atoms: C7_7  and  C8_8 
REMARK    3  A    between atoms: C7_7  and  C14_14 
ROOT
ATOM      1  C7  ZIN A   1      19.269   1.520  10.815  0.00  0.00     0.254 C 
ENDROOT
BRANCH   1   2
ATOM      2  N5  ZIN A   1      18.805   0.560  11.825  0.00  0.00    -0.055 N 
ATOM      3  C4  ZIN A   1      18.130   1.281  12.913  0.00  0.00     0.266 C 
ATOM      4  C3  ZIN A   1      17.630   0.279  13.956  0.00  0.00     0.299 C 
ATOM      5  N2  ZIN A   1      18.771  -0.483  14.485  0.00  0.00     0.087 N 
ATOM      6  C1  ZIN A   1      18.339  -1.418  15.533  0.00  0.00     0.310 C 
ATOM      7  C21 ZIN A   1      19.472  -1.191  13.404  0.00  0.00     0.299 C 
ATOM      8  C20 ZIN A   1      19.956  -0.177  12.365  0.00  0.00     0.266 C 
ATOM      9  H6  ZIN A   1      18.160  -0.090  11.401  0.00  0.00     0.281 HD
ENDBRANCH   1   2
BRANCH   1  10
ATOM     10  C8  ZIN A   1      18.788   1.089   9.454  0.00  0.00    -0.023 A 
ATOM     11  C13 ZIN A   1      17.754   0.179   9.342  0.00  0.00     0.009 A 
ATOM     12  C12 ZIN A   1      17.309  -0.213   8.093  0.00  0.00     0.001 A 
ATOM     13  C11 ZIN A   1      17.905   0.298   6.956  0.00  0.00     0.000 A 
ATOM     14  C10 ZIN A   1      18.943   1.204   7.067  0.00  0.00     0.001 A 
ATOM     15  C9  ZIN A   1      19.385   1.599   8.316  0.00  0.00     0.009 A 
ENDBRANCH   1  10
BRANCH   1  16
ATOM     16  C14 ZIN A   1      18.721   2.887  11.132  0.00  0.00    -0.023 A 
ATOM     17  C19 ZIN A   1      17.521   3.295  10.582  0.00  0.00     0.009 A 
ATOM     18  C18 ZIN A   1      17.017   4.548  10.876  0.00  0.00     0.001 A 
ATOM     19  C17 ZIN A   1      17.717   5.396  11.715  0.00  0.00     0.000 A 
ATOM     20  C16 ZIN A   1      18.919   4.989  12.262  0.00  0.00     0.001 A 
ATOM     21  C15 ZIN A   1      19.422   3.734  11.970  0.00  0.00     0.009 A 
ENDBRANCH   1  16
TORSDOF 3
ENDMDL
MODEL 9
REMARK VINA RESULT:      -7.1      2.707      5.729
REMARK  3 active torsions:
REMARK  status: ('A' for Active; 'I' for Inactive)
REMARK    1  A    between atoms: N5_5  and  C7_7 
REMARK    2  A    between atoms: C7_7  and  C8_8 
REMARK    3  A    between atoms: C7_7  and  C14_14 
ROOT
ATOM      1  C7  ZIN A   1      17.656   0.383   9.823  0.00  0.00     0.254 C 
ENDROOT
BRANCH   1   2
ATOM      2  N5  ZIN A   1      18.229  -0.857  10.363  0.00  0.00    -0.055 N 
ATOM      3  C4  ZIN A   1      18.307  -1.866   9.298  0.00  0.00     0.266 C 
ATOM      4  C3  ZIN A   1      18.922  -3.151   9.856  0.00  0.00     0.299 C 
ATOM      5  N2  ZIN A   1      18.092  -3.647  10.963  0.00  0.00     0.087 N 
ATOM      6  C1  ZIN A   1      18.619  -4.913  11.489  0.00  0.00     0.310 C 
ATOM      7  C21 ZIN A   1      17.983  -2.638  12.027  0.00  0.00     0.299 C 
ATOM      8  C20 ZIN A   1      17.377  -1.357  11.451  0.00  0.00     0.266 C 
ATOM      9  H6  ZIN A   1      19.154  -0.672  10.720  0.00  0.00     0.281 HD
ENDBRANCH   1   2
BRANCH   1  10
ATOM     10  C8  ZIN A   1      18.302   1.568  10.491  0.00  0.00    -0.023 A 
ATOM     11  C13 ZIN A   1      19.445   1.397  11.250  0.00  0.00     0.009 A 
ATOM     12  C12 ZIN A   1      20.040   2.485  11.858  0.00  0.00     0.001 A 
ATOM     13  C11 ZIN A   1      19.489   3.744  11.717  0.00  0.00     0.000 A 
ATOM     14  C10 ZIN A   1      18.343   3.915  10.962  0.00  0.00     0.001 A 
ATOM     15  C9  ZIN A   1      17.749   2.827  10.350  0.00  0.00     0.009 A 
ENDBRANCH   1  10
BRANCH   1  16
ATOM     16  C14 ZIN A   1      17.903   0.446   8.338  0.00  0.00    -0.023 A 
ATOM     17  C19 ZIN A   1      19.026   1.087   7.851  0.00  0.00     0.009 A 
ATOM     18  C18 ZIN A   1      19.254   1.141   6.489  0.00  0.00     0.001 A 
ATOM     19  C17 ZIN A   1      18.356   0.560   5.613  0.00  0.00     0.000 A 
ATOM     20  C16 ZIN A   1      17.231  -0.078   6.100  0.00  0.00     0.001 A 
ATOM     21  C15 ZIN A   1      17.004  -0.135   7.463  0.00  0.00     0.009 A 
ENDBRANCH   1  16
TORSDOF 3
ENDMDL
