MODEL 1
REMARK VINA RESULT:      -7.9      0.000      0.000
REMARK  5 active torsions:
REMARK  status: ('A' for Active; 'I' for Inactive)
REMARK    1  A    between atoms: C7_6  and  N9_7 
REMARK       I    between atoms: N9_7  and  C10_8 
REMARK    2  A    between atoms: C10_8  and  C12_10 
REMARK    3  A    between atoms: C12_10  and  N14_11 
REMARK    4  A    between atoms: C12_10  and  C15_12 
REMARK    5  A    between atoms: C24_21  and  C26_22 
ROOT
ATOM      1  N9  <0> d   1      18.840  -1.608  10.610  0.00  0.00    -0.344 N 
ATOM      2  C10 <0> d   1      18.263  -1.101  11.718  0.00  0.00     0.256 C 
ATOM      3  O11 <0> d   1      17.134  -1.427  12.017  0.00  0.00    -0.271 OA
ATOM      4  H35 <0> d   1      19.744  -1.347  10.371  0.00  0.00     0.163 HD
ENDROOT
BRANCH   1   5
ATOM      5  C7  <0> d   1      18.103  -2.552   9.767  0.00  0.00     0.199 C 
ATOM      6  C5  <0> d   1      17.312  -1.904   8.637  0.00  0.00     0.160 C 
ATOM      7  S4  <0> d   1      17.453  -0.077   8.572  0.00  0.00    -0.135 SA
ATOM      8  N23 <0> d   1      18.264  -2.399   7.634  0.00  0.00    -0.219 NA
ATOM      9  C2  <0> d   1      18.198  -0.042   6.888  0.00  0.00     0.029 C 
ATOM     10  C1  <0> d   1      17.122  -0.097   5.802  0.00  0.00     0.029 C 
ATOM     11  C24 <0> d   1      19.022  -1.357   6.935  0.00  0.00     0.186 C 
ATOM     12  C3  <0> d   1      19.105   1.176   6.704  0.00  0.00     0.029 C 
ATOM     13  C21 <0> d   1      18.897  -3.110   8.616  0.00  0.00     0.227 C 
ATOM     14  O22 <0> d   1      19.794  -3.924   8.572  0.00  0.00    -0.277 OA
BRANCH  11  15
ATOM     15  C26 <0> d   1      19.330  -1.819   5.533  0.00  0.00     0.193 C 
ATOM     16  O27 <0> d   1      19.965  -1.099   4.781  0.00  0.00    -0.647 OA
ATOM     17  O28 <0> d   1      18.945  -2.910   5.151  0.00  0.00    -0.647 OA
ENDBRANCH  11  15
ENDBRANCH   1   5
BRANCH   2  18
ATOM     18  C12 <0> d   1      19.021  -0.130  12.585  0.00  0.00     0.342 C 
BRANCH  18  19
ATOM     19  N14 <0> d   1      20.464  -0.310  12.376  0.00  0.00     0.096 N 
ATOM     20  H36 <0> d   1      20.643  -0.919  11.593  0.00  0.00     0.314 HD
ATOM     21  H37 <0> d   1      20.925   0.580  12.256  0.00  0.00     0.314 HD
ENDBRANCH  18  19
BRANCH  18  22
ATOM     22  C15 <0> d   1      18.689  -0.385  14.033  0.00  0.00    -0.016 A 
ATOM     23  C20 <0> d   1      17.777   0.424  14.686  0.00  0.00     0.010 A 
ATOM     24  C19 <0> d   1      17.469   0.187  16.012  0.00  0.00     0.001 A 
ATOM     25  C18 <0> d   1      18.078  -0.853  16.689  0.00  0.00     0.000 A 
ATOM     26  C17 <0> d   1      18.994  -1.658  16.038  0.00  0.00     0.001 A 
ATOM     27  C16 <0> d   1      19.299  -1.424  14.710  0.00  0.00     0.010 A 
ENDBRANCH  18  22
ENDBRANCH   2  18
TORSDOF 5
ENDMDL
MODEL 2
REMARK VINA RESULT:      -7.8      2.923      7.452
REMARK  5 active torsions:
REMARK  status: ('A' for Active; 'I' for Inactive)
REMARK    1  A    between atoms: C7_6  and  N9_7 
REMARK       I    between atoms: N9_7  and  C10_8 
REMARK    2  A    between atoms: C10_8  and  C12_10 
REMARK    3  A    between atoms: C12_10  and  N14_11 
REMARK    4  A    between atoms: C12_10  and  C15_12 
REMARK    5  A    between atoms: C24_21  and  C26_22 
ROOT
ATOM      1  N9  <0> d   1      18.405  -0.308  10.861  0.00  0.00    -0.344 N 
ATOM      2  C10 <0> d   1      18.705  -1.203   9.899  0.00  0.00     0.256 C 
ATOM      3  O11 <0> d   1      19.741  -1.831   9.957  0.00  0.00    -0.271 OA
ATOM      4  H35 <0> d   1      17.576   0.194  10.815  0.00  0.00     0.163 HD
ENDROOT
BRANCH   1   5
ATOM      5  C7  <0> d   1      19.330  -0.094  11.976  0.00  0.00     0.199 C 
ATOM      6  C5  <0> d   1      19.946   1.299  12.026  0.00  0.00     0.160 C 
ATOM      7  S4  <0> d   1      19.396   2.413  10.677  0.00  0.00    -0.135 SA
ATOM      8  N23 <0> d   1      19.124   1.665  13.186  0.00  0.00    -0.219 NA
ATOM      9  C2  <0> d   1      18.650   3.662  11.808  0.00  0.00     0.029 C 
ATOM     10  C1  <0> d   1      19.703   4.644  12.324  0.00  0.00     0.029 C 
ATOM     11  C24 <0> d   1      18.145   2.727  12.940  0.00  0.00     0.186 C 
ATOM     12  C3  <0> d   1      17.490   4.399  11.136  0.00  0.00     0.029 C 
ATOM     13  C21 <0> d   1      18.674   0.374  13.248  0.00  0.00     0.227 C 
ATOM     14  O22 <0> d   1      17.984  -0.202  14.061  0.00  0.00    -0.277 OA
BRANCH  11  15
ATOM     15  C26 <0> d   1      17.939   3.521  14.205  0.00  0.00     0.193 C 
ATOM     16  O27 <0> d   1      18.643   3.311  15.177  0.00  0.00    -0.647 OA
ATOM     17  O28 <0> d   1      17.067   4.371  14.256  0.00  0.00    -0.647 OA
ENDBRANCH  11  15
ENDBRANCH   1   5
BRANCH   2  18
ATOM     18  C12 <0> d   1      17.753  -1.424   8.752  0.00  0.00     0.342 C 
BRANCH  18  19
ATOM     19  N14 <0> d   1      17.570  -2.866   8.538  0.00  0.00     0.096 N 
ATOM     20  H36 <0> d   1      17.903  -3.141   7.627  0.00  0.00     0.314 HD
ATOM     21  H37 <0> d   1      18.022  -3.399   9.266  0.00  0.00     0.314 HD
ENDBRANCH  18  19
BRANCH  18  22
ATOM     22  C15 <0> d   1      18.320  -0.799   7.502  0.00  0.00    -0.016 A 
ATOM     23  C20 <0> d   1      18.406   0.577   7.395  0.00  0.00     0.010 A 
ATOM     24  C19 <0> d   1      18.930   1.149   6.252  0.00  0.00     0.001 A 
ATOM     25  C18 <0> d   1      19.359   0.347   5.211  0.00  0.00     0.000 A 
ATOM     26  C17 <0> d   1      19.268  -1.028   5.316  0.00  0.00     0.001 A 
ATOM     27  C16 <0> d   1      18.748  -1.601   6.461  0.00  0.00     0.010 A 
ENDBRANCH  18  22
ENDBRANCH   2  18
TORSDOF 5
ENDMDL
MODEL 3
REMARK VINA RESULT:      -7.8      2.530      3.917
REMARK  5 active torsions:
REMARK  status: ('A' for Active; 'I' for Inactive)
REMARK    1  A    between atoms: C7_6  and  N9_7 
REMARK       I    between atoms: N9_7  and  C10_8 
REMARK    2  A    between atoms: C10_8  and  C12_10 
REMARK    3  A    between atoms: C12_10  and  N14_11 
REMARK    4  A    between atoms: C12_10  and  C15_12 
REMARK    5  A    between atoms: C24_21  and  C26_22 
ROOT
ATOM      1  N9  <0> d   1      18.361   0.319  12.107  0.00  0.00    -0.344 N 
ATOM      2  C10 <0> d   1      18.734   1.076  13.157  0.00  0.00     0.256 C 
ATOM      3  O11 <0> d   1      19.835   1.584  13.178  0.00  0.00    -0.271 OA
ATOM      4  H35 <0> d   1      17.480  -0.087  12.089  0.00  0.00     0.163 HD
ENDROOT
BRANCH   1   5
ATOM      5  C7  <0> d   1      19.286   0.107  10.991  0.00  0.00     0.199 C 
ATOM      6  C5  <0> d   1      19.927  -1.275  10.955  0.00  0.00     0.160 C 
ATOM      7  S4  <0> d   1      19.400  -2.383  12.318  0.00  0.00    -0.135 SA
ATOM      8  N23 <0> d   1      19.107  -1.668   9.802  0.00  0.00    -0.219 NA
ATOM      9  C2  <0> d   1      18.672  -3.658  11.204  0.00  0.00     0.029 C 
ATOM     10  C1  <0> d   1      19.740  -4.627  10.696  0.00  0.00     0.029 C 
ATOM     11  C24 <0> d   1      18.147  -2.745  10.063  0.00  0.00     0.186 C 
ATOM     12  C3  <0> d   1      17.526  -4.407  11.888  0.00  0.00     0.029 C 
ATOM     13  C21 <0> d   1      18.635  -0.387   9.726  0.00  0.00     0.227 C 
ATOM     14  O22 <0> d   1      17.933   0.168   8.909  0.00  0.00    -0.277 OA
BRANCH  11  15
ATOM     15  C26 <0> d   1      17.951  -3.556   8.808  0.00  0.00     0.193 C 
ATOM     16  O27 <0> d   1      18.693  -3.393   7.855  0.00  0.00    -0.647 OA
ATOM     17  O28 <0> d   1      17.049  -4.374   8.745  0.00  0.00    -0.647 OA
ENDBRANCH  11  15
ENDBRANCH   1   5
BRANCH   2  18
ATOM     18  C12 <0> d   1      17.782   1.294  14.304  0.00  0.00     0.342 C 
BRANCH  18  19
ATOM     19  N14 <0> d   1      17.632   2.735  14.549  0.00  0.00     0.096 N 
ATOM     20  H36 <0> d   1      18.439   3.243  14.224  0.00  0.00     0.314 HD
ATOM     21  H37 <0> d   1      16.786   3.086  14.125  0.00  0.00     0.314 HD
ENDBRANCH  18  19
BRANCH  18  22
ATOM     22  C15 <0> d   1      18.328   0.629  15.542  0.00  0.00    -0.016 A 
ATOM     23  C20 <0> d   1      18.759   1.399  16.607  0.00  0.00     0.010 A 
ATOM     24  C19 <0> d   1      19.255   0.790  17.744  0.00  0.00     0.001 A 
ATOM     25  C18 <0> d   1      19.330  -0.589  17.814  0.00  0.00     0.000 A 
ATOM     26  C17 <0> d   1      18.905  -1.358  16.747  0.00  0.00     0.001 A 
ATOM     27  C16 <0> d   1      18.405  -0.749  15.611  0.00  0.00     0.010 A 
ENDBRANCH  18  22
ENDBRANCH   2  18
TORSDOF 5
ENDMDL
MODEL 4
REMARK VINA RESULT:      -7.7      3.429      8.052
REMARK  5 active torsions:
REMARK  status: ('A' for Active; 'I' for Inactive)
REMARK    1  A    between atoms: C7_6  and  N9_7 
REMARK       I    between atoms: N9_7  and  C10_8 
REMARK    2  A    between atoms: C10_8  and  C12_10 
REMARK    3  A    between atoms: C12_10  and  N14_11 
REMARK    4  A    between atoms: C12_10  and  C15_12 
REMARK    5  A    between atoms: C24_21  and  C26_22 
ROOT
ATOM      1  N9  <0> d   1      19.360   0.692  12.641  0.00  0.00    -0.344 N 
ATOM      2  C10 <0> d   1      19.165   0.115  11.439  0.00  0.00     0.256 C 
ATOM      3  O11 <0> d   1      18.131   0.310  10.834  0.00  0.00    -0.271 OA
ATOM      4  H35 <0> d   1      20.186   0.537  13.125  0.00  0.00     0.163 HD
ENDROOT
BRANCH   1   5
ATOM      5  C7  <0> d   1      18.324   1.553  13.217  0.00  0.00     0.199 C 
ATOM      6  C5  <0> d   1      17.502   0.897  14.321  0.00  0.00     0.160 C 
ATOM      7  S4  <0> d   1      17.986  -0.831  14.693  0.00  0.00    -0.135 SA
ATOM      8  N23 <0> d   1      18.161   1.712  15.350  0.00  0.00    -0.219 NA
ATOM      9  C2  <0> d   1      18.439  -0.487  16.446  0.00  0.00     0.029 C 
ATOM     10  C1  <0> d   1      17.209  -0.530  17.357  0.00  0.00     0.029 C 
ATOM     11  C24 <0> d   1      18.984   0.959  16.300  0.00  0.00     0.186 C 
ATOM     12  C3  <0> d   1      19.525  -1.444  16.940  0.00  0.00     0.029 C 
ATOM     13  C21 <0> d   1      18.794   2.413  14.361  0.00  0.00     0.227 C 
ATOM     14  O22 <0> d   1      19.494   3.402  14.393  0.00  0.00    -0.277 OA
BRANCH  11  15
ATOM     15  C26 <0> d   1      18.963   1.652  17.639  0.00  0.00     0.193 C 
ATOM     16  O27 <0> d   1      18.130   2.513  17.866  0.00  0.00    -0.647 OA
ATOM     17  O28 <0> d   1      19.778   1.352  18.494  0.00  0.00    -0.647 OA
ENDBRANCH  11  15
ENDBRANCH   1   5
BRANCH   2  18
ATOM     18  C12 <0> d   1      20.230  -0.769  10.845  0.00  0.00     0.342 C 
BRANCH  18  19
ATOM     19  N14 <0> d   1      20.623  -0.247   9.530  0.00  0.00     0.096 N 
ATOM     20  H36 <0> d   1      20.392  -0.901   8.798  0.00  0.00     0.314 HD
ATOM     21  H37 <0> d   1      20.202   0.654   9.358  0.00  0.00     0.314 HD
ENDBRANCH  18  19
BRANCH  18  22
ATOM     22  C15 <0> d   1      19.691  -2.168  10.689  0.00  0.00    -0.016 A 
ATOM     23  C20 <0> d   1      19.836  -3.084  11.715  0.00  0.00     0.010 A 
ATOM     24  C19 <0> d   1      19.337  -4.365  11.574  0.00  0.00     0.001 A 
ATOM     25  C18 <0> d   1      18.701  -4.734  10.402  0.00  0.00     0.000 A 
ATOM     26  C17 <0> d   1      18.561  -3.821   9.375  0.00  0.00     0.001 A 
ATOM     27  C16 <0> d   1      19.057  -2.538   9.518  0.00  0.00     0.010 A 
ENDBRANCH  18  22
ENDBRANCH   2  18
TORSDOF 5
ENDMDL
MODEL 5
REMARK VINA RESULT:      -7.6      3.228      6.247
REMARK  5 active torsions:
REMARK  status: ('A' for Active; 'I' for Inactive)
REMARK    1  A    between atoms: C7_6  and  N9_7 
REMARK       I    between atoms: N9_7  and  C10_8 
REMARK    2  A    between atoms: C10_8  and  C12_10 
REMARK    3  A    between atoms: C12_10  and  N14_11 
REMARK    4  A    between atoms: C12_10  and  C15_12 
REMARK    5  A    between atoms: C24_21  and  C26_22 
ROOT
ATOM      1  N9  <0> d   1      18.075  -2.731   6.574  0.00  0.00    -0.344 N 
ATOM      2  C10 <0> d   1      18.815  -1.896   5.818  0.00  0.00     0.256 C 
ATOM      3  O11 <0> d   1      19.854  -2.284   5.326  0.00  0.00    -0.271 OA
ATOM      4  H35 <0> d   1      17.244  -2.421   6.967  0.00  0.00     0.163 HD
ENDROOT
BRANCH   1   5
ATOM      5  C7  <0> d   1      18.526  -4.105   6.803  0.00  0.00     0.199 C 
ATOM      6  C5  <0> d   1      19.268  -4.315   8.118  0.00  0.00     0.160 C 
ATOM      7  S4  <0> d   1      19.437  -2.800   9.135  0.00  0.00    -0.135 SA
ATOM      8  N23 <0> d   1      18.127  -5.039   8.692  0.00  0.00    -0.219 NA
ATOM      9  C2  <0> d   1      18.502  -3.476  10.572  0.00  0.00     0.029 C 
ATOM     10  C1  <0> d   1      19.407  -4.309  11.482  0.00  0.00     0.029 C 
ATOM     11  C24 <0> d   1      17.477  -4.370   9.823  0.00  0.00     0.186 C 
ATOM     12  C3  <0> d   1      17.803  -2.365  11.356  0.00  0.00     0.029 C 
ATOM     13  C21 <0> d   1      17.509  -4.991   7.473  0.00  0.00     0.227 C 
ATOM     14  O22 <0> d   1      16.487  -5.500   7.065  0.00  0.00    -0.277 OA
BRANCH  11  15
ATOM     15  C26 <0> d   1      16.919  -5.408  10.765  0.00  0.00     0.193 C 
ATOM     16  O27 <0> d   1      17.212  -6.582  10.620  0.00  0.00    -0.647 OA
ATOM     17  O28 <0> d   1      16.174  -5.073  11.670  0.00  0.00    -0.647 OA
ENDBRANCH  11  15
ENDBRANCH   1   5
BRANCH   2  18
ATOM     18  C12 <0> d   1      18.352  -0.482   5.582  0.00  0.00     0.342 C 
BRANCH  18  19
ATOM     19  N14 <0> d   1      19.272   0.186   4.652  0.00  0.00     0.096 N 
ATOM     20  H36 <0> d   1      19.257  -0.257   3.747  0.00  0.00     0.314 HD
ATOM     21  H37 <0> d   1      19.059   1.170   4.578  0.00  0.00     0.314 HD
ENDBRANCH  18  19
BRANCH  18  22
ATOM     22  C15 <0> d   1      18.331   0.265   6.891  0.00  0.00    -0.016 A 
ATOM     23  C20 <0> d   1      19.215   1.306   7.106  0.00  0.00     0.010 A 
ATOM     24  C19 <0> d   1      19.193   1.994   8.305  0.00  0.00     0.001 A 
ATOM     25  C18 <0> d   1      18.294   1.636   9.292  0.00  0.00     0.000 A 
ATOM     26  C17 <0> d   1      17.414   0.591   9.079  0.00  0.00     0.001 A 
ATOM     27  C16 <0> d   1      17.433  -0.094   7.878  0.00  0.00     0.010 A 
ENDBRANCH  18  22
ENDBRANCH   2  18
TORSDOF 5
ENDMDL
MODEL 6
REMARK VINA RESULT:      -7.6      1.989      2.846
REMARK  5 active torsions:
REMARK  status: ('A' for Active; 'I' for Inactive)
REMARK    1  A    between atoms: C7_6  and  N9_7 
REMARK       I    between atoms: N9_7  and  C10_8 
REMARK    2  A    between atoms: C10_8  and  C12_10 
REMARK    3  A    between atoms: C12_10  and  N14_11 
REMARK    4  A    between atoms: C12_10  and  C15_12 
REMARK    5  A    between atoms: C24_21  and  C26_22 
ROOT
ATOM      1  N9  <0> d   1      19.417  -0.949  10.436  0.00  0.00    -0.344 N 
ATOM      2  C10 <0> d   1      19.191  -0.338  11.616  0.00  0.00     0.256 C 
ATOM      3  O11 <0> d   1      18.201  -0.614  12.261  0.00  0.00    -0.271 OA
ATOM      4  H35 <0> d   1      20.208  -0.729   9.919  0.00  0.00     0.163 HD
ENDROOT
BRANCH   1   5
ATOM      5  C7  <0> d   1      18.467  -1.943   9.932  0.00  0.00     0.199 C 
ATOM      6  C5  <0> d   1      17.543  -1.433   8.832  0.00  0.00     0.160 C 
ATOM      7  S4  <0> d   1      17.819   0.320   8.372  0.00  0.00    -0.135 SA
ATOM      8  N23 <0> d   1      18.257  -2.215   7.815  0.00  0.00    -0.219 NA
ATOM      9  C2  <0> d   1      18.254  -0.050   6.620  0.00  0.00     0.029 C 
ATOM     10  C1  <0> d   1      17.000  -0.184   5.752  0.00  0.00     0.029 C 
ATOM     11  C24 <0> d   1      18.962  -1.419   6.806  0.00  0.00     0.186 C 
ATOM     12  C3  <0> d   1      19.210   0.998   6.049  0.00  0.00     0.029 C 
ATOM     13  C21 <0> d   1      18.995  -2.796   8.809  0.00  0.00     0.227 C 
ATOM     14  O22 <0> d   1      19.800  -3.702   8.792  0.00  0.00    -0.277 OA
BRANCH  11  15
ATOM     15  C26 <0> d   1      18.978  -2.169   5.498  0.00  0.00     0.193 C 
ATOM     16  O27 <0> d   1      18.238  -3.124   5.335  0.00  0.00    -0.647 OA
ATOM     17  O28 <0> d   1      19.730  -1.822   4.605  0.00  0.00    -0.647 OA
ENDBRANCH  11  15
ENDBRANCH   1   5
BRANCH   2  18
ATOM     18  C12 <0> d   1      20.168   0.684  12.134  0.00  0.00     0.342 C 
BRANCH  18  19
ATOM     19  N14 <0> d   1      20.603   0.305  13.485  0.00  0.00     0.096 N 
ATOM     20  H36 <0> d   1      21.525   0.664  13.682  0.00  0.00     0.314 HD
ATOM     21  H37 <0> d   1      19.938   0.613  14.179  0.00  0.00     0.314 HD
ENDBRANCH  18  19
BRANCH  18  22
ATOM     22  C15 <0> d   1      19.501   2.035  12.184  0.00  0.00    -0.016 A 
ATOM     23  C20 <0> d   1      19.085   2.557  13.395  0.00  0.00     0.010 A 
ATOM     24  C19 <0> d   1      18.478   3.798  13.441  0.00  0.00     0.001 A 
ATOM     25  C18 <0> d   1      18.279   4.514  12.275  0.00  0.00     0.000 A 
ATOM     26  C17 <0> d   1      18.690   3.990  11.064  0.00  0.00     0.001 A 
ATOM     27  C16 <0> d   1      19.301   2.751  11.018  0.00  0.00     0.010 A 
ENDBRANCH  18  22
ENDBRANCH   2  18
TORSDOF 5
ENDMDL
MODEL 7
REMARK VINA RESULT:      -7.4      3.193      4.155
REMARK  5 active torsions:
REMARK  status: ('A' for Active; 'I' for Inactive)
REMARK    1  A    between atoms: C7_6  and  N9_7 
REMARK       I    between atoms: N9_7  and  C10_8 
REMARK    2  A    between atoms: C10_8  and  C12_10 
REMARK    3  A    between atoms: C12_10  and  N14_11 
REMARK    4  A    between atoms: C12_10  and  C15_12 
REMARK    5  A    between atoms: C24_21  and  C26_22 
ROOT
ATOM      1  N9  <0> d   1      19.356  -1.251  10.868  0.00  0.00    -0.344 N 
ATOM      2  C10 <0> d   1      19.123  -0.107  11.540  0.00  0.00     0.256 C 
ATOM      3  O11 <0> d   1      18.297  -0.083  12.428  0.00  0.00    -0.271 OA
ATOM      4  H35 <0> d   1      20.017  -1.271  10.158  0.00  0.00     0.163 HD
ENDROOT
BRANCH   1   5
ATOM      5  C7  <0> d   1      18.612  -2.466  11.208  0.00  0.00     0.199 C 
ATOM      6  C5  <0> d   1      17.860  -3.094  10.041  0.00  0.00     0.160 C 
ATOM      7  S4  <0> d   1      18.051  -2.195   8.454  0.00  0.00    -0.135 SA
ATOM      8  N23 <0> d   1      18.819  -4.205   9.970  0.00  0.00    -0.219 NA
ATOM      9  C2  <0> d   1      18.831  -3.611   7.570  0.00  0.00     0.029 C 
ATOM     10  C1  <0> d   1      17.775  -4.570   7.015  0.00  0.00     0.029 C 
ATOM     11  C24 <0> d   1      19.618  -4.255   8.743  0.00  0.00     0.186 C 
ATOM     12  C3  <0> d   1      19.773  -3.129   6.466  0.00  0.00     0.029 C 
ATOM     13  C21 <0> d   1      19.414  -3.737  11.110  0.00  0.00     0.227 C 
ATOM     14  O22 <0> d   1      20.289  -4.196  11.811  0.00  0.00    -0.277 OA
BRANCH  11  15
ATOM     15  C26 <0> d   1      19.942  -5.691   8.415  0.00  0.00     0.193 C 
ATOM     16  O27 <0> d   1      19.243  -6.588   8.853  0.00  0.00    -0.647 OA
ATOM     17  O28 <0> d   1      20.904  -5.954   7.714  0.00  0.00    -0.647 OA
ENDBRANCH  11  15
ENDBRANCH   1   5
BRANCH   2  18
ATOM     18  C12 <0> d   1      19.889   1.142  11.189  0.00  0.00     0.342 C 
BRANCH  18  19
ATOM     19  N14 <0> d   1      21.082   1.240  12.041  0.00  0.00     0.096 N 
ATOM     20  H36 <0> d   1      21.106   2.121  12.531  0.00  0.00     0.314 HD
ATOM     21  H37 <0> d   1      21.130   0.465  12.685  0.00  0.00     0.314 HD
ENDBRANCH  18  19
BRANCH  18  22
ATOM     22  C15 <0> d   1      19.013   2.348  11.414  0.00  0.00    -0.016 A 
ATOM     23  C20 <0> d   1      19.131   3.080  12.581  0.00  0.00     0.010 A 
ATOM     24  C19 <0> d   1      18.331   4.189  12.786  0.00  0.00     0.001 A 
ATOM     25  C18 <0> d   1      17.406   4.560  11.827  0.00  0.00     0.000 A 
ATOM     26  C17 <0> d   1      17.284   3.825  10.663  0.00  0.00     0.001 A 
ATOM     27  C16 <0> d   1      18.087   2.719  10.457  0.00  0.00     0.010 A 
ENDBRANCH  18  22
ENDBRANCH   2  18
TORSDOF 5
ENDMDL
MODEL 8
REMARK VINA RESULT:      -7.3      3.431      8.576
REMARK  5 active torsions:
REMARK  status: ('A' for Active; 'I' for Inactive)
REMARK    1  A    between atoms: C7_6  and  N9_7 
REMARK       I    between atoms: N9_7  and  C10_8 
REMARK    2  A    between atoms: C10_8  and  C12_10 
REMARK    3  A    between atoms: C12_10  and  N14_11 
REMARK    4  A    between atoms: C12_10  and  C15_12 
REMARK    5  A    between atoms: C24_21  and  C26_22 
ROOT
ATOM      1  N9  <0> d   1      18.836   1.403  12.654  0.00  0.00    -0.344 N 
ATOM      2  C10 <0> d   1      18.383   1.070  11.430  0.00  0.00     0.256 C 
ATOM      3  O11 <0> d   1      17.348   1.549  11.015  0.00  0.00    -0.271 OA
ATOM      4  H35 <0> d   1      19.663   1.020  12.986  0.00  0.00     0.163 HD
ENDROOT
BRANCH   1   5
ATOM      5  C7  <0> d   1      18.079   2.342  13.485  0.00  0.00     0.199 C 
ATOM      6  C5  <0> d   1      17.249   1.687  14.582  0.00  0.00     0.160 C 
ATOM      7  S4  <0> d   1      17.376  -0.142  14.630  0.00  0.00    -0.135 SA
ATOM      8  N23 <0> d   1      18.172   2.164  15.620  0.00  0.00    -0.219 NA
ATOM      9  C2  <0> d   1      18.069  -0.201  16.337  0.00  0.00     0.029 C 
ATOM     10  C1  <0> d   1      16.959  -0.151  17.389  0.00  0.00     0.029 C 
ATOM     11  C24 <0> d   1      18.902   1.110  16.330  0.00  0.00     0.186 C 
ATOM     12  C3  <0> d   1      18.962  -1.427  16.534  0.00  0.00     0.029 C 
ATOM     13  C21 <0> d   1      18.840   2.882  14.667  0.00  0.00     0.227 C 
ATOM     14  O22 <0> d   1      19.740   3.690  14.748  0.00  0.00    -0.277 OA
BRANCH  11  15
ATOM     15  C26 <0> d   1      19.169   1.553  17.746  0.00  0.00     0.193 C 
ATOM     16  O27 <0> d   1      18.549   2.490  18.218  0.00  0.00    -0.647 OA
ATOM     17  O28 <0> d   1      20.006   0.975  18.418  0.00  0.00    -0.647 OA
ENDBRANCH  11  15
ENDBRANCH   1   5
BRANCH   2  18
ATOM     18  C12 <0> d   1      19.161   0.104  10.575  0.00  0.00     0.342 C 
BRANCH  18  19
ATOM     19  N14 <0> d   1      20.600   0.312  10.787  0.00  0.00     0.096 N 
ATOM     20  H36 <0> d   1      21.108  -0.553  10.694  0.00  0.00     0.314 HD
ATOM     21  H37 <0> d   1      20.960   1.013  10.156  0.00  0.00     0.314 HD
ENDBRANCH  18  19
BRANCH  18  22
ATOM     22  C15 <0> d   1      18.829   0.338   9.123  0.00  0.00    -0.016 A 
ATOM     23  C20 <0> d   1      19.526   1.288   8.399  0.00  0.00     0.010 A 
ATOM     24  C19 <0> d   1      19.226   1.499   7.067  0.00  0.00     0.001 A 
ATOM     25  C18 <0> d   1      18.221   0.768   6.460  0.00  0.00     0.000 A 
ATOM     26  C17 <0> d   1      17.520  -0.177   7.186  0.00  0.00     0.001 A 
ATOM     27  C16 <0> d   1      17.824  -0.392   8.517  0.00  0.00     0.010 A 
ENDBRANCH  18  22
ENDBRANCH   2  18
TORSDOF 5
ENDMDL
MODEL 9
REMARK VINA RESULT:      -7.3      4.146      6.204
REMARK  5 active torsions:
REMARK  status: ('A' for Active; 'I' for Inactive)
REMARK    1  A    between atoms: C7_6  and  N9_7 
REMARK       I    between atoms: N9_7  and  C10_8 
REMARK    2  A    between atoms: C10_8  and  C12_10 
REMARK    3  A    between atoms: C12_10  and  N14_11 
REMARK    4  A    between atoms: C12_10  and  C15_12 
REMARK    5  A    between atoms: C24_21  and  C26_22 
ROOT
ATOM      1  N9  <0> d   1      18.267  -2.383   5.630  0.00  0.00    -0.344 N 
ATOM      2  C10 <0> d   1      18.921  -1.259   5.279  0.00  0.00     0.256 C 
ATOM      3  O11 <0> d   1      20.002  -1.331   4.733  0.00  0.00    -0.271 OA
ATOM      4  H35 <0> d   1      17.403  -2.326   6.067  0.00  0.00     0.163 HD
ENDROOT
BRANCH   1   5
ATOM      5  C7  <0> d   1      18.862  -3.693   5.355  0.00  0.00     0.199 C 
ATOM      6  C5  <0> d   1      19.354  -4.436   6.592  0.00  0.00     0.160 C 
ATOM      7  S4  <0> d   1      19.093  -3.531   8.164  0.00  0.00    -0.135 SA
ATOM      8  N23 <0> d   1      18.241  -5.391   6.509  0.00  0.00    -0.219 NA
ATOM      9  C2  <0> d   1      18.004  -4.821   8.903  0.00  0.00     0.029 C 
ATOM     10  C1  <0> d   1      18.825  -5.931   9.562  0.00  0.00     0.029 C 
ATOM     11  C24 <0> d   1      17.290  -5.330   7.622  0.00  0.00     0.186 C 
ATOM     12  C3  <0> d   1      17.008  -4.211   9.890  0.00  0.00     0.029 C 
ATOM     13  C21 <0> d   1      17.875  -4.830   5.316  0.00  0.00     0.227 C 
ATOM     14  O22 <0> d   1      17.040  -5.147   4.497  0.00  0.00    -0.277 OA
BRANCH  11  15
ATOM     15  C26 <0> d   1      16.717  -6.703   7.867  0.00  0.00     0.193 C 
ATOM     16  O27 <0> d   1      15.672  -6.826   8.482  0.00  0.00    -0.647 OA
ATOM     17  O28 <0> d   1      17.299  -7.690   7.451  0.00  0.00    -0.647 OA
ENDBRANCH  11  15
ENDBRANCH   1   5
BRANCH   2  18
ATOM     18  C12 <0> d   1      18.309   0.089   5.562  0.00  0.00     0.342 C 
BRANCH  18  19
ATOM     19  N14 <0> d   1      19.092   1.133   4.888  0.00  0.00     0.096 N 
ATOM     20  H36 <0> d   1      19.785   0.729   4.277  0.00  0.00     0.314 HD
ATOM     21  H37 <0> d   1      18.490   1.767   4.385  0.00  0.00     0.314 HD
ENDBRANCH  18  19
BRANCH  18  22
ATOM     22  C15 <0> d   1      18.313   0.339   7.048  0.00  0.00    -0.016 A 
ATOM     23  C20 <0> d   1      17.373  -0.276   7.855  0.00  0.00     0.010 A 
ATOM     24  C19 <0> d   1      17.379  -0.050   9.218  0.00  0.00     0.001 A 
ATOM     25  C18 <0> d   1      18.319   0.798   9.775  0.00  0.00     0.000 A 
ATOM     26  C17 <0> d   1      19.255   1.417   8.968  0.00  0.00     0.001 A 
ATOM     27  C16 <0> d   1      19.251   1.188   7.604  0.00  0.00     0.010 A 
ENDBRANCH  18  22
ENDBRANCH   2  18
TORSDOF 5
ENDMDL
