MODEL 1
REMARK VINA RESULT:      -7.6      0.000      0.000
REMARK  12 active torsions:
REMARK  status: ('A' for Active; 'I' for Inactive)
REMARK    1  A    between atoms: C2_2  and  C3_3 
REMARK    2  A    between atoms: C3_3  and  N4_4 
REMARK    3  A    between atoms: N4_4  and  C7_7 
REMARK    4  A    between atoms: C7_7  and  C8_8 
REMARK    5  A    between atoms: C8_8  and  O10_9 
REMARK    6  A    between atoms: C8_8  and  C11_10 
REMARK    7  A    between atoms: C11_10  and  O12_11 
REMARK    8  A    between atoms: O12_11  and  C13_12 
REMARK    9  A    between atoms: C18_17  and  C19_18 
REMARK   10  A    between atoms: C19_18  and  C21_20 
REMARK   11  A    between atoms: C21_20  and  C22_21 
REMARK   12  A    between atoms: C22_21  and  C23_22 
ROOT
ATOM      1  C13 ZIN A   1      18.817   0.931  15.524  0.00  0.00     0.082 A 
ATOM      2  C14 ZIN A   1      18.324  -0.340  15.782  0.00  0.00     0.038 A 
ATOM      3  C15 ZIN A   1      17.742  -0.623  17.002  0.00  0.00     0.003 A 
ATOM      4  C16 ZIN A   1      17.643   0.357  17.977  0.00  0.00     0.001 A 
ATOM      5  C17 ZIN A   1      18.126   1.625  17.742  0.00  0.00     0.018 A 
ATOM      6  C18 ZIN A   1      18.725   1.926  16.513  0.00  0.00     0.043 A 
ENDROOT
BRANCH   1   7
ATOM      7  O12 ZIN A   1      19.390   1.210  14.328  0.00  0.00    -0.348 OA
BRANCH   7   8
ATOM      8  C11 ZIN A   1      20.057   0.136  13.662  0.00  0.00     0.209 C 
BRANCH   8   9
ATOM      9  C8  ZIN A   1      20.423   0.567  12.240  0.00  0.00     0.168 C 
BRANCH   9  10
ATOM     10  C7  ZIN A   1      19.937  -0.490  11.246  0.00  0.00     0.265 C 
BRANCH  10  11
ATOM     11  N4  ZIN A   1      20.663  -0.340   9.978  0.00  0.00    -0.073 N 
ATOM     12  H5  ZIN A   1      21.419  -1.008   9.942  0.00  0.00     0.277 HD
ATOM     13  H6  ZIN A   1      21.038   0.595   9.913  0.00  0.00     0.277 HD
BRANCH  11  14
ATOM     14  C3  ZIN A   1      19.745  -0.579   8.857  0.00  0.00     0.232 C 
BRANCH  14  15
ATOM     15  C2  ZIN A   1      18.693   0.532   8.813  0.00  0.00     0.023 C 
ATOM     16  C1  ZIN A   1      19.216   1.698   7.972  0.00  0.00     0.007 C 
ENDBRANCH  14  15
ENDBRANCH  11  14
ENDBRANCH  10  11
ENDBRANCH   9  10
BRANCH   9  17
ATOM     17  O10 ZIN A   1      21.841   0.703  12.134  0.00  0.00    -0.392 OA
ATOM     18  H38 ZIN A   1      22.292  -0.098  11.835  0.00  0.00     0.210 HD
ENDBRANCH   9  17
ENDBRANCH   8   9
ENDBRANCH   7   8
ENDBRANCH   1   7
BRANCH   6  19
ATOM     19  C19 ZIN A   1      19.243   3.275  16.254  0.00  0.00     0.162 C 
ATOM     20  O20 ZIN A   1      20.351   3.582  16.639  0.00  0.00    -0.292 OA
BRANCH  19  21
ATOM     21  C21 ZIN A   1      18.398   4.276  15.510  0.00  0.00     0.088 C 
BRANCH  21  22
ATOM     22  C22 ZIN A   1      19.225   4.909  14.389  0.00  0.00     0.046 C 
BRANCH  22  23
ATOM     23  C23 ZIN A   1      18.515   4.720  13.074  0.00  0.00    -0.058 A 
ATOM     24  C28 ZIN A   1      19.106   3.974  12.070  0.00  0.00     0.007 A 
ATOM     25  C27 ZIN A   1      18.452   3.797  10.865  0.00  0.00     0.001 A 
ATOM     26  C26 ZIN A   1      17.213   4.373  10.660  0.00  0.00     0.000 A 
ATOM     27  C25 ZIN A   1      16.624   5.122  11.661  0.00  0.00     0.001 A 
ATOM     28  C24 ZIN A   1      17.276   5.296  12.868  0.00  0.00     0.007 A 
ENDBRANCH  22  23
ENDBRANCH  21  22
ENDBRANCH  19  21
ENDBRANCH   6  19
TORSDOF 12
ENDMDL
MODEL 2
REMARK VINA RESULT:      -7.6      2.815      5.996
REMARK  12 active torsions:
REMARK  status: ('A' for Active; 'I' for Inactive)
REMARK    1  A    between atoms: C2_2  and  C3_3 
REMARK    2  A    between atoms: C3_3  and  N4_4 
REMARK    3  A    between atoms: N4_4  and  C7_7 
REMARK    4  A    between atoms: C7_7  and  C8_8 
REMARK    5  A    between atoms: C8_8  and  O10_9 
REMARK    6  A    between atoms: C8_8  and  C11_10 
REMARK    7  A    between atoms: C11_10  and  O12_11 
REMARK    8  A    between atoms: O12_11  and  C13_12 
REMARK    9  A    between atoms: C18_17  and  C19_18 
REMARK   10  A    between atoms: C19_18  and  C21_20 
REMARK   11  A    between atoms: C21_20  and  C22_21 
REMARK   12  A    between atoms: C22_21  and  C23_22 
ROOT
ATOM      1  C13 ZIN A   1      18.276   0.700  13.565  0.00  0.00     0.082 A 
ATOM      2  C14 ZIN A   1      17.584   0.815  14.762  0.00  0.00     0.038 A 
ATOM      3  C15 ZIN A   1      17.703  -0.164  15.728  0.00  0.00     0.003 A 
ATOM      4  C16 ZIN A   1      18.512  -1.268  15.513  0.00  0.00     0.001 A 
ATOM      5  C17 ZIN A   1      19.208  -1.402  14.332  0.00  0.00     0.018 A 
ATOM      6  C18 ZIN A   1      19.094  -0.421  13.340  0.00  0.00     0.043 A 
ENDROOT
BRANCH   1   7
ATOM      7  O12 ZIN A   1      18.159   1.660  12.616  0.00  0.00    -0.348 OA
BRANCH   7   8
ATOM      8  C11 ZIN A   1      18.729   2.937  12.910  0.00  0.00     0.209 C 
BRANCH   8   9
ATOM      9  C8  ZIN A   1      19.462   3.466  11.675  0.00  0.00     0.168 C 
BRANCH   9  10
ATOM     10  C7  ZIN A   1      18.764   2.957  10.412  0.00  0.00     0.265 C 
BRANCH  10  11
ATOM     11  N4  ZIN A   1      19.619   1.966   9.747  0.00  0.00    -0.073 N 
ATOM     12  H5  ZIN A   1      19.505   1.068  10.194  0.00  0.00     0.277 HD
ATOM     13  H6  ZIN A   1      20.584   2.254   9.813  0.00  0.00     0.277 HD
BRANCH  11  14
ATOM     14  C3  ZIN A   1      19.236   1.859   8.333  0.00  0.00     0.232 C 
BRANCH  14  15
ATOM     15  C2  ZIN A   1      18.407   0.590   8.123  0.00  0.00     0.023 C 
ATOM     16  C1  ZIN A   1      18.186   0.366   6.625  0.00  0.00     0.007 C 
ENDBRANCH  14  15
ENDBRANCH  11  14
ENDBRANCH  10  11
ENDBRANCH   9  10
BRANCH   9  17
ATOM     17  O10 ZIN A   1      20.814   3.006  11.690  0.00  0.00    -0.392 OA
ATOM     18  H38 ZIN A   1      21.288   3.205  12.510  0.00  0.00     0.210 HD
ENDBRANCH   9  17
ENDBRANCH   8   9
ENDBRANCH   7   8
ENDBRANCH   1   7
BRANCH   6  19
ATOM     19  C19 ZIN A   1      19.831  -0.556  12.078  0.00  0.00     0.162 C 
ATOM     20  O20 ZIN A   1      20.801   0.141  11.865  0.00  0.00    -0.292 OA
BRANCH  19  21
ATOM     21  C21 ZIN A   1      19.382  -1.560  11.048  0.00  0.00     0.088 C 
BRANCH  21  22
ATOM     22  C22 ZIN A   1      20.056  -2.906  11.321  0.00  0.00     0.046 C 
BRANCH  22  23
ATOM     23  C23 ZIN A   1      19.093  -4.022  11.008  0.00  0.00    -0.058 A 
ATOM     24  C28 ZIN A   1      18.006  -4.249  11.833  0.00  0.00     0.007 A 
ATOM     25  C27 ZIN A   1      17.120  -5.269  11.543  0.00  0.00     0.001 A 
ATOM     26  C26 ZIN A   1      17.325  -6.068  10.435  0.00  0.00     0.000 A 
ATOM     27  C25 ZIN A   1      18.413  -5.845   9.613  0.00  0.00     0.001 A 
ATOM     28  C24 ZIN A   1      19.297  -4.821   9.900  0.00  0.00     0.007 A 
ENDBRANCH  22  23
ENDBRANCH  21  22
ENDBRANCH  19  21
ENDBRANCH   6  19
TORSDOF 12
ENDMDL
MODEL 3
REMARK VINA RESULT:      -7.5      2.417      5.817
REMARK  12 active torsions:
REMARK  status: ('A' for Active; 'I' for Inactive)
REMARK    1  A    between atoms: C2_2  and  C3_3 
REMARK    2  A    between atoms: C3_3  and  N4_4 
REMARK    3  A    between atoms: N4_4  and  C7_7 
REMARK    4  A    between atoms: C7_7  and  C8_8 
REMARK    5  A    between atoms: C8_8  and  O10_9 
REMARK    6  A    between atoms: C8_8  and  C11_10 
REMARK    7  A    between atoms: C11_10  and  O12_11 
REMARK    8  A    between atoms: O12_11  and  C13_12 
REMARK    9  A    between atoms: C18_17  and  C19_18 
REMARK   10  A    between atoms: C19_18  and  C21_20 
REMARK   11  A    between atoms: C21_20  and  C22_21 
REMARK   12  A    between atoms: C22_21  and  C23_22 
ROOT
ATOM      1  C13 ZIN A   1      18.316  -0.670   9.344  0.00  0.00     0.082 A 
ATOM      2  C14 ZIN A   1      17.565  -0.762   8.182  0.00  0.00     0.038 A 
ATOM      3  C15 ZIN A   1      17.774   0.131   7.149  0.00  0.00     0.003 A 
ATOM      4  C16 ZIN A   1      18.733   1.124   7.262  0.00  0.00     0.001 A 
ATOM      5  C17 ZIN A   1      19.491   1.233   8.408  0.00  0.00     0.018 A 
ATOM      6  C18 ZIN A   1      19.287   0.339   9.466  0.00  0.00     0.043 A 
ENDROOT
BRANCH   1   7
ATOM      7  O12 ZIN A   1      18.112  -1.545  10.359  0.00  0.00    -0.348 OA
BRANCH   7   8
ATOM      8  C11 ZIN A   1      18.622  -2.868  10.187  0.00  0.00     0.209 C 
BRANCH   8   9
ATOM      9  C8  ZIN A   1      19.273  -3.337  11.490  0.00  0.00     0.168 C 
BRANCH   9  10
ATOM     10  C7  ZIN A   1      18.754  -2.489  12.653  0.00  0.00     0.265 C 
BRANCH  10  11
ATOM     11  N4  ZIN A   1      19.868  -1.738  13.246  0.00  0.00    -0.073 N 
ATOM     12  H5  ZIN A   1      20.066  -0.927  12.679  0.00  0.00     0.277 HD
ATOM     13  H6  ZIN A   1      20.687  -2.327  13.289  0.00  0.00     0.277 HD
BRANCH  11  14
ATOM     14  C3  ZIN A   1      19.502  -1.310  14.603  0.00  0.00     0.232 C 
BRANCH  14  15
ATOM     15  C2  ZIN A   1      18.018  -0.937  14.637  0.00  0.00     0.023 C 
ATOM     16  C1  ZIN A   1      17.839   0.378  15.398  0.00  0.00     0.007 C 
ENDBRANCH  14  15
ENDBRANCH  11  14
ENDBRANCH  10  11
ENDBRANCH   9  10
BRANCH   9  17
ATOM     17  O10 ZIN A   1      20.691  -3.193  11.392  0.00  0.00    -0.392 OA
ATOM     18  H38 ZIN A   1      20.974  -2.401  10.913  0.00  0.00     0.210 HD
ENDBRANCH   9  17
ENDBRANCH   8   9
ENDBRANCH   7   8
ENDBRANCH   1   7
BRANCH   6  19
ATOM     19  C19 ZIN A   1      20.089   0.449  10.690  0.00  0.00     0.162 C 
ATOM     20  O20 ZIN A   1      21.000  -0.326  10.890  0.00  0.00    -0.292 OA
BRANCH  19  21
ATOM     21  C21 ZIN A   1      19.779   1.524  11.700  0.00  0.00     0.088 C 
BRANCH  21  22
ATOM     22  C22 ZIN A   1      18.269   1.570  11.947  0.00  0.00     0.046 C 
BRANCH  22  23
ATOM     23  C23 ZIN A   1      17.783   2.991  11.819  0.00  0.00    -0.058 A 
ATOM     24  C28 ZIN A   1      17.547   3.746  12.953  0.00  0.00     0.007 A 
ATOM     25  C27 ZIN A   1      17.106   5.050  12.836  0.00  0.00     0.001 A 
ATOM     26  C26 ZIN A   1      16.892   5.597  11.585  0.00  0.00     0.000 A 
ATOM     27  C25 ZIN A   1      17.124   4.842  10.451  0.00  0.00     0.001 A 
ATOM     28  C24 ZIN A   1      17.569   3.538  10.569  0.00  0.00     0.007 A 
ENDBRANCH  22  23
ENDBRANCH  21  22
ENDBRANCH  19  21
ENDBRANCH   6  19
TORSDOF 12
ENDMDL
MODEL 4
REMARK VINA RESULT:      -7.4      3.106      6.575
REMARK  12 active torsions:
REMARK  status: ('A' for Active; 'I' for Inactive)
REMARK    1  A    between atoms: C2_2  and  C3_3 
REMARK    2  A    between atoms: C3_3  and  N4_4 
REMARK    3  A    between atoms: N4_4  and  C7_7 
REMARK    4  A    between atoms: C7_7  and  C8_8 
REMARK    5  A    between atoms: C8_8  and  O10_9 
REMARK    6  A    between atoms: C8_8  and  C11_10 
REMARK    7  A    between atoms: C11_10  and  O12_11 
REMARK    8  A    between atoms: O12_11  and  C13_12 
REMARK    9  A    between atoms: C18_17  and  C19_18 
REMARK   10  A    between atoms: C19_18  and  C21_20 
REMARK   11  A    between atoms: C21_20  and  C22_21 
REMARK   12  A    between atoms: C22_21  and  C23_22 
ROOT
ATOM      1  C13 ZIN A   1      18.064   0.248   9.086  0.00  0.00     0.082 A 
ATOM      2  C14 ZIN A   1      18.767   1.086   8.234  0.00  0.00     0.038 A 
ATOM      3  C15 ZIN A   1      19.070   2.375   8.624  0.00  0.00     0.003 A 
ATOM      4  C16 ZIN A   1      18.676   2.844   9.867  0.00  0.00     0.001 A 
ATOM      5  C17 ZIN A   1      17.977   2.029  10.729  0.00  0.00     0.018 A 
ATOM      6  C18 ZIN A   1      17.657   0.721  10.346  0.00  0.00     0.043 A 
ENDROOT
BRANCH   1   7
ATOM      7  O12 ZIN A   1      17.765  -1.018   8.704  0.00  0.00    -0.348 OA
BRANCH   7   8
ATOM      8  C11 ZIN A   1      18.180  -1.416   7.396  0.00  0.00     0.209 C 
BRANCH   8   9
ATOM      9  C8  ZIN A   1      18.596  -2.889   7.420  0.00  0.00     0.168 C 
BRANCH   9  10
ATOM     10  C7  ZIN A   1      18.238  -3.498   8.777  0.00  0.00     0.265 C 
BRANCH  10  11
ATOM     11  N4  ZIN A   1      19.416  -3.466   9.653  0.00  0.00    -0.073 N 
ATOM     12  H5  ZIN A   1      19.365  -2.657  10.255  0.00  0.00     0.277 HD
ATOM     13  H6  ZIN A   1      20.253  -3.414   9.092  0.00  0.00     0.277 HD
BRANCH  11  14
ATOM     14  C3  ZIN A   1      19.450  -4.685  10.472  0.00  0.00     0.232 C 
BRANCH  14  15
ATOM     15  C2  ZIN A   1      18.041  -5.272  10.573  0.00  0.00     0.023 C 
ATOM     16  C1  ZIN A   1      17.525  -5.119  12.006  0.00  0.00     0.007 C 
ENDBRANCH  14  15
ENDBRANCH  11  14
ENDBRANCH  10  11
ENDBRANCH   9  10
BRANCH   9  17
ATOM     17  O10 ZIN A   1      20.005  -2.989   7.209  0.00  0.00    -0.392 OA
ATOM     18  H38 ZIN A   1      20.492  -3.343   7.967  0.00  0.00     0.210 HD
ENDBRANCH   9  17
ENDBRANCH   8   9
ENDBRANCH   7   8
ENDBRANCH   1   7
BRANCH   6  19
ATOM     19  C19 ZIN A   1      16.911  -0.155  11.258  0.00  0.00     0.162 C 
ATOM     20  O20 ZIN A   1      15.750   0.085  11.514  0.00  0.00    -0.292 OA
BRANCH  19  21
ATOM     21  C21 ZIN A   1      17.588  -1.351  11.875  0.00  0.00     0.088 C 
BRANCH  21  22
ATOM     22  C22 ZIN A   1      18.986  -0.955  12.353  0.00  0.00     0.046 C 
BRANCH  22  23
ATOM     23  C23 ZIN A   1      18.924  -0.546  13.802  0.00  0.00    -0.058 A 
ATOM     24  C28 ZIN A   1      18.633  -1.486  14.774  0.00  0.00     0.007 A 
ATOM     25  C27 ZIN A   1      18.581  -1.112  16.103  0.00  0.00     0.001 A 
ATOM     26  C26 ZIN A   1      18.810   0.203  16.461  0.00  0.00     0.000 A 
ATOM     27  C25 ZIN A   1      19.097   1.143  15.490  0.00  0.00     0.001 A 
ATOM     28  C24 ZIN A   1      19.154   0.769  14.160  0.00  0.00     0.007 A 
ENDBRANCH  22  23
ENDBRANCH  21  22
ENDBRANCH  19  21
ENDBRANCH   6  19
TORSDOF 12
ENDMDL
MODEL 5
REMARK VINA RESULT:      -7.4      3.297      4.934
REMARK  12 active torsions:
REMARK  status: ('A' for Active; 'I' for Inactive)
REMARK    1  A    between atoms: C2_2  and  C3_3 
REMARK    2  A    between atoms: C3_3  and  N4_4 
REMARK    3  A    between atoms: N4_4  and  C7_7 
REMARK    4  A    between atoms: C7_7  and  C8_8 
REMARK    5  A    between atoms: C8_8  and  O10_9 
REMARK    6  A    between atoms: C8_8  and  C11_10 
REMARK    7  A    between atoms: C11_10  and  O12_11 
REMARK    8  A    between atoms: O12_11  and  C13_12 
REMARK    9  A    between atoms: C18_17  and  C19_18 
REMARK   10  A    between atoms: C19_18  and  C21_20 
REMARK   11  A    between atoms: C21_20  and  C22_21 
REMARK   12  A    between atoms: C22_21  and  C23_22 
ROOT
ATOM      1  C13 ZIN A   1      18.139  -1.223  13.100  0.00  0.00     0.082 A 
ATOM      2  C14 ZIN A   1      18.768  -1.629  14.267  0.00  0.00     0.038 A 
ATOM      3  C15 ZIN A   1      18.842  -0.773  15.349  0.00  0.00     0.003 A 
ATOM      4  C16 ZIN A   1      18.289   0.495  15.279  0.00  0.00     0.001 A 
ATOM      5  C17 ZIN A   1      17.660   0.919  14.129  0.00  0.00     0.018 A 
ATOM      6  C18 ZIN A   1      17.582   0.065  13.022  0.00  0.00     0.043 A 
ENDROOT
BRANCH   1   7
ATOM      7  O12 ZIN A   1      18.067  -2.062  12.038  0.00  0.00    -0.348 OA
BRANCH   7   8
ATOM      8  C11 ZIN A   1      18.790  -3.291  12.131  0.00  0.00     0.209 C 
BRANCH   8   9
ATOM      9  C8  ZIN A   1      19.792  -3.381  10.978  0.00  0.00     0.168 C 
BRANCH   9  10
ATOM     10  C7  ZIN A   1      19.689  -4.759  10.320  0.00  0.00     0.265 C 
BRANCH  10  11
ATOM     11  N4  ZIN A   1      19.686  -4.603   8.859  0.00  0.00    -0.073 N 
ATOM     12  H5  ZIN A   1      19.439  -5.482   8.428  0.00  0.00     0.277 HD
ATOM     13  H6  ZIN A   1      20.604  -4.322   8.548  0.00  0.00     0.277 HD
BRANCH  11  14
ATOM     14  C3  ZIN A   1      18.705  -3.579   8.478  0.00  0.00     0.232 C 
BRANCH  14  15
ATOM     15  C2  ZIN A   1      18.478  -3.626   6.966  0.00  0.00     0.023 C 
ATOM     16  C1  ZIN A   1      19.584  -2.840   6.259  0.00  0.00     0.007 C 
ENDBRANCH  14  15
ENDBRANCH  11  14
ENDBRANCH  10  11
ENDBRANCH   9  10
BRANCH   9  17
ATOM     17  O10 ZIN A   1      21.116  -3.193  11.483  0.00  0.00    -0.392 OA
ATOM     18  H38 ZIN A   1      21.485  -2.317  11.301  0.00  0.00     0.210 HD
ENDBRANCH   9  17
ENDBRANCH   8   9
ENDBRANCH   7   8
ENDBRANCH   1   7
BRANCH   6  19
ATOM     19  C19 ZIN A   1      16.914   0.508  11.793  0.00  0.00     0.162 C 
ATOM     20  O20 ZIN A   1      15.816   0.078  11.510  0.00  0.00    -0.292 OA
BRANCH  19  21
ATOM     21  C21 ZIN A   1      17.594   1.497  10.881  0.00  0.00     0.088 C 
BRANCH  21  22
ATOM     22  C22 ZIN A   1      18.762   0.813  10.168  0.00  0.00     0.046 C 
BRANCH  22  23
ATOM     23  C23 ZIN A   1      18.453   0.695   8.698  0.00  0.00    -0.058 A 
ATOM     24  C28 ZIN A   1      17.370  -0.055   8.277  0.00  0.00     0.007 A 
ATOM     25  C27 ZIN A   1      17.084  -0.158   6.929  0.00  0.00     0.001 A 
ATOM     26  C26 ZIN A   1      17.885   0.479   6.001  0.00  0.00     0.000 A 
ATOM     27  C25 ZIN A   1      18.970   1.225   6.421  0.00  0.00     0.001 A 
ATOM     28  C24 ZIN A   1      19.254   1.332   7.770  0.00  0.00     0.007 A 
ENDBRANCH  22  23
ENDBRANCH  21  22
ENDBRANCH  19  21
ENDBRANCH   6  19
TORSDOF 12
ENDMDL
MODEL 6
REMARK VINA RESULT:      -7.4      3.712      7.190
REMARK  12 active torsions:
REMARK  status: ('A' for Active; 'I' for Inactive)
REMARK    1  A    between atoms: C2_2  and  C3_3 
REMARK    2  A    between atoms: C3_3  and  N4_4 
REMARK    3  A    between atoms: N4_4  and  C7_7 
REMARK    4  A    between atoms: C7_7  and  C8_8 
REMARK    5  A    between atoms: C8_8  and  O10_9 
REMARK    6  A    between atoms: C8_8  and  C11_10 
REMARK    7  A    between atoms: C11_10  and  O12_11 
REMARK    8  A    between atoms: O12_11  and  C13_12 
REMARK    9  A    between atoms: C18_17  and  C19_18 
REMARK   10  A    between atoms: C19_18  and  C21_20 
REMARK   11  A    between atoms: C21_20  and  C22_21 
REMARK   12  A    between atoms: C22_21  and  C23_22 
ROOT
ATOM      1  C13 ZIN A   1      19.057  -1.559   6.932  0.00  0.00     0.082 A 
ATOM      2  C14 ZIN A   1      19.329  -2.088   5.679  0.00  0.00     0.038 A 
ATOM      3  C15 ZIN A   1      19.096  -1.336   4.544  0.00  0.00     0.003 A 
ATOM      4  C16 ZIN A   1      18.589  -0.050   4.645  0.00  0.00     0.001 A 
ATOM      5  C17 ZIN A   1      18.312   0.494   5.880  0.00  0.00     0.018 A 
ATOM      6  C18 ZIN A   1      18.538  -0.257   7.040  0.00  0.00     0.043 A 
ENDROOT
BRANCH   1   7
ATOM      7  O12 ZIN A   1      19.284  -2.296   8.047  0.00  0.00    -0.348 OA
BRANCH   7   8
ATOM      8  C11 ZIN A   1      18.420  -3.410   8.276  0.00  0.00     0.209 C 
BRANCH   8   9
ATOM      9  C8  ZIN A   1      18.945  -4.228   9.458  0.00  0.00     0.168 C 
BRANCH   9  10
ATOM     10  C7  ZIN A   1      19.000  -3.344  10.706  0.00  0.00     0.265 C 
BRANCH  10  11
ATOM     11  N4  ZIN A   1      17.904  -2.367  10.661  0.00  0.00    -0.073 N 
ATOM     12  H5  ZIN A   1      17.076  -2.807  10.288  0.00  0.00     0.277 HD
ATOM     13  H6  ZIN A   1      18.168  -1.591  10.072  0.00  0.00     0.277 HD
BRANCH  11  14
ATOM     14  C3  ZIN A   1      17.629  -1.879  12.019  0.00  0.00     0.232 C 
BRANCH  14  15
ATOM     15  C2  ZIN A   1      18.233  -0.483  12.191  0.00  0.00     0.023 C 
ATOM     16  C1  ZIN A   1      17.110   0.539  12.380  0.00  0.00     0.007 C 
ENDBRANCH  14  15
ENDBRANCH  11  14
ENDBRANCH  10  11
ENDBRANCH   9  10
BRANCH   9  17
ATOM     17  O10 ZIN A   1      20.255  -4.711   9.158  0.00  0.00    -0.392 OA
ATOM     18  H38 ZIN A   1      20.596  -5.349   9.801  0.00  0.00     0.210 HD
ENDBRANCH   9  17
ENDBRANCH   8   9
ENDBRANCH   7   8
ENDBRANCH   1   7
BRANCH   6  19
ATOM     19  C19 ZIN A   1      18.244   0.314   8.359  0.00  0.00     0.162 C 
ATOM     20  O20 ZIN A   1      17.171   0.106   8.885  0.00  0.00    -0.292 OA
BRANCH  19  21
ATOM     21  C21 ZIN A   1      19.276   1.160   9.060  0.00  0.00     0.088 C 
BRANCH  21  22
ATOM     22  C22 ZIN A   1      18.906   2.638   8.915  0.00  0.00     0.046 C 
BRANCH  22  23
ATOM     23  C23 ZIN A   1      18.645   3.226  10.278  0.00  0.00    -0.058 A 
ATOM     24  C28 ZIN A   1      17.448   3.868  10.536  0.00  0.00     0.007 A 
ATOM     25  C27 ZIN A   1      17.206   4.402  11.787  0.00  0.00     0.001 A 
ATOM     26  C26 ZIN A   1      18.164   4.304  12.778  0.00  0.00     0.000 A 
ATOM     27  C25 ZIN A   1      19.363   3.666  12.519  0.00  0.00     0.001 A 
ATOM     28  C24 ZIN A   1      19.603   3.127  11.269  0.00  0.00     0.007 A 
ENDBRANCH  22  23
ENDBRANCH  21  22
ENDBRANCH  19  21
ENDBRANCH   6  19
TORSDOF 12
ENDMDL
MODEL 7
REMARK VINA RESULT:      -7.3      1.859      4.732
REMARK  12 active torsions:
REMARK  status: ('A' for Active; 'I' for Inactive)
REMARK    1  A    between atoms: C2_2  and  C3_3 
REMARK    2  A    between atoms: C3_3  and  N4_4 
REMARK    3  A    between atoms: N4_4  and  C7_7 
REMARK    4  A    between atoms: C7_7  and  C8_8 
REMARK    5  A    between atoms: C8_8  and  O10_9 
REMARK    6  A    between atoms: C8_8  and  C11_10 
REMARK    7  A    between atoms: C11_10  and  O12_11 
REMARK    8  A    between atoms: O12_11  and  C13_12 
REMARK    9  A    between atoms: C18_17  and  C19_18 
REMARK   10  A    between atoms: C19_18  and  C21_20 
REMARK   11  A    between atoms: C21_20  and  C22_21 
REMARK   12  A    between atoms: C22_21  and  C23_22 
ROOT
ATOM      1  C13 ZIN A   1      18.895   1.185  15.656  0.00  0.00     0.082 A 
ATOM      2  C14 ZIN A   1      18.617   0.744  16.941  0.00  0.00     0.038 A 
ATOM      3  C15 ZIN A   1      18.315  -0.584  17.168  0.00  0.00     0.003 A 
ATOM      4  C16 ZIN A   1      18.287  -1.487  16.117  0.00  0.00     0.001 A 
ATOM      5  C17 ZIN A   1      18.560  -1.070  14.833  0.00  0.00     0.018 A 
ATOM      6  C18 ZIN A   1      18.862   0.274  14.586  0.00  0.00     0.043 A 
ENDROOT
BRANCH   1   7
ATOM      7  O12 ZIN A   1      19.190   2.489  15.432  0.00  0.00    -0.348 OA
BRANCH   7   8
ATOM      8  C11 ZIN A   1      18.942   3.404  16.501  0.00  0.00     0.209 C 
BRANCH   8   9
ATOM      9  C8  ZIN A   1      19.700   4.708  16.244  0.00  0.00     0.168 C 
BRANCH   9  10
ATOM     10  C7  ZIN A   1      19.259   5.298  14.902  0.00  0.00     0.265 C 
BRANCH  10  11
ATOM     11  N4  ZIN A   1      20.310   5.076  13.902  0.00  0.00    -0.073 N 
ATOM     12  H5  ZIN A   1      20.971   4.398  14.252  0.00  0.00     0.277 HD
ATOM     13  H6  ZIN A   1      20.788   5.946  13.716  0.00  0.00     0.277 HD
BRANCH  11  14
ATOM     14  C3  ZIN A   1      19.706   4.575  12.660  0.00  0.00     0.232 C 
BRANCH  14  15
ATOM     15  C2  ZIN A   1      18.208   4.886  12.659  0.00  0.00     0.023 C 
ATOM     16  C1  ZIN A   1      17.681   4.858  11.223  0.00  0.00     0.007 C 
ENDBRANCH  14  15
ENDBRANCH  11  14
ENDBRANCH  10  11
ENDBRANCH   9  10
BRANCH   9  17
ATOM     17  O10 ZIN A   1      21.103   4.443  16.209  0.00  0.00    -0.392 OA
ATOM     18  H38 ZIN A   1      21.547   4.559  17.062  0.00  0.00     0.210 HD
ENDBRANCH   9  17
ENDBRANCH   8   9
ENDBRANCH   7   8
ENDBRANCH   1   7
BRANCH   6  19
ATOM     19  C19 ZIN A   1      19.153   0.728  13.221  0.00  0.00     0.162 C 
ATOM     20  O20 ZIN A   1      20.284   0.663  12.788  0.00  0.00    -0.292 OA
BRANCH  19  21
ATOM     21  C21 ZIN A   1      18.045   1.274  12.357  0.00  0.00     0.088 C 
BRANCH  21  22
ATOM     22  C22 ZIN A   1      17.561   0.184  11.399  0.00  0.00     0.046 C 
BRANCH  22  23
ATOM     23  C23 ZIN A   1      17.963   0.538   9.991  0.00  0.00    -0.058 A 
ATOM     24  C28 ZIN A   1      17.477  -0.199   8.927  0.00  0.00     0.007 A 
ATOM     25  C27 ZIN A   1      17.841   0.129   7.635  0.00  0.00     0.001 A 
ATOM     26  C26 ZIN A   1      18.700   1.188   7.407  0.00  0.00     0.000 A 
ATOM     27  C25 ZIN A   1      19.189   1.922   8.470  0.00  0.00     0.001 A 
ATOM     28  C24 ZIN A   1      18.821   1.597   9.763  0.00  0.00     0.007 A 
ENDBRANCH  22  23
ENDBRANCH  21  22
ENDBRANCH  19  21
ENDBRANCH   6  19
TORSDOF 12
ENDMDL
MODEL 8
REMARK VINA RESULT:      -7.3      3.205      7.823
REMARK  12 active torsions:
REMARK  status: ('A' for Active; 'I' for Inactive)
REMARK    1  A    between atoms: C2_2  and  C3_3 
REMARK    2  A    between atoms: C3_3  and  N4_4 
REMARK    3  A    between atoms: N4_4  and  C7_7 
REMARK    4  A    between atoms: C7_7  and  C8_8 
REMARK    5  A    between atoms: C8_8  and  O10_9 
REMARK    6  A    between atoms: C8_8  and  C11_10 
REMARK    7  A    between atoms: C11_10  and  O12_11 
REMARK    8  A    between atoms: O12_11  and  C13_12 
REMARK    9  A    between atoms: C18_17  and  C19_18 
REMARK   10  A    between atoms: C19_18  and  C21_20 
REMARK   11  A    between atoms: C21_20  and  C22_21 
REMARK   12  A    between atoms: C22_21  and  C23_22 
ROOT
ATOM      1  C13 ZIN A   1      18.912   1.038   9.463  0.00  0.00     0.082 A 
ATOM      2  C14 ZIN A   1      19.222   1.581   8.225  0.00  0.00     0.038 A 
ATOM      3  C15 ZIN A   1      18.678   1.043   7.076  0.00  0.00     0.003 A 
ATOM      4  C16 ZIN A   1      17.819  -0.043   7.147  0.00  0.00     0.001 A 
ATOM      5  C17 ZIN A   1      17.498  -0.598   8.366  0.00  0.00     0.018 A 
ATOM      6  C18 ZIN A   1      18.046  -0.066   9.540  0.00  0.00     0.043 A 
ENDROOT
BRANCH   1   7
ATOM      7  O12 ZIN A   1      19.446   1.565  10.592  0.00  0.00    -0.348 OA
BRANCH   7   8
ATOM      8  C11 ZIN A   1      19.339   2.980  10.760  0.00  0.00     0.209 C 
BRANCH   8   9
ATOM      9  C8  ZIN A   1      18.332   3.287  11.871  0.00  0.00     0.168 C 
BRANCH   9  10
ATOM     10  C7  ZIN A   1      18.835   2.699  13.191  0.00  0.00     0.265 C 
BRANCH  10  11
ATOM     11  N4  ZIN A   1      18.031   1.520  13.538  0.00  0.00    -0.073 N 
ATOM     12  H5  ZIN A   1      17.774   1.027  12.695  0.00  0.00     0.277 HD
ATOM     13  H6  ZIN A   1      17.196   1.812  14.024  0.00  0.00     0.277 HD
BRANCH  11  14
ATOM     14  C3  ZIN A   1      18.816   0.630  14.405  0.00  0.00     0.232 C 
BRANCH  14  15
ATOM     15  C2  ZIN A   1      17.904  -0.457  14.979  0.00  0.00     0.023 C 
ATOM     16  C1  ZIN A   1      18.694  -1.314  15.971  0.00  0.00     0.007 C 
ENDBRANCH  14  15
ENDBRANCH  11  14
ENDBRANCH  10  11
ENDBRANCH   9  10
BRANCH   9  17
ATOM     17  O10 ZIN A   1      17.069   2.708  11.541  0.00  0.00    -0.392 OA
ATOM     18  H38 ZIN A   1      17.127   1.956  10.935  0.00  0.00     0.210 HD
ENDBRANCH   9  17
ENDBRANCH   8   9
ENDBRANCH   7   8
ENDBRANCH   1   7
BRANCH   6  19
ATOM     19  C19 ZIN A   1      17.710  -0.652  10.843  0.00  0.00     0.162 C 
ATOM     20  O20 ZIN A   1      16.666  -0.362  11.387  0.00  0.00    -0.292 OA
BRANCH  19  21
ATOM     21  C21 ZIN A   1      18.664  -1.613  11.505  0.00  0.00     0.088 C 
BRANCH  21  22
ATOM     22  C22 ZIN A   1      17.879  -2.788  12.090  0.00  0.00     0.046 C 
BRANCH  22  23
ATOM     23  C23 ZIN A   1      17.961  -3.964  11.152  0.00  0.00    -0.058 A 
ATOM     24  C28 ZIN A   1      16.856  -4.773  10.957  0.00  0.00     0.007 A 
ATOM     25  C27 ZIN A   1      16.931  -5.848  10.093  0.00  0.00     0.001 A 
ATOM     26  C26 ZIN A   1      18.112  -6.122   9.429  0.00  0.00     0.000 A 
ATOM     27  C25 ZIN A   1      19.217  -5.316   9.626  0.00  0.00     0.001 A 
ATOM     28  C24 ZIN A   1      19.142  -4.238  10.488  0.00  0.00     0.007 A 
ENDBRANCH  22  23
ENDBRANCH  21  22
ENDBRANCH  19  21
ENDBRANCH   6  19
TORSDOF 12
ENDMDL
MODEL 9
REMARK VINA RESULT:      -7.1      2.660      7.021
REMARK  12 active torsions:
REMARK  status: ('A' for Active; 'I' for Inactive)
REMARK    1  A    between atoms: C2_2  and  C3_3 
REMARK    2  A    between atoms: C3_3  and  N4_4 
REMARK    3  A    between atoms: N4_4  and  C7_7 
REMARK    4  A    between atoms: C7_7  and  C8_8 
REMARK    5  A    between atoms: C8_8  and  O10_9 
REMARK    6  A    between atoms: C8_8  and  C11_10 
REMARK    7  A    between atoms: C11_10  and  O12_11 
REMARK    8  A    between atoms: O12_11  and  C13_12 
REMARK    9  A    between atoms: C18_17  and  C19_18 
REMARK   10  A    between atoms: C19_18  and  C21_20 
REMARK   11  A    between atoms: C21_20  and  C22_21 
REMARK   12  A    between atoms: C22_21  and  C23_22 
ROOT
ATOM      1  C13 ZIN A   1      18.743   2.140  10.682  0.00  0.00     0.082 A 
ATOM      2  C14 ZIN A   1      18.768   2.578   9.367  0.00  0.00     0.038 A 
ATOM      3  C15 ZIN A   1      19.203   1.734   8.364  0.00  0.00     0.003 A 
ATOM      4  C16 ZIN A   1      19.617   0.445   8.661  0.00  0.00     0.001 A 
ATOM      5  C17 ZIN A   1      19.599  -0.010   9.961  0.00  0.00     0.018 A 
ATOM      6  C18 ZIN A   1      19.167   0.836  10.989  0.00  0.00     0.043 A 
ENDROOT
BRANCH   1   7
ATOM      7  O12 ZIN A   1      18.317   2.968  11.668  0.00  0.00    -0.348 OA
BRANCH   7   8
ATOM      8  C11 ZIN A   1      19.192   4.034  12.043  0.00  0.00     0.209 C 
BRANCH   8   9
ATOM      9  C8  ZIN A   1      19.177   4.194  13.565  0.00  0.00     0.168 C 
BRANCH   9  10
ATOM     10  C7  ZIN A   1      17.788   3.842  14.101  0.00  0.00     0.265 C 
BRANCH  10  11
ATOM     11  N4  ZIN A   1      17.837   2.531  14.761  0.00  0.00    -0.073 N 
ATOM     12  H5  ZIN A   1      18.137   1.831  14.099  0.00  0.00     0.277 HD
ATOM     13  H6  ZIN A   1      16.919   2.293  15.108  0.00  0.00     0.277 HD
BRANCH  11  14
ATOM     14  C3  ZIN A   1      18.785   2.583  15.882  0.00  0.00     0.232 C 
BRANCH  14  15
ATOM     15  C2  ZIN A   1      19.018   1.169  16.419  0.00  0.00     0.023 C 
ATOM     16  C1  ZIN A   1      17.699   0.393  16.405  0.00  0.00     0.007 C 
ENDBRANCH  14  15
ENDBRANCH  11  14
ENDBRANCH  10  11
ENDBRANCH   9  10
BRANCH   9  17
ATOM     17  O10 ZIN A   1      19.490   5.546  13.904  0.00  0.00    -0.392 OA
ATOM     18  H38 ZIN A   1      19.839   5.656  14.800  0.00  0.00     0.210 HD
ENDBRANCH   9  17
ENDBRANCH   8   9
ENDBRANCH   7   8
ENDBRANCH   1   7
BRANCH   6  19
ATOM     19  C19 ZIN A   1      19.146   0.360  12.378  0.00  0.00     0.162 C 
ATOM     20  O20 ZIN A   1      20.034   0.677  13.141  0.00  0.00    -0.292 OA
BRANCH  19  21
ATOM     21  C21 ZIN A   1      18.022  -0.524  12.854  0.00  0.00     0.088 C 
BRANCH  21  22
ATOM     22  C22 ZIN A   1      18.593  -1.860  13.334  0.00  0.00     0.046 C 
BRANCH  22  23
ATOM     23  C23 ZIN A   1      18.643  -2.827  12.180  0.00  0.00    -0.058 A 
ATOM     24  C28 ZIN A   1      19.838  -3.435  11.838  0.00  0.00     0.007 A 
ATOM     25  C27 ZIN A   1      19.883  -4.326  10.783  0.00  0.00     0.001 A 
ATOM     26  C26 ZIN A   1      18.736  -4.603  10.063  0.00  0.00     0.000 A 
ATOM     27  C25 ZIN A   1      17.543  -3.993  10.401  0.00  0.00     0.001 A 
ATOM     28  C24 ZIN A   1      17.497  -3.104  11.459  0.00  0.00     0.007 A 
ENDBRANCH  22  23
ENDBRANCH  21  22
ENDBRANCH  19  21
ENDBRANCH   6  19
TORSDOF 12
ENDMDL
