MODEL 1
REMARK VINA RESULT:      -5.3      0.000      0.000
REMARK  8 active torsions:
REMARK  status: ('A' for Active; 'I' for Inactive)
REMARK    1  A    between atoms: O1_1  and  C2_2 
REMARK    2  A    between atoms: C2_2  and  C3_3 
REMARK    3  A    between atoms: C3_3  and  N4_4 
REMARK    4  A    between atoms: C7_7  and  O9_8 
REMARK    5  A    between atoms: C10_9  and  O12_10 
REMARK    6  A    between atoms: C13_11  and  O15_12 
REMARK    7  A    between atoms: C16_13  and  C18_14 
REMARK    8  A    between atoms: C18_14  and  O19_15 
ROOT
ATOM      1  N4  <0> d   1      19.472   1.628  10.866  0.00  0.00    -0.058 N 
ATOM      2  H5  <0> d   1      20.369   1.953  10.538  0.00  0.00     0.280 HD
ATOM      3  C6  <0> d   1      18.536   1.555   9.738  0.00  0.00     0.269 C 
ATOM      4  C7  <0> d   1      19.112   0.645   8.650  0.00  0.00     0.175 C 
ATOM      5  C10 <0> d   1      19.327  -0.757   9.227  0.00  0.00     0.179 C 
ATOM      6  C13 <0> d   1      20.245  -0.660  10.449  0.00  0.00     0.182 C 
ATOM      7  C16 <0> d   1      19.626   0.298  11.469  0.00  0.00     0.242 C 
ENDROOT
BRANCH   1   8
ATOM      8  C3  <0> d   1      18.951   2.562  11.872  0.00  0.00     0.261 C 
BRANCH   8   9
ATOM      9  C2  <0> d   1      19.788   3.844  11.858  0.00  0.00     0.192 C 
BRANCH   9  10
ATOM     10  O1  <0> d   1      21.165   3.512  11.667  0.00  0.00    -0.399 OA
ATOM     11  H20 <0> d   1      21.753   3.868  12.346  0.00  0.00     0.209 HD
ENDBRANCH   9  10
ENDBRANCH   8   9
ENDBRANCH   1   8
BRANCH   7  12
ATOM     12  C18 <0> d   1      20.540   0.400  12.692  0.00  0.00     0.200 C 
BRANCH  12  13
ATOM     13  O19 <0> d   1      21.885   0.624  12.266  0.00  0.00    -0.399 OA
ATOM     14  H32 <0> d   1      22.013   0.546  11.310  0.00  0.00     0.209 HD
ENDBRANCH  12  13
ENDBRANCH   7  12
BRANCH   6  15
ATOM     15  O15 <0> d   1      20.395  -1.954  11.038  0.00  0.00    -0.391 OA
ATOM     16  H29 <0> d   1      21.111  -2.479  10.657  0.00  0.00     0.210 HD
ENDBRANCH   6  15
BRANCH   4  17
ATOM     17  O9  <0> d   1      18.199   0.575   7.553  0.00  0.00    -0.391 OA
ATOM     18  H27 <0> d   1      17.350   1.006   7.721  0.00  0.00     0.210 HD
ENDBRANCH   4  17
BRANCH   5  19
ATOM     19  O12 <0> d   1      19.932  -1.594   8.239  0.00  0.00    -0.390 OA
ATOM     20  H28 <0> d   1      19.359  -1.786   7.484  0.00  0.00     0.210 HD
ENDBRANCH   5  19
TORSDOF 8
ENDMDL
MODEL 2
REMARK VINA RESULT:      -5.2      2.610      5.183
REMARK  8 active torsions:
REMARK  status: ('A' for Active; 'I' for Inactive)
REMARK    1  A    between atoms: O1_1  and  C2_2 
REMARK    2  A    between atoms: C2_2  and  C3_3 
REMARK    3  A    between atoms: C3_3  and  N4_4 
REMARK    4  A    between atoms: C7_7  and  O9_8 
REMARK    5  A    between atoms: C10_9  and  O12_10 
REMARK    6  A    between atoms: C13_11  and  O15_12 
REMARK    7  A    between atoms: C16_13  and  C18_14 
REMARK    8  A    between atoms: C18_14  and  O19_15 
ROOT
ATOM      1  N4  <0> d   1      19.324  -1.508  12.293  0.00  0.00    -0.058 N 
ATOM      2  H5  <0> d   1      20.201  -1.835  12.672  0.00  0.00     0.280 HD
ATOM      3  C6  <0> d   1      18.355  -1.339  13.381  0.00  0.00     0.269 C 
ATOM      4  C7  <0> d   1      18.920  -0.376  14.428  0.00  0.00     0.175 C 
ATOM      5  C10 <0> d   1      19.193   0.980  13.772  0.00  0.00     0.179 C 
ATOM      6  C13 <0> d   1      20.148   0.781  12.591  0.00  0.00     0.182 C 
ATOM      7  C16 <0> d   1      19.536  -0.224  11.613  0.00  0.00     0.242 C 
ENDROOT
BRANCH   1   8
ATOM      8  C3  <0> d   1      18.812  -2.492  11.331  0.00  0.00     0.261 C 
BRANCH   8   9
ATOM      9  C2  <0> d   1      19.593  -3.800  11.473  0.00  0.00     0.192 C 
BRANCH   9  10
ATOM     10  O1  <0> d   1      20.989  -3.511  11.579  0.00  0.00    -0.399 OA
ATOM     11  H20 <0> d   1      21.388  -3.187  10.760  0.00  0.00     0.209 HD
ENDBRANCH   9  10
ENDBRANCH   8   9
ENDBRANCH   1   8
BRANCH   7  12
ATOM     12  C18 <0> d   1      20.487  -0.428  10.431  0.00  0.00     0.200 C 
BRANCH  12  13
ATOM     13  O19 <0> d   1      21.818  -0.617  10.916  0.00  0.00    -0.399 OA
ATOM     14  H32 <0> d   1      22.097  -1.542  10.949  0.00  0.00     0.209 HD
ENDBRANCH  12  13
ENDBRANCH   7  12
BRANCH   6  15
ATOM     15  O15 <0> d   1      20.353   2.030  11.927  0.00  0.00    -0.391 OA
ATOM     16  H29 <0> d   1      20.147   2.011  10.983  0.00  0.00     0.210 HD
ENDBRANCH   6  15
BRANCH   4  17
ATOM     17  O9  <0> d   1      17.973  -0.213  15.486  0.00  0.00    -0.391 OA
ATOM     18  H27 <0> d   1      18.318  -0.437  16.361  0.00  0.00     0.210 HD
ENDBRANCH   4  17
BRANCH   5  19
ATOM     19  O12 <0> d   1      19.788   1.862  14.726  0.00  0.00    -0.390 OA
ATOM     20  H28 <0> d   1      19.885   2.772  14.412  0.00  0.00     0.210 HD
ENDBRANCH   5  19
TORSDOF 8
ENDMDL
MODEL 3
REMARK VINA RESULT:      -5.0      1.765      4.439
REMARK  8 active torsions:
REMARK  status: ('A' for Active; 'I' for Inactive)
REMARK    1  A    between atoms: O1_1  and  C2_2 
REMARK    2  A    between atoms: C2_2  and  C3_3 
REMARK    3  A    between atoms: C3_3  and  N4_4 
REMARK    4  A    between atoms: C7_7  and  O9_8 
REMARK    5  A    between atoms: C10_9  and  O12_10 
REMARK    6  A    between atoms: C13_11  and  O15_12 
REMARK    7  A    between atoms: C16_13  and  C18_14 
REMARK    8  A    between atoms: C18_14  and  O19_15 
ROOT
ATOM      1  N4  <0> d   1      18.637   0.616   9.640  0.00  0.00    -0.058 N 
ATOM      2  H5  <0> d   1      19.271   1.071   9.000  0.00  0.00     0.280 HD
ATOM      3  C6  <0> d   1      19.192  -0.684  10.035  0.00  0.00     0.269 C 
ATOM      4  C7  <0> d   1      20.580  -0.486  10.648  0.00  0.00     0.175 C 
ATOM      5  C10 <0> d   1      20.464   0.415  11.880  0.00  0.00     0.179 C 
ATOM      6  C13 <0> d   1      19.816   1.741  11.471  0.00  0.00     0.182 C 
ATOM      7  C16 <0> d   1      18.456   1.460  10.828  0.00  0.00     0.242 C 
ENDROOT
BRANCH   1   8
ATOM      8  C3  <0> d   1      17.340   0.414   8.983  0.00  0.00     0.261 C 
BRANCH   8   9
ATOM      9  C2  <0> d   1      17.437  -0.767   8.014  0.00  0.00     0.192 C 
BRANCH   9  10
ATOM     10  O1  <0> d   1      16.888  -0.391   6.749  0.00  0.00    -0.399 OA
ATOM     11  H20 <0> d   1      15.948  -0.596   6.651  0.00  0.00     0.209 HD
ENDBRANCH   9  10
ENDBRANCH   8   9
ENDBRANCH   1   8
BRANCH   7  12
ATOM     12  C18 <0> d   1      17.804   2.781  10.416  0.00  0.00     0.200 C 
BRANCH  12  13
ATOM     13  O19 <0> d   1      17.028   3.289  11.503  0.00  0.00    -0.399 OA
ATOM     14  H32 <0> d   1      16.557   4.109  11.300  0.00  0.00     0.209 HD
ENDBRANCH  12  13
ENDBRANCH   7  12
BRANCH   6  15
ATOM     15  O15 <0> d   1      19.638   2.563  12.627  0.00  0.00    -0.391 OA
ATOM     16  H29 <0> d   1      18.772   2.988  12.676  0.00  0.00     0.210 HD
ENDBRANCH   6  15
BRANCH   4  17
ATOM     17  O9  <0> d   1      21.117  -1.754  11.032  0.00  0.00    -0.391 OA
ATOM     18  H27 <0> d   1      20.924  -2.001  11.946  0.00  0.00     0.210 HD
ENDBRANCH   4  17
BRANCH   5  19
ATOM     19  O12 <0> d   1      21.766   0.664  12.415  0.00  0.00    -0.390 OA
ATOM     20  H28 <0> d   1      21.868   0.395  13.339  0.00  0.00     0.210 HD
ENDBRANCH   5  19
TORSDOF 8
ENDMDL
MODEL 4
REMARK VINA RESULT:      -5.0      2.516      3.892
REMARK  8 active torsions:
REMARK  status: ('A' for Active; 'I' for Inactive)
REMARK    1  A    between atoms: O1_1  and  C2_2 
REMARK    2  A    between atoms: C2_2  and  C3_3 
REMARK    3  A    between atoms: C3_3  and  N4_4 
REMARK    4  A    between atoms: C7_7  and  O9_8 
REMARK    5  A    between atoms: C10_9  and  O12_10 
REMARK    6  A    between atoms: C13_11  and  O15_12 
REMARK    7  A    between atoms: C16_13  and  C18_14 
REMARK    8  A    between atoms: C18_14  and  O19_15 
ROOT
ATOM      1  N4  <0> d   1      18.726   1.268  11.917  0.00  0.00    -0.058 N 
ATOM      2  H5  <0> d   1      17.896   0.853  11.520  0.00  0.00     0.280 HD
ATOM      3  C6  <0> d   1      18.382   1.941  13.174  0.00  0.00     0.269 C 
ATOM      4  C7  <0> d   1      17.729   0.940  14.131  0.00  0.00     0.175 C 
ATOM      5  C10 <0> d   1      18.709  -0.202  14.414  0.00  0.00     0.179 C 
ATOM      6  C13 <0> d   1      19.119  -0.849  13.088  0.00  0.00     0.182 C 
ATOM      7  C16 <0> d   1      19.721   0.218  12.171  0.00  0.00     0.242 C 
ENDROOT
BRANCH   1   8
ATOM      8  C3  <0> d   1      19.281   2.248  10.974  0.00  0.00     0.261 C 
BRANCH   8   9
ATOM      9  C2  <0> d   1      19.867   3.429  11.752  0.00  0.00     0.192 C 
BRANCH   9  10
ATOM     10  O1  <0> d   1      21.292   3.404  11.650  0.00  0.00    -0.399 OA
ATOM     11  H20 <0> d   1      21.629   2.802  10.974  0.00  0.00     0.209 HD
ENDBRANCH   9  10
ENDBRANCH   8   9
ENDBRANCH   1   8
BRANCH   7  12
ATOM     12  C18 <0> d   1      20.132  -0.423  10.844  0.00  0.00     0.200 C 
BRANCH  12  13
ATOM     13  O19 <0> d   1      21.544  -0.642  10.836  0.00  0.00    -0.399 OA
ATOM     14  H32 <0> d   1      21.909  -0.884  11.698  0.00  0.00     0.209 HD
ENDBRANCH  12  13
ENDBRANCH   7  12
BRANCH   6  15
ATOM     15  O15 <0> d   1      20.089  -1.870  13.334  0.00  0.00    -0.391 OA
ATOM     16  H29 <0> d   1      20.513  -2.210  12.535  0.00  0.00     0.210 HD
ENDBRANCH   6  15
BRANCH   4  17
ATOM     17  O9  <0> d   1      17.396   1.598  15.355  0.00  0.00    -0.391 OA
ATOM     18  H27 <0> d   1      16.959   1.028  16.002  0.00  0.00     0.210 HD
ENDBRANCH   4  17
BRANCH   5  19
ATOM     19  O12 <0> d   1      18.080  -1.176  15.248  0.00  0.00    -0.390 OA
ATOM     20  H28 <0> d   1      17.279  -0.858  15.688  0.00  0.00     0.210 HD
ENDBRANCH   5  19
TORSDOF 8
ENDMDL
MODEL 5
REMARK VINA RESULT:      -5.0      1.772      4.185
REMARK  8 active torsions:
REMARK  status: ('A' for Active; 'I' for Inactive)
REMARK    1  A    between atoms: O1_1  and  C2_2 
REMARK    2  A    between atoms: C2_2  and  C3_3 
REMARK    3  A    between atoms: C3_3  and  N4_4 
REMARK    4  A    between atoms: C7_7  and  O9_8 
REMARK    5  A    between atoms: C10_9  and  O12_10 
REMARK    6  A    between atoms: C13_11  and  O15_12 
REMARK    7  A    between atoms: C16_13  and  C18_14 
REMARK    8  A    between atoms: C18_14  and  O19_15 
ROOT
ATOM      1  N4  <0> d   1      18.186   0.197  10.665  0.00  0.00    -0.058 N 
ATOM      2  H5  <0> d   1      17.829  -0.212  11.517  0.00  0.00     0.280 HD
ATOM      3  C6  <0> d   1      17.512   1.477  10.419  0.00  0.00     0.269 C 
ATOM      4  C7  <0> d   1      17.710   2.402  11.622  0.00  0.00     0.175 C 
ATOM      5  C10 <0> d   1      19.207   2.644  11.833  0.00  0.00     0.179 C 
ATOM      6  C13 <0> d   1      19.911   1.296  12.015  0.00  0.00     0.182 C 
ATOM      7  C16 <0> d   1      19.632   0.413  10.797  0.00  0.00     0.242 C 
ENDROOT
BRANCH   1   8
ATOM      8  C3  <0> d   1      17.929  -0.715   9.543  0.00  0.00     0.261 C 
BRANCH   8   9
ATOM      9  C2  <0> d   1      17.509   0.095   8.314  0.00  0.00     0.192 C 
BRANCH   9  10
ATOM     10  O1  <0> d   1      16.939  -0.781   7.339  0.00  0.00    -0.399 OA
ATOM     11  H20 <0> d   1      17.581  -1.147   6.716  0.00  0.00     0.209 HD
ENDBRANCH   9  10
ENDBRANCH   8   9
ENDBRANCH   1   8
BRANCH   7  12
ATOM     12  C18 <0> d   1      20.332  -0.936  10.974  0.00  0.00     0.200 C 
BRANCH  12  13
ATOM     13  O19 <0> d   1      21.738  -0.773  10.778  0.00  0.00    -0.399 OA
ATOM     14  H32 <0> d   1      21.972  -0.038  10.194  0.00  0.00     0.209 HD
ENDBRANCH  12  13
ENDBRANCH   7  12
BRANCH   6  15
ATOM     15  O15 <0> d   1      21.319   1.505  12.141  0.00  0.00    -0.391 OA
ATOM     16  H29 <0> d   1      21.557   2.377  12.484  0.00  0.00     0.210 HD
ENDBRANCH   6  15
BRANCH   4  17
ATOM     17  O9  <0> d   1      17.054   3.648  11.379  0.00  0.00    -0.391 OA
ATOM     18  H27 <0> d   1      16.464   3.638  10.613  0.00  0.00     0.210 HD
ENDBRANCH   4  17
BRANCH   5  19
ATOM     19  O12 <0> d   1      19.402   3.447  12.999  0.00  0.00    -0.390 OA
ATOM     20  H28 <0> d   1      19.307   4.397  12.841  0.00  0.00     0.210 HD
ENDBRANCH   5  19
TORSDOF 8
ENDMDL
MODEL 6
REMARK VINA RESULT:      -4.9      2.824      4.197
REMARK  8 active torsions:
REMARK  status: ('A' for Active; 'I' for Inactive)
REMARK    1  A    between atoms: O1_1  and  C2_2 
REMARK    2  A    between atoms: C2_2  and  C3_3 
REMARK    3  A    between atoms: C3_3  and  N4_4 
REMARK    4  A    between atoms: C7_7  and  O9_8 
REMARK    5  A    between atoms: C10_9  and  O12_10 
REMARK    6  A    between atoms: C13_11  and  O15_12 
REMARK    7  A    between atoms: C16_13  and  C18_14 
REMARK    8  A    between atoms: C18_14  and  O19_15 
ROOT
ATOM      1  N4  <0> d   1      18.206   2.081  12.976  0.00  0.00    -0.058 N 
ATOM      2  H5  <0> d   1      17.719   1.667  12.195  0.00  0.00     0.280 HD
ATOM      3  C6  <0> d   1      17.897   1.329  14.197  0.00  0.00     0.269 C 
ATOM      4  C7  <0> d   1      18.272  -0.143  14.004  0.00  0.00     0.175 C 
ATOM      5  C10 <0> d   1      19.770  -0.247  13.704  0.00  0.00     0.179 C 
ATOM      6  C13 <0> d   1      20.094   0.602  12.471  0.00  0.00     0.182 C 
ATOM      7  C16 <0> d   1      19.652   2.045  12.723  0.00  0.00     0.242 C 
ENDROOT
BRANCH   1   8
ATOM      8  C3  <0> d   1      17.773   3.474  13.138  0.00  0.00     0.261 C 
BRANCH   8   9
ATOM      9  C2  <0> d   1      17.981   3.907  14.592  0.00  0.00     0.192 C 
BRANCH   9  10
ATOM     10  O1  <0> d   1      16.857   4.678  15.023  0.00  0.00    -0.399 OA
ATOM     11  H20 <0> d   1      16.272   4.213  15.635  0.00  0.00     0.209 HD
ENDBRANCH   9  10
ENDBRANCH   8   9
ENDBRANCH   1   8
BRANCH   7  12
ATOM     12  C18 <0> d   1      19.972   2.898  11.493  0.00  0.00     0.200 C 
BRANCH  12  13
ATOM     13  O19 <0> d   1      21.288   3.439  11.617  0.00  0.00    -0.399 OA
ATOM     14  H32 <0> d   1      21.756   3.156  12.415  0.00  0.00     0.209 HD
ENDBRANCH  12  13
ENDBRANCH   7  12
BRANCH   6  15
ATOM     15  O15 <0> d   1      21.501   0.569  12.225  0.00  0.00    -0.391 OA
ATOM     16  H29 <0> d   1      21.736   0.353  11.312  0.00  0.00     0.210 HD
ENDBRANCH   6  15
BRANCH   4  17
ATOM     17  O9  <0> d   1      17.972  -0.873  15.195  0.00  0.00    -0.391 OA
ATOM     18  H27 <0> d   1      17.584  -1.744  15.035  0.00  0.00     0.210 HD
ENDBRANCH   4  17
BRANCH   5  19
ATOM     19  O12 <0> d   1      20.114  -1.611  13.450  0.00  0.00    -0.390 OA
ATOM     20  H28 <0> d   1      20.213  -2.146  14.250  0.00  0.00     0.210 HD
ENDBRANCH   5  19
TORSDOF 8
ENDMDL
MODEL 7
REMARK VINA RESULT:      -4.9      2.595      4.629
REMARK  8 active torsions:
REMARK  status: ('A' for Active; 'I' for Inactive)
REMARK    1  A    between atoms: O1_1  and  C2_2 
REMARK    2  A    between atoms: C2_2  and  C3_3 
REMARK    3  A    between atoms: C3_3  and  N4_4 
REMARK    4  A    between atoms: C7_7  and  O9_8 
REMARK    5  A    between atoms: C10_9  and  O12_10 
REMARK    6  A    between atoms: C13_11  and  O15_12 
REMARK    7  A    between atoms: C16_13  and  C18_14 
REMARK    8  A    between atoms: C18_14  and  O19_15 
ROOT
ATOM      1  N4  <0> d   1      18.097  -2.115  10.034  0.00  0.00    -0.058 N 
ATOM      2  H5  <0> d   1      17.591  -1.577  10.723  0.00  0.00     0.280 HD
ATOM      3  C6  <0> d   1      17.860  -1.547   8.702  0.00  0.00     0.269 C 
ATOM      4  C7  <0> d   1      18.270  -0.072   8.691  0.00  0.00     0.175 C 
ATOM      5  C10 <0> d   1      19.757   0.042   9.039  0.00  0.00     0.179 C 
ATOM      6  C13 <0> d   1      20.006  -0.620  10.397  0.00  0.00     0.182 C 
ATOM      7  C16 <0> d   1      19.533  -2.074  10.343  0.00  0.00     0.242 C 
ENDROOT
BRANCH   1   8
ATOM      8  C3  <0> d   1      17.631  -3.507  10.062  0.00  0.00     0.261 C 
BRANCH   8   9
ATOM      9  C2  <0> d   1      17.691  -4.093   8.649  0.00  0.00     0.192 C 
BRANCH   9  10
ATOM     10  O1  <0> d   1      16.477  -4.795   8.374  0.00  0.00    -0.399 OA
ATOM     11  H20 <0> d   1      16.606  -5.716   8.109  0.00  0.00     0.209 HD
ENDBRANCH   9  10
ENDBRANCH   8   9
ENDBRANCH   1   8
BRANCH   7  12
ATOM     12  C18 <0> d   1      19.777  -2.740  11.699  0.00  0.00     0.200 C 
BRANCH  12  13
ATOM     13  O19 <0> d   1      21.030  -3.429  11.673  0.00  0.00    -0.399 OA
ATOM     14  H32 <0> d   1      21.795  -2.858  11.826  0.00  0.00     0.209 HD
ENDBRANCH  12  13
ENDBRANCH   7  12
BRANCH   6  15
ATOM     15  O15 <0> d   1      21.402  -0.583  10.698  0.00  0.00    -0.391 OA
ATOM     16  H29 <0> d   1      21.625  -0.926  11.574  0.00  0.00     0.210 HD
ENDBRANCH   6  15
BRANCH   4  17
ATOM     17  O9  <0> d   1      18.039   0.478   7.393  0.00  0.00    -0.391 OA
ATOM     18  H27 <0> d   1      18.166   1.435   7.343  0.00  0.00     0.210 HD
ENDBRANCH   4  17
BRANCH   5  19
ATOM     19  O12 <0> d   1      20.129   1.420   9.102  0.00  0.00    -0.390 OA
ATOM     20  H28 <0> d   1      19.461   2.024   8.749  0.00  0.00     0.210 HD
ENDBRANCH   5  19
TORSDOF 8
ENDMDL
MODEL 8
REMARK VINA RESULT:      -4.8      2.663      4.193
REMARK  8 active torsions:
REMARK  status: ('A' for Active; 'I' for Inactive)
REMARK    1  A    between atoms: O1_1  and  C2_2 
REMARK    2  A    between atoms: C2_2  and  C3_3 
REMARK    3  A    between atoms: C3_3  and  N4_4 
REMARK    4  A    between atoms: C7_7  and  O9_8 
REMARK    5  A    between atoms: C10_9  and  O12_10 
REMARK    6  A    between atoms: C13_11  and  O15_12 
REMARK    7  A    between atoms: C16_13  and  C18_14 
REMARK    8  A    between atoms: C18_14  and  O19_15 
ROOT
ATOM      1  N4  <0> d   1      18.527  -0.388  13.283  0.00  0.00    -0.058 N 
ATOM      2  H5  <0> d   1      17.789  -0.300  12.600  0.00  0.00     0.280 HD
ATOM      3  C6  <0> d   1      19.294  -1.610  13.017  0.00  0.00     0.269 C 
ATOM      4  C7  <0> d   1      19.839  -1.574  11.587  0.00  0.00     0.175 C 
ATOM      5  C10 <0> d   1      20.749  -0.354  11.424  0.00  0.00     0.179 C 
ATOM      6  C13 <0> d   1      19.959   0.910  11.777  0.00  0.00     0.182 C 
ATOM      7  C16 <0> d   1      19.411   0.781  13.199  0.00  0.00     0.242 C 
ENDROOT
BRANCH   1   8
ATOM      8  C3  <0> d   1      17.942  -0.462  14.628  0.00  0.00     0.261 C 
BRANCH   8   9
ATOM      9  C2  <0> d   1      18.841  -1.310  15.530  0.00  0.00     0.192 C 
BRANCH   9  10
ATOM     10  O1  <0> d   1      18.884  -0.733  16.837  0.00  0.00    -0.399 OA
ATOM     11  H20 <0> d   1      18.367   0.079  16.926  0.00  0.00     0.209 HD
ENDBRANCH   9  10
ENDBRANCH   8   9
ENDBRANCH   1   8
BRANCH   7  12
ATOM     12  C18 <0> d   1      18.620   2.041  13.556  0.00  0.00     0.200 C 
BRANCH  12  13
ATOM     13  O19 <0> d   1      19.486   2.987  14.186  0.00  0.00    -0.399 OA
ATOM     14  H32 <0> d   1      19.201   3.253  15.071  0.00  0.00     0.209 HD
ENDBRANCH  12  13
ENDBRANCH   7  12
BRANCH   6  15
ATOM     15  O15 <0> d   1      20.819   2.049  11.697  0.00  0.00    -0.391 OA
ATOM     16  H29 <0> d   1      20.985   2.353  10.795  0.00  0.00     0.210 HD
ENDBRANCH   6  15
BRANCH   4  17
ATOM     17  O9  <0> d   1      20.586  -2.765  11.331  0.00  0.00    -0.391 OA
ATOM     18  H27 <0> d   1      20.332  -3.222  10.518  0.00  0.00     0.210 HD
ENDBRANCH   4  17
BRANCH   5  19
ATOM     19  O12 <0> d   1      21.204  -0.274  10.072  0.00  0.00    -0.390 OA
ATOM     20  H28 <0> d   1      20.794   0.439   9.562  0.00  0.00     0.210 HD
ENDBRANCH   5  19
TORSDOF 8
ENDMDL
MODEL 9
REMARK VINA RESULT:      -4.8      1.286      3.957
REMARK  8 active torsions:
REMARK  status: ('A' for Active; 'I' for Inactive)
REMARK    1  A    between atoms: O1_1  and  C2_2 
REMARK    2  A    between atoms: C2_2  and  C3_3 
REMARK    3  A    between atoms: C3_3  and  N4_4 
REMARK    4  A    between atoms: C7_7  and  O9_8 
REMARK    5  A    between atoms: C10_9  and  O12_10 
REMARK    6  A    between atoms: C13_11  and  O15_12 
REMARK    7  A    between atoms: C16_13  and  C18_14 
REMARK    8  A    between atoms: C18_14  and  O19_15 
ROOT
ATOM      1  N4  <0> d   1      18.577   0.461   9.708  0.00  0.00    -0.058 N 
ATOM      2  H5  <0> d   1      17.802   0.353  10.346  0.00  0.00     0.280 HD
ATOM      3  C6  <0> d   1      19.323   1.678  10.049  0.00  0.00     0.269 C 
ATOM      4  C7  <0> d   1      19.786   1.607  11.506  0.00  0.00     0.175 C 
ATOM      5  C10 <0> d   1      20.690   0.385  11.689  0.00  0.00     0.179 C 
ATOM      6  C13 <0> d   1      19.927  -0.872  11.260  0.00  0.00     0.182 C 
ATOM      7  C16 <0> d   1      19.460  -0.708   9.812  0.00  0.00     0.242 C 
ENDROOT
BRANCH   1   8
ATOM      8  C3  <0> d   1      18.069   0.568   8.335  0.00  0.00     0.261 C 
BRANCH   8   9
ATOM      9  C2  <0> d   1      19.061   1.364   7.484  0.00  0.00     0.192 C 
BRANCH   9  10
ATOM     10  O1  <0> d   1      19.096   0.822   6.162  0.00  0.00    -0.399 OA
ATOM     11  H20 <0> d   1      19.901   0.325   5.961  0.00  0.00     0.209 HD
ENDBRANCH   9  10
ENDBRANCH   8   9
ENDBRANCH   1   8
BRANCH   7  12
ATOM     12  C18 <0> d   1      18.696  -1.960   9.379  0.00  0.00     0.200 C 
BRANCH  12  13
ATOM     13  O19 <0> d   1      19.596  -2.875   8.751  0.00  0.00    -0.399 OA
ATOM     14  H32 <0> d   1      20.529  -2.682   8.913  0.00  0.00     0.209 HD
ENDBRANCH  12  13
ENDBRANCH   7  12
BRANCH   6  15
ATOM     15  O15 <0> d   1      20.786  -2.009  11.359  0.00  0.00    -0.391 OA
ATOM     16  H29 <0> d   1      20.988  -2.424  10.510  0.00  0.00     0.210 HD
ENDBRANCH   6  15
BRANCH   4  17
ATOM     17  O9  <0> d   1      20.512   2.793  11.835  0.00  0.00    -0.391 OA
ATOM     18  H27 <0> d   1      19.974   3.596  11.834  0.00  0.00     0.210 HD
ENDBRANCH   4  17
BRANCH   5  19
ATOM     19  O12 <0> d   1      21.068   0.271  13.063  0.00  0.00    -0.390 OA
ATOM     20  H28 <0> d   1      21.898  -0.204  13.203  0.00  0.00     0.210 HD
ENDBRANCH   5  19
TORSDOF 8
ENDMDL
