MODEL 1
REMARK VINA RESULT:      -7.7      0.000      0.000
REMARK  2 active torsions:
REMARK  status: ('A' for Active; 'I' for Inactive)
REMARK    1  A    between atoms: C15_14  and  O16_15 
REMARK    2  A    between atoms: C23_21  and  O24_22 
ROOT
ATOM      1  C1  ZIN A   1      18.076  -1.151   7.486  0.00  0.00     0.310 C 
ATOM      2  N2  ZIN A   1      18.659  -1.204   8.833  0.00  0.00     0.092 N 
ATOM      3  C3  ZIN A   1      19.886  -0.402   8.907  0.00  0.00     0.273 C 
ATOM      4  C4  ZIN A   1      20.534  -0.568  10.287  0.00  0.00     0.051 C 
ATOM      5  C5  ZIN A   1      19.518  -0.161  11.350  0.00  0.00     0.058 C 
ATOM      6  C6  ZIN A   1      19.060   1.255  11.100  0.00  0.00    -0.001 C 
ATOM      7  C7  ZIN A   1      19.804   2.090  11.921  0.00  0.00     0.110 C 
ATOM      8  O8  ZIN A   1      20.623   1.361  12.711  0.00  0.00    -0.334 OA
ATOM      9  C9  ZIN A   1      20.158  -0.022  12.725  0.00  0.00     0.214 C 
ATOM     10  C11 ZIN A   1      19.169  -0.149  13.846  0.00  0.00     0.157 C 
ATOM     11  O12 ZIN A   1      19.424   0.377  14.902  0.00  0.00    -0.295 OA
ATOM     12  C13 ZIN A   1      17.877  -0.900  13.715  0.00  0.00     0.084 C 
ATOM     13  C14 ZIN A   1      17.251  -0.627  12.347  0.00  0.00     0.049 C 
ATOM     14  C15 ZIN A   1      18.272  -1.026  11.241  0.00  0.00     0.104 C 
ATOM     15  C17 ZIN A   1      17.676  -0.804   9.848  0.00  0.00     0.262 C 
ATOM     16  C19 ZIN A   1      17.217   0.621   9.587  0.00  0.00     0.078 C 
ATOM     17  C20 ZIN A   1      18.018   1.651  10.293  0.00  0.00    -0.046 C 
ATOM     18  C21 ZIN A   1      17.815   3.017  10.193  0.00  0.00     0.011 C 
ATOM     19  C22 ZIN A   1      18.574   3.893  10.953  0.00  0.00     0.040 C 
ATOM     20  C23 ZIN A   1      19.576   3.468  11.834  0.00  0.00     0.099 C 
ENDROOT
BRANCH  14  21
ATOM     21  O16 ZIN A   1      18.631  -2.401  11.394  0.00  0.00    -0.386 OA
ATOM     22  H36 ZIN A   1      19.581  -2.552  11.477  0.00  0.00     0.210 HD
ENDBRANCH  14  21
BRANCH  20  23
ATOM     23  O24 ZIN A   1      20.278   4.353  12.591  0.00  0.00    -0.358 OA
ATOM     24  H41 ZIN A   1      20.550   4.006  13.452  0.00  0.00     0.217 HD
ENDBRANCH  20  23
TORSDOF 2
ENDMDL
MODEL 2
REMARK VINA RESULT:      -7.4      2.266      4.998
REMARK  2 active torsions:
REMARK  status: ('A' for Active; 'I' for Inactive)
REMARK    1  A    between atoms: C15_14  and  O16_15 
REMARK    2  A    between atoms: C23_21  and  O24_22 
ROOT
ATOM      1  C1  ZIN A   1      18.730   0.643  15.467  0.00  0.00     0.310 C 
ATOM      2  N2  ZIN A   1      19.235   1.050  14.149  0.00  0.00     0.092 N 
ATOM      3  C3  ZIN A   1      20.238   0.099  13.653  0.00  0.00     0.273 C 
ATOM      4  C4  ZIN A   1      20.830   0.609  12.334  0.00  0.00     0.051 C 
ATOM      5  C5  ZIN A   1      19.690   0.810  11.339  0.00  0.00     0.058 C 
ATOM      6  C6  ZIN A   1      18.932  -0.483  11.164  0.00  0.00    -0.001 C 
ATOM      7  C7  ZIN A   1      19.417  -1.105  10.023  0.00  0.00     0.110 C 
ATOM      8  O8  ZIN A   1      20.337  -0.323   9.418  0.00  0.00    -0.334 OA
ATOM      9  C9  ZIN A   1      20.204   1.040   9.924  0.00  0.00     0.214 C 
ATOM     10  C11 ZIN A   1      19.211   1.746   9.048  0.00  0.00     0.157 C 
ATOM     11  O12 ZIN A   1      19.279   1.585   7.853  0.00  0.00    -0.295 OA
ATOM     12  C13 ZIN A   1      18.136   2.642   9.588  0.00  0.00     0.084 C 
ATOM     13  C14 ZIN A   1      17.540   2.034  10.859  0.00  0.00     0.049 C 
ATOM     14  C15 ZIN A   1      18.685   1.810  11.890  0.00  0.00     0.104 C 
ATOM     15  C17 ZIN A   1      18.132   1.235  13.198  0.00  0.00     0.262 C 
ATOM     16  C19 ZIN A   1      17.372  -0.070  13.031  0.00  0.00     0.078 C 
ATOM     17  C20 ZIN A   1      17.873  -0.924  11.925  0.00  0.00    -0.046 C 
ATOM     18  C21 ZIN A   1      17.366  -2.168  11.594  0.00  0.00     0.011 C 
ATOM     19  C22 ZIN A   1      17.859  -2.853  10.494  0.00  0.00     0.040 C 
ATOM     20  C23 ZIN A   1      18.882  -2.352   9.679  0.00  0.00     0.099 C 
ENDROOT
BRANCH  14  21
ATOM     21  O16 ZIN A   1      19.342   3.051  12.154  0.00  0.00    -0.386 OA
ATOM     22  H36 ZIN A   1      18.858   3.631  12.756  0.00  0.00     0.210 HD
ENDBRANCH  14  21
BRANCH  20  23
ATOM     23  O24 ZIN A   1      19.319  -3.034   8.587  0.00  0.00    -0.358 OA
ATOM     24  H41 ZIN A   1      19.683  -3.908   8.788  0.00  0.00     0.217 HD
ENDBRANCH  20  23
TORSDOF 2
ENDMDL
MODEL 3
REMARK VINA RESULT:      -7.3      2.074      4.211
REMARK  2 active torsions:
REMARK  status: ('A' for Active; 'I' for Inactive)
REMARK    1  A    between atoms: C15_14  and  O16_15 
REMARK    2  A    between atoms: C23_21  and  O24_22 
ROOT
ATOM      1  C1  ZIN A   1      18.913  -3.704  10.657  0.00  0.00     0.310 C 
ATOM      2  N2  ZIN A   1      18.605  -2.273  10.777  0.00  0.00     0.092 N 
ATOM      3  C3  ZIN A   1      17.333  -2.066  11.480  0.00  0.00     0.273 C 
ATOM      4  C4  ZIN A   1      16.980  -0.574  11.489  0.00  0.00     0.051 C 
ATOM      5  C5  ZIN A   1      18.128   0.190  12.145  0.00  0.00     0.058 C 
ATOM      6  C6  ZIN A   1      18.371  -0.349  13.533  0.00  0.00    -0.001 C 
ATOM      7  C7  ZIN A   1      17.709   0.478  14.428  0.00  0.00     0.110 C 
ATOM      8  O8  ZIN A   1      17.140   1.515  13.775  0.00  0.00    -0.334 OA
ATOM      9  C9  ZIN A   1      17.749   1.632  12.454  0.00  0.00     0.214 C 
ATOM     10  C11 ZIN A   1      18.940   2.534  12.590  0.00  0.00     0.157 C 
ATOM     11  O12 ZIN A   1      18.833   3.533  13.259  0.00  0.00    -0.295 OA
ATOM     12  C13 ZIN A   1      20.258   2.251  11.933  0.00  0.00     0.084 C 
ATOM     13  C14 ZIN A   1      20.580   0.759  12.029  0.00  0.00     0.049 C 
ATOM     14  C15 ZIN A   1      19.418  -0.046  11.375  0.00  0.00     0.104 C 
ATOM     15  C17 ZIN A   1      19.711  -1.549  11.414  0.00  0.00     0.262 C 
ATOM     16  C19 ZIN A   1      19.952  -2.100  12.809  0.00  0.00     0.078 C 
ATOM     17  C20 ZIN A   1      19.191  -1.401  13.874  0.00  0.00    -0.046 C 
ATOM     18  C21 ZIN A   1      19.219  -1.735  15.216  0.00  0.00     0.011 C 
ATOM     19  C22 ZIN A   1      18.526  -0.970  16.141  0.00  0.00     0.040 C 
ATOM     20  C23 ZIN A   1      17.762   0.149  15.787  0.00  0.00     0.099 C 
ENDROOT
BRANCH  14  21
ATOM     21  O16 ZIN A   1      19.250   0.373  10.019  0.00  0.00    -0.386 OA
ATOM     22  H36 ZIN A   1      20.013   0.195   9.455  0.00  0.00     0.210 HD
ENDBRANCH  14  21
BRANCH  20  23
ATOM     23  O24 ZIN A   1      17.123   0.898  16.724  0.00  0.00    -0.358 OA
ATOM     24  H41 ZIN A   1      17.060   0.475  17.591  0.00  0.00     0.217 HD
ENDBRANCH  20  23
TORSDOF 2
ENDMDL
MODEL 4
REMARK VINA RESULT:      -7.1      2.112      4.648
REMARK  2 active torsions:
REMARK  status: ('A' for Active; 'I' for Inactive)
REMARK    1  A    between atoms: C15_14  and  O16_15 
REMARK    2  A    between atoms: C23_21  and  O24_22 
ROOT
ATOM      1  C1  ZIN A   1      18.763   0.299   6.197  0.00  0.00     0.310 C 
ATOM      2  N2  ZIN A   1      18.569   0.439   7.646  0.00  0.00     0.092 N 
ATOM      3  C3  ZIN A   1      17.242  -0.044   8.048  0.00  0.00     0.273 C 
ATOM      4  C4  ZIN A   1      17.022   0.222   9.542  0.00  0.00     0.051 C 
ATOM      5  C5  ZIN A   1      18.142  -0.461  10.324  0.00  0.00     0.058 C 
ATOM      6  C6  ZIN A   1      18.163  -1.935  10.001  0.00  0.00    -0.001 C 
ATOM      7  C7  ZIN A   1      17.468  -2.595  11.004  0.00  0.00     0.110 C 
ATOM      8  O8  ZIN A   1      17.078  -1.721  11.957  0.00  0.00    -0.334 OA
ATOM      9  C9  ZIN A   1      17.855  -0.493  11.819  0.00  0.00     0.214 C 
ATOM     10  C11 ZIN A   1      19.093  -0.652  12.649  0.00  0.00     0.157 C 
ATOM     11  O12 ZIN A   1      18.992  -1.142  13.749  0.00  0.00    -0.295 OA
ATOM     12  C13 ZIN A   1      20.454  -0.233  12.178  0.00  0.00     0.084 C 
ATOM     13  C14 ZIN A   1      20.630  -0.597  10.702  0.00  0.00     0.049 C 
ATOM     14  C15 ZIN A   1      19.493   0.080   9.882  0.00  0.00     0.104 C 
ATOM     15  C17 ZIN A   1      19.647  -0.225   8.388  0.00  0.00     0.262 C 
ATOM     16  C19 ZIN A   1      19.663  -1.708   8.055  0.00  0.00     0.078 C 
ATOM     17  C20 ZIN A   1      18.838  -2.540   8.966  0.00  0.00    -0.046 C 
ATOM     18  C21 ZIN A   1      18.671  -3.909   8.852  0.00  0.00     0.011 C 
ATOM     19  C22 ZIN A   1      17.937  -4.604   9.801  0.00  0.00     0.040 C 
ATOM     20  C23 ZIN A   1      17.323  -3.983  10.897  0.00  0.00     0.099 C 
ENDROOT
BRANCH  14  21
ATOM     21  O16 ZIN A   1      19.531   1.494  10.086  0.00  0.00    -0.386 OA
ATOM     22  H36 ZIN A   1      20.399   1.890   9.931  0.00  0.00     0.210 HD
ENDBRANCH  14  21
BRANCH  20  23
ATOM     23  O24 ZIN A   1      16.640  -4.699  11.828  0.00  0.00    -0.358 OA
ATOM     24  H41 ZIN A   1      16.000  -5.321  11.455  0.00  0.00     0.217 HD
ENDBRANCH  20  23
TORSDOF 2
ENDMDL
MODEL 5
REMARK VINA RESULT:      -7.0      2.192      4.512
REMARK  2 active torsions:
REMARK  status: ('A' for Active; 'I' for Inactive)
REMARK    1  A    between atoms: C15_14  and  O16_15 
REMARK    2  A    between atoms: C23_21  and  O24_22 
ROOT
ATOM      1  C1  ZIN A   1      18.966   3.744  12.428  0.00  0.00     0.310 C 
ATOM      2  N2  ZIN A   1      18.646   2.315  12.304  0.00  0.00     0.092 N 
ATOM      3  C3  ZIN A   1      17.369   2.121  11.606  0.00  0.00     0.273 C 
ATOM      4  C4  ZIN A   1      17.004   0.631  11.595  0.00  0.00     0.051 C 
ATOM      5  C5  ZIN A   1      18.143  -0.139  10.931  0.00  0.00     0.058 C 
ATOM      6  C6  ZIN A   1      18.383   0.402   9.543  0.00  0.00    -0.001 C 
ATOM      7  C7  ZIN A   1      17.710  -0.417   8.649  0.00  0.00     0.110 C 
ATOM      8  O8  ZIN A   1      17.136  -1.451   9.302  0.00  0.00    -0.334 OA
ATOM      9  C9  ZIN A   1      17.750  -1.577  10.620  0.00  0.00     0.214 C 
ATOM     10  C11 ZIN A   1      18.933  -2.488  10.475  0.00  0.00     0.157 C 
ATOM     11  O12 ZIN A   1      18.815  -3.484   9.803  0.00  0.00    -0.295 OA
ATOM     12  C13 ZIN A   1      20.257  -2.218  11.125  0.00  0.00     0.084 C 
ATOM     13  C14 ZIN A   1      20.590  -0.728  11.033  0.00  0.00     0.049 C 
ATOM     14  C15 ZIN A   1      19.438   0.084  11.695  0.00  0.00     0.104 C 
ATOM     15  C17 ZIN A   1      19.743   1.584  11.660  0.00  0.00     0.262 C 
ATOM     16  C19 ZIN A   1      19.982   2.138  10.265  0.00  0.00     0.078 C 
ATOM     17  C20 ZIN A   1      19.209   1.449   9.202  0.00  0.00    -0.046 C 
ATOM     18  C21 ZIN A   1      19.235   1.787   7.860  0.00  0.00     0.011 C 
ATOM     19  C22 ZIN A   1      18.531   1.030   6.936  0.00  0.00     0.040 C 
ATOM     20  C23 ZIN A   1      17.759  -0.084   7.291  0.00  0.00     0.099 C 
ENDROOT
BRANCH  14  21
ATOM     21  O16 ZIN A   1      19.273  -0.339  13.051  0.00  0.00    -0.386 OA
ATOM     22  H36 ZIN A   1      19.292  -1.297  13.168  0.00  0.00     0.210 HD
ENDBRANCH  14  21
BRANCH  20  23
ATOM     23  O24 ZIN A   1      17.109  -0.824   6.354  0.00  0.00    -0.358 OA
ATOM     24  H41 ZIN A   1      17.589  -1.616   6.076  0.00  0.00     0.217 HD
ENDBRANCH  20  23
TORSDOF 2
ENDMDL
MODEL 6
REMARK VINA RESULT:      -6.9      2.145      4.068
REMARK  2 active torsions:
REMARK  status: ('A' for Active; 'I' for Inactive)
REMARK    1  A    between atoms: C15_14  and  O16_15 
REMARK    2  A    between atoms: C23_21  and  O24_22 
ROOT
ATOM      1  C1  ZIN A   1      18.306  -0.624  15.483  0.00  0.00     0.310 C 
ATOM      2  N2  ZIN A   1      18.185  -0.725  14.022  0.00  0.00     0.092 N 
ATOM      3  C3  ZIN A   1      17.026   0.034  13.536  0.00  0.00     0.273 C 
ATOM      4  C4  ZIN A   1      16.856  -0.183  12.028  0.00  0.00     0.051 C 
ATOM      5  C5  ZIN A   1      18.149   0.237  11.332  0.00  0.00     0.058 C 
ATOM      6  C6  ZIN A   1      18.466   1.673  11.671  0.00  0.00    -0.001 C 
ATOM      7  C7  ZIN A   1      18.002   2.464  10.631  0.00  0.00     0.110 C 
ATOM      8  O8  ZIN A   1      17.497   1.692   9.645  0.00  0.00    -0.334 OA
ATOM      9  C9  ZIN A   1      17.978   0.325   9.821  0.00  0.00     0.214 C 
ATOM     10  C11 ZIN A   1      19.275   0.209   9.078  0.00  0.00     0.157 C 
ATOM     11  O12 ZIN A   1      19.358   0.705   7.980  0.00  0.00    -0.295 OA
ATOM     12  C13 ZIN A   1      20.477  -0.494   9.636  0.00  0.00     0.084 C 
ATOM     13  C14 ZIN A   1      20.626  -0.172  11.124  0.00  0.00     0.049 C 
ATOM     14  C15 ZIN A   1      19.316  -0.583  11.858  0.00  0.00     0.104 C 
ATOM     15  C17 ZIN A   1      19.430  -0.313  13.362  0.00  0.00     0.262 C 
ATOM     16  C19 ZIN A   1      19.745   1.132  13.712  0.00  0.00     0.078 C 
ATOM     17  C20 ZIN A   1      19.185   2.120  12.756  0.00  0.00    -0.046 C 
ATOM     18  C21 ZIN A   1      19.311   3.493  12.874  0.00  0.00     0.011 C 
ATOM     19  C22 ZIN A   1      18.812   4.328  11.886  0.00  0.00     0.040 C 
ATOM     20  C23 ZIN A   1      18.155   3.851  10.745  0.00  0.00     0.099 C 
ENDROOT
BRANCH  14  21
ATOM     21  O16 ZIN A   1      19.061  -1.972  11.640  0.00  0.00    -0.386 OA
ATOM     22  H36 ZIN A   1      19.453  -2.553  12.306  0.00  0.00     0.210 HD
ENDBRANCH  14  21
BRANCH  20  23
ATOM     23  O24 ZIN A   1      17.708   4.695   9.777  0.00  0.00    -0.358 OA
ATOM     24  H41 ZIN A   1      16.933   5.214  10.034  0.00  0.00     0.217 HD
ENDBRANCH  20  23
TORSDOF 2
ENDMDL
MODEL 7
REMARK VINA RESULT:      -6.9      2.322      4.873
REMARK  2 active torsions:
REMARK  status: ('A' for Active; 'I' for Inactive)
REMARK    1  A    between atoms: C15_14  and  O16_15 
REMARK    2  A    between atoms: C23_21  and  O24_22 
ROOT
ATOM      1  C1  ZIN A   1      17.702   3.317  13.691  0.00  0.00     0.310 C 
ATOM      2  N2  ZIN A   1      18.287   2.838  12.431  0.00  0.00     0.092 N 
ATOM      3  C3  ZIN A   1      19.627   2.281  12.651  0.00  0.00     0.273 C 
ATOM      4  C4  ZIN A   1      20.258   1.898  11.307  0.00  0.00     0.051 C 
ATOM      5  C5  ZIN A   1      19.333   0.907  10.605  0.00  0.00     0.058 C 
ATOM      6  C6  ZIN A   1      19.104  -0.292  11.493  0.00  0.00    -0.001 C 
ATOM      7  C7  ZIN A   1      19.982  -1.288  11.091  0.00  0.00     0.110 C 
ATOM      8  O8  ZIN A   1      20.684  -0.885  10.009  0.00  0.00    -0.334 OA
ATOM      9  C9  ZIN A   1      20.004   0.255   9.403  0.00  0.00     0.214 C 
ATOM     10  C11 ZIN A   1      19.022  -0.287   8.408  0.00  0.00     0.157 C 
ATOM     11  O12 ZIN A   1      19.371  -1.192   7.688  0.00  0.00    -0.295 OA
ATOM     12  C13 ZIN A   1      17.626   0.240   8.266  0.00  0.00     0.084 C 
ATOM     13  C14 ZIN A   1      17.033   0.529   9.646  0.00  0.00     0.049 C 
ATOM     14  C15 ZIN A   1      17.964   1.532  10.389  0.00  0.00     0.104 C 
ATOM     15  C17 ZIN A   1      17.393   1.882  11.767  0.00  0.00     0.262 C 
ATOM     16  C19 ZIN A   1      17.164   0.680  12.669  0.00  0.00     0.078 C 
ATOM     17  C20 ZIN A   1      18.129  -0.428  12.454  0.00  0.00    -0.046 C 
ATOM     18  C21 ZIN A   1      18.144  -1.612  13.170  0.00  0.00     0.011 C 
ATOM     19  C22 ZIN A   1      19.043  -2.615  12.840  0.00  0.00     0.040 C 
ATOM     20  C23 ZIN A   1      19.976  -2.493  11.802  0.00  0.00     0.099 C 
ENDROOT
BRANCH  14  21
ATOM     21  O16 ZIN A   1      18.100   2.724   9.612  0.00  0.00    -0.386 OA
ATOM     22  H36 ZIN A   1      18.875   3.255   9.840  0.00  0.00     0.210 HD
ENDBRANCH  14  21
BRANCH  20  23
ATOM     23  O24 ZIN A   1      20.820  -3.510  11.483  0.00  0.00    -0.358 OA
ATOM     24  H41 ZIN A   1      21.661  -3.220  11.105  0.00  0.00     0.217 HD
ENDBRANCH  20  23
TORSDOF 2
ENDMDL
MODEL 8
REMARK VINA RESULT:      -6.8      2.592      5.638
REMARK  2 active torsions:
REMARK  status: ('A' for Active; 'I' for Inactive)
REMARK    1  A    between atoms: C15_14  and  O16_15 
REMARK    2  A    between atoms: C23_21  and  O24_22 
ROOT
ATOM      1  C1  ZIN A   1      19.243   1.243  13.000  0.00  0.00     0.310 C 
ATOM      2  N2  ZIN A   1      19.428   0.876  11.589  0.00  0.00     0.092 N 
ATOM      3  C3  ZIN A   1      20.386  -0.227  11.453  0.00  0.00     0.273 C 
ATOM      4  C4  ZIN A   1      20.647  -0.510   9.969  0.00  0.00     0.051 C 
ATOM      5  C5  ZIN A   1      19.313  -0.823   9.296  0.00  0.00     0.058 C 
ATOM      6  C6  ZIN A   1      18.652  -1.987   9.992  0.00  0.00    -0.001 C 
ATOM      7  C7  ZIN A   1      18.944  -3.133   9.268  0.00  0.00     0.110 C 
ATOM      8  O8  ZIN A   1      19.648  -2.819   8.158  0.00  0.00    -0.334 OA
ATOM      9  C9  ZIN A   1      19.502  -1.391   7.895  0.00  0.00     0.214 C 
ATOM     10  C11 ZIN A   1      18.293  -1.218   7.025  0.00  0.00     0.157 C 
ATOM     11  O12 ZIN A   1      18.127  -1.987   6.108  0.00  0.00    -0.295 OA
ATOM     12  C13 ZIN A   1      17.278  -0.135   7.242  0.00  0.00     0.084 C 
ATOM     13  C14 ZIN A   1      17.012   0.040   8.738  0.00  0.00     0.049 C 
ATOM     14  C15 ZIN A   1      18.361   0.352   9.452  0.00  0.00     0.104 C 
ATOM     15  C17 ZIN A   1      18.141   0.571  10.952  0.00  0.00     0.262 C 
ATOM     16  C19 ZIN A   1      17.480  -0.598  11.662  0.00  0.00     0.078 C 
ATOM     17  C20 ZIN A   1      17.816  -1.923  11.083  0.00  0.00    -0.046 C 
ATOM     18  C21 ZIN A   1      17.362  -3.137  11.570  0.00  0.00     0.011 C 
ATOM     19  C22 ZIN A   1      17.676  -4.315  10.910  0.00  0.00     0.040 C 
ATOM     20  C23 ZIN A   1      18.461  -4.355   9.751  0.00  0.00     0.099 C 
ENDROOT
BRANCH  14  21
ATOM     21  O16 ZIN A   1      18.947   1.522   8.879  0.00  0.00    -0.386 OA
ATOM     22  H36 ZIN A   1      19.110   2.231   9.514  0.00  0.00     0.210 HD
ENDBRANCH  14  21
BRANCH  20  23
ATOM     23  O24 ZIN A   1      18.721  -5.524   9.109  0.00  0.00    -0.358 OA
ATOM     24  H41 ZIN A   1      17.959  -5.898   8.647  0.00  0.00     0.217 HD
ENDBRANCH  20  23
TORSDOF 2
ENDMDL
MODEL 9
REMARK VINA RESULT:      -6.6      2.096      3.836
REMARK  2 active torsions:
REMARK  status: ('A' for Active; 'I' for Inactive)
REMARK    1  A    between atoms: C15_14  and  O16_15 
REMARK    2  A    between atoms: C23_21  and  O24_22 
ROOT
ATOM      1  C1  ZIN A   1      19.099  -3.814  11.280  0.00  0.00     0.310 C 
ATOM      2  N2  ZIN A   1      18.555  -2.555  10.754  0.00  0.00     0.092 N 
ATOM      3  C3  ZIN A   1      17.439  -2.078  11.579  0.00  0.00     0.273 C 
ATOM      4  C4  ZIN A   1      16.818  -0.828  10.943  0.00  0.00     0.051 C 
ATOM      5  C5  ZIN A   1      17.909   0.228  10.789  0.00  0.00     0.058 C 
ATOM      6  C6  ZIN A   1      18.530   0.518  12.134  0.00  0.00    -0.001 C 
ATOM      7  C7  ZIN A   1      17.920   1.655  12.642  0.00  0.00     0.110 C 
ATOM      8  O8  ZIN A   1      17.043   2.157  11.746  0.00  0.00    -0.334 OA
ATOM      9  C9  ZIN A   1      17.335   1.592  10.432  0.00  0.00     0.214 C 
ATOM     10  C11 ZIN A   1      18.334   2.493   9.771  0.00  0.00     0.157 C 
ATOM     11  O12 ZIN A   1      18.179   3.688   9.856  0.00  0.00    -0.295 OA
ATOM     12  C13 ZIN A   1      19.519   1.980   9.008  0.00  0.00     0.084 C 
ATOM     13  C14 ZIN A   1      20.132   0.784   9.740  0.00  0.00     0.049 C 
ATOM     14  C15 ZIN A   1      19.035  -0.307   9.918  0.00  0.00     0.104 C 
ATOM     15  C17 ZIN A   1      19.611  -1.544  10.615  0.00  0.00     0.262 C 
ATOM     16  C19 ZIN A   1      20.233  -1.260  11.972  0.00  0.00     0.078 C 
ATOM     17  C20 ZIN A   1      19.587  -0.147  12.712  0.00  0.00    -0.046 C 
ATOM     18  C21 ZIN A   1      19.953   0.280  13.976  0.00  0.00     0.011 C 
ATOM     19  C22 ZIN A   1      19.332   1.379  14.548  0.00  0.00     0.040 C 
ATOM     20  C23 ZIN A   1      18.313   2.098  13.911  0.00  0.00     0.099 C 
ENDROOT
BRANCH  14  21
ATOM     21  O16 ZIN A   1      18.516  -0.678   8.640  0.00  0.00    -0.386 OA
ATOM     22  H36 ZIN A   1      18.374   0.068   8.042  0.00  0.00     0.210 HD
ENDBRANCH  14  21
BRANCH  20  23
ATOM     23  O24 ZIN A   1      17.748   3.192  14.487  0.00  0.00    -0.358 OA
ATOM     24  H41 ZIN A   1      16.834   3.060  14.773  0.00  0.00     0.217 HD
ENDBRANCH  20  23
TORSDOF 2
ENDMDL
