MODEL 1
REMARK VINA RESULT:      -6.9      0.000      0.000
REMARK  6 active torsions:
REMARK  status: ('A' for Active; 'I' for Inactive)
REMARK    1  A    between atoms: N1_1  and  C2_2 
REMARK    2  A    between atoms: N6_6  and  C7_7 
REMARK    3  A    between atoms: C10_9  and  C12_10 
REMARK    4  A    between atoms: C12_10  and  O13_11 
REMARK    5  A    between atoms: C14_12  and  O16_13 
REMARK    6  A    between atoms: C17_14  and  O19_15 
ROOT
ATOM      1  C2  ZIN A   1      17.906   3.889  10.274  0.00  0.00     0.155 A 
ATOM      2  C3  ZIN A   1      18.515   2.802   9.625  0.00  0.00     0.149 A 
ATOM      3  N4  ZIN A   1      19.080   2.614   8.408  0.00  0.00    -0.236 NA
ATOM      4  C5  ZIN A   1      19.503   1.386   8.312  0.00  0.00     0.214 A 
ATOM      5  N6  ZIN A   1      19.237   0.710   9.465  0.00  0.00    -0.294 N 
ATOM      6  C20 ZIN A   1      18.610   1.583  10.318  0.00  0.00     0.167 A 
ATOM      7  N21 ZIN A   1      18.124   1.503  11.552  0.00  0.00    -0.222 NA
ATOM      8  C22 ZIN A   1      17.561   2.548  12.122  0.00  0.00     0.237 A 
ATOM      9  N23 ZIN A   1      17.454   3.715  11.512  0.00  0.00    -0.222 NA
ENDROOT
BRANCH   5  10
ATOM     10  C7  ZIN A   1      19.561  -0.691   9.742  0.00  0.00     0.262 C 
ATOM     11  C17 ZIN A   1      20.235  -0.832  11.131  0.00  0.00     0.198 C 
ATOM     12  C14 ZIN A   1      19.908  -2.301  11.501  0.00  0.00     0.182 C 
ATOM     13  C10 ZIN A   1      18.699  -2.655  10.614  0.00  0.00     0.179 C 
ATOM     14  O9  ZIN A   1      18.356  -1.477   9.867  0.00  0.00    -0.353 OA
BRANCH  11  15
ATOM     15  O19 ZIN A   1      21.646  -0.629  11.043  0.00  0.00    -0.388 OA
ATOM     16  H31 ZIN A   1      22.163  -1.208  11.621  0.00  0.00     0.210 HD
ENDBRANCH  11  15
BRANCH  12  17
ATOM     17  O16 ZIN A   1      21.017  -3.150  11.198  0.00  0.00    -0.390 OA
ATOM     18  H30 ZIN A   1      20.915  -4.058  11.516  0.00  0.00     0.210 HD
ENDBRANCH  12  17
BRANCH  13  19
ATOM     19  C12 ZIN A   1      17.516  -3.081  11.487  0.00  0.00     0.198 C 
BRANCH  19  20
ATOM     20  O13 ZIN A   1      16.901  -1.922  12.054  0.00  0.00    -0.398 OA
ATOM     21  H29 ZIN A   1      17.433  -1.119  11.980  0.00  0.00     0.209 HD
ENDBRANCH  19  20
ENDBRANCH  13  19
ENDBRANCH   5  10
BRANCH   1  22
ATOM     22  N1  ZIN A   1      17.785   5.114   9.642  0.00  0.00    -0.382 N 
ATOM     23  H24 ZIN A   1      18.281   5.880   9.971  0.00  0.00     0.157 HD
ATOM     24  H25 ZIN A   1      17.209   5.204   8.867  0.00  0.00     0.157 HD
ENDBRANCH   1  22
TORSDOF 6
ENDMDL
MODEL 2
REMARK VINA RESULT:      -6.8      3.262      5.436
REMARK  6 active torsions:
REMARK  status: ('A' for Active; 'I' for Inactive)
REMARK    1  A    between atoms: N1_1  and  C2_2 
REMARK    2  A    between atoms: N6_6  and  C7_7 
REMARK    3  A    between atoms: C10_9  and  C12_10 
REMARK    4  A    between atoms: C12_10  and  O13_11 
REMARK    5  A    between atoms: C14_12  and  O16_13 
REMARK    6  A    between atoms: C17_14  and  O19_15 
ROOT
ATOM      1  C2  ZIN A   1      16.922  -4.679   8.898  0.00  0.00     0.155 A 
ATOM      2  C3  ZIN A   1      17.769  -3.578   9.108  0.00  0.00     0.149 A 
ATOM      3  N4  ZIN A   1      18.465  -2.744   8.300  0.00  0.00    -0.236 NA
ATOM      4  C5  ZIN A   1      19.105  -1.872   9.024  0.00  0.00     0.214 A 
ATOM      5  N6  ZIN A   1      18.856  -2.092  10.346  0.00  0.00    -0.294 N 
ATOM      6  C20 ZIN A   1      18.011  -3.169  10.431  0.00  0.00     0.167 A 
ATOM      7  N21 ZIN A   1      17.434  -3.834  11.427  0.00  0.00    -0.222 NA
ATOM      8  C22 ZIN A   1      16.648  -4.861  11.183  0.00  0.00     0.237 A 
ATOM      9  N23 ZIN A   1      16.387  -5.278   9.957  0.00  0.00    -0.222 NA
ENDROOT
BRANCH   5  10
ATOM     10  C7  ZIN A   1      19.393  -1.321  11.470  0.00  0.00     0.262 C 
ATOM     11  C17 ZIN A   1      20.398  -0.253  10.968  0.00  0.00     0.198 C 
ATOM     12  C14 ZIN A   1      20.339   0.803  12.102  0.00  0.00     0.182 C 
ATOM     13  C10 ZIN A   1      18.997   0.527  12.807  0.00  0.00     0.179 C 
ATOM     14  O9  ZIN A   1      18.352  -0.542  12.096  0.00  0.00    -0.353 OA
BRANCH  11  15
ATOM     15  O19 ZIN A   1      21.713  -0.798  10.846  0.00  0.00    -0.388 OA
ATOM     16  H31 ZIN A   1      22.310  -0.551  11.566  0.00  0.00     0.210 HD
ENDBRANCH  11  15
BRANCH  12  17
ATOM     17  O16 ZIN A   1      21.428   0.621  13.009  0.00  0.00    -0.390 OA
ATOM     18  H30 ZIN A   1      22.108   0.011  12.691  0.00  0.00     0.210 HD
ENDBRANCH  12  17
BRANCH  13  19
ATOM     19  C12 ZIN A   1      18.120   1.781  12.772  0.00  0.00     0.198 C 
BRANCH  19  20
ATOM     20  O13 ZIN A   1      17.167   1.665  11.714  0.00  0.00    -0.398 OA
ATOM     21  H29 ZIN A   1      17.107   0.778  11.333  0.00  0.00     0.209 HD
ENDBRANCH  19  20
ENDBRANCH  13  19
ENDBRANCH   5  10
BRANCH   1  22
ATOM     22  N1  ZIN A   1      16.646  -5.126   7.618  0.00  0.00    -0.382 N 
ATOM     23  H24 ZIN A   1      17.234  -4.886   6.884  0.00  0.00     0.157 HD
ATOM     24  H25 ZIN A   1      15.870  -5.683   7.455  0.00  0.00     0.157 HD
ENDBRANCH   1  22
TORSDOF 6
ENDMDL
MODEL 3
REMARK VINA RESULT:      -6.7      2.944      5.030
REMARK  6 active torsions:
REMARK  status: ('A' for Active; 'I' for Inactive)
REMARK    1  A    between atoms: N1_1  and  C2_2 
REMARK    2  A    between atoms: N6_6  and  C7_7 
REMARK    3  A    between atoms: C10_9  and  C12_10 
REMARK    4  A    between atoms: C12_10  and  O13_11 
REMARK    5  A    between atoms: C14_12  and  O16_13 
REMARK    6  A    between atoms: C17_14  and  O19_15 
ROOT
ATOM      1  C2  ZIN A   1      19.228  -1.739   5.554  0.00  0.00     0.155 A 
ATOM      2  C3  ZIN A   1      19.117  -0.776   6.570  0.00  0.00     0.149 A 
ATOM      3  N4  ZIN A   1      18.927   0.565   6.596  0.00  0.00    -0.236 NA
ATOM      4  C5  ZIN A   1      18.902   0.976   7.830  0.00  0.00     0.214 A 
ATOM      5  N6  ZIN A   1      19.073  -0.079   8.676  0.00  0.00    -0.294 N 
ATOM      6  C20 ZIN A   1      19.212  -1.205   7.905  0.00  0.00     0.167 A 
ATOM      7  N21 ZIN A   1      19.401  -2.497   8.156  0.00  0.00    -0.222 NA
ATOM      8  C22 ZIN A   1      19.499  -3.365   7.171  0.00  0.00     0.237 A 
ATOM      9  N23 ZIN A   1      19.411  -3.009   5.901  0.00  0.00    -0.222 NA
ENDROOT
BRANCH   5  10
ATOM     10  C7  ZIN A   1      19.102  -0.021  10.140  0.00  0.00     0.262 C 
ATOM     11  C17 ZIN A   1      20.552  -0.179  10.663  0.00  0.00     0.198 C 
ATOM     12  C14 ZIN A   1      20.475   0.526  12.042  0.00  0.00     0.182 C 
ATOM     13  C10 ZIN A   1      19.236   1.435  11.935  0.00  0.00     0.179 C 
ATOM     14  O9  ZIN A   1      18.712   1.289  10.605  0.00  0.00    -0.353 OA
BRANCH  11  15
ATOM     15  O19 ZIN A   1      20.901  -1.556  10.812  0.00  0.00    -0.388 OA
ATOM     16  H31 ZIN A   1      21.765  -1.701  11.222  0.00  0.00     0.210 HD
ENDBRANCH  11  15
BRANCH  12  17
ATOM     17  O16 ZIN A   1      20.301  -0.437  13.085  0.00  0.00    -0.390 OA
ATOM     18  H30 ZIN A   1      20.154  -1.338  12.767  0.00  0.00     0.210 HD
ENDBRANCH  12  17
BRANCH  13  19
ATOM     19  C12 ZIN A   1      19.633   2.892  12.181  0.00  0.00     0.198 C 
BRANCH  19  20
ATOM     20  O13 ZIN A   1      20.898   3.151  11.569  0.00  0.00    -0.398 OA
ATOM     21  H29 ZIN A   1      21.595   2.535  11.832  0.00  0.00     0.209 HD
ENDBRANCH  19  20
ENDBRANCH  13  19
ENDBRANCH   5  10
BRANCH   1  22
ATOM     22  N1  ZIN A   1      19.142  -1.375   4.221  0.00  0.00    -0.382 N 
ATOM     23  H24 ZIN A   1      19.866  -0.880   3.807  0.00  0.00     0.157 HD
ATOM     24  H25 ZIN A   1      18.361  -1.620   3.701  0.00  0.00     0.157 HD
ENDBRANCH   1  22
TORSDOF 6
ENDMDL
MODEL 4
REMARK VINA RESULT:      -6.7      2.617      4.495
REMARK  6 active torsions:
REMARK  status: ('A' for Active; 'I' for Inactive)
REMARK    1  A    between atoms: N1_1  and  C2_2 
REMARK    2  A    between atoms: N6_6  and  C7_7 
REMARK    3  A    between atoms: C10_9  and  C12_10 
REMARK    4  A    between atoms: C12_10  and  O13_11 
REMARK    5  A    between atoms: C14_12  and  O16_13 
REMARK    6  A    between atoms: C17_14  and  O19_15 
ROOT
ATOM      1  C2  ZIN A   1      19.024  -0.787   5.633  0.00  0.00     0.155 A 
ATOM      2  C3  ZIN A   1      19.112  -1.395   6.897  0.00  0.00     0.149 A 
ATOM      3  N4  ZIN A   1      19.156  -2.676   7.337  0.00  0.00    -0.236 NA
ATOM      4  C5  ZIN A   1      19.238  -2.685   8.636  0.00  0.00     0.214 A 
ATOM      5  N6  ZIN A   1      19.253  -1.408   9.110  0.00  0.00    -0.294 N 
ATOM      6  C20 ZIN A   1      19.174  -0.566   8.030  0.00  0.00     0.167 A 
ATOM      7  N21 ZIN A   1      19.149   0.753   7.866  0.00  0.00    -0.222 NA
ATOM      8  C22 ZIN A   1      19.065   1.279   6.663  0.00  0.00     0.237 A 
ATOM      9  N23 ZIN A   1      19.010   0.540   5.569  0.00  0.00    -0.222 NA
ENDROOT
BRANCH   5  10
ATOM     10  C7  ZIN A   1      19.338  -1.006  10.517  0.00  0.00     0.262 C 
ATOM     11  C17 ZIN A   1      20.483   0.017  10.725  0.00  0.00     0.198 C 
ATOM     12  C14 ZIN A   1      20.020   0.764  12.002  0.00  0.00     0.182 C 
ATOM     13  C10 ZIN A   1      18.504   0.495  12.069  0.00  0.00     0.179 C 
ATOM     14  O9  ZIN A   1      18.155  -0.278  10.910  0.00  0.00    -0.353 OA
BRANCH  11  15
ATOM     15  O19 ZIN A   1      21.732  -0.643  10.944  0.00  0.00    -0.388 OA
ATOM     16  H31 ZIN A   1      22.167  -0.939  10.132  0.00  0.00     0.210 HD
ENDBRANCH  11  15
BRANCH  12  17
ATOM     17  O16 ZIN A   1      20.674   0.232  13.156  0.00  0.00    -0.390 OA
ATOM     18  H30 ZIN A   1      20.122  -0.363  13.682  0.00  0.00     0.210 HD
ENDBRANCH  12  17
BRANCH  13  19
ATOM     19  C12 ZIN A   1      17.737   1.820  12.062  0.00  0.00     0.198 C 
BRANCH  19  20
ATOM     20  O13 ZIN A   1      17.320   2.121  10.729  0.00  0.00    -0.398 OA
ATOM     21  H29 ZIN A   1      17.025   1.350  10.226  0.00  0.00     0.209 HD
ENDBRANCH  19  20
ENDBRANCH  13  19
ENDBRANCH   5  10
BRANCH   1  22
ATOM     22  N1  ZIN A   1      18.960  -1.553   4.482  0.00  0.00    -0.382 N 
ATOM     23  H24 ZIN A   1      18.339  -2.296   4.428  0.00  0.00     0.157 HD
ATOM     24  H25 ZIN A   1      19.532  -1.343   3.728  0.00  0.00     0.157 HD
ENDBRANCH   1  22
TORSDOF 6
ENDMDL
MODEL 5
REMARK VINA RESULT:      -6.6      2.295      3.640
REMARK  6 active torsions:
REMARK  status: ('A' for Active; 'I' for Inactive)
REMARK    1  A    between atoms: N1_1  and  C2_2 
REMARK    2  A    between atoms: N6_6  and  C7_7 
REMARK    3  A    between atoms: C10_9  and  C12_10 
REMARK    4  A    between atoms: C12_10  and  O13_11 
REMARK    5  A    between atoms: C14_12  and  O16_13 
REMARK    6  A    between atoms: C17_14  and  O19_15 
ROOT
ATOM      1  C2  ZIN A   1      17.169   4.739  14.637  0.00  0.00     0.155 A 
ATOM      2  C3  ZIN A   1      17.921   3.589  14.341  0.00  0.00     0.149 A 
ATOM      3  N4  ZIN A   1      18.557   2.650  15.082  0.00  0.00    -0.236 NA
ATOM      4  C5  ZIN A   1      19.114   1.779  14.292  0.00  0.00     0.214 A 
ATOM      5  N6  ZIN A   1      18.867   2.105  12.992  0.00  0.00    -0.294 N 
ATOM      6  C20 ZIN A   1      18.112   3.250  12.991  0.00  0.00     0.167 A 
ATOM      7  N21 ZIN A   1      17.579   4.023  12.050  0.00  0.00    -0.222 NA
ATOM      8  C22 ZIN A   1      16.882   5.092  12.373  0.00  0.00     0.237 A 
ATOM      9  N23 ZIN A   1      16.672   5.447  13.628  0.00  0.00    -0.222 NA
ENDROOT
BRANCH   5  10
ATOM     10  C7  ZIN A   1      19.326   1.368  11.811  0.00  0.00     0.262 C 
ATOM     11  C17 ZIN A   1      20.339   0.266  12.214  0.00  0.00     0.198 C 
ATOM     12  C14 ZIN A   1      20.196  -0.745  11.048  0.00  0.00     0.182 C 
ATOM     13  C10 ZIN A   1      18.821  -0.422  10.433  0.00  0.00     0.179 C 
ATOM     14  O9  ZIN A   1      18.236   0.629  11.219  0.00  0.00    -0.353 OA
BRANCH  11  15
ATOM     15  O19 ZIN A   1      21.668   0.786  12.280  0.00  0.00    -0.388 OA
ATOM     16  H31 ZIN A   1      22.114   0.621  13.123  0.00  0.00     0.210 HD
ENDBRANCH  11  15
BRANCH  12  17
ATOM     17  O16 ZIN A   1      21.234  -0.546  10.086  0.00  0.00    -0.390 OA
ATOM     18  H30 ZIN A   1      21.103  -1.033   9.260  0.00  0.00     0.210 HD
ENDBRANCH  12  17
BRANCH  13  19
ATOM     19  C12 ZIN A   1      17.925  -1.663  10.473  0.00  0.00     0.198 C 
BRANCH  19  20
ATOM     20  O13 ZIN A   1      17.059  -1.588  11.607  0.00  0.00    -0.398 OA
ATOM     21  H29 ZIN A   1      16.286  -2.165  11.550  0.00  0.00     0.209 HD
ENDBRANCH  19  20
ENDBRANCH  13  19
ENDBRANCH   5  10
BRANCH   1  22
ATOM     22  N1  ZIN A   1      16.948   5.122  15.948  0.00  0.00    -0.382 N 
ATOM     23  H24 ZIN A   1      16.905   4.451  16.648  0.00  0.00     0.157 HD
ATOM     24  H25 ZIN A   1      16.840   6.060  16.168  0.00  0.00     0.157 HD
ENDBRANCH   1  22
TORSDOF 6
ENDMDL
MODEL 6
REMARK VINA RESULT:      -6.6      3.681      5.079
REMARK  6 active torsions:
REMARK  status: ('A' for Active; 'I' for Inactive)
REMARK    1  A    between atoms: N1_1  and  C2_2 
REMARK    2  A    between atoms: N6_6  and  C7_7 
REMARK    3  A    between atoms: C10_9  and  C12_10 
REMARK    4  A    between atoms: C12_10  and  O13_11 
REMARK    5  A    between atoms: C14_12  and  O16_13 
REMARK    6  A    between atoms: C17_14  and  O19_15 
ROOT
ATOM      1  C2  ZIN A   1      18.898   0.703  17.377  0.00  0.00     0.155 A 
ATOM      2  C3  ZIN A   1      18.999   1.338  16.129  0.00  0.00     0.149 A 
ATOM      3  N4  ZIN A   1      19.013   2.628  15.714  0.00  0.00    -0.236 NA
ATOM      4  C5  ZIN A   1      19.129   2.667  14.419  0.00  0.00     0.214 A 
ATOM      5  N6  ZIN A   1      19.199   1.400  13.920  0.00  0.00    -0.294 N 
ATOM      6  C20 ZIN A   1      19.119   0.535  14.982  0.00  0.00     0.167 A 
ATOM      7  N21 ZIN A   1      19.133  -0.787  15.119  0.00  0.00    -0.222 NA
ATOM      8  C22 ZIN A   1      19.035  -1.340  16.309  0.00  0.00     0.237 A 
ATOM      9  N23 ZIN A   1      18.925  -0.626  17.415  0.00  0.00    -0.222 NA
ENDROOT
BRANCH   5  10
ATOM     10  C7  ZIN A   1      19.334   1.030  12.509  0.00  0.00     0.262 C 
ATOM     11  C17 ZIN A   1      20.475  -0.003  12.322  0.00  0.00     0.198 C 
ATOM     12  C14 ZIN A   1      20.054  -0.714  11.011  0.00  0.00     0.182 C 
ATOM     13  C10 ZIN A   1      18.545  -0.425  10.890  0.00  0.00     0.179 C 
ATOM     14  O9  ZIN A   1      18.159   0.326  12.053  0.00  0.00    -0.353 OA
BRANCH  11  15
ATOM     15  O19 ZIN A   1      21.739   0.646  12.168  0.00  0.00    -0.388 OA
ATOM     16  H31 ZIN A   1      22.195   0.427  11.343  0.00  0.00     0.210 HD
ENDBRANCH  11  15
BRANCH  12  17
ATOM     17  O16 ZIN A   1      20.759  -0.164   9.896  0.00  0.00    -0.390 OA
ATOM     18  H30 ZIN A   1      21.714  -0.087  10.034  0.00  0.00     0.210 HD
ENDBRANCH  12  17
BRANCH  13  19
ATOM     19  C12 ZIN A   1      17.763  -1.740  10.837  0.00  0.00     0.198 C 
BRANCH  19  20
ATOM     20  O13 ZIN A   1      16.976  -1.874  12.022  0.00  0.00    -0.398 OA
ATOM     21  H29 ZIN A   1      17.020  -1.110  12.611  0.00  0.00     0.209 HD
ENDBRANCH  19  20
ENDBRANCH  13  19
ENDBRANCH   5  10
BRANCH   1  22
ATOM     22  N1  ZIN A   1      18.779   1.442  18.541  0.00  0.00    -0.382 N 
ATOM     23  H24 ZIN A   1      19.574   1.729  19.016  0.00  0.00     0.157 HD
ATOM     24  H25 ZIN A   1      17.901   1.678  18.877  0.00  0.00     0.157 HD
ENDBRANCH   1  22
TORSDOF 6
ENDMDL
MODEL 7
REMARK VINA RESULT:      -6.6      3.674      5.150
REMARK  6 active torsions:
REMARK  status: ('A' for Active; 'I' for Inactive)
REMARK    1  A    between atoms: N1_1  and  C2_2 
REMARK    2  A    between atoms: N6_6  and  C7_7 
REMARK    3  A    between atoms: C10_9  and  C12_10 
REMARK    4  A    between atoms: C12_10  and  O13_11 
REMARK    5  A    between atoms: C14_12  and  O16_13 
REMARK    6  A    between atoms: C17_14  and  O19_15 
ROOT
ATOM      1  C2  ZIN A   1      18.950   1.758  17.367  0.00  0.00     0.155 A 
ATOM      2  C3  ZIN A   1      18.961   0.778  16.361  0.00  0.00     0.149 A 
ATOM      3  N4  ZIN A   1      18.939  -0.577  16.350  0.00  0.00    -0.236 NA
ATOM      4  C5  ZIN A   1      18.966  -1.002  15.120  0.00  0.00     0.214 A 
ATOM      5  N6  ZIN A   1      19.007   0.057  14.263  0.00  0.00    -0.294 N 
ATOM      6  C20 ZIN A   1      19.005   1.200  15.021  0.00  0.00     0.167 A 
ATOM      7  N21 ZIN A   1      19.033   2.503  14.757  0.00  0.00    -0.222 NA
ATOM      8  C22 ZIN A   1      19.021   3.387  15.732  0.00  0.00     0.237 A 
ATOM      9  N23 ZIN A   1      18.976   3.037  17.005  0.00  0.00    -0.222 NA
ENDROOT
BRANCH   5  10
ATOM     10  C7  ZIN A   1      19.046  -0.012  12.800  0.00  0.00     0.262 C 
ATOM     11  C17 ZIN A   1      20.496   0.173  12.283  0.00  0.00     0.198 C 
ATOM     12  C14 ZIN A   1      20.442  -0.545  10.910  0.00  0.00     0.182 C 
ATOM     13  C10 ZIN A   1      19.223  -1.480  11.019  0.00  0.00     0.179 C 
ATOM     14  O9  ZIN A   1      18.689  -1.335  12.344  0.00  0.00    -0.353 OA
BRANCH  11  15
ATOM     15  O19 ZIN A   1      20.814   1.557  12.124  0.00  0.00    -0.388 OA
ATOM     16  H31 ZIN A   1      20.494   2.119  12.844  0.00  0.00     0.210 HD
ENDBRANCH  11  15
BRANCH  12  17
ATOM     17  O16 ZIN A   1      20.253   0.404   9.859  0.00  0.00    -0.390 OA
ATOM     18  H30 ZIN A   1      19.453   0.257   9.335  0.00  0.00     0.210 HD
ENDBRANCH  12  17
BRANCH  13  19
ATOM     19  C12 ZIN A   1      19.654  -2.931  10.788  0.00  0.00     0.198 C 
BRANCH  19  20
ATOM     20  O13 ZIN A   1      20.874  -3.182  11.489  0.00  0.00    -0.398 OA
ATOM     21  H29 ZIN A   1      21.604  -3.461  10.920  0.00  0.00     0.209 HD
ENDBRANCH  19  20
ENDBRANCH  13  19
ENDBRANCH   5  10
BRANCH   1  22
ATOM     22  N1  ZIN A   1      18.907   1.401  18.703  0.00  0.00    -0.382 N 
ATOM     23  H24 ZIN A   1      18.458   0.584  18.972  0.00  0.00     0.157 HD
ATOM     24  H25 ZIN A   1      19.330   1.964  19.369  0.00  0.00     0.157 HD
ENDBRANCH   1  22
TORSDOF 6
ENDMDL
MODEL 8
REMARK VINA RESULT:      -6.4      4.218      5.745
REMARK  6 active torsions:
REMARK  status: ('A' for Active; 'I' for Inactive)
REMARK    1  A    between atoms: N1_1  and  C2_2 
REMARK    2  A    between atoms: N6_6  and  C7_7 
REMARK    3  A    between atoms: C10_9  and  C12_10 
REMARK    4  A    between atoms: C12_10  and  O13_11 
REMARK    5  A    between atoms: C14_12  and  O16_13 
REMARK    6  A    between atoms: C17_14  and  O19_15 
ROOT
ATOM      1  C2  ZIN A   1      19.246   0.475  17.967  0.00  0.00     0.155 A 
ATOM      2  C3  ZIN A   1      19.190   0.087  16.618  0.00  0.00     0.149 A 
ATOM      3  N4  ZIN A   1      19.089  -1.099  15.972  0.00  0.00    -0.236 NA
ATOM      4  C5  ZIN A   1      19.078  -0.893  14.686  0.00  0.00     0.214 A 
ATOM      5  N6  ZIN A   1      19.170   0.442  14.429  0.00  0.00    -0.294 N 
ATOM      6  C20 ZIN A   1      19.243   1.090  15.635  0.00  0.00     0.167 A 
ATOM      7  N21 ZIN A   1      19.344   2.360  16.015  0.00  0.00    -0.222 NA
ATOM      8  C22 ZIN A   1      19.394   2.678  17.291  0.00  0.00     0.237 A 
ATOM      9  N23 ZIN A   1      19.342   1.770  18.250  0.00  0.00    -0.222 NA
ENDROOT
BRANCH   5  10
ATOM     10  C7  ZIN A   1      19.189   1.070  13.105  0.00  0.00     0.262 C 
ATOM     11  C17 ZIN A   1      20.051   0.241  12.119  0.00  0.00     0.198 C 
ATOM     12  C14 ZIN A   1      19.450   0.644  10.748  0.00  0.00     0.182 C 
ATOM     13  C10 ZIN A   1      18.051   1.188  11.093  0.00  0.00     0.179 C 
ATOM     14  O9  ZIN A   1      17.873   1.045  12.511  0.00  0.00    -0.353 OA
BRANCH  11  15
ATOM     15  O19 ZIN A   1      21.429   0.610  12.202  0.00  0.00    -0.388 OA
ATOM     16  H31 ZIN A   1      21.997  -0.076  12.581  0.00  0.00     0.210 HD
ENDBRANCH  11  15
BRANCH  12  17
ATOM     17  O16 ZIN A   1      20.245   1.662  10.135  0.00  0.00    -0.390 OA
ATOM     18  H30 ZIN A   1      20.728   2.216  10.764  0.00  0.00     0.210 HD
ENDBRANCH  12  17
BRANCH  13  19
ATOM     19  C12 ZIN A   1      16.980   0.384  10.351  0.00  0.00     0.198 C 
BRANCH  19  20
ATOM     20  O13 ZIN A   1      15.949   0.006  11.266  0.00  0.00    -0.398 OA
ATOM     21  H29 ZIN A   1      15.806   0.641  11.980  0.00  0.00     0.209 HD
ENDBRANCH  19  20
ENDBRANCH  13  19
ENDBRANCH   5  10
BRANCH   1  22
ATOM     22  N1  ZIN A   1      19.197  -0.469  18.978  0.00  0.00    -0.382 N 
ATOM     23  H24 ZIN A   1      19.500  -1.375  18.810  0.00  0.00     0.157 HD
ATOM     24  H25 ZIN A   1      18.867  -0.223  19.855  0.00  0.00     0.157 HD
ENDBRANCH   1  22
TORSDOF 6
ENDMDL
MODEL 9
REMARK VINA RESULT:      -6.3      2.989      5.340
REMARK  6 active torsions:
REMARK  status: ('A' for Active; 'I' for Inactive)
REMARK    1  A    between atoms: N1_1  and  C2_2 
REMARK    2  A    between atoms: N6_6  and  C7_7 
REMARK    3  A    between atoms: C10_9  and  C12_10 
REMARK    4  A    between atoms: C12_10  and  O13_11 
REMARK    5  A    between atoms: C14_12  and  O16_13 
REMARK    6  A    between atoms: C17_14  and  O19_15 
ROOT
ATOM      1  C2  ZIN A   1      18.348  -0.884   7.301  0.00  0.00     0.155 A 
ATOM      2  C3  ZIN A   1      18.148  -0.632   8.669  0.00  0.00     0.149 A 
ATOM      3  N4  ZIN A   1      17.749  -1.379   9.727  0.00  0.00    -0.236 NA
ATOM      4  C5  ZIN A   1      17.733  -0.639  10.798  0.00  0.00     0.214 A 
ATOM      5  N6  ZIN A   1      18.124   0.630  10.493  0.00  0.00    -0.294 N 
ATOM      6  C20 ZIN A   1      18.394   0.666   9.148  0.00  0.00     0.167 A 
ATOM      7  N21 ZIN A   1      18.804   1.601   8.297  0.00  0.00    -0.222 NA
ATOM      8  C22 ZIN A   1      18.978   1.320   7.023  0.00  0.00     0.237 A 
ATOM      9  N23 ZIN A   1      18.764   0.114   6.528  0.00  0.00    -0.222 NA
ENDROOT
BRANCH   5  10
ATOM     10  C7  ZIN A   1      18.234   1.752  11.429  0.00  0.00     0.262 C 
ATOM     11  C17 ZIN A   1      19.533   2.557  11.166  0.00  0.00     0.198 C 
ATOM     12  C14 ZIN A   1      19.168   3.952  11.735  0.00  0.00     0.182 C 
ATOM     13  C10 ZIN A   1      17.627   3.962  11.753  0.00  0.00     0.179 C 
ATOM     14  O9  ZIN A   1      17.184   2.715  11.196  0.00  0.00    -0.353 OA
BRANCH  11  15
ATOM     15  O19 ZIN A   1      20.641   1.992  11.870  0.00  0.00    -0.388 OA
ATOM     16  H31 ZIN A   1      21.407   2.581  11.934  0.00  0.00     0.210 HD
ENDBRANCH  11  15
BRANCH  12  17
ATOM     17  O16 ZIN A   1      19.686   4.102  13.058  0.00  0.00    -0.390 OA
ATOM     18  H30 ZIN A   1      19.063   3.850  13.755  0.00  0.00     0.210 HD
ENDBRANCH  12  17
BRANCH  13  19
ATOM     19  C12 ZIN A   1      17.102   5.126  10.909  0.00  0.00     0.198 C 
BRANCH  19  20
ATOM     20  O13 ZIN A   1      17.644   5.040   9.590  0.00  0.00    -0.398 OA
ATOM     21  H29 ZIN A   1      16.979   5.075   8.889  0.00  0.00     0.209 HD
ENDBRANCH  19  20
ENDBRANCH  13  19
ENDBRANCH   5  10
BRANCH   1  22
ATOM     22  N1  ZIN A   1      18.123  -2.143   6.773  0.00  0.00    -0.382 N 
ATOM     23  H24 ZIN A   1      18.037  -2.908   7.364  0.00  0.00     0.157 HD
ATOM     24  H25 ZIN A   1      18.045  -2.259   5.814  0.00  0.00     0.157 HD
ENDBRANCH   1  22
TORSDOF 6
ENDMDL
