MODEL 1
REMARK VINA RESULT:      -6.7      0.000      0.000
REMARK  7 active torsions:
REMARK  status: ('A' for Active; 'I' for Inactive)
REMARK    1  A    between atoms: O2_2  and  C3_3 
REMARK    2  A    between atoms: C6_6  and  C7_7 
REMARK    3  A    between atoms: C7_7  and  N8_8 
REMARK    4  A    between atoms: N8_8  and  C9_9 
REMARK    5  A    between atoms: N8_8  and  C15_15 
REMARK    6  A    between atoms: C9_9  and  C10_10 
REMARK    7  A    between atoms: C10_10  and  N11_11 
ROOT
ATOM      1  N8  ZIN A   1      18.191  -0.114  11.708  0.00  0.00    -0.208 N 
ENDROOT
BRANCH   1   2
ATOM      2  C7  ZIN A   1      17.225   0.560  10.837  0.00  0.00     0.180 C 
BRANCH   2   3
ATOM      3  C6  ZIN A   1      17.789   0.664   9.445  0.00  0.00    -0.040 A 
ATOM      4  C5  ZIN A   1      18.776   1.592   9.166  0.00  0.00     0.011 A 
ATOM      5  C4  ZIN A   1      19.294   1.690   7.889  0.00  0.00     0.037 A 
ATOM      6  C3  ZIN A   1      18.825   0.856   6.886  0.00  0.00     0.068 A 
ATOM      7  C22 ZIN A   1      17.831  -0.072   7.166  0.00  0.00     0.037 A 
ATOM      8  C21 ZIN A   1      17.319  -0.168   8.445  0.00  0.00     0.011 A 
BRANCH   6   9
ATOM      9  O2  ZIN A   1      19.333   0.950   5.629  0.00  0.00    -0.356 OA
ATOM     10  C1  ZIN A   1      19.194  -0.196   4.786  0.00  0.00     0.210 C 
ENDBRANCH   6   9
ENDBRANCH   2   3
ENDBRANCH   1   2
BRANCH   1  11
ATOM     11  C9  ZIN A   1      18.990   0.664  12.658  0.00  0.00     0.169 C 
BRANCH  11  12
ATOM     12  C10 ZIN A   1      18.311   2.012  12.912  0.00  0.00     0.254 C 
BRANCH  12  13
ATOM     13  N11 ZIN A   1      19.327   3.020  13.237  0.00  0.00    -0.077 N 
ATOM     14  H12 ZIN A   1      20.162   2.561  13.570  0.00  0.00     0.279 HD
ATOM     15  C13 ZIN A   1      19.645   3.801  12.034  0.00  0.00     0.269 C 
ATOM     16  C14 ZIN A   1      18.813   3.916  14.281  0.00  0.00     0.269 C 
ENDBRANCH  12  13
ENDBRANCH  11  12
ENDBRANCH   1  11
BRANCH   1  17
ATOM     17  C15 ZIN A   1      18.350  -1.487  11.633  0.00  0.00     0.724 A 
ATOM     18  N20 ZIN A   1      17.277  -2.258  11.534  0.00  0.00    -0.075 NA
ATOM     19  C19 ZIN A   1      17.395  -3.573  11.457  0.00  0.00     0.138 A 
ATOM     20  C18 ZIN A   1      18.658  -4.142  11.490  0.00  0.00     0.040 A 
ATOM     21  C17 ZIN A   1      19.758  -3.307  11.599  0.00  0.00     0.138 A 
ATOM     22  N16 ZIN A   1      19.572  -1.999  11.668  0.00  0.00    -0.075 NA
ENDBRANCH   1  17
TORSDOF 7
ENDMDL
MODEL 2
REMARK VINA RESULT:      -6.6      1.306      1.789
REMARK  7 active torsions:
REMARK  status: ('A' for Active; 'I' for Inactive)
REMARK    1  A    between atoms: O2_2  and  C3_3 
REMARK    2  A    between atoms: C6_6  and  C7_7 
REMARK    3  A    between atoms: C7_7  and  N8_8 
REMARK    4  A    between atoms: N8_8  and  C9_9 
REMARK    5  A    between atoms: N8_8  and  C15_15 
REMARK    6  A    between atoms: C9_9  and  C10_10 
REMARK    7  A    between atoms: C10_10  and  N11_11 
ROOT
ATOM      1  N8  ZIN A   1      18.165  -0.171  11.718  0.00  0.00    -0.208 N 
ENDROOT
BRANCH   1   2
ATOM      2  C7  ZIN A   1      17.188   0.489  10.848  0.00  0.00     0.180 C 
BRANCH   2   3
ATOM      3  C6  ZIN A   1      17.761   0.628   9.462  0.00  0.00    -0.040 A 
ATOM      4  C5  ZIN A   1      18.747   1.565   9.213  0.00  0.00     0.011 A 
ATOM      5  C4  ZIN A   1      19.274   1.695   7.942  0.00  0.00     0.037 A 
ATOM      6  C3  ZIN A   1      18.813   0.884   6.916  0.00  0.00     0.068 A 
ATOM      7  C22 ZIN A   1      17.820  -0.053   7.167  0.00  0.00     0.037 A 
ATOM      8  C21 ZIN A   1      17.300  -0.181   8.440  0.00  0.00     0.011 A 
BRANCH   6   9
ATOM      9  O2  ZIN A   1      19.330   1.009   5.665  0.00  0.00    -0.356 OA
ATOM     10  C1  ZIN A   1      19.314  -0.155   4.837  0.00  0.00     0.210 C 
ENDBRANCH   6   9
ENDBRANCH   2   3
ENDBRANCH   1   2
BRANCH   1  11
ATOM     11  C9  ZIN A   1      18.961   0.622  12.658  0.00  0.00     0.169 C 
BRANCH  11  12
ATOM     12  C10 ZIN A   1      18.226   0.719  13.996  0.00  0.00     0.254 C 
BRANCH  12  13
ATOM     13  N11 ZIN A   1      19.136   0.345  15.085  0.00  0.00    -0.077 N 
ATOM     14  H12 ZIN A   1      20.072   0.649  14.861  0.00  0.00     0.279 HD
ATOM     15  C13 ZIN A   1      18.699   0.987  16.332  0.00  0.00     0.269 C 
ATOM     16  C14 ZIN A   1      19.124  -1.114  15.255  0.00  0.00     0.269 C 
ENDBRANCH  12  13
ENDBRANCH  11  12
ENDBRANCH   1  11
BRANCH   1  17
ATOM     17  C15 ZIN A   1      18.336  -1.542  11.652  0.00  0.00     0.724 A 
ATOM     18  N20 ZIN A   1      17.273  -2.319  11.499  0.00  0.00    -0.075 NA
ATOM     19  C19 ZIN A   1      17.403  -3.634  11.428  0.00  0.00     0.138 A 
ATOM     20  C18 ZIN A   1      18.666  -4.196  11.525  0.00  0.00     0.040 A 
ATOM     21  C17 ZIN A   1      19.754  -3.353  11.690  0.00  0.00     0.138 A 
ATOM     22  N16 ZIN A   1      19.557  -2.047  11.749  0.00  0.00    -0.075 NA
ENDBRANCH   1  17
TORSDOF 7
ENDMDL
MODEL 3
REMARK VINA RESULT:      -6.4      3.700      7.205
REMARK  7 active torsions:
REMARK  status: ('A' for Active; 'I' for Inactive)
REMARK    1  A    between atoms: O2_2  and  C3_3 
REMARK    2  A    between atoms: C6_6  and  C7_7 
REMARK    3  A    between atoms: C7_7  and  N8_8 
REMARK    4  A    between atoms: N8_8  and  C9_9 
REMARK    5  A    between atoms: N8_8  and  C15_15 
REMARK    6  A    between atoms: C9_9  and  C10_10 
REMARK    7  A    between atoms: C10_10  and  N11_11 
ROOT
ATOM      1  N8  ZIN A   1      18.414   0.030  11.490  0.00  0.00    -0.208 N 
ENDROOT
BRANCH   1   2
ATOM      2  C7  ZIN A   1      17.428  -0.608  12.364  0.00  0.00     0.180 C 
BRANCH   2   3
ATOM      3  C6  ZIN A   1      17.899  -0.535  13.793  0.00  0.00    -0.040 A 
ATOM      4  C5  ZIN A   1      17.438   0.471  14.622  0.00  0.00     0.011 A 
ATOM      5  C4  ZIN A   1      17.870   0.541  15.933  0.00  0.00     0.037 A 
ATOM      6  C3  ZIN A   1      18.767  -0.399  16.417  0.00  0.00     0.068 A 
ATOM      7  C22 ZIN A   1      19.233  -1.405  15.581  0.00  0.00     0.037 A 
ATOM      8  C21 ZIN A   1      18.795  -1.473  14.274  0.00  0.00     0.011 A 
BRANCH   6   9
ATOM      9  O2  ZIN A   1      19.193  -0.333  17.706  0.00  0.00    -0.356 OA
ATOM     10  C1  ZIN A   1      19.248   0.963  18.305  0.00  0.00     0.210 C 
ENDBRANCH   6   9
ENDBRANCH   2   3
ENDBRANCH   1   2
BRANCH   1  11
ATOM     11  C9  ZIN A   1      19.330  -0.793  10.697  0.00  0.00     0.169 C 
BRANCH  11  12
ATOM     12  C10 ZIN A   1      18.670  -2.137  10.385  0.00  0.00     0.254 C 
BRANCH  12  13
ATOM     13  N11 ZIN A   1      19.705  -3.168  10.231  0.00  0.00    -0.077 N 
ATOM     14  H12 ZIN A   1      20.505  -2.773   9.760  0.00  0.00     0.279 HD
ATOM     15  C13 ZIN A   1      20.109  -3.658  11.555  0.00  0.00     0.269 C 
ATOM     16  C14 ZIN A   1      19.171  -4.283   9.437  0.00  0.00     0.269 C 
ENDBRANCH  12  13
ENDBRANCH  11  12
ENDBRANCH   1  11
BRANCH   1  17
ATOM     17  C15 ZIN A   1      18.481   1.411  11.413  0.00  0.00     0.724 A 
ATOM     18  N20 ZIN A   1      17.404   2.090  11.048  0.00  0.00    -0.075 NA
ATOM     19  C19 ZIN A   1      17.434   3.411  10.968  0.00  0.00     0.138 A 
ATOM     20  C18 ZIN A   1      18.612   4.080  11.262  0.00  0.00     0.040 A 
ATOM     21  C17 ZIN A   1      19.720   3.336  11.635  0.00  0.00     0.138 A 
ATOM     22  N16 ZIN A   1      19.623   2.019  11.700  0.00  0.00    -0.075 NA
ENDBRANCH   1  17
TORSDOF 7
ENDMDL
MODEL 4
REMARK VINA RESULT:      -6.4      1.587      4.700
REMARK  7 active torsions:
REMARK  status: ('A' for Active; 'I' for Inactive)
REMARK    1  A    between atoms: O2_2  and  C3_3 
REMARK    2  A    between atoms: C6_6  and  C7_7 
REMARK    3  A    between atoms: C7_7  and  N8_8 
REMARK    4  A    between atoms: N8_8  and  C9_9 
REMARK    5  A    between atoms: N8_8  and  C15_15 
REMARK    6  A    between atoms: C9_9  and  C10_10 
REMARK    7  A    between atoms: C10_10  and  N11_11 
ROOT
ATOM      1  N8  ZIN A   1      18.170   1.825  11.553  0.00  0.00    -0.208 N 
ENDROOT
BRANCH   1   2
ATOM      2  C7  ZIN A   1      17.306   0.966  10.739  0.00  0.00     0.180 C 
BRANCH   2   3
ATOM      3  C6  ZIN A   1      17.848   0.893   9.336  0.00  0.00    -0.040 A 
ATOM      4  C5  ZIN A   1      17.437  -0.120   8.489  0.00  0.00     0.011 A 
ATOM      5  C4  ZIN A   1      17.933  -0.191   7.201  0.00  0.00     0.037 A 
ATOM      6  C3  ZIN A   1      18.844   0.757   6.758  0.00  0.00     0.068 A 
ATOM      7  C22 ZIN A   1      19.260   1.769   7.612  0.00  0.00     0.037 A 
ATOM      8  C21 ZIN A   1      18.758   1.837   8.896  0.00  0.00     0.011 A 
BRANCH   6   9
ATOM      9  O2  ZIN A   1      19.334   0.690   5.492  0.00  0.00    -0.356 OA
ATOM     10  C1  ZIN A   1      18.702  -0.230   4.600  0.00  0.00     0.210 C 
ENDBRANCH   6   9
ENDBRANCH   2   3
ENDBRANCH   1   2
BRANCH   1  11
ATOM     11  C9  ZIN A   1      19.529   1.391  11.887  0.00  0.00     0.169 C 
BRANCH  11  12
ATOM     12  C10 ZIN A   1      19.464   0.212  12.860  0.00  0.00     0.254 C 
BRANCH  12  13
ATOM     13  N11 ZIN A   1      20.140  -0.950  12.269  0.00  0.00    -0.077 N 
ATOM     14  H12 ZIN A   1      20.849  -1.286  12.903  0.00  0.00     0.279 HD
ATOM     15  C13 ZIN A   1      19.158  -2.015  12.026  0.00  0.00     0.269 C 
ATOM     16  C14 ZIN A   1      20.764  -0.560  10.998  0.00  0.00     0.269 C 
ENDBRANCH  12  13
ENDBRANCH  11  12
ENDBRANCH   1  11
BRANCH   1  17
ATOM     17  C15 ZIN A   1      17.702   3.045  12.008  0.00  0.00     0.724 A 
ATOM     18  N20 ZIN A   1      17.945   3.404  13.260  0.00  0.00    -0.075 NA
ATOM     19  C19 ZIN A   1      17.515   4.566  13.725  0.00  0.00     0.138 A 
ATOM     20  C18 ZIN A   1      16.795   5.404  12.889  0.00  0.00     0.040 A 
ATOM     21  C17 ZIN A   1      16.553   4.994  11.587  0.00  0.00     0.138 A 
ATOM     22  N16 ZIN A   1      17.016   3.822  11.184  0.00  0.00    -0.075 NA
ENDBRANCH   1  17
TORSDOF 7
ENDMDL
MODEL 5
REMARK VINA RESULT:      -6.3      3.585      7.167
REMARK  7 active torsions:
REMARK  status: ('A' for Active; 'I' for Inactive)
REMARK    1  A    between atoms: O2_2  and  C3_3 
REMARK    2  A    between atoms: C6_6  and  C7_7 
REMARK    3  A    between atoms: C7_7  and  N8_8 
REMARK    4  A    between atoms: N8_8  and  C9_9 
REMARK    5  A    between atoms: N8_8  and  C15_15 
REMARK    6  A    between atoms: C9_9  and  C10_10 
REMARK    7  A    between atoms: C10_10  and  N11_11 
ROOT
ATOM      1  N8  ZIN A   1      18.608   0.457  11.381  0.00  0.00    -0.208 N 
ENDROOT
BRANCH   1   2
ATOM      2  C7  ZIN A   1      17.611  -0.336  12.104  0.00  0.00     0.180 C 
BRANCH   2   3
ATOM      3  C6  ZIN A   1      18.001  -0.433  13.555  0.00  0.00    -0.040 A 
ATOM      4  C5  ZIN A   1      18.895  -1.404  13.967  0.00  0.00     0.011 A 
ATOM      5  C4  ZIN A   1      19.254  -1.496  15.298  0.00  0.00     0.037 A 
ATOM      6  C3  ZIN A   1      18.716  -0.613  16.222  0.00  0.00     0.068 A 
ATOM      7  C22 ZIN A   1      17.815   0.358  15.808  0.00  0.00     0.037 A 
ATOM      8  C21 ZIN A   1      17.463   0.448  14.476  0.00  0.00     0.011 A 
BRANCH   6   9
ATOM      9  O2  ZIN A   1      19.068  -0.701  17.532  0.00  0.00    -0.356 OA
ATOM     10  C1  ZIN A   1      19.268   0.528  18.234  0.00  0.00     0.210 C 
ENDBRANCH   6   9
ENDBRANCH   2   3
ENDBRANCH   1   2
BRANCH   1  11
ATOM     11  C9  ZIN A   1      19.671  -0.213  10.628  0.00  0.00     0.169 C 
BRANCH  11  12
ATOM     12  C10 ZIN A   1      19.469   0.031   9.131  0.00  0.00     0.254 C 
BRANCH  12  13
ATOM     13  N11 ZIN A   1      18.517  -0.952   8.598  0.00  0.00    -0.077 N 
ATOM     14  H12 ZIN A   1      18.199  -1.552   9.344  0.00  0.00     0.279 HD
ATOM     15  C13 ZIN A   1      17.367  -0.251   8.011  0.00  0.00     0.269 C 
ATOM     16  C14 ZIN A   1      19.177  -1.762   7.566  0.00  0.00     0.269 C 
ENDBRANCH  12  13
ENDBRANCH  11  12
ENDBRANCH   1  11
BRANCH   1  17
ATOM     17  C15 ZIN A   1      18.547   1.839  11.410  0.00  0.00     0.724 A 
ATOM     18  N20 ZIN A   1      19.589   2.523  11.862  0.00  0.00    -0.075 NA
ATOM     19  C19 ZIN A   1      19.564   3.845  11.899  0.00  0.00     0.138 A 
ATOM     20  C18 ZIN A   1      18.428   4.513  11.469  0.00  0.00     0.040 A 
ATOM     21  C17 ZIN A   1      17.355   3.766  11.009  0.00  0.00     0.138 A 
ATOM     22  N16 ZIN A   1      17.446   2.447  10.993  0.00  0.00    -0.075 NA
ENDBRANCH   1  17
TORSDOF 7
ENDMDL
MODEL 6
REMARK VINA RESULT:      -6.2      2.539      5.069
REMARK  7 active torsions:
REMARK  status: ('A' for Active; 'I' for Inactive)
REMARK    1  A    between atoms: O2_2  and  C3_3 
REMARK    2  A    between atoms: C6_6  and  C7_7 
REMARK    3  A    between atoms: C7_7  and  N8_8 
REMARK    4  A    between atoms: N8_8  and  C9_9 
REMARK    5  A    between atoms: N8_8  and  C15_15 
REMARK    6  A    between atoms: C9_9  and  C10_10 
REMARK    7  A    between atoms: C10_10  and  N11_11 
ROOT
ATOM      1  N8  ZIN A   1      18.975  -1.497   9.160  0.00  0.00    -0.208 N 
ENDROOT
BRANCH   1   2
ATOM      2  C7  ZIN A   1      19.878  -0.422   9.577  0.00  0.00     0.180 C 
BRANCH   2   3
ATOM      3  C6  ZIN A   1      19.072   0.790   9.965  0.00  0.00    -0.040 A 
ATOM      4  C5  ZIN A   1      19.204   1.965   9.249  0.00  0.00     0.011 A 
ATOM      5  C4  ZIN A   1      18.467   3.079   9.602  0.00  0.00     0.037 A 
ATOM      6  C3  ZIN A   1      17.594   3.017  10.677  0.00  0.00     0.068 A 
ATOM      7  C22 ZIN A   1      17.467   1.838  11.399  0.00  0.00     0.037 A 
ATOM      8  C21 ZIN A   1      18.202   0.727  11.038  0.00  0.00     0.011 A 
BRANCH   6   9
ATOM      9  O2  ZIN A   1      16.867   4.111  11.028  0.00  0.00    -0.356 OA
ATOM     10  C1  ZIN A   1      17.180   4.724  12.280  0.00  0.00     0.210 C 
ENDBRANCH   6   9
ENDBRANCH   2   3
ENDBRANCH   1   2
BRANCH   1  11
ATOM     11  C9  ZIN A   1      18.247  -1.392   7.893  0.00  0.00     0.169 C 
BRANCH  11  12
ATOM     12  C10 ZIN A   1      19.237  -1.446   6.728  0.00  0.00     0.254 C 
BRANCH  12  13
ATOM     13  N11 ZIN A   1      19.059  -0.262   5.878  0.00  0.00    -0.077 N 
ATOM     14  H12 ZIN A   1      19.809   0.391   6.049  0.00  0.00     0.279 HD
ATOM     15  C13 ZIN A   1      19.077  -0.667   4.466  0.00  0.00     0.269 C 
ATOM     16  C14 ZIN A   1      17.774   0.376   6.189  0.00  0.00     0.269 C 
ENDBRANCH  12  13
ENDBRANCH  11  12
ENDBRANCH   1  11
BRANCH   1  17
ATOM     17  C15 ZIN A   1      18.810  -2.613   9.963  0.00  0.00     0.724 A 
ATOM     18  N20 ZIN A   1      19.750  -2.920  10.844  0.00  0.00    -0.075 NA
ATOM     19  C19 ZIN A   1      19.620  -3.977  11.629  0.00  0.00     0.138 A 
ATOM     20  C18 ZIN A   1      18.490  -4.771  11.514  0.00  0.00     0.040 A 
ATOM     21  C17 ZIN A   1      17.530  -4.423  10.577  0.00  0.00     0.138 A 
ATOM     22  N16 ZIN A   1      17.718  -3.351   9.826  0.00  0.00    -0.075 NA
ENDBRANCH   1  17
TORSDOF 7
ENDMDL
MODEL 7
REMARK VINA RESULT:      -6.2      1.888      2.788
REMARK  7 active torsions:
REMARK  status: ('A' for Active; 'I' for Inactive)
REMARK    1  A    between atoms: O2_2  and  C3_3 
REMARK    2  A    between atoms: C6_6  and  C7_7 
REMARK    3  A    between atoms: C7_7  and  N8_8 
REMARK    4  A    between atoms: N8_8  and  C9_9 
REMARK    5  A    between atoms: N8_8  and  C15_15 
REMARK    6  A    between atoms: C9_9  and  C10_10 
REMARK    7  A    between atoms: C10_10  and  N11_11 
ROOT
ATOM      1  N8  ZIN A   1      18.759   2.139  11.869  0.00  0.00    -0.208 N 
ENDROOT
BRANCH   1   2
ATOM      2  C7  ZIN A   1      17.705   2.318  10.868  0.00  0.00     0.180 C 
BRANCH   2   3
ATOM      3  C6  ZIN A   1      18.051   1.538   9.627  0.00  0.00    -0.040 A 
ATOM      4  C5  ZIN A   1      17.495   0.288   9.420  0.00  0.00     0.011 A 
ATOM      5  C4  ZIN A   1      17.811  -0.431   8.283  0.00  0.00     0.037 A 
ATOM      6  C3  ZIN A   1      18.687   0.102   7.349  0.00  0.00     0.068 A 
ATOM      7  C22 ZIN A   1      19.248   1.354   7.561  0.00  0.00     0.037 A 
ATOM      8  C21 ZIN A   1      18.925   2.070   8.697  0.00  0.00     0.011 A 
BRANCH   6   9
ATOM      9  O2  ZIN A   1      19.000  -0.603   6.230  0.00  0.00    -0.356 OA
ATOM     10  C1  ZIN A   1      19.276   0.149   5.046  0.00  0.00     0.210 C 
ENDBRANCH   6   9
ENDBRANCH   2   3
ENDBRANCH   1   2
BRANCH   1  11
ATOM     11  C9  ZIN A   1      19.910   3.044  11.890  0.00  0.00     0.169 C 
BRANCH  11  12
ATOM     12  C10 ZIN A   1      19.441   4.461  12.227  0.00  0.00     0.254 C 
BRANCH  12  13
ATOM     13  N11 ZIN A   1      18.859   4.477  13.575  0.00  0.00    -0.077 N 
ATOM     14  H12 ZIN A   1      18.827   3.536  13.939  0.00  0.00     0.279 HD
ATOM     15  C13 ZIN A   1      19.687   5.314  14.455  0.00  0.00     0.269 C 
ATOM     16  C14 ZIN A   1      17.498   5.026  13.515  0.00  0.00     0.269 C 
ENDBRANCH  12  13
ENDBRANCH  11  12
ENDBRANCH   1  11
BRANCH   1  17
ATOM     17  C15 ZIN A   1      18.668   1.114  12.794  0.00  0.00     0.724 A 
ATOM     18  N20 ZIN A   1      19.362   0.003  12.598  0.00  0.00    -0.075 NA
ATOM     19  C19 ZIN A   1      19.300  -0.994  13.466  0.00  0.00     0.138 A 
ATOM     20  C18 ZIN A   1      18.489  -0.869  14.583  0.00  0.00     0.040 A 
ATOM     21  C17 ZIN A   1      17.773   0.305  14.753  0.00  0.00     0.138 A 
ATOM     22  N16 ZIN A   1      17.883   1.266  13.851  0.00  0.00    -0.075 NA
ENDBRANCH   1  17
TORSDOF 7
ENDMDL
MODEL 8
REMARK VINA RESULT:      -6.2      1.511      4.305
REMARK  7 active torsions:
REMARK  status: ('A' for Active; 'I' for Inactive)
REMARK    1  A    between atoms: O2_2  and  C3_3 
REMARK    2  A    between atoms: C6_6  and  C7_7 
REMARK    3  A    between atoms: C7_7  and  N8_8 
REMARK    4  A    between atoms: N8_8  and  C9_9 
REMARK    5  A    between atoms: N8_8  and  C15_15 
REMARK    6  A    between atoms: C9_9  and  C10_10 
REMARK    7  A    between atoms: C10_10  and  N11_11 
ROOT
ATOM      1  N8  ZIN A   1      17.849  -0.739  11.603  0.00  0.00    -0.208 N 
ENDROOT
BRANCH   1   2
ATOM      2  C7  ZIN A   1      16.934   0.036  10.762  0.00  0.00     0.180 C 
BRANCH   2   3
ATOM      3  C6  ZIN A   1      17.589   0.323   9.437  0.00  0.00    -0.040 A 
ATOM      4  C5  ZIN A   1      17.182  -0.357   8.304  0.00  0.00     0.011 A 
ATOM      5  C4  ZIN A   1      17.781  -0.097   7.086  0.00  0.00     0.037 A 
ATOM      6  C3  ZIN A   1      18.791   0.849   7.001  0.00  0.00     0.068 A 
ATOM      7  C22 ZIN A   1      19.202   1.527   8.140  0.00  0.00     0.037 A 
ATOM      8  C21 ZIN A   1      18.597   1.266   9.353  0.00  0.00     0.011 A 
BRANCH   6   9
ATOM      9  O2  ZIN A   1      19.382   1.107   5.805  0.00  0.00    -0.356 OA
ATOM     10  C1  ZIN A   1      19.312   0.082   4.811  0.00  0.00     0.210 C 
ENDBRANCH   6   9
ENDBRANCH   2   3
ENDBRANCH   1   2
BRANCH   1  11
ATOM     11  C9  ZIN A   1      18.521  -1.921  11.057  0.00  0.00     0.169 C 
BRANCH  11  12
ATOM     12  C10 ZIN A   1      17.556  -3.109  11.070  0.00  0.00     0.254 C 
BRANCH  12  13
ATOM     13  N11 ZIN A   1      18.316  -4.357  11.208  0.00  0.00    -0.077 N 
ATOM     14  H12 ZIN A   1      17.916  -4.915  11.948  0.00  0.00     0.279 HD
ATOM     15  C13 ZIN A   1      18.259  -5.107   9.945  0.00  0.00     0.269 C 
ATOM     16  C14 ZIN A   1      19.715  -4.047  11.531  0.00  0.00     0.269 C 
ENDBRANCH  12  13
ENDBRANCH  11  12
ENDBRANCH   1  11
BRANCH   1  17
ATOM     17  C15 ZIN A   1      18.080  -0.356  12.913  0.00  0.00     0.724 A 
ATOM     18  N20 ZIN A   1      17.615   0.811  13.335  0.00  0.00    -0.075 NA
ATOM     19  C19 ZIN A   1      17.814   1.205  14.582  0.00  0.00     0.138 A 
ATOM     20  C18 ZIN A   1      18.527   0.387  15.445  0.00  0.00     0.040 A 
ATOM     21  C17 ZIN A   1      19.003  -0.824  14.967  0.00  0.00     0.138 A 
ATOM     22  N16 ZIN A   1      18.765  -1.161  13.711  0.00  0.00    -0.075 NA
ENDBRANCH   1  17
TORSDOF 7
ENDMDL
MODEL 9
REMARK VINA RESULT:      -6.1      3.430      6.351
REMARK  7 active torsions:
REMARK  status: ('A' for Active; 'I' for Inactive)
REMARK    1  A    between atoms: O2_2  and  C3_3 
REMARK    2  A    between atoms: C6_6  and  C7_7 
REMARK    3  A    between atoms: C7_7  and  N8_8 
REMARK    4  A    between atoms: N8_8  and  C9_9 
REMARK    5  A    between atoms: N8_8  and  C15_15 
REMARK    6  A    between atoms: C9_9  and  C10_10 
REMARK    7  A    between atoms: C10_10  and  N11_11 
ROOT
ATOM      1  N8  ZIN A   1      19.098  -0.867  11.280  0.00  0.00    -0.208 N 
ENDROOT
BRANCH   1   2
ATOM      2  C7  ZIN A   1      19.969  -0.299  12.311  0.00  0.00     0.180 C 
BRANCH   2   3
ATOM      3  C6  ZIN A   1      19.252  -0.308  13.636  0.00  0.00    -0.040 A 
ATOM      4  C5  ZIN A   1      18.336   0.685  13.932  0.00  0.00     0.011 A 
ATOM      5  C4  ZIN A   1      17.677   0.681  15.147  0.00  0.00     0.037 A 
ATOM      6  C3  ZIN A   1      17.936  -0.322  16.069  0.00  0.00     0.068 A 
ATOM      7  C22 ZIN A   1      18.859  -1.314  15.773  0.00  0.00     0.037 A 
ATOM      8  C21 ZIN A   1      19.511  -1.307  14.556  0.00  0.00     0.011 A 
BRANCH   6   9
ATOM      9  O2  ZIN A   1      17.289  -0.329  17.265  0.00  0.00    -0.356 OA
ATOM     10  C1  ZIN A   1      17.456   0.819  18.100  0.00  0.00     0.210 C 
ENDBRANCH   6   9
ENDBRANCH   2   3
ENDBRANCH   1   2
BRANCH   1  11
ATOM     11  C9  ZIN A   1      18.539  -0.004  10.236  0.00  0.00     0.169 C 
BRANCH  11  12
ATOM     12  C10 ZIN A   1      19.500   0.049   9.048  0.00  0.00     0.254 C 
BRANCH  12  13
ATOM     13  N11 ZIN A   1      18.833  -0.482   7.852  0.00  0.00    -0.077 N 
ATOM     14  H12 ZIN A   1      19.098   0.065   7.047  0.00  0.00     0.279 HD
ATOM     15  C13 ZIN A   1      19.236  -1.880   7.647  0.00  0.00     0.269 C 
ATOM     16  C14 ZIN A   1      17.377  -0.414   8.033  0.00  0.00     0.269 C 
ENDBRANCH  12  13
ENDBRANCH  11  12
ENDBRANCH   1  11
BRANCH   1  17
ATOM     17  C15 ZIN A   1      18.802  -2.219  11.291  0.00  0.00     0.724 A 
ATOM     18  N20 ZIN A   1      19.791  -3.096  11.384  0.00  0.00    -0.075 NA
ATOM     19  C19 ZIN A   1      19.542  -4.395  11.401  0.00  0.00     0.138 A 
ATOM     20  C18 ZIN A   1      18.231  -4.834  11.310  0.00  0.00     0.040 A 
ATOM     21  C17 ZIN A   1      17.222  -3.889  11.208  0.00  0.00     0.138 A 
ATOM     22  N16 ZIN A   1      17.538  -2.605  11.202  0.00  0.00    -0.075 NA
ENDBRANCH   1  17
TORSDOF 7
ENDMDL
