MODEL 1
REMARK VINA RESULT:      -7.5      0.000      0.000
REMARK  6 active torsions:
REMARK  status: ('A' for Active; 'I' for Inactive)
REMARK    1  A    between atoms: C7_6  and  N9_7 
REMARK       I    between atoms: N9_7  and  C10_8 
REMARK    2  A    between atoms: C10_8  and  C12_10 
REMARK    3  A    between atoms: C12_10  and  N14_11 
REMARK    4  A    between atoms: C12_10  and  C18_15 
REMARK    5  A    between atoms: C21_18  and  O22_19 
REMARK    6  A    between atoms: C28_25  and  C30_26 
ROOT
ATOM      1  N9  <0> d   1      19.115  -1.498  10.672  0.00  0.00    -0.344 N 
ATOM      2  C10 <0> d   1      19.763  -0.811  11.633  0.00  0.00     0.253 C 
ATOM      3  O11 <0> d   1      19.810  -1.247  12.764  0.00  0.00    -0.271 OA
ATOM      4  H39 <0> d   1      19.078  -1.149   9.767  0.00  0.00     0.163 HD
ENDROOT
BRANCH   1   5
ATOM      5  C7  <0> d   1      18.467  -2.771  10.993  0.00  0.00     0.199 C 
ATOM      6  C5  <0> d   1      17.767  -3.438   9.814  0.00  0.00     0.160 C 
ATOM      7  S4  <0> d   1      17.888  -2.503   8.242  0.00  0.00    -0.135 SA
ATOM      8  N27 <0> d   1      18.808  -4.470   9.729  0.00  0.00    -0.219 NA
ATOM      9  C2  <0> d   1      18.776  -3.841   7.338  0.00  0.00     0.029 C 
ATOM     10  C1  <0> d   1      17.797  -4.870   6.766  0.00  0.00     0.029 C 
ATOM     11  C28 <0> d   1      19.610  -4.440   8.502  0.00  0.00     0.186 C 
ATOM     12  C3  <0> d   1      19.679  -3.270   6.243  0.00  0.00     0.029 C 
ATOM     13  C25 <0> d   1      19.364  -3.975  10.876  0.00  0.00     0.227 C 
ATOM     14  O26 <0> d   1      20.272  -4.376  11.571  0.00  0.00    -0.277 OA
BRANCH  11  15
ATOM     15  C30 <0> d   1      20.044  -5.841   8.153  0.00  0.00     0.193 C 
ATOM     16  O31 <0> d   1      21.047  -6.018   7.484  0.00  0.00    -0.647 OA
ATOM     17  O32 <0> d   1      19.392  -6.795   8.539  0.00  0.00    -0.647 OA
ENDBRANCH  11  15
ENDBRANCH   1   5
BRANCH   2  18
ATOM     18  C12 <0> d   1      20.430   0.499  11.303  0.00  0.00     0.307 C 
BRANCH  18  19
ATOM     19  N14 <0> d   1      21.439   0.806  12.325  0.00  0.00    -0.062 N 
ATOM     20  H15 <0> d   1      21.675  -0.036  12.828  0.00  0.00     0.275 HD
ATOM     21  H16 <0> d   1      22.267   1.175  11.882  0.00  0.00     0.275 HD
ATOM     22  H17 <0> d   1      21.068   1.489  12.968  0.00  0.00     0.275 HD
ENDBRANCH  18  19
BRANCH  18  23
ATOM     23  C18 <0> d   1      19.397   1.596  11.273  0.00  0.00    -0.019 A 
ATOM     24  C24 <0> d   1      19.096   2.229  10.080  0.00  0.00     0.012 A 
ATOM     25  C23 <0> d   1      18.146   3.229  10.049  0.00  0.00     0.037 A 
ATOM     26  C21 <0> d   1      17.500   3.609  11.216  0.00  0.00     0.065 A 
ATOM     27  C20 <0> d   1      17.807   2.977  12.413  0.00  0.00     0.037 A 
ATOM     28  C19 <0> d   1      18.755   1.972  12.437  0.00  0.00     0.012 A 
BRANCH  26  29
ATOM     29  O22 <0> d   1      16.568   4.598  11.189  0.00  0.00    -0.361 OA
ATOM     30  H42 <0> d   1      15.823   4.452  11.788  0.00  0.00     0.217 HD
ENDBRANCH  26  29
ENDBRANCH  18  23
ENDBRANCH   2  18
TORSDOF 6
ENDMDL
MODEL 2
REMARK VINA RESULT:      -7.5      2.909      7.337
REMARK  6 active torsions:
REMARK  status: ('A' for Active; 'I' for Inactive)
REMARK    1  A    between atoms: C7_6  and  N9_7 
REMARK       I    between atoms: N9_7  and  C10_8 
REMARK    2  A    between atoms: C10_8  and  C12_10 
REMARK    3  A    between atoms: C12_10  and  N14_11 
REMARK    4  A    between atoms: C12_10  and  C18_15 
REMARK    5  A    between atoms: C21_18  and  O22_19 
REMARK    6  A    between atoms: C28_25  and  C30_26 
ROOT
ATOM      1  N9  <0> d   1      18.411  -0.474  11.331  0.00  0.00    -0.344 N 
ATOM      2  C10 <0> d   1      18.695  -1.485  10.486  0.00  0.00     0.253 C 
ATOM      3  O11 <0> d   1      19.722  -2.116  10.619  0.00  0.00    -0.271 OA
ATOM      4  H39 <0> d   1      17.589   0.031  11.225  0.00  0.00     0.163 HD
ENDROOT
BRANCH   1   5
ATOM      5  C7  <0> d   1      19.343  -0.137  12.409  0.00  0.00     0.199 C 
ATOM      6  C5  <0> d   1      19.938   1.263  12.314  0.00  0.00     0.160 C 
ATOM      7  S4  <0> d   1      19.358   2.229  10.868  0.00  0.00    -0.135 SA
ATOM      8  N27 <0> d   1      19.121   1.730  13.442  0.00  0.00    -0.219 NA
ATOM      9  C2  <0> d   1      18.603   3.574  11.878  0.00  0.00     0.029 C 
ATOM     10  C1  <0> d   1      19.646   4.617  12.283  0.00  0.00     0.029 C 
ATOM     11  C28 <0> d   1      18.123   2.748  13.102  0.00  0.00     0.186 C 
ATOM     12  C3  <0> d   1      17.425   4.224  11.150  0.00  0.00     0.029 C 
ATOM     13  C25 <0> d   1      18.692   0.445  13.636  0.00  0.00     0.227 C 
ATOM     14  O26 <0> d   1      18.019  -0.057  14.509  0.00  0.00    -0.277 OA
BRANCH  11  15
ATOM     15  C30 <0> d   1      17.916   3.660  14.285  0.00  0.00     0.193 C 
ATOM     16  O31 <0> d   1      17.014   4.479  14.272  0.00  0.00    -0.647 OA
ATOM     17  O32 <0> d   1      18.652   3.579  15.254  0.00  0.00    -0.647 OA
ENDBRANCH  11  15
ENDBRANCH   1   5
BRANCH   2  18
ATOM     18  C12 <0> d   1      17.736  -1.832   9.377  0.00  0.00     0.307 C 
BRANCH  18  19
ATOM     19  N14 <0> d   1      17.628  -3.293   9.262  0.00  0.00    -0.062 N 
ATOM     20  H15 <0> d   1      16.945  -3.632   9.923  0.00  0.00     0.275 HD
ATOM     21  H16 <0> d   1      17.340  -3.537   8.327  0.00  0.00     0.275 HD
ATOM     22  H17 <0> d   1      18.524  -3.712   9.459  0.00  0.00     0.275 HD
ENDBRANCH  18  19
BRANCH  18  23
ATOM     23  C18 <0> d   1      18.245  -1.263   8.077  0.00  0.00    -0.019 A 
ATOM     24  C24 <0> d   1      18.846  -2.094   7.149  0.00  0.00     0.012 A 
ATOM     25  C23 <0> d   1      19.308  -1.576   5.955  0.00  0.00     0.037 A 
ATOM     26  C21 <0> d   1      19.180  -0.221   5.690  0.00  0.00     0.065 A 
ATOM     27  C20 <0> d   1      18.581   0.612   6.626  0.00  0.00     0.037 A 
ATOM     28  C19 <0> d   1      18.115   0.088   7.816  0.00  0.00     0.012 A 
BRANCH  26  29
ATOM     29  O22 <0> d   1      19.639   0.292   4.519  0.00  0.00    -0.361 OA
ATOM     30  H42 <0> d   1      19.927  -0.377   3.883  0.00  0.00     0.217 HD
ENDBRANCH  26  29
ENDBRANCH  18  23
ENDBRANCH   2  18
TORSDOF 6
ENDMDL
MODEL 3
REMARK VINA RESULT:      -7.3      3.742      8.184
REMARK  6 active torsions:
REMARK  status: ('A' for Active; 'I' for Inactive)
REMARK    1  A    between atoms: C7_6  and  N9_7 
REMARK       I    between atoms: N9_7  and  C10_8 
REMARK    2  A    between atoms: C10_8  and  C12_10 
REMARK    3  A    between atoms: C12_10  and  N14_11 
REMARK    4  A    between atoms: C12_10  and  C18_15 
REMARK    5  A    between atoms: C21_18  and  O22_19 
REMARK    6  A    between atoms: C28_25  and  C30_26 
ROOT
ATOM      1  N9  <0> d   1      19.295   0.609  12.707  0.00  0.00    -0.344 N 
ATOM      2  C10 <0> d   1      19.186   0.142  11.448  0.00  0.00     0.253 C 
ATOM      3  O11 <0> d   1      18.239   0.464  10.761  0.00  0.00    -0.271 OA
ATOM      4  H39 <0> d   1      20.052   0.351  13.256  0.00  0.00     0.163 HD
ENDROOT
BRANCH   1   5
ATOM      5  C7  <0> d   1      18.270   1.505  13.247  0.00  0.00     0.199 C 
ATOM      6  C5  <0> d   1      17.471   0.923  14.408  0.00  0.00     0.160 C 
ATOM      7  S4  <0> d   1      17.967  -0.777  14.883  0.00  0.00    -0.135 SA
ATOM      8  N27 <0> d   1      18.150   1.804  15.368  0.00  0.00    -0.219 NA
ATOM      9  C2  <0> d   1      18.455  -0.318  16.600  0.00  0.00     0.029 C 
ATOM     10  C1  <0> d   1      17.245  -0.302  17.537  0.00  0.00     0.029 C 
ATOM     11  C28 <0> d   1      18.995   1.116  16.348  0.00  0.00     0.186 C 
ATOM     12  C3  <0> d   1      19.553  -1.240  17.133  0.00  0.00     0.029 C 
ATOM     13  C25 <0> d   1      18.761   2.438  14.321  0.00  0.00     0.227 C 
ATOM     14  O26 <0> d   1      19.460   3.428  14.274  0.00  0.00    -0.277 OA
BRANCH  11  15
ATOM     15  C30 <0> d   1      19.000   1.895  17.639  0.00  0.00     0.193 C 
ATOM     16  O31 <0> d   1      18.185   2.784  17.816  0.00  0.00    -0.647 OA
ATOM     17  O32 <0> d   1      19.818   1.637  18.504  0.00  0.00    -0.647 OA
ENDBRANCH  11  15
ENDBRANCH   1   5
BRANCH   2  18
ATOM     18  C12 <0> d   1      20.240  -0.780  10.892  0.00  0.00     0.307 C 
BRANCH  18  19
ATOM     19  N14 <0> d   1      20.707  -0.265   9.597  0.00  0.00    -0.062 N 
ATOM     20  H15 <0> d   1      20.702  -1.011   8.917  0.00  0.00     0.275 HD
ATOM     21  H16 <0> d   1      20.096   0.475   9.288  0.00  0.00     0.275 HD
ATOM     22  H17 <0> d   1      21.645   0.092   9.697  0.00  0.00     0.275 HD
ENDBRANCH  18  19
BRANCH  18  23
ATOM     23  C18 <0> d   1      19.655  -2.156  10.702  0.00  0.00    -0.019 A 
ATOM     24  C24 <0> d   1      19.745  -3.090  11.719  0.00  0.00     0.012 A 
ATOM     25  C23 <0> d   1      19.205  -4.349  11.550  0.00  0.00     0.037 A 
ATOM     26  C21 <0> d   1      18.582  -4.683  10.356  0.00  0.00     0.065 A 
ATOM     27  C20 <0> d   1      18.498  -3.746   9.335  0.00  0.00     0.037 A 
ATOM     28  C19 <0> d   1      19.035  -2.485   9.512  0.00  0.00     0.012 A 
BRANCH  26  29
ATOM     29  O22 <0> d   1      18.055  -5.923  10.186  0.00  0.00    -0.361 OA
ATOM     30  H42 <0> d   1      17.277  -6.098  10.732  0.00  0.00     0.217 HD
ENDBRANCH  26  29
ENDBRANCH  18  23
ENDBRANCH   2  18
TORSDOF 6
ENDMDL
MODEL 4
REMARK VINA RESULT:      -7.3      4.059      7.574
REMARK  6 active torsions:
REMARK  status: ('A' for Active; 'I' for Inactive)
REMARK    1  A    between atoms: C7_6  and  N9_7 
REMARK       I    between atoms: N9_7  and  C10_8 
REMARK    2  A    between atoms: C10_8  and  C12_10 
REMARK    3  A    between atoms: C12_10  and  N14_11 
REMARK    4  A    between atoms: C12_10  and  C18_15 
REMARK    5  A    between atoms: C21_18  and  O22_19 
REMARK    6  A    between atoms: C28_25  and  C30_26 
ROOT
ATOM      1  N9  <0> d   1      19.048   1.068  12.503  0.00  0.00    -0.344 N 
ATOM      2  C10 <0> d   1      18.679   0.442  11.369  0.00  0.00     0.253 C 
ATOM      3  O11 <0> d   1      17.535   0.528  10.973  0.00  0.00    -0.271 OA
ATOM      4  H39 <0> d   1      19.962   1.000  12.820  0.00  0.00     0.163 HD
ENDROOT
BRANCH   1   5
ATOM      5  C7  <0> d   1      18.068   1.852  13.260  0.00  0.00     0.199 C 
ATOM      6  C5  <0> d   1      17.328   1.066  14.336  0.00  0.00     0.160 C 
ATOM      7  S4  <0> d   1      17.824  -0.695  14.456  0.00  0.00    -0.135 SA
ATOM      8  N27 <0> d   1      18.072   1.749  15.402  0.00  0.00    -0.219 NA
ATOM      9  C2  <0> d   1      18.414  -0.567  16.197  0.00  0.00     0.029 C 
ATOM     10  C1  <0> d   1      17.259  -0.721  17.189  0.00  0.00     0.029 C 
ATOM     11  C28 <0> d   1      18.960   0.886  16.186  0.00  0.00     0.186 C 
ATOM     12  C3  <0> d   1      19.527  -1.577  16.484  0.00  0.00     0.029 C 
ATOM     13  C25 <0> d   1      18.633   2.566  14.459  0.00  0.00     0.227 C 
ATOM     14  O26 <0> d   1      19.342   3.544  14.557  0.00  0.00    -0.277 OA
BRANCH  11  15
ATOM     15  C30 <0> d   1      19.049   1.410  17.597  0.00  0.00     0.193 C 
ATOM     16  O31 <0> d   1      18.260   2.255  17.984  0.00  0.00    -0.647 OA
ATOM     17  O32 <0> d   1      19.910   0.990  18.351  0.00  0.00    -0.647 OA
ENDBRANCH  11  15
ENDBRANCH   1   5
BRANCH   2  18
ATOM     18  C12 <0> d   1      19.687  -0.363  10.590  0.00  0.00     0.307 C 
BRANCH  18  19
ATOM     19  N14 <0> d   1      21.043   0.093  10.926  0.00  0.00    -0.062 N 
ATOM     20  H15 <0> d   1      21.077   1.101  10.888  0.00  0.00     0.275 HD
ATOM     21  H16 <0> d   1      21.282  -0.216  11.855  0.00  0.00     0.275 HD
ATOM     22  H17 <0> d   1      21.699  -0.290  10.263  0.00  0.00     0.275 HD
ENDBRANCH  18  19
BRANCH  18  23
ATOM     23  C18 <0> d   1      19.446  -0.177   9.114  0.00  0.00    -0.019 A 
ATOM     24  C24 <0> d   1      19.368   1.098   8.583  0.00  0.00     0.012 A 
ATOM     25  C23 <0> d   1      19.153   1.271   7.230  0.00  0.00     0.037 A 
ATOM     26  C21 <0> d   1      19.004   0.166   6.404  0.00  0.00     0.065 A 
ATOM     27  C20 <0> d   1      19.077  -1.112   6.941  0.00  0.00     0.037 A 
ATOM     28  C19 <0> d   1      19.298  -1.280   8.294  0.00  0.00     0.012 A 
BRANCH  26  29
ATOM     29  O22 <0> d   1      18.787   0.334   5.074  0.00  0.00    -0.361 OA
ATOM     30  H42 <0> d   1      19.300  -0.263   4.513  0.00  0.00     0.217 HD
ENDBRANCH  26  29
ENDBRANCH  18  23
ENDBRANCH   2  18
TORSDOF 6
ENDMDL
MODEL 5
REMARK VINA RESULT:      -7.3      3.257      4.285
REMARK  6 active torsions:
REMARK  status: ('A' for Active; 'I' for Inactive)
REMARK    1  A    between atoms: C7_6  and  N9_7 
REMARK       I    between atoms: N9_7  and  C10_8 
REMARK    2  A    between atoms: C10_8  and  C12_10 
REMARK    3  A    between atoms: C12_10  and  N14_11 
REMARK    4  A    between atoms: C12_10  and  C18_15 
REMARK    5  A    between atoms: C21_18  and  O22_19 
REMARK    6  A    between atoms: C28_25  and  C30_26 
ROOT
ATOM      1  N9  <0> d   1      18.952  -1.219  10.918  0.00  0.00    -0.344 N 
ATOM      2  C10 <0> d   1      18.560  -0.699  12.097  0.00  0.00     0.253 C 
ATOM      3  O11 <0> d   1      17.490  -1.014  12.574  0.00  0.00    -0.271 OA
ATOM      4  H39 <0> d   1      19.808  -0.967  10.536  0.00  0.00     0.163 HD
ENDROOT
BRANCH   1   5
ATOM      5  C7  <0> d   1      18.086  -2.164  10.210  0.00  0.00     0.199 C 
ATOM      6  C5  <0> d   1      17.285  -1.551   9.066  0.00  0.00     0.160 C 
ATOM      7  S4  <0> d   1      17.580   0.241   8.818  0.00  0.00    -0.135 SA
ATOM      8  N27 <0> d   1      18.127  -2.222   8.066  0.00  0.00    -0.219 NA
ATOM      9  C2  <0> d   1      18.221   0.053   7.101  0.00  0.00     0.029 C 
ATOM     10  C1  <0> d   1      17.079  -0.001   6.084  0.00  0.00     0.029 C 
ATOM     11  C28 <0> d   1      18.928  -1.323   7.231  0.00  0.00     0.186 C 
ATOM     12  C3  <0> d   1      19.217   1.160   6.753  0.00  0.00     0.029 C 
ATOM     13  C25 <0> d   1      18.755  -2.895   9.077  0.00  0.00     0.227 C 
ATOM     14  O26 <0> d   1      19.573  -3.790   9.064  0.00  0.00    -0.277 OA
BRANCH  11  15
ATOM     15  C30 <0> d   1      19.108  -1.937   5.865  0.00  0.00     0.193 C 
ATOM     16  O31 <0> d   1      19.878  -1.431   5.067  0.00  0.00    -0.647 OA
ATOM     17  O32 <0> d   1      18.484  -2.938   5.560  0.00  0.00    -0.647 OA
ENDBRANCH  11  15
ENDBRANCH   1   5
BRANCH   2  18
ATOM     18  C12 <0> d   1      19.452   0.273  12.826  0.00  0.00     0.307 C 
BRANCH  18  19
ATOM     19  N14 <0> d   1      20.853   0.015  12.467  0.00  0.00    -0.062 N 
ATOM     20  H15 <0> d   1      21.267   0.859  12.099  0.00  0.00     0.275 HD
ATOM     21  H16 <0> d   1      21.363  -0.277  13.288  0.00  0.00     0.275 HD
ATOM     22  H17 <0> d   1      20.893  -0.711  11.769  0.00  0.00     0.275 HD
ENDBRANCH  18  19
BRANCH  18  23
ATOM     23  C18 <0> d   1      19.274   0.100  14.312  0.00  0.00    -0.019 A 
ATOM     24  C24 <0> d   1      19.095   1.209  15.120  0.00  0.00     0.012 A 
ATOM     25  C23 <0> d   1      18.927   1.053  16.481  0.00  0.00     0.037 A 
ATOM     26  C21 <0> d   1      18.948  -0.216  17.042  0.00  0.00     0.065 A 
ATOM     27  C20 <0> d   1      19.134  -1.327  16.230  0.00  0.00     0.037 A 
ATOM     28  C19 <0> d   1      19.296  -1.165  14.868  0.00  0.00     0.012 A 
BRANCH  26  29
ATOM     29  O22 <0> d   1      18.789  -0.372  18.382  0.00  0.00    -0.361 OA
ATOM     30  H42 <0> d   1      18.327   0.361  18.811  0.00  0.00     0.217 HD
ENDBRANCH  26  29
ENDBRANCH  18  23
ENDBRANCH   2  18
TORSDOF 6
ENDMDL
MODEL 6
REMARK VINA RESULT:      -7.2      3.250      4.707
REMARK  6 active torsions:
REMARK  status: ('A' for Active; 'I' for Inactive)
REMARK    1  A    between atoms: C7_6  and  N9_7 
REMARK       I    between atoms: N9_7  and  C10_8 
REMARK    2  A    between atoms: C10_8  and  C12_10 
REMARK    3  A    between atoms: C12_10  and  N14_11 
REMARK    4  A    between atoms: C12_10  and  C18_15 
REMARK    5  A    between atoms: C21_18  and  O22_19 
REMARK    6  A    between atoms: C28_25  and  C30_26 
ROOT
ATOM      1  N9  <0> d   1      18.446   0.467  11.711  0.00  0.00    -0.344 N 
ATOM      2  C10 <0> d   1      18.787   1.383  12.638  0.00  0.00     0.253 C 
ATOM      3  O11 <0> d   1      19.870   1.928  12.581  0.00  0.00    -0.271 OA
ATOM      4  H39 <0> d   1      17.580   0.030  11.756  0.00  0.00     0.163 HD
ENDROOT
BRANCH   1   5
ATOM      5  C7  <0> d   1      19.381   0.126  10.637  0.00  0.00     0.199 C 
ATOM      6  C5  <0> d   1      19.964  -1.279  10.729  0.00  0.00     0.160 C 
ATOM      7  S4  <0> d   1      19.367  -2.247  12.166  0.00  0.00    -0.135 SA
ATOM      8  N27 <0> d   1      19.150  -1.733   9.594  0.00  0.00    -0.219 NA
ATOM      9  C2  <0> d   1      18.607  -3.580  11.146  0.00  0.00     0.029 C 
ATOM     10  C1  <0> d   1      19.644  -4.631  10.742  0.00  0.00     0.029 C 
ATOM     11  C28 <0> d   1      18.142  -2.745   9.923  0.00  0.00     0.186 C 
ATOM     12  C3  <0> d   1      17.420  -4.224  11.864  0.00  0.00     0.029 C 
ATOM     13  C25 <0> d   1      18.734  -0.444   9.404  0.00  0.00     0.227 C 
ATOM     14  O26 <0> d   1      18.070   0.068   8.528  0.00  0.00    -0.277 OA
BRANCH  11  15
ATOM     15  C30 <0> d   1      17.935  -3.650   8.734  0.00  0.00     0.193 C 
ATOM     16  O31 <0> d   1      18.698  -3.592   7.785  0.00  0.00    -0.647 OA
ATOM     17  O32 <0> d   1      17.005  -4.437   8.722  0.00  0.00    -0.647 OA
ENDBRANCH  11  15
ENDBRANCH   1   5
BRANCH   2  18
ATOM     18  C12 <0> d   1      17.825   1.733  13.743  0.00  0.00     0.307 C 
BRANCH  18  19
ATOM     19  N14 <0> d   1      17.748   3.194  13.881  0.00  0.00    -0.062 N 
ATOM     20  H15 <0> d   1      17.250   3.580  13.092  0.00  0.00     0.275 HD
ATOM     21  H16 <0> d   1      17.259   3.427  14.732  0.00  0.00     0.275 HD
ATOM     22  H17 <0> d   1      18.680   3.578  13.911  0.00  0.00     0.275 HD
ENDBRANCH  18  19
BRANCH  18  23
ATOM     23  C18 <0> d   1      18.308   1.132  15.038  0.00  0.00    -0.019 A 
ATOM     24  C24 <0> d   1      18.243  -0.236  15.230  0.00  0.00     0.012 A 
ATOM     25  C23 <0> d   1      18.689  -0.790  16.413  0.00  0.00     0.037 A 
ATOM     26  C21 <0> d   1      19.193   0.027  17.415  0.00  0.00     0.065 A 
ATOM     27  C20 <0> d   1      19.252   1.401  17.222  0.00  0.00     0.037 A 
ATOM     28  C19 <0> d   1      18.809   1.949  16.034  0.00  0.00     0.012 A 
BRANCH  26  29
ATOM     29  O22 <0> d   1      19.628  -0.515  18.583  0.00  0.00    -0.361 OA
ATOM     30  H42 <0> d   1      19.881   0.138  19.249  0.00  0.00     0.217 HD
ENDBRANCH  26  29
ENDBRANCH  18  23
ENDBRANCH   2  18
TORSDOF 6
ENDMDL
MODEL 7
REMARK VINA RESULT:      -7.1      2.566      3.091
REMARK  6 active torsions:
REMARK  status: ('A' for Active; 'I' for Inactive)
REMARK    1  A    between atoms: C7_6  and  N9_7 
REMARK       I    between atoms: N9_7  and  C10_8 
REMARK    2  A    between atoms: C10_8  and  C12_10 
REMARK    3  A    between atoms: C12_10  and  N14_11 
REMARK    4  A    between atoms: C12_10  and  C18_15 
REMARK    5  A    between atoms: C21_18  and  O22_19 
REMARK    6  A    between atoms: C28_25  and  C30_26 
ROOT
ATOM      1  N9  <0> d   1      19.228  -1.786  10.564  0.00  0.00    -0.344 N 
ATOM      2  C10 <0> d   1      18.989  -1.606  11.878  0.00  0.00     0.253 C 
ATOM      3  O11 <0> d   1      18.045  -2.156  12.404  0.00  0.00    -0.271 OA
ATOM      4  H39 <0> d   1      19.983  -1.346  10.143  0.00  0.00     0.163 HD
ENDROOT
BRANCH   1   5
ATOM      5  C7  <0> d   1      18.346  -2.645   9.771  0.00  0.00     0.199 C 
ATOM      6  C5  <0> d   1      17.459  -1.897   8.782  0.00  0.00     0.160 C 
ATOM      7  S4  <0> d   1      17.688  -0.078   8.794  0.00  0.00    -0.135 SA
ATOM      8  N27 <0> d   1      18.256  -2.377   7.645  0.00  0.00    -0.219 NA
ATOM      9  C2  <0> d   1      18.226   0.019   7.034  0.00  0.00     0.029 C 
ATOM     10  C1  <0> d   1      17.025   0.077   6.088  0.00  0.00     0.029 C 
ATOM     11  C28 <0> d   1      18.978  -1.333   6.912  0.00  0.00     0.186 C 
ATOM     12  C3  <0> d   1      19.167   1.203   6.804  0.00  0.00     0.029 C 
ATOM     13  C25 <0> d   1      18.965  -3.172   8.503  0.00  0.00     0.227 C 
ATOM     14  O26 <0> d   1      19.805  -4.022   8.307  0.00  0.00    -0.277 OA
BRANCH  11  15
ATOM     15  C30 <0> d   1      19.091  -1.727   5.461  0.00  0.00     0.193 C 
ATOM     16  O31 <0> d   1      19.898  -1.167   4.739  0.00  0.00    -0.647 OA
ATOM     17  O32 <0> d   1      18.375  -2.603   5.009  0.00  0.00    -0.647 OA
ENDBRANCH  11  15
ENDBRANCH   1   5
BRANCH   2  18
ATOM     18  C12 <0> d   1      19.897  -0.722  12.694  0.00  0.00     0.307 C 
BRANCH  18  19
ATOM     19  N14 <0> d   1      19.878  -1.163  14.096  0.00  0.00    -0.062 N 
ATOM     20  H15 <0> d   1      19.591  -0.395  14.686  0.00  0.00     0.275 HD
ATOM     21  H16 <0> d   1      19.228  -1.927  14.200  0.00  0.00     0.275 HD
ATOM     22  H17 <0> d   1      20.801  -1.466  14.365  0.00  0.00     0.275 HD
ENDBRANCH  18  19
BRANCH  18  23
ATOM     23  C18 <0> d   1      19.417   0.704  12.611  0.00  0.00    -0.019 A 
ATOM     24  C24 <0> d   1      19.908   1.541  11.625  0.00  0.00     0.012 A 
ATOM     25  C23 <0> d   1      19.466   2.846  11.543  0.00  0.00     0.037 A 
ATOM     26  C21 <0> d   1      18.537   3.323  12.456  0.00  0.00     0.065 A 
ATOM     27  C20 <0> d   1      18.049   2.483  13.448  0.00  0.00     0.037 A 
ATOM     28  C19 <0> d   1      18.491   1.176  13.522  0.00  0.00     0.012 A 
BRANCH  26  29
ATOM     29  O22 <0> d   1      18.104   4.609  12.381  0.00  0.00    -0.361 OA
ATOM     30  H42 <0> d   1      17.144   4.703  12.423  0.00  0.00     0.217 HD
ENDBRANCH  26  29
ENDBRANCH  18  23
ENDBRANCH   2  18
TORSDOF 6
ENDMDL
MODEL 8
REMARK VINA RESULT:      -7.1      2.772      7.353
REMARK  6 active torsions:
REMARK  status: ('A' for Active; 'I' for Inactive)
REMARK    1  A    between atoms: C7_6  and  N9_7 
REMARK       I    between atoms: N9_7  and  C10_8 
REMARK    2  A    between atoms: C10_8  and  C12_10 
REMARK    3  A    between atoms: C12_10  and  N14_11 
REMARK    4  A    between atoms: C12_10  and  C18_15 
REMARK    5  A    between atoms: C21_18  and  O22_19 
REMARK    6  A    between atoms: C28_25  and  C30_26 
ROOT
ATOM      1  N9  <0> d   1      18.757  -0.417   7.476  0.00  0.00    -0.344 N 
ATOM      2  C10 <0> d   1      18.328  -0.824   6.266  0.00  0.00     0.253 C 
ATOM      3  O11 <0> d   1      17.222  -0.511   5.877  0.00  0.00    -0.271 OA
ATOM      4  H39 <0> d   1      19.641  -0.667   7.788  0.00  0.00     0.163 HD
ENDROOT
BRANCH   1   5
ATOM      5  C7  <0> d   1      17.888   0.403   8.324  0.00  0.00     0.199 C 
ATOM      6  C5  <0> d   1      17.415  -0.286   9.598  0.00  0.00     0.160 C 
ATOM      7  S4  <0> d   1      18.037  -1.999   9.801  0.00  0.00    -0.135 SA
ATOM      8  N27 <0> d   1      18.301   0.545  10.424  0.00  0.00    -0.219 NA
ATOM      9  C2  <0> d   1      18.935  -1.649  11.372  0.00  0.00     0.029 C 
ATOM     10  C1  <0> d   1      17.999  -1.740  12.579  0.00  0.00     0.029 C 
ATOM     11  C28 <0> d   1      19.374  -0.184  11.105  0.00  0.00     0.186 C 
ATOM     12  C3  <0> d   1      20.144  -2.570  11.540  0.00  0.00     0.029 C 
ATOM     13  C25 <0> d   1      18.621   1.273   9.311  0.00  0.00     0.227 C 
ATOM     14  O26 <0> d   1      19.271   2.286   9.168  0.00  0.00    -0.277 OA
BRANCH  11  15
ATOM     15  C30 <0> d   1      19.693   0.500  12.411  0.00  0.00     0.193 C 
ATOM     16  O31 <0> d   1      18.915   1.314  12.877  0.00  0.00    -0.647 OA
ATOM     17  O32 <0> d   1      20.728   0.240  12.999  0.00  0.00    -0.647 OA
ENDBRANCH  11  15
ENDBRANCH   1   5
BRANCH   2  18
ATOM     18  C12 <0> d   1      19.221  -1.668   5.394  0.00  0.00     0.307 C 
BRANCH  18  19
ATOM     19  N14 <0> d   1      18.877  -1.449   3.983  0.00  0.00    -0.062 N 
ATOM     20  H15 <0> d   1      19.248  -0.560   3.681  0.00  0.00     0.275 HD
ATOM     21  H16 <0> d   1      19.274  -2.187   3.421  0.00  0.00     0.275 HD
ATOM     22  H17 <0> d   1      17.874  -1.447   3.878  0.00  0.00     0.275 HD
ENDBRANCH  18  19
BRANCH  18  23
ATOM     23  C18 <0> d   1      19.028  -3.123   5.737  0.00  0.00    -0.019 A 
ATOM     24  C24 <0> d   1      19.866  -3.733   6.654  0.00  0.00     0.012 A 
ATOM     25  C23 <0> d   1      19.688  -5.064   6.974  0.00  0.00     0.037 A 
ATOM     26  C21 <0> d   1      18.676  -5.794   6.368  0.00  0.00     0.065 A 
ATOM     27  C20 <0> d   1      17.840  -5.181   5.444  0.00  0.00     0.037 A 
ATOM     28  C19 <0> d   1      18.019  -3.847   5.132  0.00  0.00     0.012 A 
BRANCH  26  29
ATOM     29  O22 <0> d   1      18.502  -7.106   6.677  0.00  0.00    -0.361 OA
ATOM     30  H42 <0> d   1      18.167  -7.258   7.571  0.00  0.00     0.217 HD
ENDBRANCH  26  29
ENDBRANCH  18  23
ENDBRANCH   2  18
TORSDOF 6
ENDMDL
MODEL 9
REMARK VINA RESULT:      -7.0      3.363      4.935
REMARK  6 active torsions:
REMARK  status: ('A' for Active; 'I' for Inactive)
REMARK    1  A    between atoms: C7_6  and  N9_7 
REMARK       I    between atoms: N9_7  and  C10_8 
REMARK    2  A    between atoms: C10_8  and  C12_10 
REMARK    3  A    between atoms: C12_10  and  N14_11 
REMARK    4  A    between atoms: C12_10  and  C18_15 
REMARK    5  A    between atoms: C21_18  and  O22_19 
REMARK    6  A    between atoms: C28_25  and  C30_26 
ROOT
ATOM      1  N9  <0> d   1      18.214  -2.620   5.431  0.00  0.00    -0.344 N 
ATOM      2  C10 <0> d   1      18.775  -1.437   5.113  0.00  0.00     0.253 C 
ATOM      3  O11 <0> d   1      19.894  -1.404   4.645  0.00  0.00    -0.271 OA
ATOM      4  H39 <0> d   1      17.319  -2.648   5.805  0.00  0.00     0.163 HD
ENDROOT
BRANCH   1   5
ATOM      5  C7  <0> d   1      18.954  -3.865   5.213  0.00  0.00     0.199 C 
ATOM      6  C5  <0> d   1      19.509  -4.499   6.483  0.00  0.00     0.160 C 
ATOM      7  S4  <0> d   1      19.129  -3.569   8.016  0.00  0.00    -0.135 SA
ATOM      8  N27 <0> d   1      18.511  -5.575   6.429  0.00  0.00    -0.219 NA
ATOM      9  C2  <0> d   1      18.180  -4.943   8.796  0.00  0.00     0.029 C 
ATOM     10  C1  <0> d   1      19.111  -5.928   9.507  0.00  0.00     0.029 C 
ATOM     11  C28 <0> d   1      17.544  -5.578   7.531  0.00  0.00     0.186 C 
ATOM     12  C3  <0> d   1      17.109  -4.410   9.750  0.00  0.00     0.029 C 
ATOM     13  C25 <0> d   1      18.101  -5.106   5.211  0.00  0.00     0.227 C 
ATOM     14  O26 <0> d   1      17.317  -5.546   4.398  0.00  0.00    -0.277 OA
BRANCH  11  15
ATOM     15  C30 <0> d   1      17.125  -6.996   7.825  0.00  0.00     0.193 C 
ATOM     16  O31 <0> d   1      16.099  -7.211   8.448  0.00  0.00    -0.647 OA
ATOM     17  O32 <0> d   1      17.811  -7.927   7.442  0.00  0.00    -0.647 OA
ENDBRANCH  11  15
ENDBRANCH   1   5
BRANCH   2  18
ATOM     18  C12 <0> d   1      18.014  -0.157   5.337  0.00  0.00     0.307 C 
BRANCH  18  19
ATOM     19  N14 <0> d   1      18.571   0.900   4.482  0.00  0.00    -0.062 N 
ATOM     20  H15 <0> d   1      19.579   0.862   4.514  0.00  0.00     0.275 HD
ATOM     21  H16 <0> d   1      18.260   0.764   3.532  0.00  0.00     0.275 HD
ATOM     22  H17 <0> d   1      18.258   1.800   4.813  0.00  0.00     0.275 HD
ENDBRANCH  18  19
BRANCH  18  23
ATOM     23  C18 <0> d   1      18.133   0.252   6.782  0.00  0.00    -0.019 A 
ATOM     24  C24 <0> d   1      19.104   1.160   7.165  0.00  0.00     0.012 A 
ATOM     25  C23 <0> d   1      19.212   1.541   8.487  0.00  0.00     0.037 A 
ATOM     26  C21 <0> d   1      18.354   1.005   9.436  0.00  0.00     0.065 A 
ATOM     27  C20 <0> d   1      17.384   0.089   9.051  0.00  0.00     0.037 A 
ATOM     28  C19 <0> d   1      17.276  -0.284   7.725  0.00  0.00     0.012 A 
BRANCH  26  29
ATOM     29  O22 <0> d   1      18.462   1.374  10.739  0.00  0.00    -0.361 OA
ATOM     30  H42 <0> d   1      17.714   1.893  11.064  0.00  0.00     0.217 HD
ENDBRANCH  26  29
ENDBRANCH  18  23
ENDBRANCH   2  18
TORSDOF 6
ENDMDL
