MODEL 1
REMARK VINA RESULT:      -8.5      0.000      0.000
REMARK  11 active torsions:
REMARK  status: ('A' for Active; 'I' for Inactive)
REMARK    1  A    between atoms: O2_2  and  C3_3 
REMARK    2  A    between atoms: C8_8  and  O9_9 
REMARK    3  A    between atoms: O9_9  and  C10_10 
REMARK    4  A    between atoms: C10_10  and  C11_11 
REMARK    5  A    between atoms: C11_11  and  N12_12 
REMARK    6  A    between atoms: N12_12  and  C13_13 
REMARK    7  A    between atoms: C13_13  and  C14_14 
REMARK    8  A    between atoms: C14_14  and  O16_15 
REMARK    9  A    between atoms: C14_14  and  C17_16 
REMARK   10  A    between atoms: C17_16  and  O18_17 
REMARK   11  A    between atoms: O18_17  and  C19_18 
ROOT
ATOM      1  C14 ZIN A   1      20.335  -0.759  10.535  0.00  0.00     0.170 C 
ENDROOT
BRANCH   1   2
ATOM      2  C13 ZIN A   1      19.757  -2.019  11.183  0.00  0.00     0.303 C 
BRANCH   2   3
ATOM      3  N12 ZIN A   1      19.572  -3.056  10.159  0.00  0.00     0.088 N 
ATOM      4  H43 ZIN A   1      19.901  -3.951  10.487  0.00  0.00     0.316 HD
BRANCH   3   5
ATOM      5  C11 ZIN A   1      18.168  -3.133   9.735  0.00  0.00     0.296 C 
BRANCH   5   6
ATOM      6  C10 ZIN A   1      18.097  -3.151   8.206  0.00  0.00     0.205 C 
BRANCH   6   7
ATOM      7  O9  ZIN A   1      19.297  -2.594   7.667  0.00  0.00    -0.347 OA
BRANCH   7   8
ATOM      8  C8  ZIN A   1      19.163  -1.522   6.842  0.00  0.00     0.102 A 
ATOM      9  C3  ZIN A   1      19.283  -1.683   5.464  0.00  0.00     0.101 A 
ATOM     10  C4  ZIN A   1      19.145  -0.588   4.627  0.00  0.00     0.039 A 
ATOM     11  C5  ZIN A   1      18.896   0.663   5.161  0.00  0.00     0.003 A 
ATOM     12  C6  ZIN A   1      18.783   0.824   6.529  0.00  0.00     0.003 A 
ATOM     13  C7  ZIN A   1      18.919  -0.265   7.370  0.00  0.00     0.039 A 
BRANCH   9  14
ATOM     14  O2  ZIN A   1      19.528  -2.914   4.941  0.00  0.00    -0.353 OA
ATOM     15  C1  ZIN A   1      18.415  -3.615   4.381  0.00  0.00     0.210 C 
ENDBRANCH   9  14
ENDBRANCH   7   8
ENDBRANCH   6   7
ENDBRANCH   5   6
ENDBRANCH   3   5
ENDBRANCH   2   3
ENDBRANCH   1   2
BRANCH   1  16
ATOM     16  O16 ZIN A   1      21.695  -0.596  10.940  0.00  0.00    -0.392 OA
ATOM     17  H46 ZIN A   1      22.154  -1.427  11.125  0.00  0.00     0.210 HD
ENDBRANCH   1  16
BRANCH   1  18
ATOM     18  C17 ZIN A   1      19.522   0.459  10.975  0.00  0.00     0.209 C 
BRANCH  18  19
ATOM     19  O18 ZIN A   1      20.276   1.219  11.921  0.00  0.00    -0.348 OA
BRANCH  19  20
ATOM     20  C19 ZIN A   1      19.626   2.226  12.562  0.00  0.00     0.082 A 
ATOM     21  C24 ZIN A   1      19.012   1.993  13.795  0.00  0.00     0.036 A 
ATOM     22  C23 ZIN A   1      18.349   3.035  14.456  0.00  0.00     0.046 A 
ATOM     23  C25 ZIN A   1      18.892   0.805  14.660  0.00  0.00     0.006 A 
ATOM     24  C22 ZIN A   1      18.298   4.296  13.866  0.00  0.00     0.030 A 
ATOM     25  N31 ZIN A   1      17.842   2.546  15.647  0.00  0.00    -0.355 N 
ATOM     26  C21 ZIN A   1      18.902   4.513  12.646  0.00  0.00     0.005 A 
ATOM     27  C20 ZIN A   1      19.565   3.486  11.993  0.00  0.00     0.038 A 
ATOM     28  C26 ZIN A   1      18.163   1.208  15.789  0.00  0.00     0.043 A 
ATOM     29  H56 ZIN A   1      17.339   3.067  16.292  0.00  0.00     0.166 HD
ATOM     30  C27 ZIN A   1      17.893   0.282  16.792  0.00  0.00     0.030 A 
ATOM     31  C28 ZIN A   1      18.339  -1.017  16.670  0.00  0.00     0.002 A 
ATOM     32  C29 ZIN A   1      19.059  -1.413  15.554  0.00  0.00     0.001 A 
ATOM     33  C30 ZIN A   1      19.337  -0.510  14.550  0.00  0.00     0.014 A 
ENDBRANCH  19  20
ENDBRANCH  18  19
ENDBRANCH   1  18
TORSDOF 11
ENDMDL
MODEL 2
REMARK VINA RESULT:      -8.5      2.214      7.878
REMARK  11 active torsions:
REMARK  status: ('A' for Active; 'I' for Inactive)
REMARK    1  A    between atoms: O2_2  and  C3_3 
REMARK    2  A    between atoms: C8_8  and  O9_9 
REMARK    3  A    between atoms: O9_9  and  C10_10 
REMARK    4  A    between atoms: C10_10  and  C11_11 
REMARK    5  A    between atoms: C11_11  and  N12_12 
REMARK    6  A    between atoms: N12_12  and  C13_13 
REMARK    7  A    between atoms: C13_13  and  C14_14 
REMARK    8  A    between atoms: C14_14  and  O16_15 
REMARK    9  A    between atoms: C14_14  and  C17_16 
REMARK   10  A    between atoms: C17_16  and  O18_17 
REMARK   11  A    between atoms: O18_17  and  C19_18 
ROOT
ATOM      1  C14 ZIN A   1      19.147   3.198  11.393  0.00  0.00     0.170 C 
ENDROOT
BRANCH   1   2
ATOM      2  C13 ZIN A   1      18.521   4.569  11.660  0.00  0.00     0.303 C 
BRANCH   2   3
ATOM      3  N12 ZIN A   1      18.639   4.891  13.089  0.00  0.00     0.088 N 
ATOM      4  H43 ZIN A   1      18.598   5.887  13.239  0.00  0.00     0.316 HD
BRANCH   3   5
ATOM      5  C11 ZIN A   1      17.607   4.197  13.871  0.00  0.00     0.296 C 
BRANCH   5   6
ATOM      6  C10 ZIN A   1      18.271   3.400  14.997  0.00  0.00     0.205 C 
BRANCH   6   7
ATOM      7  O9  ZIN A   1      19.201   2.471  14.437  0.00  0.00    -0.347 OA
BRANCH   7   8
ATOM      8  C8  ZIN A   1      18.994   1.153  14.706  0.00  0.00     0.102 A 
ATOM      9  C3  ZIN A   1      19.761   0.183  14.068  0.00  0.00     0.101 A 
ATOM     10  C4  ZIN A   1      19.546  -1.158  14.345  0.00  0.00     0.039 A 
ATOM     11  C5  ZIN A   1      18.569  -1.528  15.249  0.00  0.00     0.003 A 
ATOM     12  C6  ZIN A   1      17.803  -0.565  15.879  0.00  0.00     0.003 A 
ATOM     13  C7  ZIN A   1      18.012   0.774  15.607  0.00  0.00     0.039 A 
BRANCH   9  14
ATOM     14  O2  ZIN A   1      20.722   0.549  13.179  0.00  0.00    -0.353 OA
ATOM     15  C1  ZIN A   1      20.719  -0.110  11.910  0.00  0.00     0.210 C 
ENDBRANCH   9  14
ENDBRANCH   7   8
ENDBRANCH   6   7
ENDBRANCH   5   6
ENDBRANCH   3   5
ENDBRANCH   2   3
ENDBRANCH   1   2
BRANCH   1  16
ATOM     16  O16 ZIN A   1      20.547   3.251  11.670  0.00  0.00    -0.392 OA
ATOM     17  H46 ZIN A   1      20.836   4.077  12.083  0.00  0.00     0.210 HD
ENDBRANCH   1  16
BRANCH   1  18
ATOM     18  C17 ZIN A   1      18.931   2.816   9.928  0.00  0.00     0.209 C 
BRANCH  18  19
ATOM     19  O18 ZIN A   1      17.669   2.160   9.787  0.00  0.00    -0.348 OA
BRANCH  19  20
ATOM     20  C19 ZIN A   1      17.618   0.843  10.120  0.00  0.00     0.082 A 
ATOM     21  C24 ZIN A   1      17.983  -0.132   9.189  0.00  0.00     0.036 A 
ATOM     22  C23 ZIN A   1      17.934  -1.488   9.537  0.00  0.00     0.046 A 
ATOM     23  C25 ZIN A   1      18.467  -0.074   7.797  0.00  0.00     0.006 A 
ATOM     24  C22 ZIN A   1      17.506  -1.850  10.812  0.00  0.00     0.030 A 
ATOM     25  N31 ZIN A   1      18.350  -2.235   8.450  0.00  0.00    -0.355 N 
ATOM     26  C21 ZIN A   1      17.141  -0.881  11.721  0.00  0.00     0.005 A 
ATOM     27  C20 ZIN A   1      17.195   0.462  11.382  0.00  0.00     0.038 A 
ATOM     28  C26 ZIN A   1      18.680  -1.402   7.395  0.00  0.00     0.043 A 
ATOM     29  H56 ZIN A   1      18.408  -3.203   8.430  0.00  0.00     0.166 HD
ATOM     30  C27 ZIN A   1      19.145  -1.658   6.109  0.00  0.00     0.030 A 
ATOM     31  C28 ZIN A   1      19.392  -0.614   5.244  0.00  0.00     0.002 A 
ATOM     32  C29 ZIN A   1      19.182   0.697   5.643  0.00  0.00     0.001 A 
ATOM     33  C30 ZIN A   1      18.721   0.971   6.913  0.00  0.00     0.014 A 
ENDBRANCH  19  20
ENDBRANCH  18  19
ENDBRANCH   1  18
TORSDOF 11
ENDMDL
MODEL 3
REMARK VINA RESULT:      -8.4      2.116      8.190
REMARK  11 active torsions:
REMARK  status: ('A' for Active; 'I' for Inactive)
REMARK    1  A    between atoms: O2_2  and  C3_3 
REMARK    2  A    between atoms: C8_8  and  O9_9 
REMARK    3  A    between atoms: O9_9  and  C10_10 
REMARK    4  A    between atoms: C10_10  and  C11_11 
REMARK    5  A    between atoms: C11_11  and  N12_12 
REMARK    6  A    between atoms: N12_12  and  C13_13 
REMARK    7  A    between atoms: C13_13  and  C14_14 
REMARK    8  A    between atoms: C14_14  and  O16_15 
REMARK    9  A    between atoms: C14_14  and  C17_16 
REMARK   10  A    between atoms: C17_16  and  O18_17 
REMARK   11  A    between atoms: O18_17  and  C19_18 
ROOT
ATOM      1  C14 ZIN A   1      19.595   2.520  11.665  0.00  0.00     0.170 C 
ENDROOT
BRANCH   1   2
ATOM      2  C13 ZIN A   1      19.921   3.980  11.985  0.00  0.00     0.303 C 
BRANCH   2   3
ATOM      3  N12 ZIN A   1      19.722   4.224  13.420  0.00  0.00     0.088 N 
ATOM      4  H43 ZIN A   1      20.111   5.113  13.693  0.00  0.00     0.316 HD
BRANCH   3   5
ATOM      5  C11 ZIN A   1      18.299   4.140  13.775  0.00  0.00     0.296 C 
BRANCH   5   6
ATOM      6  C10 ZIN A   1      18.135   3.268  15.022  0.00  0.00     0.205 C 
BRANCH   6   7
ATOM      7  O9  ZIN A   1      19.261   2.398  15.146  0.00  0.00    -0.347 OA
BRANCH   7   8
ATOM      8  C8  ZIN A   1      19.019   1.136  15.592  0.00  0.00     0.102 A 
ATOM      9  C3  ZIN A   1      19.188   0.829  16.939  0.00  0.00     0.101 A 
ATOM     10  C4  ZIN A   1      18.941  -0.458  17.389  0.00  0.00     0.039 A 
ATOM     11  C5  ZIN A   1      18.532  -1.434  16.500  0.00  0.00     0.003 A 
ATOM     12  C6  ZIN A   1      18.369  -1.131  15.162  0.00  0.00     0.003 A 
ATOM     13  C7  ZIN A   1      18.615   0.151  14.706  0.00  0.00     0.039 A 
BRANCH   9  14
ATOM     14  O2  ZIN A   1      19.590   1.791  17.813  0.00  0.00    -0.353 OA
ATOM     15  C1  ZIN A   1      18.583   2.384  18.634  0.00  0.00     0.210 C 
ENDBRANCH   9  14
ENDBRANCH   7   8
ENDBRANCH   6   7
ENDBRANCH   5   6
ENDBRANCH   3   5
ENDBRANCH   2   3
ENDBRANCH   1   2
BRANCH   1  16
ATOM     16  O16 ZIN A   1      20.747   1.711  11.904  0.00  0.00    -0.392 OA
ATOM     17  H46 ZIN A   1      21.181   1.883  12.752  0.00  0.00     0.210 HD
ENDBRANCH   1  16
BRANCH   1  18
ATOM     18  C17 ZIN A   1      19.183   2.399  10.197  0.00  0.00     0.209 C 
BRANCH  18  19
ATOM     19  O18 ZIN A   1      19.851   1.284   9.604  0.00  0.00    -0.348 OA
BRANCH  19  20
ATOM     20  C19 ZIN A   1      19.209   0.646   8.591  0.00  0.00     0.082 A 
ATOM     21  C24 ZIN A   1      18.790  -0.677   8.747  0.00  0.00     0.036 A 
ATOM     22  C23 ZIN A   1      18.123  -1.330   7.702  0.00  0.00     0.046 A 
ATOM     23  C25 ZIN A   1      18.876  -1.644   9.857  0.00  0.00     0.006 A 
ATOM     24  C22 ZIN A   1      17.895  -0.650   6.508  0.00  0.00     0.030 A 
ATOM     25  N31 ZIN A   1      17.814  -2.613   8.114  0.00  0.00    -0.355 N 
ATOM     26  C21 ZIN A   1      18.318   0.654   6.361  0.00  0.00     0.005 A 
ATOM     27  C20 ZIN A   1      18.973   1.304   7.396  0.00  0.00     0.038 A 
ATOM     28  C26 ZIN A   1      18.254  -2.819   9.409  0.00  0.00     0.043 A 
ATOM     29  H56 ZIN A   1      17.349  -3.273   7.575  0.00  0.00     0.166 HD
ATOM     30  C27 ZIN A   1      18.184  -3.919  10.259  0.00  0.00     0.030 A 
ATOM     31  C28 ZIN A   1      18.724  -3.849  11.525  0.00  0.00     0.002 A 
ATOM     32  C29 ZIN A   1      19.338  -2.686  11.966  0.00  0.00     0.001 A 
ATOM     33  C30 ZIN A   1      19.417  -1.586  11.139  0.00  0.00     0.014 A 
ENDBRANCH  19  20
ENDBRANCH  18  19
ENDBRANCH   1  18
TORSDOF 11
ENDMDL
MODEL 4
REMARK VINA RESULT:      -8.4      1.895      2.958
REMARK  11 active torsions:
REMARK  status: ('A' for Active; 'I' for Inactive)
REMARK    1  A    between atoms: O2_2  and  C3_3 
REMARK    2  A    between atoms: C8_8  and  O9_9 
REMARK    3  A    between atoms: O9_9  and  C10_10 
REMARK    4  A    between atoms: C10_10  and  C11_11 
REMARK    5  A    between atoms: C11_11  and  N12_12 
REMARK    6  A    between atoms: N12_12  and  C13_13 
REMARK    7  A    between atoms: C13_13  and  C14_14 
REMARK    8  A    between atoms: C14_14  and  O16_15 
REMARK    9  A    between atoms: C14_14  and  C17_16 
REMARK   10  A    between atoms: C17_16  and  O18_17 
REMARK   11  A    between atoms: O18_17  and  C19_18 
ROOT
ATOM      1  C14 ZIN A   1      20.511  -0.298  11.306  0.00  0.00     0.170 C 
ENDROOT
BRANCH   1   2
ATOM      2  C13 ZIN A   1      19.753  -1.547  11.762  0.00  0.00     0.303 C 
BRANCH   2   3
ATOM      3  N12 ZIN A   1      19.887  -2.599  10.745  0.00  0.00     0.088 N 
ATOM      4  H43 ZIN A   1      20.308  -3.427  11.136  0.00  0.00     0.316 HD
BRANCH   3   5
ATOM      5  C11 ZIN A   1      18.588  -2.906  10.132  0.00  0.00     0.296 C 
BRANCH   5   6
ATOM      6  C10 ZIN A   1      18.586  -2.434   8.676  0.00  0.00     0.205 C 
BRANCH   6   7
ATOM      7  O9  ZIN A   1      17.609  -1.405   8.511  0.00  0.00    -0.347 OA
BRANCH   7   8
ATOM      8  C8  ZIN A   1      18.011  -0.128   8.748  0.00  0.00     0.102 A 
ATOM      9  C3  ZIN A   1      17.399   0.622   9.749  0.00  0.00     0.101 A 
ATOM     10  C4  ZIN A   1      17.813   1.922   9.987  0.00  0.00     0.039 A 
ATOM     11  C5  ZIN A   1      18.827   2.475   9.227  0.00  0.00     0.003 A 
ATOM     12  C6  ZIN A   1      19.431   1.733   8.229  0.00  0.00     0.003 A 
ATOM     13  C7  ZIN A   1      19.023   0.434   7.987  0.00  0.00     0.039 A 
BRANCH   9  14
ATOM     14  O2  ZIN A   1      16.402   0.077  10.496  0.00  0.00    -0.353 OA
ATOM     15  C1  ZIN A   1      16.592   0.050  11.912  0.00  0.00     0.210 C 
ENDBRANCH   9  14
ENDBRANCH   7   8
ENDBRANCH   6   7
ENDBRANCH   5   6
ENDBRANCH   3   5
ENDBRANCH   2   3
ENDBRANCH   1   2
BRANCH   1  16
ATOM     16  O16 ZIN A   1      21.812  -0.669  10.852  0.00  0.00    -0.392 OA
ATOM     17  H46 ZIN A   1      22.204  -0.046  10.224  0.00  0.00     0.210 HD
ENDBRANCH   1  16
BRANCH   1  18
ATOM     18  C17 ZIN A   1      20.638   0.677  12.478  0.00  0.00     0.209 C 
BRANCH  18  19
ATOM     19  O18 ZIN A   1      19.337   1.003  12.971  0.00  0.00    -0.348 OA
BRANCH  19  20
ATOM     20  C19 ZIN A   1      19.192   2.207  13.583  0.00  0.00     0.082 A 
ATOM     21  C24 ZIN A   1      19.021   2.276  14.968  0.00  0.00     0.036 A 
ATOM     22  C23 ZIN A   1      18.878   3.521  15.595  0.00  0.00     0.046 A 
ATOM     23  C25 ZIN A   1      18.962   1.259  16.033  0.00  0.00     0.006 A 
ATOM     24  C22 ZIN A   1      18.895   4.680  14.825  0.00  0.00     0.030 A 
ATOM     25  N31 ZIN A   1      18.734   3.311  16.955  0.00  0.00    -0.355 N 
ATOM     26  C21 ZIN A   1      19.058   4.601  13.458  0.00  0.00     0.005 A 
ATOM     27  C20 ZIN A   1      19.207   3.372  12.835  0.00  0.00     0.038 A 
ATOM     28  C26 ZIN A   1      18.787   1.957  17.238  0.00  0.00     0.043 A 
ATOM     29  H56 ZIN A   1      18.618   4.011  17.616  0.00  0.00     0.166 HD
ATOM     30  C27 ZIN A   1      18.697   1.246  18.431  0.00  0.00     0.030 A 
ATOM     31  C28 ZIN A   1      18.778  -0.130  18.421  0.00  0.00     0.002 A 
ATOM     32  C29 ZIN A   1      18.952  -0.818  17.230  0.00  0.00     0.001 A 
ATOM     33  C30 ZIN A   1      19.044  -0.131  16.038  0.00  0.00     0.014 A 
ENDBRANCH  19  20
ENDBRANCH  18  19
ENDBRANCH   1  18
TORSDOF 11
ENDMDL
MODEL 5
REMARK VINA RESULT:      -8.3      1.407      3.252
REMARK  11 active torsions:
REMARK  status: ('A' for Active; 'I' for Inactive)
REMARK    1  A    between atoms: O2_2  and  C3_3 
REMARK    2  A    between atoms: C8_8  and  O9_9 
REMARK    3  A    between atoms: O9_9  and  C10_10 
REMARK    4  A    between atoms: C10_10  and  C11_11 
REMARK    5  A    between atoms: C11_11  and  N12_12 
REMARK    6  A    between atoms: N12_12  and  C13_13 
REMARK    7  A    between atoms: C13_13  and  C14_14 
REMARK    8  A    between atoms: C14_14  and  O16_15 
REMARK    9  A    between atoms: C14_14  and  C17_16 
REMARK   10  A    between atoms: C17_16  and  O18_17 
REMARK   11  A    between atoms: O18_17  and  C19_18 
ROOT
ATOM      1  C14 ZIN A   1      19.460  -2.703  11.436  0.00  0.00     0.170 C 
ENDROOT
BRANCH   1   2
ATOM      2  C13 ZIN A   1      19.588  -4.215  11.242  0.00  0.00     0.303 C 
BRANCH   2   3
ATOM      3  N12 ZIN A   1      18.720  -4.642  10.137  0.00  0.00     0.088 N 
ATOM      4  H43 ZIN A   1      18.096  -5.378  10.431  0.00  0.00     0.316 HD
BRANCH   3   5
ATOM      5  C11 ZIN A   1      17.971  -3.505   9.586  0.00  0.00     0.296 C 
BRANCH   5   6
ATOM      6  C10 ZIN A   1      18.169  -3.451   8.069  0.00  0.00     0.205 C 
BRANCH   6   7
ATOM      7  O9  ZIN A   1      19.362  -2.725   7.771  0.00  0.00    -0.347 OA
BRANCH   7   8
ATOM      8  C8  ZIN A   1      19.212  -1.499   7.202  0.00  0.00     0.102 A 
ATOM      9  C3  ZIN A   1      19.341  -1.349   5.824  0.00  0.00     0.101 A 
ATOM     10  C4  ZIN A   1      19.187  -0.098   5.249  0.00  0.00     0.039 A 
ATOM     11  C5  ZIN A   1      18.912   0.999   6.044  0.00  0.00     0.003 A 
ATOM     12  C6  ZIN A   1      18.790   0.852   7.413  0.00  0.00     0.003 A 
ATOM     13  C7  ZIN A   1      18.943  -0.394   7.993  0.00  0.00     0.039 A 
BRANCH   9  14
ATOM     14  O2  ZIN A   1      19.611  -2.429   5.043  0.00  0.00    -0.353 OA
ATOM     15  C1  ZIN A   1      18.506  -3.039   4.373  0.00  0.00     0.210 C 
ENDBRANCH   9  14
ENDBRANCH   7   8
ENDBRANCH   6   7
ENDBRANCH   5   6
ENDBRANCH   3   5
ENDBRANCH   2   3
ENDBRANCH   1   2
BRANCH   1  16
ATOM     16  O16 ZIN A   1      20.702  -2.074  11.119  0.00  0.00    -0.392 OA
ATOM     17  H46 ZIN A   1      21.479  -2.615  11.317  0.00  0.00     0.210 HD
ENDBRANCH   1  16
BRANCH   1  18
ATOM     18  C17 ZIN A   1      19.093  -2.405  12.891  0.00  0.00     0.209 C 
BRANCH  18  19
ATOM     19  O18 ZIN A   1      18.127  -1.353  12.934  0.00  0.00    -0.348 OA
BRANCH  19  20
ATOM     20  C19 ZIN A   1      18.135  -0.551  14.029  0.00  0.00     0.082 A 
ATOM     21  C24 ZIN A   1      18.032   0.835  13.887  0.00  0.00     0.036 A 
ATOM     22  C23 ZIN A   1      18.036   1.660  15.020  0.00  0.00     0.046 A 
ATOM     23  C25 ZIN A   1      17.894   1.727  12.720  0.00  0.00     0.006 A 
ATOM     24  C22 ZIN A   1      18.156   1.084  16.282  0.00  0.00     0.030 A 
ATOM     25  N31 ZIN A   1      17.914   2.974  14.605  0.00  0.00    -0.355 N 
ATOM     26  C21 ZIN A   1      18.263  -0.284  16.412  0.00  0.00     0.005 A 
ATOM     27  C20 ZIN A   1      18.253  -1.102  15.294  0.00  0.00     0.038 A 
ATOM     28  C26 ZIN A   1      17.823   3.034  13.226  0.00  0.00     0.043 A 
ATOM     29  H56 ZIN A   1      17.890   3.743  15.196  0.00  0.00     0.166 HD
ATOM     30  C27 ZIN A   1      17.687   4.100  12.342  0.00  0.00     0.030 A 
ATOM     31  C28 ZIN A   1      17.625   3.867  10.985  0.00  0.00     0.002 A 
ATOM     32  C29 ZIN A   1      17.696   2.575  10.487  0.00  0.00     0.001 A 
ATOM     33  C30 ZIN A   1      17.830   1.506  11.347  0.00  0.00     0.014 A 
ENDBRANCH  19  20
ENDBRANCH  18  19
ENDBRANCH   1  18
TORSDOF 11
ENDMDL
MODEL 6
REMARK VINA RESULT:      -8.3      2.338      8.711
REMARK  11 active torsions:
REMARK  status: ('A' for Active; 'I' for Inactive)
REMARK    1  A    between atoms: O2_2  and  C3_3 
REMARK    2  A    between atoms: C8_8  and  O9_9 
REMARK    3  A    between atoms: O9_9  and  C10_10 
REMARK    4  A    between atoms: C10_10  and  C11_11 
REMARK    5  A    between atoms: C11_11  and  N12_12 
REMARK    6  A    between atoms: N12_12  and  C13_13 
REMARK    7  A    between atoms: C13_13  and  C14_14 
REMARK    8  A    between atoms: C14_14  and  O16_15 
REMARK    9  A    between atoms: C14_14  and  C17_16 
REMARK   10  A    between atoms: C17_16  and  O18_17 
REMARK   11  A    between atoms: O18_17  and  C19_18 
ROOT
ATOM      1  C14 ZIN A   1      19.157  -2.820  11.771  0.00  0.00     0.170 C 
ENDROOT
BRANCH   1   2
ATOM      2  C13 ZIN A   1      18.796  -1.980  12.997  0.00  0.00     0.303 C 
BRANCH   2   3
ATOM      3  N12 ZIN A   1      20.017  -1.391  13.564  0.00  0.00     0.088 N 
ATOM      4  H43 ZIN A   1      20.839  -1.750  13.104  0.00  0.00     0.316 HD
BRANCH   3   5
ATOM      5  C11 ZIN A   1      19.974   0.075  13.498  0.00  0.00     0.296 C 
BRANCH   5   6
ATOM      6  C10 ZIN A   1      18.517   0.545  13.528  0.00  0.00     0.205 C 
BRANCH   6   7
ATOM      7  O9  ZIN A   1      18.345   1.494  14.581  0.00  0.00    -0.347 OA
BRANCH   7   8
ATOM      8  C8  ZIN A   1      18.381   1.017  15.854  0.00  0.00     0.102 A 
ATOM      9  C3  ZIN A   1      19.161   1.653  16.816  0.00  0.00     0.101 A 
ATOM     10  C4  ZIN A   1      19.193   1.163  18.111  0.00  0.00     0.039 A 
ATOM     11  C5  ZIN A   1      18.457   0.042  18.445  0.00  0.00     0.003 A 
ATOM     12  C6  ZIN A   1      17.687  -0.593  17.489  0.00  0.00     0.003 A 
ATOM     13  C7  ZIN A   1      17.650  -0.110  16.194  0.00  0.00     0.039 A 
BRANCH   9  14
ATOM     14  O2  ZIN A   1      19.885   2.756  16.486  0.00  0.00    -0.353 OA
ATOM     15  C1  ZIN A   1      19.367   4.021  16.904  0.00  0.00     0.210 C 
ENDBRANCH   9  14
ENDBRANCH   7   8
ENDBRANCH   6   7
ENDBRANCH   5   6
ENDBRANCH   3   5
ENDBRANCH   2   3
ENDBRANCH   1   2
BRANCH   1  16
ATOM     16  O16 ZIN A   1      20.574  -2.991  11.710  0.00  0.00    -0.392 OA
ATOM     17  H46 ZIN A   1      20.915  -3.135  10.817  0.00  0.00     0.210 HD
ENDBRANCH   1  16
BRANCH   1  18
ATOM     18  C17 ZIN A   1      18.674  -2.110  10.506  0.00  0.00     0.209 C 
BRANCH  18  19
ATOM     19  O18 ZIN A   1      19.764  -1.408   9.907  0.00  0.00    -0.348 OA
BRANCH  19  20
ATOM     20  C19 ZIN A   1      19.479  -0.227   9.298  0.00  0.00     0.082 A 
ATOM     21  C24 ZIN A   1      19.231  -0.186   7.924  0.00  0.00     0.036 A 
ATOM     22  C23 ZIN A   1      18.931   1.032   7.301  0.00  0.00     0.046 A 
ATOM     23  C25 ZIN A   1      19.191  -1.217   6.870  0.00  0.00     0.006 A 
ATOM     24  C22 ZIN A   1      18.897   2.198   8.062  0.00  0.00     0.030 A 
ATOM     25  N31 ZIN A   1      18.722   0.796   5.954  0.00  0.00    -0.355 N 
ATOM     26  C21 ZIN A   1      19.150   2.149   9.416  0.00  0.00     0.005 A 
ATOM     27  C20 ZIN A   1      19.440   0.943  10.037  0.00  0.00     0.038 A 
ATOM     28  C26 ZIN A   1      18.868  -0.552   5.677  0.00  0.00     0.043 A 
ATOM     29  H56 ZIN A   1      18.498   1.475   5.299  0.00  0.00     0.166 HD
ATOM     30  C27 ZIN A   1      18.759  -1.283   4.498  0.00  0.00     0.030 A 
ATOM     31  C28 ZIN A   1      18.967  -2.646   4.509  0.00  0.00     0.002 A 
ATOM     32  C29 ZIN A   1      19.285  -3.301   5.689  0.00  0.00     0.001 A 
ATOM     33  C30 ZIN A   1      19.398  -2.594   6.867  0.00  0.00     0.014 A 
ENDBRANCH  19  20
ENDBRANCH  18  19
ENDBRANCH   1  18
TORSDOF 11
ENDMDL
MODEL 7
REMARK VINA RESULT:      -8.2      2.364      8.993
REMARK  11 active torsions:
REMARK  status: ('A' for Active; 'I' for Inactive)
REMARK    1  A    between atoms: O2_2  and  C3_3 
REMARK    2  A    between atoms: C8_8  and  O9_9 
REMARK    3  A    between atoms: O9_9  and  C10_10 
REMARK    4  A    between atoms: C10_10  and  C11_11 
REMARK    5  A    between atoms: C11_11  and  N12_12 
REMARK    6  A    between atoms: N12_12  and  C13_13 
REMARK    7  A    between atoms: C13_13  and  C14_14 
REMARK    8  A    between atoms: C14_14  and  O16_15 
REMARK    9  A    between atoms: C14_14  and  C17_16 
REMARK   10  A    between atoms: C17_16  and  O18_17 
REMARK   11  A    between atoms: O18_17  and  C19_18 
ROOT
ATOM      1  C14 ZIN A   1      18.491   3.601  10.903  0.00  0.00     0.170 C 
ENDROOT
BRANCH   1   2
ATOM      2  C13 ZIN A   1      19.316   3.512  12.189  0.00  0.00     0.303 C 
BRANCH   2   3
ATOM      3  N12 ZIN A   1      19.307   4.815  12.868  0.00  0.00     0.088 N 
ATOM      4  H43 ZIN A   1      18.683   5.459  12.405  0.00  0.00     0.316 HD
BRANCH   3   5
ATOM      5  C11 ZIN A   1      18.955   4.668  14.286  0.00  0.00     0.296 C 
BRANCH   5   6
ATOM      6  C10 ZIN A   1      18.438   3.249  14.538  0.00  0.00     0.205 C 
BRANCH   6   7
ATOM      7  O9  ZIN A   1      19.235   2.625  15.547  0.00  0.00    -0.347 OA
BRANCH   7   8
ATOM      8  C8  ZIN A   1      18.877   1.368  15.925  0.00  0.00     0.102 A 
ATOM      9  C3  ZIN A   1      19.159   0.921  17.213  0.00  0.00     0.101 A 
ATOM     10  C4  ZIN A   1      18.793  -0.359  17.594  0.00  0.00     0.039 A 
ATOM     11  C5  ZIN A   1      18.154  -1.192  16.694  0.00  0.00     0.003 A 
ATOM     12  C6  ZIN A   1      17.879  -0.750  15.413  0.00  0.00     0.003 A 
ATOM     13  C7  ZIN A   1      18.242   0.527  15.026  0.00  0.00     0.039 A 
BRANCH   9  14
ATOM     14  O2  ZIN A   1      19.787   1.742  18.097  0.00  0.00    -0.353 OA
ATOM     15  C1  ZIN A   1      18.995   2.757  18.717  0.00  0.00     0.210 C 
ENDBRANCH   9  14
ENDBRANCH   7   8
ENDBRANCH   6   7
ENDBRANCH   5   6
ENDBRANCH   3   5
ENDBRANCH   2   3
ENDBRANCH   1   2
BRANCH   1  16
ATOM     16  O16 ZIN A   1      17.101   3.559  11.225  0.00  0.00    -0.392 OA
ATOM     17  H46 ZIN A   1      16.544   3.197  10.522  0.00  0.00     0.210 HD
ENDBRANCH   1  16
BRANCH   1  18
ATOM     18  C17 ZIN A   1      18.840   2.423   9.992  0.00  0.00     0.209 C 
BRANCH  18  19
ATOM     19  O18 ZIN A   1      17.663   1.654   9.736  0.00  0.00    -0.348 OA
BRANCH  19  20
ATOM     20  C19 ZIN A   1      17.733   0.319   9.977  0.00  0.00     0.082 A 
ATOM     21  C24 ZIN A   1      18.127  -0.559   8.963  0.00  0.00     0.036 A 
ATOM     22  C23 ZIN A   1      18.203  -1.935   9.217  0.00  0.00     0.046 A 
ATOM     23  C25 ZIN A   1      18.532  -0.368   7.558  0.00  0.00     0.006 A 
ATOM     24  C22 ZIN A   1      17.873  -2.415  10.481  0.00  0.00     0.030 A 
ATOM     25  N31 ZIN A   1      18.621  -2.570   8.061  0.00  0.00    -0.355 N 
ATOM     26  C21 ZIN A   1      17.480  -1.542  11.473  0.00  0.00     0.005 A 
ATOM     27  C20 ZIN A   1      17.409  -0.180  11.227  0.00  0.00     0.038 A 
ATOM     28  C26 ZIN A   1      18.828  -1.644   7.054  0.00  0.00     0.043 A 
ATOM     29  H56 ZIN A   1      18.755  -3.526   7.970  0.00  0.00     0.166 HD
ATOM     30  C27 ZIN A   1      19.245  -1.775   5.733  0.00  0.00     0.030 A 
ATOM     31  C28 ZIN A   1      19.362  -0.658   4.933  0.00  0.00     0.002 A 
ATOM     32  C29 ZIN A   1      19.069   0.601   5.433  0.00  0.00     0.001 A 
ATOM     33  C30 ZIN A   1      18.655   0.751   6.739  0.00  0.00     0.014 A 
ENDBRANCH  19  20
ENDBRANCH  18  19
ENDBRANCH   1  18
TORSDOF 11
ENDMDL
MODEL 8
REMARK VINA RESULT:      -8.2      1.218      2.080
REMARK  11 active torsions:
REMARK  status: ('A' for Active; 'I' for Inactive)
REMARK    1  A    between atoms: O2_2  and  C3_3 
REMARK    2  A    between atoms: C8_8  and  O9_9 
REMARK    3  A    between atoms: O9_9  and  C10_10 
REMARK    4  A    between atoms: C10_10  and  C11_11 
REMARK    5  A    between atoms: C11_11  and  N12_12 
REMARK    6  A    between atoms: N12_12  and  C13_13 
REMARK    7  A    between atoms: C13_13  and  C14_14 
REMARK    8  A    between atoms: C14_14  and  O16_15 
REMARK    9  A    between atoms: C14_14  and  C17_16 
REMARK   10  A    between atoms: C17_16  and  O18_17 
REMARK   11  A    between atoms: O18_17  and  C19_18 
ROOT
ATOM      1  C14 ZIN A   1      18.602  -1.280  11.244  0.00  0.00     0.170 C 
ENDROOT
BRANCH   1   2
ATOM      2  C13 ZIN A   1      18.616  -2.809  11.226  0.00  0.00     0.303 C 
BRANCH   2   3
ATOM      3  N12 ZIN A   1      19.706  -3.279  10.359  0.00  0.00     0.088 N 
ATOM      4  H43 ZIN A   1      20.463  -3.659  10.906  0.00  0.00     0.316 HD
BRANCH   3   5
ATOM      5  C11 ZIN A   1      19.216  -4.260   9.383  0.00  0.00     0.296 C 
BRANCH   5   6
ATOM      6  C10 ZIN A   1      18.712  -3.530   8.135  0.00  0.00     0.205 C 
BRANCH   6   7
ATOM      7  O9  ZIN A   1      19.377  -2.272   8.019  0.00  0.00    -0.347 OA
BRANCH   7   8
ATOM      8  C8  ZIN A   1      19.178  -1.573   6.869  0.00  0.00     0.102 A 
ATOM      9  C3  ZIN A   1      19.123  -0.182   6.900  0.00  0.00     0.101 A 
ATOM     10  C4  ZIN A   1      18.919   0.526   5.726  0.00  0.00     0.039 A 
ATOM     11  C5  ZIN A   1      18.767  -0.149   4.530  0.00  0.00     0.003 A 
ATOM     12  C6  ZIN A   1      18.816  -1.530   4.500  0.00  0.00     0.003 A 
ATOM     13  C7  ZIN A   1      19.018  -2.243   5.668  0.00  0.00     0.039 A 
BRANCH   9  14
ATOM     14  O2  ZIN A   1      19.273   0.481   8.078  0.00  0.00    -0.353 OA
ATOM     15  C1  ZIN A   1      19.128   1.902   8.046  0.00  0.00     0.210 C 
ENDBRANCH   9  14
ENDBRANCH   7   8
ENDBRANCH   6   7
ENDBRANCH   5   6
ENDBRANCH   3   5
ENDBRANCH   2   3
ENDBRANCH   1   2
BRANCH   1  16
ATOM     16  O16 ZIN A   1      17.762  -0.799  10.194  0.00  0.00    -0.392 OA
ATOM     17  H46 ZIN A   1      17.427   0.098  10.335  0.00  0.00     0.210 HD
ENDBRANCH   1  16
BRANCH   1  18
ATOM     18  C17 ZIN A   1      20.024  -0.754  11.041  0.00  0.00     0.209 C 
BRANCH  18  19
ATOM     19  O18 ZIN A   1      20.462  -0.093  12.229  0.00  0.00    -0.348 OA
BRANCH  19  20
ATOM     20  C19 ZIN A   1      19.851   1.078  12.546  0.00  0.00     0.082 A 
ATOM     21  C24 ZIN A   1      19.058   1.171  13.692  0.00  0.00     0.036 A 
ATOM     22  C23 ZIN A   1      18.434   2.382  14.018  0.00  0.00     0.046 A 
ATOM     23  C25 ZIN A   1      18.693   0.213  14.752  0.00  0.00     0.006 A 
ATOM     24  C22 ZIN A   1      18.604   3.484  13.183  0.00  0.00     0.030 A 
ATOM     25  N31 ZIN A   1      17.724   2.207  15.192  0.00  0.00    -0.355 N 
ATOM     26  C21 ZIN A   1      19.383   3.381  12.051  0.00  0.00     0.005 A 
ATOM     27  C20 ZIN A   1      20.007   2.185  11.729  0.00  0.00     0.038 A 
ATOM     28  C26 ZIN A   1      17.872   0.910  15.651  0.00  0.00     0.043 A 
ATOM     29  H56 ZIN A   1      17.202   2.895  15.634  0.00  0.00     0.166 HD
ATOM     30  C27 ZIN A   1      17.370   0.249  16.768  0.00  0.00     0.030 A 
ATOM     31  C28 ZIN A   1      17.679  -1.077  16.983  0.00  0.00     0.002 A 
ATOM     32  C29 ZIN A   1      18.491  -1.764  16.093  0.00  0.00     0.001 A 
ATOM     33  C30 ZIN A   1      18.999  -1.127  14.981  0.00  0.00     0.014 A 
ENDBRANCH  19  20
ENDBRANCH  18  19
ENDBRANCH   1  18
TORSDOF 11
ENDMDL
MODEL 9
REMARK VINA RESULT:      -8.2      1.829      3.877
REMARK  11 active torsions:
REMARK  status: ('A' for Active; 'I' for Inactive)
REMARK    1  A    between atoms: O2_2  and  C3_3 
REMARK    2  A    between atoms: C8_8  and  O9_9 
REMARK    3  A    between atoms: O9_9  and  C10_10 
REMARK    4  A    between atoms: C10_10  and  C11_11 
REMARK    5  A    between atoms: C11_11  and  N12_12 
REMARK    6  A    between atoms: N12_12  and  C13_13 
REMARK    7  A    between atoms: C13_13  and  C14_14 
REMARK    8  A    between atoms: C14_14  and  O16_15 
REMARK    9  A    between atoms: C14_14  and  C17_16 
REMARK   10  A    between atoms: C17_16  and  O18_17 
REMARK   11  A    between atoms: O18_17  and  C19_18 
ROOT
ATOM      1  C14 ZIN A   1      20.336   0.695  12.229  0.00  0.00     0.170 C 
ENDROOT
BRANCH   1   2
ATOM      2  C13 ZIN A   1      19.816  -0.014  10.977  0.00  0.00     0.303 C 
BRANCH   2   3
ATOM      3  N12 ZIN A   1      18.453  -0.506  11.223  0.00  0.00     0.088 N 
ATOM      4  H43 ZIN A   1      18.307  -0.688  12.204  0.00  0.00     0.316 HD
BRANCH   3   5
ATOM      5  C11 ZIN A   1      17.452   0.435  10.706  0.00  0.00     0.296 C 
BRANCH   5   6
ATOM      6  C10 ZIN A   1      17.815   0.829   9.272  0.00  0.00     0.205 C 
BRANCH   6   7
ATOM      7  O9  ZIN A   1      17.125  -0.022   8.356  0.00  0.00    -0.347 OA
BRANCH   7   8
ATOM      8  C8  ZIN A   1      17.811  -0.426   7.253  0.00  0.00     0.102 A 
ATOM      9  C3  ZIN A   1      18.643  -1.541   7.319  0.00  0.00     0.101 A 
ATOM     10  C4  ZIN A   1      19.340  -1.948   6.193  0.00  0.00     0.039 A 
ATOM     11  C5  ZIN A   1      19.213  -1.245   5.010  0.00  0.00     0.003 A 
ATOM     12  C6  ZIN A   1      18.392  -0.135   4.946  0.00  0.00     0.003 A 
ATOM     13  C7  ZIN A   1      17.693   0.277   6.066  0.00  0.00     0.039 A 
BRANCH   9  14
ATOM     14  O2  ZIN A   1      18.767  -2.232   8.484  0.00  0.00    -0.353 OA
ATOM     15  C1  ZIN A   1      17.988  -3.422   8.618  0.00  0.00     0.210 C 
ENDBRANCH   9  14
ENDBRANCH   7   8
ENDBRANCH   6   7
ENDBRANCH   5   6
ENDBRANCH   3   5
ENDBRANCH   2   3
ENDBRANCH   1   2
BRANCH   1  16
ATOM     16  O16 ZIN A   1      21.763   0.717  12.206  0.00  0.00    -0.392 OA
ATOM     17  H46 ZIN A   1      22.167  -0.135  11.986  0.00  0.00     0.210 HD
ENDBRANCH   1  16
BRANCH   1  18
ATOM     18  C17 ZIN A   1      19.856  -0.052  13.474  0.00  0.00     0.209 C 
BRANCH  18  19
ATOM     19  O18 ZIN A   1      18.831   0.705  14.119  0.00  0.00    -0.348 OA
BRANCH  19  20
ATOM     20  C19 ZIN A   1      18.935   0.868  15.464  0.00  0.00     0.082 A 
ATOM     21  C24 ZIN A   1      19.085   2.146  16.008  0.00  0.00     0.036 A 
ATOM     22  C23 ZIN A   1      19.187   2.309  17.396  0.00  0.00     0.046 A 
ATOM     23  C25 ZIN A   1      19.157   3.496  15.420  0.00  0.00     0.006 A 
ATOM     24  C22 ZIN A   1      19.150   1.188  18.220  0.00  0.00     0.030 A 
ATOM     25  N31 ZIN A   1      19.318   3.659  17.669  0.00  0.00    -0.355 N 
ATOM     26  C21 ZIN A   1      19.007  -0.069  17.673  0.00  0.00     0.005 A 
ATOM     27  C20 ZIN A   1      18.900  -0.234  16.301  0.00  0.00     0.038 A 
ATOM     28  C26 ZIN A   1      19.297   4.389  16.493  0.00  0.00     0.043 A 
ATOM     29  H56 ZIN A   1      19.406   4.041  18.556  0.00  0.00     0.166 HD
ATOM     30  C27 ZIN A   1      19.390   5.753  16.236  0.00  0.00     0.030 A 
ATOM     31  C28 ZIN A   1      19.345   6.216  14.939  0.00  0.00     0.002 A 
ATOM     32  C29 ZIN A   1      19.207   5.332  13.880  0.00  0.00     0.001 A 
ATOM     33  C30 ZIN A   1      19.112   3.977  14.114  0.00  0.00     0.014 A 
ENDBRANCH  19  20
ENDBRANCH  18  19
ENDBRANCH   1  18
TORSDOF 11
ENDMDL
