MODEL 1
REMARK VINA RESULT:      -7.0      0.000      0.000
REMARK  6 active torsions:
REMARK  status: ('A' for Active; 'I' for Inactive)
REMARK    1  A    between atoms: C7_6  and  O9_7 
REMARK    2  A    between atoms: O9_7  and  C10_8 
REMARK    3  A    between atoms: C10_8  and  C12_10 
REMARK    4  A    between atoms: C12_10  and  C14_11 
REMARK    5  A    between atoms: C12_10  and  C16_13 
REMARK    6  A    between atoms: C14_11  and  O15_12 
ROOT
ATOM      1  O9  ZIN A   1      19.081   1.492  12.077  0.00  0.00    -0.315 OA
ENDROOT
BRANCH   1   2
ATOM      2  C7  ZIN A   1      19.535   1.395  13.454  0.00  0.00     0.136 C 
ATOM      3  C6  ZIN A   1      20.216   0.041  13.671  0.00  0.00     0.068 C 
ATOM      4  C4  ZIN A   1      19.166  -1.073  13.525  0.00  0.00     0.222 C 
ATOM      5  N2  ZIN A   1      18.176  -0.891  14.620  0.00  0.00    -0.061 N 
ATOM      6  C28 ZIN A   1      18.356  -0.812  12.234  0.00  0.00     0.184 A 
ATOM      7  C1  ZIN A   1      18.858  -0.638  15.897  0.00  0.00     0.270 C 
ATOM      8  H3  ZIN A   1      17.574  -1.698  14.693  0.00  0.00     0.280 HD
ATOM      9  C23 ZIN A   1      17.399   0.304  14.194  0.00  0.00     0.222 C 
ATOM     10  C22 ZIN A   1      18.336   1.527  14.395  0.00  0.00     0.068 C 
ATOM     11  C25 ZIN A   1      17.174   0.124  12.676  0.00  0.00     0.184 A 
ATOM     12  O27 ZIN A   1      16.925  -1.195  12.187  0.00  0.00    -0.371 OA
ENDBRANCH   1   2
BRANCH   1  13
ATOM     13  C10 ZIN A   1      19.505   2.550  11.369  0.00  0.00     0.270 C 
ATOM     14  O11 ZIN A   1      20.542   3.097  11.661  0.00  0.00    -0.264 OA
BRANCH  13  15
ATOM     15  C12 ZIN A   1      18.686   3.058  10.210  0.00  0.00     0.142 C 
BRANCH  15  16
ATOM     16  C14 ZIN A   1      17.320   3.524  10.716  0.00  0.00     0.183 C 
BRANCH  16  17
ATOM     17  O15 ZIN A   1      17.434   3.950  12.075  0.00  0.00    -0.400 OA
ATOM     18  H37 ZIN A   1      18.192   4.525  12.245  0.00  0.00     0.209 HD
ENDBRANCH  16  17
ENDBRANCH  15  16
BRANCH  15  19
ATOM     19  C16 ZIN A   1      18.499   1.950   9.205  0.00  0.00    -0.043 A 
ATOM     20  C21 ZIN A   1      19.296   1.898   8.078  0.00  0.00     0.008 A 
ATOM     21  C20 ZIN A   1      19.128   0.880   7.157  0.00  0.00     0.001 A 
ATOM     22  C19 ZIN A   1      18.155  -0.081   7.361  0.00  0.00     0.000 A 
ATOM     23  C18 ZIN A   1      17.353  -0.026   8.485  0.00  0.00     0.001 A 
ATOM     24  C17 ZIN A   1      17.525   0.990   9.407  0.00  0.00     0.008 A 
ENDBRANCH  15  19
ENDBRANCH  13  15
ENDBRANCH   1  13
TORSDOF 6
ENDMDL
MODEL 2
REMARK VINA RESULT:      -7.0      3.820      6.089
REMARK  6 active torsions:
REMARK  status: ('A' for Active; 'I' for Inactive)
REMARK    1  A    between atoms: C7_6  and  O9_7 
REMARK    2  A    between atoms: O9_7  and  C10_8 
REMARK    3  A    between atoms: C10_8  and  C12_10 
REMARK    4  A    between atoms: C12_10  and  C14_11 
REMARK    5  A    between atoms: C12_10  and  C16_13 
REMARK    6  A    between atoms: C14_11  and  O15_12 
ROOT
ATOM      1  O9  ZIN A   1      18.351  -1.970  10.683  0.00  0.00    -0.315 OA
ENDROOT
BRANCH   1   2
ATOM      2  C7  ZIN A   1      18.432  -0.543  10.942  0.00  0.00     0.136 C 
ATOM      3  C6  ZIN A   1      17.294   0.173  10.211  0.00  0.00     0.068 C 
ATOM      4  C4  ZIN A   1      17.513   0.038   8.696  0.00  0.00     0.222 C 
ATOM      5  N2  ZIN A   1      18.774   0.754   8.366  0.00  0.00    -0.061 N 
ATOM      6  C28 ZIN A   1      17.824  -1.445   8.379  0.00  0.00     0.184 A 
ATOM      7  C1  ZIN A   1      18.817   2.060   9.036  0.00  0.00     0.270 C 
ATOM      8  H3  ZIN A   1      18.870   0.864   7.368  0.00  0.00     0.280 HD
ATOM      9  C23 ZIN A   1      19.834  -0.143   8.899  0.00  0.00     0.222 C 
ATOM     10  C22 ZIN A   1      19.780  -0.013  10.446  0.00  0.00     0.068 C 
ATOM     11  C25 ZIN A   1      19.383  -1.574   8.528  0.00  0.00     0.184 A 
ATOM     12  O27 ZIN A   1      18.745  -1.769   7.264  0.00  0.00    -0.371 OA
ENDBRANCH   1   2
BRANCH   1  13
ATOM     13  C10 ZIN A   1      18.439  -2.789  11.743  0.00  0.00     0.270 C 
ATOM     14  O11 ZIN A   1      18.248  -2.358  12.856  0.00  0.00    -0.264 OA
BRANCH  13  15
ATOM     15  C12 ZIN A   1      18.777  -4.244  11.545  0.00  0.00     0.142 C 
BRANCH  15  16
ATOM     16  C14 ZIN A   1      20.277  -4.388  11.284  0.00  0.00     0.183 C 
BRANCH  16  17
ATOM     17  O15 ZIN A   1      20.922  -3.132  11.501  0.00  0.00    -0.400 OA
ATOM     18  H37 ZIN A   1      20.600  -2.652  12.277  0.00  0.00     0.209 HD
ENDBRANCH  16  17
ENDBRANCH  15  16
BRANCH  15  19
ATOM     19  C16 ZIN A   1      18.007  -4.782  10.366  0.00  0.00    -0.043 A 
ATOM     20  C21 ZIN A   1      16.638  -4.947  10.453  0.00  0.00     0.008 A 
ATOM     21  C20 ZIN A   1      15.931  -5.437   9.370  0.00  0.00     0.001 A 
ATOM     22  C19 ZIN A   1      16.595  -5.770   8.205  0.00  0.00     0.000 A 
ATOM     23  C18 ZIN A   1      17.966  -5.611   8.120  0.00  0.00     0.001 A 
ATOM     24  C17 ZIN A   1      18.672  -5.117   9.201  0.00  0.00     0.008 A 
ENDBRANCH  15  19
ENDBRANCH  13  15
ENDBRANCH   1  13
TORSDOF 6
ENDMDL
MODEL 3
REMARK VINA RESULT:      -6.9      3.456      5.156
REMARK  6 active torsions:
REMARK  status: ('A' for Active; 'I' for Inactive)
REMARK    1  A    between atoms: C7_6  and  O9_7 
REMARK    2  A    between atoms: O9_7  and  C10_8 
REMARK    3  A    between atoms: C10_8  and  C12_10 
REMARK    4  A    between atoms: C12_10  and  C14_11 
REMARK    5  A    between atoms: C12_10  and  C16_13 
REMARK    6  A    between atoms: C14_11  and  O15_12 
ROOT
ATOM      1  O9  ZIN A   1      18.914  -2.557   8.981  0.00  0.00    -0.315 OA
ENDROOT
BRANCH   1   2
ATOM      2  C7  ZIN A   1      18.374  -3.904   8.932  0.00  0.00     0.136 C 
ATOM      3  C6  ZIN A   1      17.036  -3.944   9.673  0.00  0.00     0.068 C 
ATOM      4  C4  ZIN A   1      17.286  -3.677  11.166  0.00  0.00     0.222 C 
ATOM      5  N2  ZIN A   1      18.114  -4.800  11.682  0.00  0.00    -0.061 N 
ATOM      6  C28 ZIN A   1      18.205  -2.439  11.292  0.00  0.00     0.184 A 
ATOM      7  C1  ZIN A   1      17.592  -6.088  11.207  0.00  0.00     0.270 C 
ATOM      8  H3  ZIN A   1      18.150  -4.782  12.690  0.00  0.00     0.280 HD
ATOM      9  C23 ZIN A   1      19.460  -4.535  11.105  0.00  0.00     0.222 C 
ATOM     10  C22 ZIN A   1      19.360  -4.872   9.591  0.00  0.00     0.068 C 
ATOM     11  C25 ZIN A   1      19.667  -3.010  11.238  0.00  0.00     0.184 A 
ATOM     12  O27 ZIN A   1      19.171  -2.366  12.413  0.00  0.00    -0.371 OA
ENDBRANCH   1   2
BRANCH   1  13
ATOM     13  C10 ZIN A   1      18.833  -1.825   7.859  0.00  0.00     0.270 C 
ATOM     14  O11 ZIN A   1      19.647  -1.977   6.979  0.00  0.00    -0.264 OA
BRANCH  13  15
ATOM     15  C12 ZIN A   1      17.726  -0.815   7.696  0.00  0.00     0.142 C 
BRANCH  15  16
ATOM     16  C14 ZIN A   1      17.621  -0.406   6.226  0.00  0.00     0.183 C 
BRANCH  16  17
ATOM     17  O15 ZIN A   1      17.175  -1.520   5.451  0.00  0.00    -0.400 OA
ATOM     18  H37 ZIN A   1      16.247  -1.467   5.183  0.00  0.00     0.209 HD
ENDBRANCH  16  17
ENDBRANCH  15  16
BRANCH  15  19
ATOM     19  C16 ZIN A   1      18.028   0.399   8.536  0.00  0.00    -0.043 A 
ATOM     20  C21 ZIN A   1      18.940   1.337   8.092  0.00  0.00     0.008 A 
ATOM     21  C20 ZIN A   1      19.215   2.453   8.861  0.00  0.00     0.001 A 
ATOM     22  C19 ZIN A   1      18.583   2.625  10.078  0.00  0.00     0.000 A 
ATOM     23  C18 ZIN A   1      17.675   1.684  10.526  0.00  0.00     0.001 A 
ATOM     24  C17 ZIN A   1      17.398   0.571   9.755  0.00  0.00     0.008 A 
ENDBRANCH  15  19
ENDBRANCH  13  15
ENDBRANCH   1  13
TORSDOF 6
ENDMDL
MODEL 4
REMARK VINA RESULT:      -6.9      3.172      4.072
REMARK  6 active torsions:
REMARK  status: ('A' for Active; 'I' for Inactive)
REMARK    1  A    between atoms: C7_6  and  O9_7 
REMARK    2  A    between atoms: O9_7  and  C10_8 
REMARK    3  A    between atoms: C10_8  and  C12_10 
REMARK    4  A    between atoms: C12_10  and  C14_11 
REMARK    5  A    between atoms: C12_10  and  C16_13 
REMARK    6  A    between atoms: C14_11  and  O15_12 
ROOT
ATOM      1  O9  ZIN A   1      19.099  -1.928  10.227  0.00  0.00    -0.315 OA
ENDROOT
BRANCH   1   2
ATOM      2  C7  ZIN A   1      18.831  -2.689  11.435  0.00  0.00     0.136 C 
ATOM      3  C6  ZIN A   1      19.736  -3.923  11.471  0.00  0.00     0.068 C 
ATOM      4  C4  ZIN A   1      19.343  -4.863  10.321  0.00  0.00     0.222 C 
ATOM      5  N2  ZIN A   1      17.953  -5.323  10.584  0.00  0.00    -0.061 N 
ATOM      6  C28 ZIN A   1      19.227  -4.026   9.025  0.00  0.00     0.184 A 
ATOM      7  C1  ZIN A   1      17.797  -5.719  11.990  0.00  0.00     0.270 C 
ATOM      8  H3  ZIN A   1      17.709  -6.087   9.971  0.00  0.00     0.280 HD
ATOM      9  C23 ZIN A   1      17.125  -4.125  10.281  0.00  0.00     0.222 C 
ATOM     10  C22 ZIN A   1      17.363  -3.124  11.446  0.00  0.00     0.068 C 
ATOM     11  C25 ZIN A   1      17.741  -3.517   9.001  0.00  0.00     0.184 A 
ATOM     12  O27 ZIN A   1      18.228  -4.412   8.000  0.00  0.00    -0.371 OA
ENDBRANCH   1   2
BRANCH   1  13
ATOM     13  C10 ZIN A   1      19.572  -0.682  10.383  0.00  0.00     0.270 C 
ATOM     14  O11 ZIN A   1      20.693  -0.510  10.801  0.00  0.00    -0.264 OA
BRANCH  13  15
ATOM     15  C12 ZIN A   1      18.706   0.502  10.038  0.00  0.00     0.142 C 
BRANCH  15  16
ATOM     16  C14 ZIN A   1      17.383   0.405  10.799  0.00  0.00     0.183 C 
BRANCH  16  17
ATOM     17  O15 ZIN A   1      17.051   1.683  11.345  0.00  0.00    -0.400 OA
ATOM     18  H37 ZIN A   1      16.102   1.832  11.451  0.00  0.00     0.209 HD
ENDBRANCH  16  17
ENDBRANCH  15  16
BRANCH  15  19
ATOM     19  C16 ZIN A   1      18.434   0.509   8.555  0.00  0.00    -0.043 A 
ATOM     20  C21 ZIN A   1      19.299   1.161   7.698  0.00  0.00     0.008 A 
ATOM     21  C20 ZIN A   1      19.052   1.165   6.337  0.00  0.00     0.001 A 
ATOM     22  C19 ZIN A   1      17.935   0.523   5.836  0.00  0.00     0.000 A 
ATOM     23  C18 ZIN A   1      17.066  -0.124   6.694  0.00  0.00     0.001 A 
ATOM     24  C17 ZIN A   1      17.316  -0.131   8.054  0.00  0.00     0.008 A 
ENDBRANCH  15  19
ENDBRANCH  13  15
ENDBRANCH   1  13
TORSDOF 6
ENDMDL
MODEL 5
REMARK VINA RESULT:      -6.8      3.558      5.366
REMARK  6 active torsions:
REMARK  status: ('A' for Active; 'I' for Inactive)
REMARK    1  A    between atoms: C7_6  and  O9_7 
REMARK    2  A    between atoms: O9_7  and  C10_8 
REMARK    3  A    between atoms: C10_8  and  C12_10 
REMARK    4  A    between atoms: C12_10  and  C14_11 
REMARK    5  A    between atoms: C12_10  and  C16_13 
REMARK    6  A    between atoms: C14_11  and  O15_12 
ROOT
ATOM      1  O9  ZIN A   1      18.886  -1.353  11.345  0.00  0.00    -0.315 OA
ENDROOT
BRANCH   1   2
ATOM      2  C7  ZIN A   1      18.094  -1.376  12.563  0.00  0.00     0.136 C 
ATOM      3  C6  ZIN A   1      17.090  -0.221  12.540  0.00  0.00     0.068 C 
ATOM      4  C4  ZIN A   1      17.859   1.108  12.598  0.00  0.00     0.222 C 
ATOM      5  N2  ZIN A   1      18.560   1.154  13.909  0.00  0.00    -0.061 N 
ATOM      6  C28 ZIN A   1      19.003   1.055  11.558  0.00  0.00     0.184 A 
ATOM      7  C1  ZIN A   1      17.659   0.738  14.992  0.00  0.00     0.270 C 
ATOM      8  H3  ZIN A   1      18.923   2.079  14.086  0.00  0.00     0.280 HD
ATOM      9  C23 ZIN A   1      19.670   0.178  13.746  0.00  0.00     0.222 C 
ATOM     10  C22 ZIN A   1      19.019  -1.233  13.774  0.00  0.00     0.068 C 
ATOM     11  C25 ZIN A   1      20.219   0.418  12.322  0.00  0.00     0.184 A 
ATOM     12  O27 ZIN A   1      20.274   1.763  11.842  0.00  0.00    -0.371 OA
ENDBRANCH   1   2
BRANCH   1  13
ATOM     13  C10 ZIN A   1      18.837  -2.444  10.566  0.00  0.00     0.270 C 
ATOM     14  O11 ZIN A   1      18.833  -2.327   9.363  0.00  0.00    -0.264 OA
BRANCH  13  15
ATOM     15  C12 ZIN A   1      18.788  -3.815  11.190  0.00  0.00     0.142 C 
BRANCH  15  16
ATOM     16  C14 ZIN A   1      20.213  -4.304  11.459  0.00  0.00     0.183 C 
BRANCH  16  17
ATOM     17  O15 ZIN A   1      21.117  -3.200  11.392  0.00  0.00    -0.400 OA
ATOM     18  H37 ZIN A   1      21.414  -2.987  10.497  0.00  0.00     0.209 HD
ENDBRANCH  16  17
ENDBRANCH  15  16
BRANCH  15  19
ATOM     19  C16 ZIN A   1      18.097  -4.770  10.251  0.00  0.00    -0.043 A 
ATOM     20  C21 ZIN A   1      16.717  -4.796  10.185  0.00  0.00     0.008 A 
ATOM     21  C20 ZIN A   1      16.082  -5.669   9.321  0.00  0.00     0.001 A 
ATOM     22  C19 ZIN A   1      16.829  -6.522   8.529  0.00  0.00     0.000 A 
ATOM     23  C18 ZIN A   1      18.209  -6.500   8.600  0.00  0.00     0.001 A 
ATOM     24  C17 ZIN A   1      18.843  -5.624   9.461  0.00  0.00     0.008 A 
ENDBRANCH  15  19
ENDBRANCH  13  15
ENDBRANCH   1  13
TORSDOF 6
ENDMDL
MODEL 6
REMARK VINA RESULT:      -6.8      3.497      4.940
REMARK  6 active torsions:
REMARK  status: ('A' for Active; 'I' for Inactive)
REMARK    1  A    between atoms: C7_6  and  O9_7 
REMARK    2  A    between atoms: O9_7  and  C10_8 
REMARK    3  A    between atoms: C10_8  and  C12_10 
REMARK    4  A    between atoms: C12_10  and  C14_11 
REMARK    5  A    between atoms: C12_10  and  C16_13 
REMARK    6  A    between atoms: C14_11  and  O15_12 
ROOT
ATOM      1  O9  ZIN A   1      19.239  -2.173   9.508  0.00  0.00    -0.315 OA
ENDROOT
BRANCH   1   2
ATOM      2  C7  ZIN A   1      18.951  -2.651  10.850  0.00  0.00     0.136 C 
ATOM      3  C6  ZIN A   1      19.785  -3.902  11.135  0.00  0.00     0.068 C 
ATOM      4  C4  ZIN A   1      19.316  -5.035  10.207  0.00  0.00     0.222 C 
ATOM      5  N2  ZIN A   1      17.908  -5.346  10.570  0.00  0.00    -0.061 N 
ATOM      6  C28 ZIN A   1      19.223  -4.478   8.767  0.00  0.00     0.184 A 
ATOM      7  C1  ZIN A   1      17.757  -5.433  12.029  0.00  0.00     0.270 C 
ATOM      8  H3  ZIN A   1      17.609  -6.204  10.130  0.00  0.00     0.280 HD
ATOM      9  C23 ZIN A   1      17.144  -4.189  10.031  0.00  0.00     0.222 C 
ATOM     10  C22 ZIN A   1      17.462  -2.985  10.962  0.00  0.00     0.068 C 
ATOM     11  C25 ZIN A   1      17.769  -3.896   8.649  0.00  0.00     0.184 A 
ATOM     12  O27 ZIN A   1      18.185  -5.007   7.852  0.00  0.00    -0.371 OA
ENDBRANCH   1   2
BRANCH   1  13
ATOM     13  C10 ZIN A   1      19.400  -0.850   9.353  0.00  0.00     0.270 C 
ATOM     14  O11 ZIN A   1      20.469  -0.339   9.593  0.00  0.00    -0.264 OA
BRANCH  13  15
ATOM     15  C12 ZIN A   1      18.248  -0.001   8.880  0.00  0.00     0.142 C 
BRANCH  15  16
ATOM     16  C14 ZIN A   1      18.494   0.432   7.434  0.00  0.00     0.183 C 
BRANCH  16  17
ATOM     17  O15 ZIN A   1      19.244  -0.576   6.755  0.00  0.00    -0.400 OA
ATOM     18  H37 ZIN A   1      18.843  -1.456   6.788  0.00  0.00     0.209 HD
ENDBRANCH  16  17
ENDBRANCH  15  16
BRANCH  15  19
ATOM     19  C16 ZIN A   1      18.130   1.219   9.757  0.00  0.00    -0.043 A 
ATOM     20  C21 ZIN A   1      17.652   1.097  11.048  0.00  0.00     0.008 A 
ATOM     21  C20 ZIN A   1      17.547   2.215  11.855  0.00  0.00     0.001 A 
ATOM     22  C19 ZIN A   1      17.912   3.456  11.367  0.00  0.00     0.000 A 
ATOM     23  C18 ZIN A   1      18.384   3.579  10.074  0.00  0.00     0.001 A 
ATOM     24  C17 ZIN A   1      18.493   2.460   9.269  0.00  0.00     0.008 A 
ENDBRANCH  15  19
ENDBRANCH  13  15
ENDBRANCH   1  13
TORSDOF 6
ENDMDL
MODEL 7
REMARK VINA RESULT:      -6.7      2.140      5.813
REMARK  6 active torsions:
REMARK  status: ('A' for Active; 'I' for Inactive)
REMARK    1  A    between atoms: C7_6  and  O9_7 
REMARK    2  A    between atoms: O9_7  and  C10_8 
REMARK    3  A    between atoms: C10_8  and  C12_10 
REMARK    4  A    between atoms: C12_10  and  C14_11 
REMARK    5  A    between atoms: C12_10  and  C16_13 
REMARK    6  A    between atoms: C14_11  and  O15_12 
ROOT
ATOM      1  O9  ZIN A   1      19.383   0.879  11.876  0.00  0.00    -0.315 OA
ENDROOT
BRANCH   1   2
ATOM      2  C7  ZIN A   1      19.146  -0.347  11.134  0.00  0.00     0.136 C 
ATOM      3  C6  ZIN A   1      19.988  -0.341   9.856  0.00  0.00     0.068 C 
ATOM      4  C4  ZIN A   1      19.482   0.779   8.933  0.00  0.00     0.222 C 
ATOM      5  N2  ZIN A   1      18.088   0.436   8.546  0.00  0.00    -0.061 N 
ATOM      6  C28 ZIN A   1      19.336   2.072   9.770  0.00  0.00     0.184 A 
ATOM      7  C1  ZIN A   1      17.991  -0.980   8.164  0.00  0.00     0.270 C 
ATOM      8  H3  ZIN A   1      17.771   1.029   7.793  0.00  0.00     0.280 HD
ATOM      9  C23 ZIN A   1      17.306   0.699   9.784  0.00  0.00     0.222 C 
ATOM     10  C22 ZIN A   1      17.661  -0.444  10.775  0.00  0.00     0.068 C 
ATOM     11  C25 ZIN A   1      17.879   2.016  10.355  0.00  0.00     0.184 A 
ATOM     12  O27 ZIN A   1      18.262   3.036   9.432  0.00  0.00    -0.371 OA
ENDBRANCH   1   2
BRANCH   1  13
ATOM     13  C10 ZIN A   1      19.393   0.790  13.215  0.00  0.00     0.270 C 
ATOM     14  O11 ZIN A   1      20.308   0.234  13.777  0.00  0.00    -0.264 OA
BRANCH  13  15
ATOM     15  C12 ZIN A   1      18.264   1.383  14.018  0.00  0.00     0.142 C 
BRANCH  15  16
ATOM     16  C14 ZIN A   1      18.396   2.907  14.035  0.00  0.00     0.183 C 
BRANCH  16  17
ATOM     17  O15 ZIN A   1      19.632   3.286  13.427  0.00  0.00    -0.400 OA
ATOM     18  H37 ZIN A   1      19.563   4.046  12.833  0.00  0.00     0.209 HD
ENDBRANCH  16  17
ENDBRANCH  15  16
BRANCH  15  19
ATOM     19  C16 ZIN A   1      18.323   0.858  15.430  0.00  0.00    -0.043 A 
ATOM     20  C21 ZIN A   1      19.028   1.549  16.395  0.00  0.00     0.008 A 
ATOM     21  C20 ZIN A   1      19.080   1.069  17.691  0.00  0.00     0.001 A 
ATOM     22  C19 ZIN A   1      18.432  -0.107  18.018  0.00  0.00     0.000 A 
ATOM     23  C18 ZIN A   1      17.731  -0.803  17.051  0.00  0.00     0.001 A 
ATOM     24  C17 ZIN A   1      17.677  -0.320  15.756  0.00  0.00     0.008 A 
ENDBRANCH  15  19
ENDBRANCH  13  15
ENDBRANCH   1  13
TORSDOF 6
ENDMDL
MODEL 8
REMARK VINA RESULT:      -6.7      3.510      5.504
REMARK  6 active torsions:
REMARK  status: ('A' for Active; 'I' for Inactive)
REMARK    1  A    between atoms: C7_6  and  O9_7 
REMARK    2  A    between atoms: O9_7  and  C10_8 
REMARK    3  A    between atoms: C10_8  and  C12_10 
REMARK    4  A    between atoms: C12_10  and  C14_11 
REMARK    5  A    between atoms: C12_10  and  C16_13 
REMARK    6  A    between atoms: C14_11  and  O15_12 
ROOT
ATOM      1  O9  ZIN A   1      18.367  -1.040   9.130  0.00  0.00    -0.315 OA
ENDROOT
BRANCH   1   2
ATOM      2  C7  ZIN A   1      19.443  -0.127   9.478  0.00  0.00     0.136 C 
ATOM      3  C6  ZIN A   1      19.929  -0.430  10.897  0.00  0.00     0.068 C 
ATOM      4  C4  ZIN A   1      18.801  -0.103  11.890  0.00  0.00     0.222 C 
ATOM      5  N2  ZIN A   1      18.552   1.361  11.807  0.00  0.00    -0.061 N 
ATOM      6  C28 ZIN A   1      17.492  -0.740  11.367  0.00  0.00     0.184 A 
ATOM      7  C1  ZIN A   1      19.821   2.102  11.811  0.00  0.00     0.270 C 
ATOM      8  H3  ZIN A   1      17.962   1.665  12.567  0.00  0.00     0.280 HD
ATOM      9  C23 ZIN A   1      17.855   1.524  10.504  0.00  0.00     0.222 C 
ATOM     10  C22 ZIN A   1      18.931   1.313   9.403  0.00  0.00     0.068 C 
ATOM     11  C25 ZIN A   1      16.859   0.345  10.424  0.00  0.00     0.184 A 
ATOM     12  O27 ZIN A   1      16.202  -0.060  11.626  0.00  0.00    -0.371 OA
ENDBRANCH   1   2
BRANCH   1  13
ATOM     13  C10 ZIN A   1      18.553  -1.819   8.053  0.00  0.00     0.270 C 
ATOM     14  O11 ZIN A   1      18.215  -1.430   6.960  0.00  0.00    -0.264 OA
BRANCH  13  15
ATOM     15  C12 ZIN A   1      19.184  -3.179   8.207  0.00  0.00     0.142 C 
BRANCH  15  16
ATOM     16  C14 ZIN A   1      19.014  -3.970   6.909  0.00  0.00     0.183 C 
BRANCH  16  17
ATOM     17  O15 ZIN A   1      19.924  -3.473   5.926  0.00  0.00    -0.400 OA
ATOM     18  H37 ZIN A   1      19.889  -2.514   5.805  0.00  0.00     0.209 HD
ENDBRANCH  16  17
ENDBRANCH  15  16
BRANCH  15  19
ATOM     19  C16 ZIN A   1      18.514  -3.918   9.337  0.00  0.00    -0.043 A 
ATOM     20  C21 ZIN A   1      17.231  -4.407   9.178  0.00  0.00     0.008 A 
ATOM     21  C20 ZIN A   1      16.617  -5.087  10.213  0.00  0.00     0.001 A 
ATOM     22  C19 ZIN A   1      17.283  -5.271  11.410  0.00  0.00     0.000 A 
ATOM     23  C18 ZIN A   1      18.563  -4.776  11.572  0.00  0.00     0.001 A 
ATOM     24  C17 ZIN A   1      19.179  -4.100  10.535  0.00  0.00     0.008 A 
ENDBRANCH  15  19
ENDBRANCH  13  15
ENDBRANCH   1  13
TORSDOF 6
ENDMDL
MODEL 9
REMARK VINA RESULT:      -6.7      1.341      2.406
REMARK  6 active torsions:
REMARK  status: ('A' for Active; 'I' for Inactive)
REMARK    1  A    between atoms: C7_6  and  O9_7 
REMARK    2  A    between atoms: O9_7  and  C10_8 
REMARK    3  A    between atoms: C10_8  and  C12_10 
REMARK    4  A    between atoms: C12_10  and  C14_11 
REMARK    5  A    between atoms: C12_10  and  C16_13 
REMARK    6  A    between atoms: C14_11  and  O15_12 
ROOT
ATOM      1  O9  ZIN A   1      19.084   0.734  11.651  0.00  0.00    -0.315 OA
ENDROOT
BRANCH   1   2
ATOM      2  C7  ZIN A   1      19.184  -0.484  12.436  0.00  0.00     0.136 C 
ATOM      3  C6  ZIN A   1      17.795  -0.876  12.947  0.00  0.00     0.068 C 
ATOM      4  C4  ZIN A   1      17.310   0.191  13.940  0.00  0.00     0.222 C 
ATOM      5  N2  ZIN A   1      18.236   0.164  15.104  0.00  0.00    -0.061 N 
ATOM      6  C28 ZIN A   1      17.537   1.585  13.307  0.00  0.00     0.184 A 
ATOM      7  C1  ZIN A   1      18.495  -1.219  15.526  0.00  0.00     0.270 C 
ATOM      8  H3  ZIN A   1      17.861   0.705  15.869  0.00  0.00     0.280 HD
ATOM      9  C23 ZIN A   1      19.477   0.793  14.577  0.00  0.00     0.222 C 
ATOM     10  C22 ZIN A   1      20.123  -0.248  13.622  0.00  0.00     0.068 C 
ATOM     11  C25 ZIN A   1      18.997   1.987  13.722  0.00  0.00     0.184 A 
ATOM     12  O27 ZIN A   1      17.869   2.733  14.183  0.00  0.00    -0.371 OA
ENDBRANCH   1   2
BRANCH   1  13
ATOM     13  C10 ZIN A   1      19.585   0.700  10.406  0.00  0.00     0.270 C 
ATOM     14  O11 ZIN A   1      20.358  -0.174  10.090  0.00  0.00    -0.264 OA
BRANCH  13  15
ATOM     15  C12 ZIN A   1      19.185   1.752   9.403  0.00  0.00     0.142 C 
BRANCH  15  16
ATOM     16  C14 ZIN A   1      18.145   2.683  10.029  0.00  0.00     0.183 C 
BRANCH  16  17
ATOM     17  O15 ZIN A   1      18.808   3.719  10.755  0.00  0.00    -0.400 OA
ATOM     18  H37 ZIN A   1      19.750   3.557  10.902  0.00  0.00     0.209 HD
ENDBRANCH  16  17
ENDBRANCH  15  16
BRANCH  15  19
ATOM     19  C16 ZIN A   1      18.597   1.086   8.186  0.00  0.00    -0.043 A 
ATOM     20  C21 ZIN A   1      17.526   0.223   8.321  0.00  0.00     0.008 A 
ATOM     21  C20 ZIN A   1      16.984  -0.386   7.204  0.00  0.00     0.001 A 
ATOM     22  C19 ZIN A   1      17.518  -0.138   5.954  0.00  0.00     0.000 A 
ATOM     23  C18 ZIN A   1      18.593   0.720   5.820  0.00  0.00     0.001 A 
ATOM     24  C17 ZIN A   1      19.132   1.332   6.936  0.00  0.00     0.008 A 
ENDBRANCH  15  19
ENDBRANCH  13  15
ENDBRANCH   1  13
TORSDOF 6
ENDMDL
