MODEL 1
REMARK VINA RESULT:      -6.9      0.000      0.000
REMARK  6 active torsions:
REMARK  status: ('A' for Active; 'I' for Inactive)
REMARK    1  A    between atoms: C3_3  and  C4_4 
REMARK    2  A    between atoms: C4_4  and  O5_5 
REMARK    3  A    between atoms: O5_5  and  C6_6 
REMARK    4  A    between atoms: C6_6  and  C8_7 
REMARK    5  A    between atoms: C6_6  and  C14_13 
REMARK    6  A    between atoms: C8_7  and  N9_8 
ROOT
ATOM      1  C6  <0> d   1      17.958   1.160  10.785  0.00  0.00     0.174 C 
ENDROOT
BRANCH   1   2
ATOM      2  O5  <0> d   1      17.040   2.240  10.975  0.00  0.00    -0.375 OA
BRANCH   2   3
ATOM      3  C4  <0> d   1      17.575   3.523  10.643  0.00  0.00     0.209 C 
BRANCH   3   4
ATOM      4  C3  <0> d   1      17.912   4.268  11.908  0.00  0.00    -0.005 A 
ATOM      5  C2  <0> d   1      19.144   4.286  12.425  0.00  0.00     0.083 A 
ATOM      6 Cl1  <0> d   1      20.524   3.480  11.747  0.00  0.00    -0.076 Cl
ATOM      7  S24 <0> d   1      19.151   5.245  13.899  0.00  0.00    -0.089 SA
ATOM      8  C23 <0> d   1      17.435   5.586  13.722  0.00  0.00     0.052 A 
ATOM      9  C22 <0> d   1      16.970   4.986  12.625  0.00  0.00     0.019 A 
ENDBRANCH   3   4
ENDBRANCH   2   3
ENDBRANCH   1   2
BRANCH   1  10
ATOM     10  C8  <0> d   1      17.343   0.129   9.836  0.00  0.00     0.166 C 
BRANCH  10  11
ATOM     11  N9  <0> d   1      17.829   0.368   8.474  0.00  0.00    -0.347 N 
ATOM     12  C13 <0> d   1      18.870   1.153   8.121  0.00  0.00     0.209 A 
ATOM     13  N12 <0> d   1      19.001   1.115   6.823  0.00  0.00    -0.255 NA
ATOM     14  C11 <0> d   1      18.053   0.319   6.307  0.00  0.00     0.135 A 
ATOM     15  C10 <0> d   1      17.310  -0.158   7.323  0.00  0.00     0.111 A 
ENDBRANCH  10  11
ENDBRANCH   1  10
BRANCH   1  16
ATOM     16  C14 <0> d   1      18.250   0.510  12.113  0.00  0.00    -0.006 A 
ATOM     17  C20 <0> d   1      19.426  -0.198  12.292  0.00  0.00     0.044 A 
ATOM     18  C19 <0> d   1      19.697  -0.790  13.512  0.00  0.00     0.048 A 
ATOM     19 Cl21 <0> d   1      20.567  -0.331  10.990  0.00  0.00    -0.084 Cl
ATOM     20  C17 <0> d   1      18.787  -0.684  14.549  0.00  0.00     0.035 A 
ATOM     21  C16 <0> d   1      17.609   0.018  14.367  0.00  0.00     0.024 A 
ATOM     22 Cl18 <0> d   1      19.123  -1.433  16.079  0.00  0.00    -0.084 Cl
ATOM     23  C15 <0> d   1      17.342   0.614  13.148  0.00  0.00     0.013 A 
ENDBRANCH   1  16
TORSDOF 6
ENDMDL
MODEL 2
REMARK VINA RESULT:      -6.8      2.854      5.258
REMARK  6 active torsions:
REMARK  status: ('A' for Active; 'I' for Inactive)
REMARK    1  A    between atoms: C3_3  and  C4_4 
REMARK    2  A    between atoms: C4_4  and  O5_5 
REMARK    3  A    between atoms: O5_5  and  C6_6 
REMARK    4  A    between atoms: C6_6  and  C8_7 
REMARK    5  A    between atoms: C6_6  and  C14_13 
REMARK    6  A    between atoms: C8_7  and  N9_8 
ROOT
ATOM      1  C6  <0> d   1      18.550   2.318  11.296  0.00  0.00     0.174 C 
ENDROOT
BRANCH   1   2
ATOM      2  O5  <0> d   1      18.778   3.718  11.123  0.00  0.00    -0.375 OA
BRANCH   2   3
ATOM      3  C4  <0> d   1      17.804   4.549  11.758  0.00  0.00     0.209 C 
BRANCH   3   4
ATOM      4  C3  <0> d   1      18.381   5.121  13.025  0.00  0.00    -0.005 A 
ATOM      5  C2  <0> d   1      17.619   5.623  14.001  0.00  0.00     0.083 A 
ATOM      6 Cl1  <0> d   1      15.885   5.699  13.975  0.00  0.00    -0.076 Cl
ATOM      7  S24 <0> d   1      18.641   6.202  15.310  0.00  0.00    -0.089 SA
ATOM      8  C23 <0> d   1      20.088   5.707  14.440  0.00  0.00     0.052 A 
ATOM      9  C22 <0> d   1      19.744   5.168  13.270  0.00  0.00     0.019 A 
ENDBRANCH   3   4
ENDBRANCH   2   3
ENDBRANCH   1   2
BRANCH   1  10
ATOM     10  C8  <0> d   1      19.741   1.694  12.026  0.00  0.00     0.166 C 
BRANCH  10  11
ATOM     11  N9  <0> d   1      19.297   1.156  13.315  0.00  0.00    -0.347 N 
ATOM     12  C13 <0> d   1      19.807   0.081  13.953  0.00  0.00     0.209 A 
ATOM     13  N12 <0> d   1      19.157  -0.089  15.072  0.00  0.00    -0.255 NA
ATOM     14  C11 <0> d   1      18.215   0.858  15.183  0.00  0.00     0.135 A 
ATOM     15  C10 <0> d   1      18.285   1.648  14.095  0.00  0.00     0.111 A 
ENDBRANCH  10  11
ENDBRANCH   1  10
BRANCH   1  16
ATOM     16  C14 <0> d   1      18.390   1.665   9.947  0.00  0.00    -0.006 A 
ATOM     17  C20 <0> d   1      17.547   0.576   9.802  0.00  0.00     0.044 A 
ATOM     18  C19 <0> d   1      17.395  -0.019   8.563  0.00  0.00     0.048 A 
ATOM     19 Cl21 <0> d   1      16.670  -0.032  11.172  0.00  0.00    -0.084 Cl
ATOM     20  C17 <0> d   1      18.094   0.466   7.473  0.00  0.00     0.035 A 
ATOM     21  C16 <0> d   1      18.941   1.550   7.620  0.00  0.00     0.024 A 
ATOM     22 Cl18 <0> d   1      17.910  -0.286   5.919  0.00  0.00    -0.084 Cl
ATOM     23  C15 <0> d   1      19.088   2.148   8.858  0.00  0.00     0.013 A 
ENDBRANCH   1  16
TORSDOF 6
ENDMDL
MODEL 3
REMARK VINA RESULT:      -6.8      4.307      7.350
REMARK  6 active torsions:
REMARK  status: ('A' for Active; 'I' for Inactive)
REMARK    1  A    between atoms: C3_3  and  C4_4 
REMARK    2  A    between atoms: C4_4  and  O5_5 
REMARK    3  A    between atoms: O5_5  and  C6_6 
REMARK    4  A    between atoms: C6_6  and  C8_7 
REMARK    5  A    between atoms: C6_6  and  C14_13 
REMARK    6  A    between atoms: C8_7  and  N9_8 
ROOT
ATOM      1  C6  <0> d   1      17.929  -1.348  11.625  0.00  0.00     0.174 C 
ENDROOT
BRANCH   1   2
ATOM      2  O5  <0> d   1      16.987  -2.410  11.451  0.00  0.00    -0.375 OA
BRANCH   2   3
ATOM      3  C4  <0> d   1      17.476  -3.692  11.850  0.00  0.00     0.209 C 
BRANCH   3   4
ATOM      4  C3  <0> d   1      18.083  -4.389  10.661  0.00  0.00    -0.005 A 
ATOM      5  C2  <0> d   1      19.403  -4.509  10.494  0.00  0.00     0.083 A 
ATOM      6 Cl1  <0> d   1      20.608  -3.900  11.586  0.00  0.00    -0.076 Cl
ATOM      7  S24 <0> d   1      19.734  -5.370   8.997  0.00  0.00    -0.089 SA
ATOM      8  C23 <0> d   1      18.012  -5.533   8.676  0.00  0.00     0.052 A 
ATOM      9  C22 <0> d   1      17.316  -4.956   9.656  0.00  0.00     0.019 A 
ENDBRANCH   3   4
ENDBRANCH   2   3
ENDBRANCH   1   2
BRANCH   1  10
ATOM     10  C8  <0> d   1      17.352  -0.308  12.588  0.00  0.00     0.166 C 
BRANCH  10  11
ATOM     11  N9  <0> d   1      17.971  -0.468  13.907  0.00  0.00    -0.347 N 
ATOM     12  C13 <0> d   1      18.943  -1.347  14.234  0.00  0.00     0.209 A 
ATOM     13  N12 <0> d   1      19.238  -1.192  15.496  0.00  0.00    -0.255 NA
ATOM     14  C11 <0> d   1      18.468  -0.224  16.015  0.00  0.00     0.135 A 
ATOM     15  C10 <0> d   1      17.669   0.242  15.037  0.00  0.00     0.111 A 
ENDBRANCH  10  11
ENDBRANCH   1  10
BRANCH   1  16
ATOM     16  C14 <0> d   1      18.206  -0.701  10.293  0.00  0.00    -0.006 A 
ATOM     17  C20 <0> d   1      19.475  -0.228  10.005  0.00  0.00     0.044 A 
ATOM     18  C19 <0> d   1      19.731   0.361   8.780  0.00  0.00     0.048 A 
ATOM     19 Cl21 <0> d   1      20.747  -0.388  11.175  0.00  0.00    -0.084 Cl
ATOM     20  C17 <0> d   1      18.716   0.489   7.849  0.00  0.00     0.035 A 
ATOM     21  C16 <0> d   1      17.447   0.022   8.140  0.00  0.00     0.024 A 
ATOM     22 Cl18 <0> d   1      19.036   1.235   6.314  0.00  0.00    -0.084 Cl
ATOM     23  C15 <0> d   1      17.193  -0.572   9.362  0.00  0.00     0.013 A 
ENDBRANCH   1  16
TORSDOF 6
ENDMDL
MODEL 4
REMARK VINA RESULT:      -6.6      2.739      3.930
REMARK  6 active torsions:
REMARK  status: ('A' for Active; 'I' for Inactive)
REMARK    1  A    between atoms: C3_3  and  C4_4 
REMARK    2  A    between atoms: C4_4  and  O5_5 
REMARK    3  A    between atoms: O5_5  and  C6_6 
REMARK    4  A    between atoms: C6_6  and  C8_7 
REMARK    5  A    between atoms: C6_6  and  C14_13 
REMARK    6  A    between atoms: C8_7  and  N9_8 
ROOT
ATOM      1  C6  <0> d   1      18.519   0.693  11.722  0.00  0.00     0.174 C 
ENDROOT
BRANCH   1   2
ATOM      2  O5  <0> d   1      18.122   1.047  13.049  0.00  0.00    -0.375 OA
BRANCH   2   3
ATOM      3  C4  <0> d   1      19.214   1.294  13.937  0.00  0.00     0.209 C 
BRANCH   3   4
ATOM      4  C3  <0> d   1      19.027   0.493  15.198  0.00  0.00    -0.005 A 
ATOM      5  C2  <0> d   1      19.068   1.045  16.413  0.00  0.00     0.083 A 
ATOM      6 Cl1  <0> d   1      19.335   2.730  16.738  0.00  0.00    -0.076 Cl
ATOM      7  S24 <0> d   1      18.817  -0.195  17.635  0.00  0.00    -0.089 SA
ATOM      8  C23 <0> d   1      18.656  -1.429  16.391  0.00  0.00     0.052 A 
ATOM      9  C22 <0> d   1      18.800  -0.873  15.187  0.00  0.00     0.019 A 
ENDBRANCH   3   4
ENDBRANCH   2   3
ENDBRANCH   1   2
BRANCH   1  10
ATOM     10  C8  <0> d   1      17.523   1.278  10.719  0.00  0.00     0.166 C 
BRANCH  10  11
ATOM     11  N9  <0> d   1      18.065   1.153   9.362  0.00  0.00    -0.347 N 
ATOM     12  C13 <0> d   1      19.095   1.856   8.843  0.00  0.00     0.209 A 
ATOM     13  N12 <0> d   1      19.288   1.467   7.612  0.00  0.00    -0.255 NA
ATOM     14  C11 <0> d   1      18.393   0.517   7.304  0.00  0.00     0.135 A 
ATOM     15  C10 <0> d   1      17.619   0.306   8.384  0.00  0.00     0.111 A 
ENDBRANCH  10  11
ENDBRANCH   1  10
BRANCH   1  16
ATOM     16  C14 <0> d   1      18.544  -0.808  11.588  0.00  0.00    -0.006 A 
ATOM     17  C20 <0> d   1      19.719  -1.452  11.242  0.00  0.00     0.044 A 
ATOM     18  C19 <0> d   1      19.744  -2.829  11.125  0.00  0.00     0.048 A 
ATOM     19 Cl21 <0> d   1      21.166  -0.531  10.968  0.00  0.00    -0.084 Cl
ATOM     20  C17 <0> d   1      18.591  -3.562  11.343  0.00  0.00     0.035 A 
ATOM     21  C16 <0> d   1      17.415  -2.917  11.683  0.00  0.00     0.024 A 
ATOM     22 Cl18 <0> d   1      18.619  -5.291  11.189  0.00  0.00    -0.084 Cl
ATOM     23  C15 <0> d   1      17.393  -1.540  11.805  0.00  0.00     0.013 A 
ENDBRANCH   1  16
TORSDOF 6
ENDMDL
MODEL 5
REMARK VINA RESULT:      -6.6      4.388      6.103
REMARK  6 active torsions:
REMARK  status: ('A' for Active; 'I' for Inactive)
REMARK    1  A    between atoms: C3_3  and  C4_4 
REMARK    2  A    between atoms: C4_4  and  O5_5 
REMARK    3  A    between atoms: O5_5  and  C6_6 
REMARK    4  A    between atoms: C6_6  and  C8_7 
REMARK    5  A    between atoms: C6_6  and  C14_13 
REMARK    6  A    between atoms: C8_7  and  N9_8 
ROOT
ATOM      1  C6  <0> d   1      18.419  -2.825   9.801  0.00  0.00     0.174 C 
ENDROOT
BRANCH   1   2
ATOM      2  O5  <0> d   1      18.136  -1.850   8.795  0.00  0.00    -0.375 OA
BRANCH   2   3
ATOM      3  C4  <0> d   1      19.300  -1.250   8.222  0.00  0.00     0.209 C 
BRANCH   3   4
ATOM      4  C3  <0> d   1      19.129  -1.148   6.729  0.00  0.00    -0.005 A 
ATOM      5  C2  <0> d   1      18.971   0.020   6.101  0.00  0.00     0.083 A 
ATOM      6 Cl1  <0> d   1      18.939   1.574   6.875  0.00  0.00    -0.076 Cl
ATOM      7  S24 <0> d   1      18.795  -0.257   4.374  0.00  0.00    -0.089 SA
ATOM      8  C23 <0> d   1      18.959  -1.993   4.605  0.00  0.00     0.052 A 
ATOM      9  C22 <0> d   1      19.122  -2.259   5.902  0.00  0.00     0.019 A 
ENDBRANCH   3   4
ENDBRANCH   2   3
ENDBRANCH   1   2
BRANCH   1  10
ATOM     10  C8  <0> d   1      17.386  -3.951   9.725  0.00  0.00     0.166 C 
BRANCH  10  11
ATOM     11  N9  <0> d   1      17.898  -5.027   8.872  0.00  0.00    -0.347 N 
ATOM     12  C13 <0> d   1      18.977  -5.800   9.119  0.00  0.00     0.209 A 
ATOM     13  N12 <0> d   1      19.119  -6.647   8.136  0.00  0.00    -0.255 NA
ATOM     14  C11 <0> d   1      18.149  -6.442   7.233  0.00  0.00     0.135 A 
ATOM     15  C10 <0> d   1      17.375  -5.433   7.674  0.00  0.00     0.111 A 
ENDBRANCH  10  11
ENDBRANCH   1  10
BRANCH   1  16
ATOM     16  C14 <0> d   1      18.357  -2.177  11.160  0.00  0.00    -0.006 A 
ATOM     17  C20 <0> d   1      19.259  -2.545  12.144  0.00  0.00     0.044 A 
ATOM     18  C19 <0> d   1      19.206  -1.946  13.389  0.00  0.00     0.048 A 
ATOM     19 Cl21 <0> d   1      20.465  -3.748  11.809  0.00  0.00    -0.084 Cl
ATOM     20  C17 <0> d   1      18.244  -0.988  13.655  0.00  0.00     0.035 A 
ATOM     21  C16 <0> d   1      17.339  -0.626  12.673  0.00  0.00     0.024 A 
ATOM     22 Cl18 <0> d   1      18.172  -0.241  15.220  0.00  0.00    -0.084 Cl
ATOM     23  C15 <0> d   1      17.397  -1.221  11.427  0.00  0.00     0.013 A 
ENDBRANCH   1  16
TORSDOF 6
ENDMDL
MODEL 6
REMARK VINA RESULT:      -6.5      3.496      5.576
REMARK  6 active torsions:
REMARK  status: ('A' for Active; 'I' for Inactive)
REMARK    1  A    between atoms: C3_3  and  C4_4 
REMARK    2  A    between atoms: C4_4  and  O5_5 
REMARK    3  A    between atoms: O5_5  and  C6_6 
REMARK    4  A    between atoms: C6_6  and  C8_7 
REMARK    5  A    between atoms: C6_6  and  C14_13 
REMARK    6  A    between atoms: C8_7  and  N9_8 
ROOT
ATOM      1  C6  <0> d   1      18.889   1.604  10.521  0.00  0.00     0.174 C 
ENDROOT
BRANCH   1   2
ATOM      2  O5  <0> d   1      19.674   0.921   9.541  0.00  0.00    -0.375 OA
BRANCH   2   3
ATOM      3  C4  <0> d   1      19.082   0.890   8.241  0.00  0.00     0.209 C 
BRANCH   3   4
ATOM      4  C3  <0> d   1      19.059  -0.529   7.734  0.00  0.00    -0.005 A 
ATOM      5  C2  <0> d   1      19.131  -0.830   6.435  0.00  0.00     0.083 A 
ATOM      6 Cl1  <0> d   1      19.263   0.327   5.147  0.00  0.00    -0.076 Cl
ATOM      7  S24 <0> d   1      19.067  -2.575   6.228  0.00  0.00    -0.089 SA
ATOM      8  C23 <0> d   1      18.951  -2.807   7.969  0.00  0.00     0.052 A 
ATOM      9  C22 <0> d   1      18.959  -1.621   8.580  0.00  0.00     0.019 A 
ENDBRANCH   3   4
ENDBRANCH   2   3
ENDBRANCH   1   2
BRANCH   1  10
ATOM     10  C8  <0> d   1      19.468   3.001  10.755  0.00  0.00     0.166 C 
BRANCH  10  11
ATOM     11  N9  <0> d   1      18.434   3.871  11.322  0.00  0.00    -0.347 N 
ATOM     12  C13 <0> d   1      18.444   4.430  12.551  0.00  0.00     0.209 A 
ATOM     13  N12 <0> d   1      17.357   5.139  12.697  0.00  0.00    -0.255 NA
ATOM     14  C11 <0> d   1      16.620   5.051  11.580  0.00  0.00     0.135 A 
ATOM     15  C10 <0> d   1      17.275   4.262  10.708  0.00  0.00     0.111 A 
ENDBRANCH  10  11
ENDBRANCH   1  10
BRANCH   1  16
ATOM     16  C14 <0> d   1      18.911   0.829  11.813  0.00  0.00    -0.006 A 
ATOM     17  C20 <0> d   1      17.822   0.054  12.173  0.00  0.00     0.044 A 
ATOM     18  C19 <0> d   1      17.844  -0.662  13.356  0.00  0.00     0.048 A 
ATOM     19 Cl21 <0> d   1      16.433  -0.028  11.134  0.00  0.00    -0.084 Cl
ATOM     20  C17 <0> d   1      18.951  -0.596  14.183  0.00  0.00     0.035 A 
ATOM     21  C16 <0> d   1      20.037   0.183  13.825  0.00  0.00     0.024 A 
ATOM     22 Cl18 <0> d   1      18.978  -1.489  15.671  0.00  0.00    -0.084 Cl
ATOM     23  C15 <0> d   1      20.015   0.895  12.640  0.00  0.00     0.013 A 
ENDBRANCH   1  16
TORSDOF 6
ENDMDL
MODEL 7
REMARK VINA RESULT:      -6.5      4.296      6.540
REMARK  6 active torsions:
REMARK  status: ('A' for Active; 'I' for Inactive)
REMARK    1  A    between atoms: C3_3  and  C4_4 
REMARK    2  A    between atoms: C4_4  and  O5_5 
REMARK    3  A    between atoms: O5_5  and  C6_6 
REMARK    4  A    between atoms: C6_6  and  C8_7 
REMARK    5  A    between atoms: C6_6  and  C14_13 
REMARK    6  A    between atoms: C8_7  and  N9_8 
ROOT
ATOM      1  C6  <0> d   1      19.509  -0.545  10.393  0.00  0.00     0.174 C 
ENDROOT
BRANCH   1   2
ATOM      2  O5  <0> d   1      20.047  -0.660   9.073  0.00  0.00    -0.375 OA
BRANCH   2   3
ATOM      3  C4  <0> d   1      19.168  -0.198   8.045  0.00  0.00     0.209 C 
BRANCH   3   4
ATOM      4  C3  <0> d   1      19.042  -1.257   6.980  0.00  0.00    -0.005 A 
ATOM      5  C2  <0> d   1      19.071  -0.972   5.676  0.00  0.00     0.083 A 
ATOM      6 Cl1  <0> d   1      19.255   0.618   5.004  0.00  0.00    -0.076 Cl
ATOM      7  S24 <0> d   1      18.888  -2.452   4.744  0.00  0.00    -0.089 SA
ATOM      8  C23 <0> d   1      18.788  -3.405   6.220  0.00  0.00     0.052 A 
ATOM      9  C22 <0> d   1      18.885  -2.600   7.279  0.00  0.00     0.019 A 
ENDBRANCH   3   4
ENDBRANCH   2   3
ENDBRANCH   1   2
BRANCH   1  10
ATOM     10  C8  <0> d   1      20.597  -0.043  11.344  0.00  0.00     0.166 C 
BRANCH  10  11
ATOM     11  N9  <0> d   1      19.975   0.665  12.467  0.00  0.00    -0.347 N 
ATOM     12  C13 <0> d   1      19.351   1.861  12.413  0.00  0.00     0.209 A 
ATOM     13  N12 <0> d   1      18.925   2.165  13.610  0.00  0.00    -0.255 NA
ATOM     14  C11 <0> d   1      19.266   1.186  14.461  0.00  0.00     0.135 A 
ATOM     15  C10 <0> d   1      19.923   0.239  13.767  0.00  0.00     0.111 A 
ENDBRANCH  10  11
ENDBRANCH   1  10
BRANCH   1  16
ATOM     16  C14 <0> d   1      19.021  -1.893  10.855  0.00  0.00    -0.006 A 
ATOM     17  C20 <0> d   1      17.769  -2.015  11.432  0.00  0.00     0.044 A 
ATOM     18  C19 <0> d   1      17.318  -3.253  11.851  0.00  0.00     0.048 A 
ATOM     19 Cl21 <0> d   1      16.759  -0.615  11.617  0.00  0.00    -0.084 Cl
ATOM     20  C17 <0> d   1      18.124  -4.368  11.703  0.00  0.00     0.035 A 
ATOM     21  C16 <0> d   1      19.378  -4.245  11.132  0.00  0.00     0.024 A 
ATOM     22 Cl18 <0> d   1      17.562  -5.922  12.236  0.00  0.00    -0.084 Cl
ATOM     23  C15 <0> d   1      19.825  -3.007  10.708  0.00  0.00     0.013 A 
ENDBRANCH   1  16
TORSDOF 6
ENDMDL
MODEL 8
REMARK VINA RESULT:      -6.5      3.007      5.920
REMARK  6 active torsions:
REMARK  status: ('A' for Active; 'I' for Inactive)
REMARK    1  A    between atoms: C3_3  and  C4_4 
REMARK    2  A    between atoms: C4_4  and  O5_5 
REMARK    3  A    between atoms: O5_5  and  C6_6 
REMARK    4  A    between atoms: C6_6  and  C8_7 
REMARK    5  A    between atoms: C6_6  and  C14_13 
REMARK    6  A    between atoms: C8_7  and  N9_8 
ROOT
ATOM      1  C6  <0> d   1      18.888   2.062  10.558  0.00  0.00     0.174 C 
ENDROOT
BRANCH   1   2
ATOM      2  O5  <0> d   1      18.675   1.139  11.628  0.00  0.00    -0.375 OA
BRANCH   2   3
ATOM      3  C4  <0> d   1      19.832   0.906  12.434  0.00  0.00     0.209 C 
BRANCH   3   4
ATOM      4  C3  <0> d   1      19.405   0.471  13.811  0.00  0.00    -0.005 A 
ATOM      5  C2  <0> d   1      19.144  -0.803  14.115  0.00  0.00     0.083 A 
ATOM      6 Cl1  <0> d   1      19.253  -2.136  13.008  0.00  0.00    -0.076 Cl
ATOM      7  S24 <0> d   1      18.670  -0.923  15.804  0.00  0.00    -0.089 SA
ATOM      8  C23 <0> d   1      18.866   0.812  16.013  0.00  0.00     0.052 A 
ATOM      9  C22 <0> d   1      19.250   1.362  14.860  0.00  0.00     0.019 A 
ENDBRANCH   3   4
ENDBRANCH   2   3
ENDBRANCH   1   2
BRANCH   1  10
ATOM     10  C8  <0> d   1      17.964   3.269  10.734  0.00  0.00     0.166 C 
BRANCH  10  11
ATOM     11  N9  <0> d   1      18.326   3.987  11.959  0.00  0.00    -0.347 N 
ATOM     12  C13 <0> d   1      17.518   4.228  13.014  0.00  0.00     0.209 A 
ATOM     13  N12 <0> d   1      18.192   4.891  13.914  0.00  0.00    -0.255 NA
ATOM     14  C11 <0> d   1      19.439   5.100  13.467  0.00  0.00     0.135 A 
ATOM     15  C10 <0> d   1      19.543   4.542  12.246  0.00  0.00     0.111 A 
ENDBRANCH  10  11
ENDBRANCH   1  10
BRANCH   1  16
ATOM     16  C14 <0> d   1      18.588   1.387   9.245  0.00  0.00    -0.006 A 
ATOM     17  C20 <0> d   1      17.651   0.370   9.189  0.00  0.00     0.044 A 
ATOM     18  C19 <0> d   1      17.371  -0.246   7.983  0.00  0.00     0.048 A 
ATOM     19 Cl21 <0> d   1      16.817  -0.122  10.630  0.00  0.00    -0.084 Cl
ATOM     20  C17 <0> d   1      18.037   0.146   6.835  0.00  0.00     0.035 A 
ATOM     21  C16 <0> d   1      18.978   1.158   6.893  0.00  0.00     0.024 A 
ATOM     22 Cl18 <0> d   1      17.691  -0.632   5.322  0.00  0.00    -0.084 Cl
ATOM     23  C15 <0> d   1      19.253   1.777   8.099  0.00  0.00     0.013 A 
ENDBRANCH   1  16
TORSDOF 6
ENDMDL
MODEL 9
REMARK VINA RESULT:      -6.5      4.010      6.175
REMARK  6 active torsions:
REMARK  status: ('A' for Active; 'I' for Inactive)
REMARK    1  A    between atoms: C3_3  and  C4_4 
REMARK    2  A    between atoms: C4_4  and  O5_5 
REMARK    3  A    between atoms: O5_5  and  C6_6 
REMARK    4  A    between atoms: C6_6  and  C8_7 
REMARK    5  A    between atoms: C6_6  and  C14_13 
REMARK    6  A    between atoms: C8_7  and  N9_8 
ROOT
ATOM      1  C6  <0> d   1      19.245  -0.798  13.098  0.00  0.00     0.174 C 
ENDROOT
BRANCH   1   2
ATOM      2  O5  <0> d   1      20.252  -0.063  12.399  0.00  0.00    -0.375 OA
BRANCH   2   3
ATOM      3  C4  <0> d   1      19.787   1.164  11.831  0.00  0.00     0.209 C 
BRANCH   3   4
ATOM      4  C3  <0> d   1      19.572   0.981  10.351  0.00  0.00    -0.005 A 
ATOM      5  C2  <0> d   1      18.974   1.903   9.592  0.00  0.00     0.083 A 
ATOM      6 Cl1  <0> d   1      18.362   3.424  10.164  0.00  0.00    -0.076 Cl
ATOM      7  S24 <0> d   1      18.895   1.339   7.929  0.00  0.00    -0.089 SA
ATOM      8  C23 <0> d   1      19.711  -0.157   8.366  0.00  0.00     0.052 A 
ATOM      9  C22 <0> d   1      19.978  -0.156   9.673  0.00  0.00     0.019 A 
ENDBRANCH   3   4
ENDBRANCH   2   3
ENDBRANCH   1   2
BRANCH   1  10
ATOM     10  C8  <0> d   1      19.783  -1.225  14.465  0.00  0.00     0.166 C 
BRANCH  10  11
ATOM     11  N9  <0> d   1      18.939  -0.659  15.521  0.00  0.00    -0.347 N 
ATOM     12  C13 <0> d   1      18.045  -1.331  16.278  0.00  0.00     0.209 A 
ATOM     13  N12 <0> d   1      17.488  -0.493  17.110  0.00  0.00    -0.255 NA
ATOM     14  C11 <0> d   1      17.996   0.732  16.910  0.00  0.00     0.135 A 
ATOM     15  C10 <0> d   1      18.906   0.650  15.921  0.00  0.00     0.111 A 
ENDBRANCH  10  11
ENDBRANCH   1  10
BRANCH   1  16
ATOM     16  C14 <0> d   1      18.872  -2.021  12.301  0.00  0.00    -0.006 A 
ATOM     17  C20 <0> d   1      17.669  -2.061  11.618  0.00  0.00     0.044 A 
ATOM     18  C19 <0> d   1      17.328  -3.180  10.881  0.00  0.00     0.048 A 
ATOM     19 Cl21 <0> d   1      16.593  -0.699  11.675  0.00  0.00    -0.084 Cl
ATOM     20  C17 <0> d   1      18.186  -4.265  10.837  0.00  0.00     0.035 A 
ATOM     21  C16 <0> d   1      19.385  -4.228  11.525  0.00  0.00     0.024 A 
ATOM     22 Cl18 <0> d   1      17.756  -5.674   9.919  0.00  0.00    -0.084 Cl
ATOM     23  C15 <0> d   1      19.727  -3.105  12.257  0.00  0.00     0.013 A 
ENDBRANCH   1  16
TORSDOF 6
ENDMDL
