MODEL 1
REMARK VINA RESULT:      -4.2      0.000      0.000
REMARK  1 active torsions:
REMARK  status: ('A' for Active; 'I' for Inactive)
REMARK    1  A    between atoms: O1_1  and  C2_2 
ROOT
ATOM      1  C2  ZIN A   1      18.920   0.684  18.123  0.00  0.00     0.065 A 
ATOM      2  C3  ZIN A   1      19.622  -0.416  17.651  0.00  0.00     0.036 A 
ATOM      3  C4  ZIN A   1      18.981  -1.361  16.872  0.00  0.00     0.003 A 
ATOM      4  C5  ZIN A   1      17.641  -1.210  16.564  0.00  0.00     0.000 A 
ATOM      5  C6  ZIN A   1      16.939  -0.115  17.033  0.00  0.00     0.003 A 
ATOM      6  C7  ZIN A   1      17.575   0.830  17.817  0.00  0.00     0.036 A 
ENDROOT
BRANCH   1   7
ATOM      7  O1  ZIN A   1      19.549   1.614  18.889  0.00  0.00    -0.361 OA
ATOM      8  H8  ZIN A   1      19.251   2.521  18.730  0.00  0.00     0.217 HD
ENDBRANCH   1   7
TORSDOF 1
ENDMDL
MODEL 2
REMARK VINA RESULT:      -4.1     11.251     11.877
REMARK  1 active torsions:
REMARK  status: ('A' for Active; 'I' for Inactive)
REMARK    1  A    between atoms: O1_1  and  C2_2 
ROOT
ATOM      1  C2  ZIN A   1      19.330  -1.064   5.211  0.00  0.00     0.065 A 
ATOM      2  C3  ZIN A   1      19.203  -1.682   6.447  0.00  0.00     0.036 A 
ATOM      3  C4  ZIN A   1      18.960  -0.922   7.576  0.00  0.00     0.003 A 
ATOM      4  C5  ZIN A   1      18.842   0.452   7.473  0.00  0.00     0.000 A 
ATOM      5  C6  ZIN A   1      18.968   1.070   6.243  0.00  0.00     0.003 A 
ATOM      6  C7  ZIN A   1      19.217   0.315   5.112  0.00  0.00     0.036 A 
ENDROOT
BRANCH   1   7
ATOM      7  O1  ZIN A   1      19.570  -1.809   4.100  0.00  0.00    -0.361 OA
ATOM      8  H8  ZIN A   1      20.378  -1.563   3.629  0.00  0.00     0.217 HD
ENDBRANCH   1   7
TORSDOF 1
ENDMDL
MODEL 3
REMARK VINA RESULT:      -4.1      1.335      1.855
REMARK  1 active torsions:
REMARK  status: ('A' for Active; 'I' for Inactive)
REMARK    1  A    between atoms: O1_1  and  C2_2 
ROOT
ATOM      1  C2  ZIN A   1      19.313   1.185  17.919  0.00  0.00     0.065 A 
ATOM      2  C3  ZIN A   1      19.056   1.698  16.656  0.00  0.00     0.036 A 
ATOM      3  C4  ZIN A   1      18.757   0.844  15.611  0.00  0.00     0.003 A 
ATOM      4  C5  ZIN A   1      18.715  -0.522  15.825  0.00  0.00     0.000 A 
ATOM      5  C6  ZIN A   1      18.971  -1.037  17.083  0.00  0.00     0.003 A 
ATOM      6  C7  ZIN A   1      19.276  -0.186  18.129  0.00  0.00     0.036 A 
ENDROOT
BRANCH   1   7
ATOM      7  O1  ZIN A   1      19.607   2.023  18.947  0.00  0.00    -0.361 OA
ATOM      8  H8  ZIN A   1      20.255   2.706  18.725  0.00  0.00     0.217 HD
ENDBRANCH   1   7
TORSDOF 1
ENDMDL
MODEL 4
REMARK VINA RESULT:      -4.0      9.675     10.205
REMARK  1 active torsions:
REMARK  status: ('A' for Active; 'I' for Inactive)
REMARK    1  A    between atoms: O1_1  and  C2_2 
ROOT
ATOM      1  C2  ZIN A   1      19.063   1.173   7.981  0.00  0.00     0.065 A 
ATOM      2  C3  ZIN A   1      19.058   1.260   6.596  0.00  0.00     0.036 A 
ATOM      3  C4  ZIN A   1      18.093   0.591   5.867  0.00  0.00     0.003 A 
ATOM      4  C5  ZIN A   1      17.134  -0.163   6.517  0.00  0.00     0.000 A 
ATOM      5  C6  ZIN A   1      17.136  -0.250   7.897  0.00  0.00     0.003 A 
ATOM      6  C7  ZIN A   1      18.103   0.411   8.630  0.00  0.00     0.036 A 
ENDROOT
BRANCH   1   7
ATOM      7  O1  ZIN A   1      20.012   1.829   8.700  0.00  0.00    -0.361 OA
ATOM      8  H8  ZIN A   1      19.728   2.692   9.031  0.00  0.00     0.217 HD
ENDBRANCH   1   7
TORSDOF 1
ENDMDL
MODEL 5
REMARK VINA RESULT:      -3.9      8.861      9.414
REMARK  1 active torsions:
REMARK  status: ('A' for Active; 'I' for Inactive)
REMARK    1  A    between atoms: O1_1  and  C2_2 
ROOT
ATOM      1  C2  ZIN A   1      17.768  -0.025   8.203  0.00  0.00     0.065 A 
ATOM      2  C3  ZIN A   1      18.668   0.753   7.489  0.00  0.00     0.036 A 
ATOM      3  C4  ZIN A   1      19.213   1.884   8.068  0.00  0.00     0.003 A 
ATOM      4  C5  ZIN A   1      18.861   2.240   9.357  0.00  0.00     0.000 A 
ATOM      5  C6  ZIN A   1      17.964   1.467  10.071  0.00  0.00     0.003 A 
ATOM      6  C7  ZIN A   1      17.412   0.338   9.494  0.00  0.00     0.036 A 
ENDROOT
BRANCH   1   7
ATOM      7  O1  ZIN A   1      17.231  -1.137   7.636  0.00  0.00    -0.361 OA
ATOM      8  H8  ZIN A   1      17.647  -1.393   6.802  0.00  0.00     0.217 HD
ENDBRANCH   1   7
TORSDOF 1
ENDMDL
MODEL 6
REMARK VINA RESULT:      -3.9      8.076      8.563
REMARK  1 active torsions:
REMARK  status: ('A' for Active; 'I' for Inactive)
REMARK    1  A    between atoms: O1_1  and  C2_2 
ROOT
ATOM      1  C2  ZIN A   1      17.715   1.475  10.195  0.00  0.00     0.065 A 
ATOM      2  C3  ZIN A   1      18.622   2.352   9.617  0.00  0.00     0.036 A 
ATOM      3  C4  ZIN A   1      19.180   2.056   8.387  0.00  0.00     0.003 A 
ATOM      4  C5  ZIN A   1      18.833   0.887   7.734  0.00  0.00     0.000 A 
ATOM      5  C6  ZIN A   1      17.930   0.012   8.308  0.00  0.00     0.003 A 
ATOM      6  C7  ZIN A   1      17.374   0.301   9.540  0.00  0.00     0.036 A 
ENDROOT
BRANCH   1   7
ATOM      7  O1  ZIN A   1      17.167   1.764  11.404  0.00  0.00    -0.361 OA
ATOM      8  H8  ZIN A   1      16.258   1.450  11.509  0.00  0.00     0.217 HD
ENDBRANCH   1   7
TORSDOF 1
ENDMDL
MODEL 7
REMARK VINA RESULT:      -3.9      8.013      8.493
REMARK  1 active torsions:
REMARK  status: ('A' for Active; 'I' for Inactive)
REMARK    1  A    between atoms: O1_1  and  C2_2 
ROOT
ATOM      1  C2  ZIN A   1      17.723   1.558  10.264  0.00  0.00     0.065 A 
ATOM      2  C3  ZIN A   1      17.366   0.359   9.664  0.00  0.00     0.036 A 
ATOM      3  C4  ZIN A   1      17.909   0.010   8.442  0.00  0.00     0.003 A 
ATOM      4  C5  ZIN A   1      18.808   0.856   7.818  0.00  0.00     0.000 A 
ATOM      5  C6  ZIN A   1      19.166   2.051   8.413  0.00  0.00     0.003 A 
ATOM      6  C7  ZIN A   1      18.620   2.407   9.632  0.00  0.00     0.036 A 
ENDROOT
BRANCH   1   7
ATOM      7  O1  ZIN A   1      17.189   1.903  11.465  0.00  0.00    -0.361 OA
ATOM      8  H8  ZIN A   1      16.466   2.542  11.405  0.00  0.00     0.217 HD
ENDBRANCH   1   7
TORSDOF 1
ENDMDL
MODEL 8
REMARK VINA RESULT:      -3.8      3.265      3.850
REMARK  1 active torsions:
REMARK  status: ('A' for Active; 'I' for Inactive)
REMARK    1  A    between atoms: O1_1  and  C2_2 
ROOT
ATOM      1  C2  ZIN A   1      19.849   0.129  14.027  0.00  0.00     0.065 A 
ATOM      2  C3  ZIN A   1      19.051   1.192  14.426  0.00  0.00     0.036 A 
ATOM      3  C4  ZIN A   1      17.971   0.968  15.259  0.00  0.00     0.003 A 
ATOM      4  C5  ZIN A   1      17.686  -0.314  15.693  0.00  0.00     0.000 A 
ATOM      5  C6  ZIN A   1      18.480  -1.374  15.297  0.00  0.00     0.003 A 
ATOM      6  C7  ZIN A   1      19.558  -1.156  14.460  0.00  0.00     0.036 A 
ENDROOT
BRANCH   1   7
ATOM      7  O1  ZIN A   1      20.911   0.347  13.207  0.00  0.00    -0.361 OA
ATOM      8  H8  ZIN A   1      21.453  -0.438  13.048  0.00  0.00     0.217 HD
ENDBRANCH   1   7
TORSDOF 1
ENDMDL
MODEL 9
REMARK VINA RESULT:      -3.8      7.278      7.567
REMARK  1 active torsions:
REMARK  status: ('A' for Active; 'I' for Inactive)
REMARK    1  A    between atoms: O1_1  and  C2_2 
ROOT
ATOM      1  C2  ZIN A   1      19.704   2.971  11.535  0.00  0.00     0.065 A 
ATOM      2  C3  ZIN A   1      19.259   3.933  12.431  0.00  0.00     0.036 A 
ATOM      3  C4  ZIN A   1      18.187   4.740  12.100  0.00  0.00     0.003 A 
ATOM      4  C5  ZIN A   1      17.559   4.589  10.877  0.00  0.00     0.000 A 
ATOM      5  C6  ZIN A   1      18.000   3.632   9.983  0.00  0.00     0.003 A 
ATOM      6  C7  ZIN A   1      19.076   2.826  10.307  0.00  0.00     0.036 A 
ENDROOT
BRANCH   1   7
ATOM      7  O1  ZIN A   1      20.759   2.176  11.858  0.00  0.00    -0.361 OA
ATOM      8  H8  ZIN A   1      20.535   1.239  11.939  0.00  0.00     0.217 HD
ENDBRANCH   1   7
TORSDOF 1
ENDMDL
