MODEL 1
REMARK VINA RESULT:      -8.7      0.000      0.000
REMARK  8 active torsions:
REMARK  status: ('A' for Active; 'I' for Inactive)
REMARK    1  A    between atoms: O2_2  and  C3_3 
REMARK    2  A    between atoms: C5_5  and  C6_6 
REMARK    3  A    between atoms: C11_11  and  O12_12 
REMARK    4  A    between atoms: O12_12  and  C13_13 
REMARK    5  A    between atoms: C13_13  and  C14_14 
REMARK    6  A    between atoms: C14_14  and  C15_15 
REMARK    7  A    between atoms: C15_15  and  N16_16 
REMARK    8  A    between atoms: C20_20  and  C21_21 
ROOT
ATOM      1  N16 ZIN A   1      18.696  -3.477  10.480  0.00  0.00    -0.071 N 
ATOM      2  H17 ZIN A   1      19.038  -2.701   9.934  0.00  0.00     0.279 HD
ATOM      3  C18 ZIN A   1      19.687  -3.826  11.505  0.00  0.00     0.235 C 
ATOM      4  C19 ZIN A   1      19.981  -2.601  12.374  0.00  0.00     0.038 C 
ATOM      5  C20 ZIN A   1      18.687  -2.138  13.049  0.00  0.00     0.044 C 
ATOM      6  C31 ZIN A   1      17.638  -1.848  11.973  0.00  0.00     0.038 C 
ATOM      7  C32 ZIN A   1      17.430  -3.102  11.121  0.00  0.00     0.235 C 
ENDROOT
BRANCH   1   8
ATOM      8  C15 ZIN A   1      18.475  -4.633   9.602  0.00  0.00     0.237 C 
BRANCH   8   9
ATOM      9  C14 ZIN A   1      19.170  -4.394   8.260  0.00  0.00     0.054 C 
BRANCH   9  10
ATOM     10  C13 ZIN A   1      18.485  -3.236   7.529  0.00  0.00     0.177 C 
BRANCH  10  11
ATOM     11  O12 ZIN A   1      19.454  -2.237   7.207  0.00  0.00    -0.348 OA
BRANCH  11  12
ATOM     12  C11 ZIN A   1      19.343  -1.044   7.844  0.00  0.00     0.102 A 
ATOM     13  C3  ZIN A   1      18.754   0.041   7.193  0.00  0.00     0.102 A 
ATOM     14  C4  ZIN A   1      18.640   1.255   7.837  0.00  0.00     0.054 A 
ATOM     15  C5  ZIN A   1      19.121   1.397   9.145  0.00  0.00     0.012 A 
ATOM     16  C9  ZIN A   1      19.716   0.307   9.790  0.00  0.00     0.018 A 
ATOM     17  C10 ZIN A   1      19.826  -0.902   9.139  0.00  0.00     0.040 A 
BRANCH  13  18
ATOM     18  O2  ZIN A   1      18.287  -0.101   5.923  0.00  0.00    -0.353 OA
ATOM     19  C1  ZIN A   1      19.210   0.148   4.860  0.00  0.00     0.210 C 
ENDBRANCH  13  18
BRANCH  15  20
ATOM     20  C6  ZIN A   1      19.003   2.687   9.838  0.00  0.00     0.155 C 
ATOM     21  C7  ZIN A   1      19.707   2.904  11.152  0.00  0.00     0.096 C 
ATOM     22  O8  ZIN A   1      18.338   3.578   9.351  0.00  0.00    -0.293 OA
ENDBRANCH  15  20
ENDBRANCH  11  12
ENDBRANCH  10  11
ENDBRANCH   9  10
ENDBRANCH   8   9
ENDBRANCH   1   8
BRANCH   5  23
ATOM     23  C21 ZIN A   1      18.954  -0.885  13.844  0.00  0.00     0.079 A 
ATOM     24  C30 ZIN A   1      18.459  -0.592  15.191  0.00  0.00     0.027 A 
ATOM     25  C24 ZIN A   1      18.957   0.678  15.529  0.00  0.00     0.116 A 
ATOM     26  C29 ZIN A   1      17.672  -1.296  16.106  0.00  0.00     0.019 A 
ATOM     27  O23 ZIN A   1      19.679   1.113  14.477  0.00  0.00    -0.212 OA
ATOM     28  C25 ZIN A   1      18.651   1.225  16.768  0.00  0.00     0.082 A 
ATOM     29  N22 ZIN A   1      19.659   0.133  13.458  0.00  0.00    -0.131 NA
ATOM     30  C26 ZIN A   1      17.866   0.516  17.656  0.00  0.00     0.119 A 
ATOM     31  F27 ZIN A   1      17.568   1.049  18.860  0.00  0.00    -0.206 F 
ATOM     32  C28 ZIN A   1      17.380  -0.742  17.319  0.00  0.00     0.043 A 
ENDBRANCH   5  23
TORSDOF 8
ENDMDL
MODEL 2
REMARK VINA RESULT:      -8.6      3.329      8.098
REMARK  8 active torsions:
REMARK  status: ('A' for Active; 'I' for Inactive)
REMARK    1  A    between atoms: O2_2  and  C3_3 
REMARK    2  A    between atoms: C5_5  and  C6_6 
REMARK    3  A    between atoms: C11_11  and  O12_12 
REMARK    4  A    between atoms: O12_12  and  C13_13 
REMARK    5  A    between atoms: C13_13  and  C14_14 
REMARK    6  A    between atoms: C14_14  and  C15_15 
REMARK    7  A    between atoms: C15_15  and  N16_16 
REMARK    8  A    between atoms: C20_20  and  C21_21 
ROOT
ATOM      1  N16 ZIN A   1      17.633   2.746  10.697  0.00  0.00    -0.071 N 
ATOM      2  H17 ZIN A   1      17.013   3.101   9.985  0.00  0.00     0.279 HD
ATOM      3  C18 ZIN A   1      17.335   1.329  10.940  0.00  0.00     0.235 C 
ATOM      4  C19 ZIN A   1      17.460   0.546   9.631  0.00  0.00     0.038 C 
ATOM      5  C20 ZIN A   1      18.887   0.685   9.093  0.00  0.00     0.044 C 
ATOM      6  C31 ZIN A   1      19.212   2.170   8.914  0.00  0.00     0.038 C 
ATOM      7  C32 ZIN A   1      19.024   2.891  10.251  0.00  0.00     0.235 C 
ENDROOT
BRANCH   1   8
ATOM      8  C15 ZIN A   1      17.437   3.505  11.939  0.00  0.00     0.237 C 
BRANCH   8   9
ATOM      9  C14 ZIN A   1      18.701   3.414  12.796  0.00  0.00     0.054 C 
BRANCH   9  10
ATOM     10  C13 ZIN A   1      18.345   2.851  14.175  0.00  0.00     0.177 C 
BRANCH  10  11
ATOM     11  O12 ZIN A   1      19.325   1.887  14.563  0.00  0.00    -0.348 OA
BRANCH  11  12
ATOM     12  C11 ZIN A   1      19.283   0.682  13.939  0.00  0.00     0.102 A 
ATOM     13  C3  ZIN A   1      18.388  -0.296  14.373  0.00  0.00     0.102 A 
ATOM     14  C4  ZIN A   1      18.342  -1.521  13.742  0.00  0.00     0.054 A 
ATOM     15  C5  ZIN A   1      19.201  -1.782  12.667  0.00  0.00     0.012 A 
ATOM     16  C9  ZIN A   1      20.102  -0.799  12.240  0.00  0.00     0.018 A 
ATOM     17  C10 ZIN A   1      20.140   0.422  12.877  0.00  0.00     0.040 A 
BRANCH  13  18
ATOM     18  O2  ZIN A   1      17.554  -0.038  15.417  0.00  0.00    -0.353 OA
ATOM     19  C1  ZIN A   1      17.893  -0.619  16.678  0.00  0.00     0.210 C 
ENDBRANCH  13  18
BRANCH  15  20
ATOM     20  C6  ZIN A   1      19.159  -3.085  11.989  0.00  0.00     0.155 C 
ATOM     21  C7  ZIN A   1      17.835  -3.737  11.691  0.00  0.00     0.096 C 
ATOM     22  O8  ZIN A   1      20.193  -3.636  11.671  0.00  0.00    -0.293 OA
ENDBRANCH  15  20
ENDBRANCH  11  12
ENDBRANCH  10  11
ENDBRANCH   9  10
ENDBRANCH   8   9
ENDBRANCH   1   8
BRANCH   5  23
ATOM     23  C21 ZIN A   1      18.995  -0.019   7.764  0.00  0.00     0.079 A 
ATOM     24  C30 ZIN A   1      19.076  -1.467   7.554  0.00  0.00     0.027 A 
ATOM     25  C24 ZIN A   1      19.161  -1.661   6.165  0.00  0.00     0.116 A 
ATOM     26  C29 ZIN A   1      19.067  -2.569   8.412  0.00  0.00     0.019 A 
ATOM     27  O23 ZIN A   1      19.141  -0.441   5.592  0.00  0.00    -0.212 OA
ATOM     28  C25 ZIN A   1      19.246  -2.952   5.660  0.00  0.00     0.082 A 
ATOM     29  N22 ZIN A   1      19.039   0.547   6.598  0.00  0.00    -0.131 NA
ATOM     30  C26 ZIN A   1      19.242  -4.029   6.525  0.00  0.00     0.119 A 
ATOM     31  F27 ZIN A   1      19.326  -5.283   6.032  0.00  0.00    -0.206 F 
ATOM     32  C28 ZIN A   1      19.153  -3.831   7.897  0.00  0.00     0.043 A 
ENDBRANCH   5  23
TORSDOF 8
ENDMDL
MODEL 3
REMARK VINA RESULT:      -8.4      2.349      3.174
REMARK  8 active torsions:
REMARK  status: ('A' for Active; 'I' for Inactive)
REMARK    1  A    between atoms: O2_2  and  C3_3 
REMARK    2  A    between atoms: C5_5  and  C6_6 
REMARK    3  A    between atoms: C11_11  and  O12_12 
REMARK    4  A    between atoms: O12_12  and  C13_13 
REMARK    5  A    between atoms: C13_13  and  C14_14 
REMARK    6  A    between atoms: C14_14  and  C15_15 
REMARK    7  A    between atoms: C15_15  and  N16_16 
REMARK    8  A    between atoms: C20_20  and  C21_21 
ROOT
ATOM      1  N16 ZIN A   1      19.850  -1.910  12.467  0.00  0.00    -0.071 N 
ATOM      2  H17 ZIN A   1      20.557  -2.266  13.091  0.00  0.00     0.279 HD
ATOM      3  C18 ZIN A   1      18.534  -2.017  13.110  0.00  0.00     0.235 C 
ATOM      4  C19 ZIN A   1      18.551  -1.265  14.443  0.00  0.00     0.038 C 
ATOM      5  C20 ZIN A   1      18.879   0.209  14.188  0.00  0.00     0.044 C 
ATOM      6  C31 ZIN A   1      20.217   0.304  13.451  0.00  0.00     0.038 C 
ATOM      7  C32 ZIN A   1      20.137  -0.505  12.154  0.00  0.00     0.235 C 
ENDROOT
BRANCH   1   8
ATOM      8  C15 ZIN A   1      19.852  -2.696  11.227  0.00  0.00     0.237 C 
BRANCH   8   9
ATOM      9  C14 ZIN A   1      18.461  -2.648  10.591  0.00  0.00     0.054 C 
BRANCH   9  10
ATOM     10  C13 ZIN A   1      18.580  -2.185   9.136  0.00  0.00     0.177 C 
BRANCH  10  11
ATOM     11  O12 ZIN A   1      17.593  -1.187   8.873  0.00  0.00    -0.348 OA
BRANCH  11  12
ATOM     12  C11 ZIN A   1      17.804   0.043   9.407  0.00  0.00     0.102 A 
ATOM     13  C3  ZIN A   1      18.692   0.926   8.791  0.00  0.00     0.102 A 
ATOM     14  C4  ZIN A   1      18.909   2.176   9.332  0.00  0.00     0.054 A 
ATOM     15  C5  ZIN A   1      18.241   2.554  10.503  0.00  0.00     0.012 A 
ATOM     16  C9  ZIN A   1      17.356   1.661  11.119  0.00  0.00     0.018 A 
ATOM     17  C10 ZIN A   1      17.145   0.415  10.572  0.00  0.00     0.040 A 
BRANCH  13  18
ATOM     18  O2  ZIN A   1      19.339   0.556   7.653  0.00  0.00    -0.353 OA
ATOM     19  C1  ZIN A   1      18.890   1.144   6.430  0.00  0.00     0.210 C 
ENDBRANCH  13  18
BRANCH  15  20
ATOM     20  C6  ZIN A   1      18.466   3.884  11.084  0.00  0.00     0.155 C 
ATOM     21  C7  ZIN A   1      17.402   4.945  10.977  0.00  0.00     0.096 C 
ATOM     22  O8  ZIN A   1      19.511   4.128  11.651  0.00  0.00    -0.293 OA
ENDBRANCH  15  20
ENDBRANCH  11  12
ENDBRANCH  10  11
ENDBRANCH   9  10
ENDBRANCH   8   9
ENDBRANCH   1   8
BRANCH   5  23
ATOM     23  C21 ZIN A   1      18.974   0.939  15.503  0.00  0.00     0.079 A 
ATOM     24  C30 ZIN A   1      18.814   2.381  15.708  0.00  0.00     0.027 A 
ATOM     25  C24 ZIN A   1      18.982   2.607  17.085  0.00  0.00     0.116 A 
ATOM     26  C29 ZIN A   1      18.534   3.452  14.856  0.00  0.00     0.019 A 
ATOM     27  O23 ZIN A   1      19.230   1.410  17.655  0.00  0.00    -0.212 OA
ATOM     28  C25 ZIN A   1      18.879   3.899  17.583  0.00  0.00     0.082 A 
ATOM     29  N22 ZIN A   1      19.219   0.406  16.660  0.00  0.00    -0.131 NA
ATOM     30  C26 ZIN A   1      18.609   4.946  16.723  0.00  0.00     0.119 A 
ATOM     31  F27 ZIN A   1      18.510   6.202  17.209  0.00  0.00    -0.206 F 
ATOM     32  C28 ZIN A   1      18.438   4.716  15.363  0.00  0.00     0.043 A 
ENDBRANCH   5  23
TORSDOF 8
ENDMDL
MODEL 4
REMARK VINA RESULT:      -8.3      3.003      4.819
REMARK  8 active torsions:
REMARK  status: ('A' for Active; 'I' for Inactive)
REMARK    1  A    between atoms: O2_2  and  C3_3 
REMARK    2  A    between atoms: C5_5  and  C6_6 
REMARK    3  A    between atoms: C11_11  and  O12_12 
REMARK    4  A    between atoms: O12_12  and  C13_13 
REMARK    5  A    between atoms: C13_13  and  C14_14 
REMARK    6  A    between atoms: C14_14  and  C15_15 
REMARK    7  A    between atoms: C15_15  and  N16_16 
REMARK    8  A    between atoms: C20_20  and  C21_21 
ROOT
ATOM      1  N16 ZIN A   1      19.943  -2.561  12.159  0.00  0.00    -0.071 N 
ATOM      2  H17 ZIN A   1      20.399  -2.384  13.041  0.00  0.00     0.279 HD
ATOM      3  C18 ZIN A   1      18.487  -2.532  12.350  0.00  0.00     0.235 C 
ATOM      4  C19 ZIN A   1      18.074  -1.185  12.947  0.00  0.00     0.038 C 
ATOM      5  C20 ZIN A   1      18.489  -0.060  11.993  0.00  0.00     0.044 C 
ATOM      6  C31 ZIN A   1      19.997  -0.147  11.744  0.00  0.00     0.038 C 
ATOM      7  C32 ZIN A   1      20.337  -1.533  11.190  0.00  0.00     0.235 C 
ENDROOT
BRANCH   1   8
ATOM      8  C15 ZIN A   1      20.342  -3.882  11.659  0.00  0.00     0.237 C 
BRANCH   8   9
ATOM      9  C14 ZIN A   1      19.096  -4.670  11.249  0.00  0.00     0.054 C 
BRANCH   9  10
ATOM     10  C13 ZIN A   1      19.331  -5.323   9.884  0.00  0.00     0.177 C 
BRANCH  10  11
ATOM     11  O12 ZIN A   1      18.265  -4.973   8.999  0.00  0.00    -0.348 OA
BRANCH  11  12
ATOM     12  C11 ZIN A   1      18.493  -3.951   8.135  0.00  0.00     0.102 A 
ATOM     13  C3  ZIN A   1      18.897  -4.223   6.828  0.00  0.00     0.102 A 
ATOM     14  C4  ZIN A   1      19.130  -3.187   5.947  0.00  0.00     0.054 A 
ATOM     15  C5  ZIN A   1      18.965  -1.863   6.371  0.00  0.00     0.012 A 
ATOM     16  C9  ZIN A   1      18.566  -1.597   7.686  0.00  0.00     0.018 A 
ATOM     17  C10 ZIN A   1      18.336  -2.637   8.559  0.00  0.00     0.040 A 
BRANCH  13  18
ATOM     18  O2  ZIN A   1      19.055  -5.511   6.419  0.00  0.00    -0.353 OA
ATOM     19  C1  ZIN A   1      18.143  -5.995   5.431  0.00  0.00     0.210 C 
ENDBRANCH  13  18
BRANCH  15  20
ATOM     20  C6  ZIN A   1      19.212  -0.754   5.439  0.00  0.00     0.155 C 
ATOM     21  C7  ZIN A   1      18.441   0.533   5.578  0.00  0.00     0.096 C 
ATOM     22  O8  ZIN A   1      20.035  -0.876   4.557  0.00  0.00    -0.293 OA
ENDBRANCH  15  20
ENDBRANCH  11  12
ENDBRANCH  10  11
ENDBRANCH   9  10
ENDBRANCH   8   9
ENDBRANCH   1   8
BRANCH   5  23
ATOM     23  C21 ZIN A   1      18.155   1.273  12.611  0.00  0.00     0.079 A 
ATOM     24  C30 ZIN A   1      17.890   2.521  11.890  0.00  0.00     0.027 A 
ATOM     25  C24 ZIN A   1      17.626   3.495  12.867  0.00  0.00     0.116 A 
ATOM     26  C29 ZIN A   1      17.845   2.862  10.536  0.00  0.00     0.019 A 
ATOM     27  O23 ZIN A   1      17.730   2.891  14.068  0.00  0.00    -0.212 OA
ATOM     28  C25 ZIN A   1      17.331   4.794  12.475  0.00  0.00     0.082 A 
ATOM     29  N22 ZIN A   1      18.057   1.528  13.879  0.00  0.00    -0.131 NA
ATOM     30  C26 ZIN A   1      17.297   5.114  11.131  0.00  0.00     0.119 A 
ATOM     31  F27 ZIN A   1      17.012   6.378  10.751  0.00  0.00    -0.206 F 
ATOM     32  C28 ZIN A   1      17.555   4.146  10.169  0.00  0.00     0.043 A 
ENDBRANCH   5  23
TORSDOF 8
ENDMDL
MODEL 5
REMARK VINA RESULT:      -8.3      3.515      5.641
REMARK  8 active torsions:
REMARK  status: ('A' for Active; 'I' for Inactive)
REMARK    1  A    between atoms: O2_2  and  C3_3 
REMARK    2  A    between atoms: C5_5  and  C6_6 
REMARK    3  A    between atoms: C11_11  and  O12_12 
REMARK    4  A    between atoms: O12_12  and  C13_13 
REMARK    5  A    between atoms: C13_13  and  C14_14 
REMARK    6  A    between atoms: C14_14  and  C15_15 
REMARK    7  A    between atoms: C15_15  and  N16_16 
REMARK    8  A    between atoms: C20_20  and  C21_21 
ROOT
ATOM      1  N16 ZIN A   1      18.107   1.333  11.253  0.00  0.00    -0.071 N 
ATOM      2  H17 ZIN A   1      18.077   2.214  11.743  0.00  0.00     0.279 HD
ATOM      3  C18 ZIN A   1      19.420   0.707  11.456  0.00  0.00     0.235 C 
ATOM      4  C19 ZIN A   1      19.681   0.537  12.955  0.00  0.00     0.038 C 
ATOM      5  C20 ZIN A   1      18.590  -0.351  13.561  0.00  0.00     0.044 C 
ATOM      6  C31 ZIN A   1      17.222   0.275  13.278  0.00  0.00     0.038 C 
ATOM      7  C32 ZIN A   1      17.052   0.452  11.767  0.00  0.00     0.235 C 
ENDROOT
BRANCH   1   8
ATOM      8  C15 ZIN A   1      17.895   1.564   9.818  0.00  0.00     0.237 C 
BRANCH   8   9
ATOM      9  C14 ZIN A   1      18.735   2.759   9.365  0.00  0.00     0.054 C 
BRANCH   9  10
ATOM     10  C13 ZIN A   1      17.984   4.058   9.672  0.00  0.00     0.177 C 
BRANCH  10  11
ATOM     11  O12 ZIN A   1      17.341   3.946  10.943  0.00  0.00    -0.348 OA
BRANCH  11  12
ATOM     12  C11 ZIN A   1      17.991   4.477  12.010  0.00  0.00     0.102 A 
ATOM     13  C3  ZIN A   1      17.283   5.213  12.960  0.00  0.00     0.102 A 
ATOM     14  C4  ZIN A   1      17.939   5.754  14.045  0.00  0.00     0.054 A 
ATOM     15  C5  ZIN A   1      19.320   5.567  14.188  0.00  0.00     0.012 A 
ATOM     16  C9  ZIN A   1      20.026   4.832  13.228  0.00  0.00     0.018 A 
ATOM     17  C10 ZIN A   1      19.362   4.296  12.147  0.00  0.00     0.040 A 
BRANCH  13  18
ATOM     18  O2  ZIN A   1      15.941   5.392  12.819  0.00  0.00    -0.353 OA
ATOM     19  C1  ZIN A   1      15.220   5.833  13.972  0.00  0.00     0.210 C 
ENDBRANCH  13  18
BRANCH  15  20
ATOM     20  C6  ZIN A   1      20.027   6.140  15.341  0.00  0.00     0.155 C 
ATOM     21  C7  ZIN A   1      21.508   5.921  15.502  0.00  0.00     0.096 C 
ATOM     22  O8  ZIN A   1      19.416   6.789  16.164  0.00  0.00    -0.293 OA
ENDBRANCH  15  20
ENDBRANCH  11  12
ENDBRANCH  10  11
ENDBRANCH   9  10
ENDBRANCH   8   9
ENDBRANCH   1   8
BRANCH   5  23
ATOM     23  C21 ZIN A   1      18.797  -0.457  15.050  0.00  0.00     0.079 A 
ATOM     24  C30 ZIN A   1      18.919   0.660  15.990  0.00  0.00     0.027 A 
ATOM     25  C24 ZIN A   1      19.097   0.089  17.262  0.00  0.00     0.116 A 
ATOM     26  C29 ZIN A   1      18.877   2.049  15.850  0.00  0.00     0.019 A 
ATOM     27  O23 ZIN A   1      19.091  -1.249  17.101  0.00  0.00    -0.212 OA
ATOM     28  C25 ZIN A   1      19.240   0.917  18.369  0.00  0.00     0.082 A 
ATOM     29  N22 ZIN A   1      18.905  -1.555  15.733  0.00  0.00    -0.131 NA
ATOM     30  C26 ZIN A   1      19.201   2.289  18.209  0.00  0.00     0.119 A 
ATOM     31  F27 ZIN A   1      19.341   3.092  19.285  0.00  0.00    -0.206 F 
ATOM     32  C28 ZIN A   1      19.020   2.847  16.949  0.00  0.00     0.043 A 
ENDBRANCH   5  23
TORSDOF 8
ENDMDL
MODEL 6
REMARK VINA RESULT:      -8.2      2.850      5.348
REMARK  8 active torsions:
REMARK  status: ('A' for Active; 'I' for Inactive)
REMARK    1  A    between atoms: O2_2  and  C3_3 
REMARK    2  A    between atoms: C5_5  and  C6_6 
REMARK    3  A    between atoms: C11_11  and  O12_12 
REMARK    4  A    between atoms: O12_12  and  C13_13 
REMARK    5  A    between atoms: C13_13  and  C14_14 
REMARK    6  A    between atoms: C14_14  and  C15_15 
REMARK    7  A    between atoms: C15_15  and  N16_16 
REMARK    8  A    between atoms: C20_20  and  C21_21 
ROOT
ATOM      1  N16 ZIN A   1      18.450  -0.063   8.345  0.00  0.00    -0.071 N 
ATOM      2  H17 ZIN A   1      19.122  -0.529   8.935  0.00  0.00     0.279 HD
ATOM      3  C18 ZIN A   1      17.270   0.298   9.140  0.00  0.00     0.235 C 
ATOM      4  C19 ZIN A   1      17.695   1.172  10.322  0.00  0.00     0.038 C 
ATOM      5  C20 ZIN A   1      18.367   2.443   9.796  0.00  0.00     0.044 C 
ATOM      6  C31 ZIN A   1      19.551   2.052   8.908  0.00  0.00     0.038 C 
ATOM      7  C32 ZIN A   1      19.056   1.147   7.777  0.00  0.00     0.235 C 
ENDROOT
BRANCH   1   8
ATOM      8  C15 ZIN A   1      18.047  -0.964   7.257  0.00  0.00     0.237 C 
BRANCH   8   9
ATOM      9  C14 ZIN A   1      18.806  -2.286   7.384  0.00  0.00     0.054 C 
BRANCH   9  10
ATOM     10  C13 ZIN A   1      18.123  -3.169   8.433  0.00  0.00     0.177 C 
BRANCH  10  11
ATOM     11  O12 ZIN A   1      19.064  -3.512   9.451  0.00  0.00    -0.348 OA
BRANCH  11  12
ATOM     12  C11 ZIN A   1      19.043  -2.766  10.585  0.00  0.00     0.102 A 
ATOM     13  C3  ZIN A   1      18.072  -3.006  11.558  0.00  0.00     0.102 A 
ATOM     14  C4  ZIN A   1      18.048  -2.250  12.711  0.00  0.00     0.054 A 
ATOM     15  C5  ZIN A   1      18.996  -1.237  12.900  0.00  0.00     0.012 A 
ATOM     16  C9  ZIN A   1      19.964  -0.997  11.917  0.00  0.00     0.018 A 
ATOM     17  C10 ZIN A   1      19.980  -1.757  10.768  0.00  0.00     0.040 A 
BRANCH  13  18
ATOM     18  O2  ZIN A   1      17.152  -3.991  11.372  0.00  0.00    -0.353 OA
ATOM     19  C1  ZIN A   1      17.411  -5.248  12.001  0.00  0.00     0.210 C 
ENDBRANCH  13  18
BRANCH  15  20
ATOM     20  C6  ZIN A   1      18.977  -0.427  14.125  0.00  0.00     0.155 C 
ATOM     21  C7  ZIN A   1      19.236   1.055  14.053  0.00  0.00     0.096 C 
ATOM     22  O8  ZIN A   1      18.752  -0.953  15.195  0.00  0.00    -0.293 OA
ENDBRANCH  15  20
ENDBRANCH  11  12
ENDBRANCH  10  11
ENDBRANCH   9  10
ENDBRANCH   8   9
ENDBRANCH   1   8
BRANCH   5  23
ATOM     23  C21 ZIN A   1      18.858   3.271  10.956  0.00  0.00     0.079 A 
ATOM     24  C30 ZIN A   1      18.061   4.209  11.750  0.00  0.00     0.027 A 
ATOM     25  C24 ZIN A   1      18.928   4.747  12.716  0.00  0.00     0.116 A 
ATOM     26  C29 ZIN A   1      16.721   4.604  11.720  0.00  0.00     0.019 A 
ATOM     27  O23 ZIN A   1      20.139   4.188  12.517  0.00  0.00    -0.212 OA
ATOM     28  C25 ZIN A   1      18.444   5.676  13.628  0.00  0.00     0.082 A 
ATOM     29  N22 ZIN A   1      20.066   3.288  11.429  0.00  0.00    -0.131 NA
ATOM     30  C26 ZIN A   1      17.117   6.058  13.578  0.00  0.00     0.119 A 
ATOM     31  F27 ZIN A   1      16.648   6.962  14.464  0.00  0.00    -0.206 F 
ATOM     32  C28 ZIN A   1      16.263   5.520  12.623  0.00  0.00     0.043 A 
ENDBRANCH   5  23
TORSDOF 8
ENDMDL
MODEL 7
REMARK VINA RESULT:      -8.2      3.709      7.612
REMARK  8 active torsions:
REMARK  status: ('A' for Active; 'I' for Inactive)
REMARK    1  A    between atoms: O2_2  and  C3_3 
REMARK    2  A    between atoms: C5_5  and  C6_6 
REMARK    3  A    between atoms: C11_11  and  O12_12 
REMARK    4  A    between atoms: O12_12  and  C13_13 
REMARK    5  A    between atoms: C13_13  and  C14_14 
REMARK    6  A    between atoms: C14_14  and  C15_15 
REMARK    7  A    between atoms: C15_15  and  N16_16 
REMARK    8  A    between atoms: C20_20  and  C21_21 
ROOT
ATOM      1  N16 ZIN A   1      19.668  -1.438  13.081  0.00  0.00    -0.071 N 
ATOM      2  H17 ZIN A   1      20.410  -2.110  12.956  0.00  0.00     0.279 HD
ATOM      3  C18 ZIN A   1      19.945  -0.249  12.266  0.00  0.00     0.235 C 
ATOM      4  C19 ZIN A   1      20.105  -0.657  10.800  0.00  0.00     0.038 C 
ATOM      5  C20 ZIN A   1      18.812  -1.321  10.316  0.00  0.00     0.044 C 
ATOM      6  C31 ZIN A   1      18.495  -2.515  11.220  0.00  0.00     0.038 C 
ATOM      7  C32 ZIN A   1      18.393  -2.037  12.670  0.00  0.00     0.235 C 
ENDROOT
BRANCH   1   8
ATOM      8  C15 ZIN A   1      19.593  -1.052  14.496  0.00  0.00     0.237 C 
BRANCH   8   9
ATOM      9  C14 ZIN A   1      18.133  -1.080  14.954  0.00  0.00     0.054 C 
BRANCH   9  10
ATOM     10  C13 ZIN A   1      17.686   0.338  15.321  0.00  0.00     0.177 C 
BRANCH  10  11
ATOM     11  O12 ZIN A   1      17.666   1.150  14.145  0.00  0.00    -0.348 OA
BRANCH  11  12
ATOM     12  C11 ZIN A   1      18.054   2.443  14.284  0.00  0.00     0.102 A 
ATOM     13  C3  ZIN A   1      17.919   3.328  13.214  0.00  0.00     0.102 A 
ATOM     14  C4  ZIN A   1      18.311   4.643  13.351  0.00  0.00     0.054 A 
ATOM     15  C5  ZIN A   1      18.852   5.085  14.565  0.00  0.00     0.012 A 
ATOM     16  C9  ZIN A   1      18.991   4.190  15.632  0.00  0.00     0.018 A 
ATOM     17  C10 ZIN A   1      18.596   2.879  15.486  0.00  0.00     0.040 A 
BRANCH  13  18
ATOM     18  O2  ZIN A   1      17.392   2.896  12.036  0.00  0.00    -0.353 OA
ATOM     19  C1  ZIN A   1      17.474   3.787  10.922  0.00  0.00     0.210 C 
ENDBRANCH  13  18
BRANCH  15  20
ATOM     20  C6  ZIN A   1      19.273   6.484  14.719  0.00  0.00     0.155 C 
ATOM     21  C7  ZIN A   1      18.280   7.526  15.164  0.00  0.00     0.096 C 
ATOM     22  O8  ZIN A   1      20.421   6.800  14.487  0.00  0.00    -0.293 OA
ENDBRANCH  15  20
ENDBRANCH  11  12
ENDBRANCH  10  11
ENDBRANCH   9  10
ENDBRANCH   8   9
ENDBRANCH   1   8
BRANCH   5  23
ATOM     23  C21 ZIN A   1      18.990  -1.796   8.897  0.00  0.00     0.079 A 
ATOM     24  C30 ZIN A   1      18.986  -0.957   7.695  0.00  0.00     0.027 A 
ATOM     25  C24 ZIN A   1      19.187  -1.822   6.607  0.00  0.00     0.116 A 
ATOM     26  C29 ZIN A   1      18.846   0.416   7.476  0.00  0.00     0.019 A 
ATOM     27  O23 ZIN A   1      19.295  -3.070   7.107  0.00  0.00    -0.212 OA
ATOM     28  C25 ZIN A   1      19.235  -1.302   5.320  0.00  0.00     0.082 A 
ATOM     29  N22 ZIN A   1      19.170  -3.022   8.514  0.00  0.00    -0.131 NA
ATOM     30  C26 ZIN A   1      19.088   0.057   5.123  0.00  0.00     0.119 A 
ATOM     31  F27 ZIN A   1      19.133   0.561   3.871  0.00  0.00    -0.206 F 
ATOM     32  C28 ZIN A   1      18.894   0.909   6.204  0.00  0.00     0.043 A 
ENDBRANCH   5  23
TORSDOF 8
ENDMDL
MODEL 8
REMARK VINA RESULT:      -8.1      3.460      5.875
REMARK  8 active torsions:
REMARK  status: ('A' for Active; 'I' for Inactive)
REMARK    1  A    between atoms: O2_2  and  C3_3 
REMARK    2  A    between atoms: C5_5  and  C6_6 
REMARK    3  A    between atoms: C11_11  and  O12_12 
REMARK    4  A    between atoms: O12_12  and  C13_13 
REMARK    5  A    between atoms: C13_13  and  C14_14 
REMARK    6  A    between atoms: C14_14  and  C15_15 
REMARK    7  A    between atoms: C15_15  and  N16_16 
REMARK    8  A    between atoms: C20_20  and  C21_21 
ROOT
ATOM      1  N16 ZIN A   1      18.425   1.164  11.251  0.00  0.00    -0.071 N 
ATOM      2  H17 ZIN A   1      18.392   2.078  11.676  0.00  0.00     0.279 HD
ATOM      3  C18 ZIN A   1      19.718   0.535  11.548  0.00  0.00     0.235 C 
ATOM      4  C19 ZIN A   1      19.920   0.467  13.064  0.00  0.00     0.038 C 
ATOM      5  C20 ZIN A   1      18.791  -0.359  13.687  0.00  0.00     0.044 C 
ATOM      6  C31 ZIN A   1      17.446   0.265  13.308  0.00  0.00     0.038 C 
ATOM      7  C32 ZIN A   1      17.336   0.338  11.783  0.00  0.00     0.235 C 
ENDROOT
BRANCH   1   8
ATOM      8  C15 ZIN A   1      18.271   1.297   9.796  0.00  0.00     0.237 C 
BRANCH   8   9
ATOM      9  C14 ZIN A   1      18.939   2.592   9.329  0.00  0.00     0.054 C 
BRANCH   9  10
ATOM     10  C13 ZIN A   1      18.237   3.790   9.974  0.00  0.00     0.177 C 
BRANCH  10  11
ATOM     11  O12 ZIN A   1      18.814   4.046  11.256  0.00  0.00    -0.348 OA
BRANCH  11  12
ATOM     12  C11 ZIN A   1      18.039   4.696  12.161  0.00  0.00     0.102 A 
ATOM     13  C3  ZIN A   1      18.604   5.179  13.342  0.00  0.00     0.102 A 
ATOM     14  C4  ZIN A   1      17.819   5.840  14.264  0.00  0.00     0.054 A 
ATOM     15  C5  ZIN A   1      16.453   6.019  14.014  0.00  0.00     0.012 A 
ATOM     16  C9  ZIN A   1      15.891   5.526  12.830  0.00  0.00     0.018 A 
ATOM     17  C10 ZIN A   1      16.682   4.868  11.915  0.00  0.00     0.040 A 
BRANCH  13  18
ATOM     18  O2  ZIN A   1      19.932   5.004  13.581  0.00  0.00    -0.353 OA
ATOM     19  C1  ZIN A   1      20.519   5.810  14.606  0.00  0.00     0.210 C 
ENDBRANCH  13  18
BRANCH  15  20
ATOM     20  C6  ZIN A   1      15.610   6.721  14.991  0.00  0.00     0.155 C 
ATOM     21  C7  ZIN A   1      15.951   8.128  15.407  0.00  0.00     0.096 C 
ATOM     22  O8  ZIN A   1      14.639   6.167  15.463  0.00  0.00    -0.293 OA
ENDBRANCH  15  20
ENDBRANCH  11  12
ENDBRANCH  10  11
ENDBRANCH   9  10
ENDBRANCH   8   9
ENDBRANCH   1   8
BRANCH   5  23
ATOM     23  C21 ZIN A   1      18.940  -0.364  15.187  0.00  0.00     0.079 A 
ATOM     24  C30 ZIN A   1      18.945   0.812  16.061  0.00  0.00     0.027 A 
ATOM     25  C24 ZIN A   1      19.106   0.330  17.372  0.00  0.00     0.116 A 
ATOM     26  C29 ZIN A   1      18.815   2.184  15.835  0.00  0.00     0.019 A 
ATOM     27  O23 ZIN A   1      19.197  -1.012  17.293  0.00  0.00    -0.212 OA
ATOM     28  C25 ZIN A   1      19.143   1.229  18.430  0.00  0.00     0.082 A 
ATOM     29  N22 ZIN A   1      19.093  -1.410  15.940  0.00  0.00    -0.131 NA
ATOM     30  C26 ZIN A   1      19.019   2.583  18.185  0.00  0.00     0.119 A 
ATOM     31  F27 ZIN A   1      19.057   3.455  19.215  0.00  0.00    -0.206 F 
ATOM     32  C28 ZIN A   1      18.855   3.053  16.888  0.00  0.00     0.043 A 
ENDBRANCH   5  23
TORSDOF 8
ENDMDL
MODEL 9
REMARK VINA RESULT:      -8.1      3.675      8.448
REMARK  8 active torsions:
REMARK  status: ('A' for Active; 'I' for Inactive)
REMARK    1  A    between atoms: O2_2  and  C3_3 
REMARK    2  A    between atoms: C5_5  and  C6_6 
REMARK    3  A    between atoms: C11_11  and  O12_12 
REMARK    4  A    between atoms: O12_12  and  C13_13 
REMARK    5  A    between atoms: C13_13  and  C14_14 
REMARK    6  A    between atoms: C14_14  and  C15_15 
REMARK    7  A    between atoms: C15_15  and  N16_16 
REMARK    8  A    between atoms: C20_20  and  C21_21 
ROOT
ATOM      1  N16 ZIN A   1      17.814  -0.873  15.665  0.00  0.00    -0.071 N 
ATOM      2  H17 ZIN A   1      17.211  -1.609  15.330  0.00  0.00     0.279 HD
ATOM      3  C18 ZIN A   1      19.214  -1.239  15.416  0.00  0.00     0.235 C 
ATOM      4  C19 ZIN A   1      19.416  -1.508  13.923  0.00  0.00     0.038 C 
ATOM      5  C20 ZIN A   1      19.067  -0.245  13.130  0.00  0.00     0.044 C 
ATOM      6  C31 ZIN A   1      17.630   0.168  13.455  0.00  0.00     0.038 C 
ATOM      7  C32 ZIN A   1      17.495   0.377  14.966  0.00  0.00     0.235 C 
ENDROOT
BRANCH   1   8
ATOM      8  C15 ZIN A   1      17.607  -0.691  17.108  0.00  0.00     0.237 C 
BRANCH   8   9
ATOM      9  C14 ZIN A   1      18.891  -0.152  17.742  0.00  0.00     0.054 C 
BRANCH   9  10
ATOM     10  C13 ZIN A   1      18.548   1.004  18.686  0.00  0.00     0.177 C 
BRANCH  10  11
ATOM     11  O12 ZIN A   1      19.515   2.045  18.535  0.00  0.00    -0.348 OA
BRANCH  11  12
ATOM     12  C11 ZIN A   1      19.174   3.090  17.738  0.00  0.00     0.102 A 
ATOM     13  C3  ZIN A   1      18.324   4.085  18.220  0.00  0.00     0.102 A 
ATOM     14  C4  ZIN A   1      17.977   5.148  17.413  0.00  0.00     0.054 A 
ATOM     15  C5  ZIN A   1      18.474   5.222  16.107  0.00  0.00     0.012 A 
ATOM     16  C9  ZIN A   1      19.322   4.216  15.626  0.00  0.00     0.018 A 
ATOM     17  C10 ZIN A   1      19.663   3.159  16.439  0.00  0.00     0.040 A 
BRANCH  13  18
ATOM     18  O2  ZIN A   1      17.843   4.011  19.491  0.00  0.00    -0.353 OA
ATOM     19  C1  ZIN A   1      16.423   3.996  19.648  0.00  0.00     0.210 C 
ENDBRANCH  13  18
BRANCH  15  20
ATOM     20  C6  ZIN A   1      18.108   6.351  15.241  0.00  0.00     0.155 C 
ATOM     21  C7  ZIN A   1      17.047   6.178  14.185  0.00  0.00     0.096 C 
ATOM     22  O8  ZIN A   1      18.661   7.422  15.375  0.00  0.00    -0.293 OA
ENDBRANCH  15  20
ENDBRANCH  11  12
ENDBRANCH  10  11
ENDBRANCH   9  10
ENDBRANCH   8   9
ENDBRANCH   1   8
BRANCH   5  23
ATOM     23  C21 ZIN A   1      19.189  -0.528  11.654  0.00  0.00     0.079 A 
ATOM     24  C30 ZIN A   1      19.097   0.457  10.573  0.00  0.00     0.027 A 
ATOM     25  C24 ZIN A   1      19.271  -0.254   9.373  0.00  0.00     0.116 A 
ATOM     26  C29 ZIN A   1      18.902   1.840  10.540  0.00  0.00     0.019 A 
ATOM     27  O23 ZIN A   1      19.445  -1.550   9.703  0.00  0.00    -0.212 OA
ATOM     28  C25 ZIN A   1      19.237   0.427   8.164  0.00  0.00     0.082 A 
ATOM     29  N22 ZIN A   1      19.388  -1.688  11.109  0.00  0.00    -0.131 NA
ATOM     30  C26 ZIN A   1      19.037   1.794   8.152  0.00  0.00     0.119 A 
ATOM     31  F27 ZIN A   1      19.003   2.455   6.975  0.00  0.00    -0.206 F 
ATOM     32  C28 ZIN A   1      18.870   2.493   9.341  0.00  0.00     0.043 A 
ENDBRANCH   5  23
TORSDOF 8
ENDMDL
