MODEL 1
REMARK VINA RESULT:      -8.9      0.000      0.000
REMARK  5 active torsions:
REMARK  status: ('A' for Active; 'I' for Inactive)
REMARK       I    between atoms: N2_2  and  C3_3 
REMARK    1  A    between atoms: C3_3  and  C5_5 
REMARK    2  A    between atoms: C10_10  and  S11_11 
REMARK    3  A    between atoms: S11_11  and  C12_12 
REMARK    4  A    between atoms: C16_16  and  C17_17 
REMARK    5  A    between atoms: C18_18  and  C19_19 
ROOT
ATOM      1  C12 <0> d   1      18.535   0.295  13.065  0.00  0.00     0.007 A 
ATOM      2  C13 <0> d   1      17.275  -0.120  12.631  0.00  0.00     0.020 A 
ATOM      3  C14 <0> d   1      17.140  -1.250  11.878  0.00  0.00     0.017 A 
ATOM      4  C15 <0> d   1      18.268  -1.998  11.536  0.00  0.00     0.022 A 
ATOM      5  C16 <0> d   1      18.473  -3.229  10.761  0.00  0.00     0.089 A 
ATOM      6  N25 <0> d   1      19.763  -3.485  10.760  0.00  0.00    -0.174 NA
ATOM      7  N26 <0> d   1      20.443  -2.503  11.486  0.00  0.00    -0.277 N 
ATOM      8  C27 <0> d   1      19.542  -1.587  11.967  0.00  0.00     0.064 A 
ATOM      9  C28 <0> d   1      19.666  -0.429  12.730  0.00  0.00     0.051 A 
ATOM     10  H45 <0> d   1      21.402  -2.474  11.629  0.00  0.00     0.189 HD
ENDROOT
BRANCH   1  11
ATOM     11  S11 <0> d   1      18.688   1.756  14.036  0.00  0.00    -0.089 SA
BRANCH  11  12
ATOM     12  C10 <0> d   1      18.873   1.127  15.672  0.00  0.00     0.021 A 
ATOM     13  C5  <0> d   1      19.108   2.005  16.743  0.00  0.00     0.049 A 
ATOM     14  C6  <0> d   1      19.252   1.492  18.035  0.00  0.00     0.018 A 
ATOM     15  C7  <0> d   1      19.169   0.133  18.249  0.00  0.00     0.001 A 
ATOM     16  C8  <0> d   1      18.944  -0.731  17.188  0.00  0.00     0.001 A 
ATOM     17  C9  <0> d   1      18.799  -0.240  15.907  0.00  0.00     0.020 A 
BRANCH  13  18
ATOM     18  C3  <0> d   1      19.195   3.457  16.508  0.00  0.00     0.252 C 
ATOM     19  N2  <0> d   1      20.377   4.018  16.187  0.00  0.00    -0.361 N 
ATOM     20  C1  <0> d   1      20.464   5.462  15.953  0.00  0.00     0.149 C 
ATOM     21  H32 <0> d   1      21.172   3.466  16.111  0.00  0.00     0.162 HD
ATOM     22  O4  <0> d   1      18.200   4.149  16.603  0.00  0.00    -0.268 OA
ENDBRANCH  13  18
ENDBRANCH  11  12
ENDBRANCH   1  11
BRANCH   5  23
ATOM     23  C17 <0> d   1      17.428  -4.030  10.106  0.00  0.00     0.036 C 
ATOM     24  C18 <0> d   1      17.743  -5.200   9.522  0.00  0.00     0.034 C 
BRANCH  24  25
ATOM     25  C19 <0> d   1      16.696  -6.002   8.866  0.00  0.00     0.056 A 
ATOM     26  N24 <0> d   1      15.462  -5.516   8.761  0.00  0.00    -0.261 NA
ATOM     27  C23 <0> d   1      14.500  -6.201   8.176  0.00  0.00     0.117 A 
ATOM     28  C22 <0> d   1      14.738  -7.460   7.658  0.00  0.00     0.019 A 
ATOM     29  C21 <0> d   1      16.010  -8.008   7.751  0.00  0.00     0.004 A 
ATOM     30  C20 <0> d   1      17.005  -7.269   8.365  0.00  0.00     0.031 A 
ENDBRANCH  24  25
ENDBRANCH   5  23
TORSDOF 5
ENDMDL
MODEL 2
REMARK VINA RESULT:      -8.9      3.996      5.106
REMARK  5 active torsions:
REMARK  status: ('A' for Active; 'I' for Inactive)
REMARK       I    between atoms: N2_2  and  C3_3 
REMARK    1  A    between atoms: C3_3  and  C5_5 
REMARK    2  A    between atoms: C10_10  and  S11_11 
REMARK    3  A    between atoms: S11_11  and  C12_12 
REMARK    4  A    between atoms: C16_16  and  C17_17 
REMARK    5  A    between atoms: C18_18  and  C19_19 
ROOT
ATOM      1  C12 <0> d   1      19.112   2.662  13.564  0.00  0.00     0.007 A 
ATOM      2  C13 <0> d   1      19.611   1.554  12.875  0.00  0.00     0.020 A 
ATOM      3  C14 <0> d   1      19.523   1.489  11.515  0.00  0.00     0.017 A 
ATOM      4  C15 <0> d   1      18.931   2.534  10.804  0.00  0.00     0.022 A 
ATOM      5  C16 <0> d   1      18.681   2.779   9.377  0.00  0.00     0.089 A 
ATOM      6  N25 <0> d   1      18.082   3.945   9.274  0.00  0.00    -0.174 NA
ATOM      7  N26 <0> d   1      17.911   4.505  10.544  0.00  0.00    -0.277 N 
ATOM      8  C27 <0> d   1      18.425   3.654  11.489  0.00  0.00     0.064 A 
ATOM      9  C28 <0> d   1      18.516   3.705  12.877  0.00  0.00     0.051 A 
ATOM     10  H45 <0> d   1      17.494   5.361  10.728  0.00  0.00     0.189 HD
ENDROOT
BRANCH   1  11
ATOM     11  S11 <0> d   1      19.235   2.727  15.320  0.00  0.00    -0.089 SA
BRANCH  11  12
ATOM     12  C10 <0> d   1      18.661   1.137  15.816  0.00  0.00     0.021 A 
ATOM     13  C5  <0> d   1      18.344   0.890  17.162  0.00  0.00     0.049 A 
ATOM     14  C6  <0> d   1      17.889  -0.376  17.542  0.00  0.00     0.018 A 
ATOM     15  C7  <0> d   1      17.762  -1.372  16.599  0.00  0.00     0.001 A 
ATOM     16  C8  <0> d   1      18.083  -1.127  15.272  0.00  0.00     0.001 A 
ATOM     17  C9  <0> d   1      18.532   0.117  14.881  0.00  0.00     0.020 A 
BRANCH  13  18
ATOM     18  C3  <0> d   1      18.481   1.960  18.166  0.00  0.00     0.252 C 
ATOM     19  N2  <0> d   1      17.459   2.807  18.393  0.00  0.00    -0.361 N 
ATOM     20  C1  <0> d   1      17.595   3.871  19.392  0.00  0.00     0.149 C 
ATOM     21  H32 <0> d   1      16.631   2.713  17.895  0.00  0.00     0.162 HD
ATOM     22  O4  <0> d   1      19.518   2.077  18.791  0.00  0.00    -0.268 OA
ENDBRANCH  13  18
ENDBRANCH  11  12
ENDBRANCH   1  11
BRANCH   5  23
ATOM     23  C17 <0> d   1      19.036   1.884   8.265  0.00  0.00     0.036 C 
ATOM     24  C18 <0> d   1      18.301   0.782   8.026  0.00  0.00     0.034 C 
BRANCH  24  25
ATOM     25  C19 <0> d   1      18.657  -0.114   6.913  0.00  0.00     0.056 A 
ATOM     26  N24 <0> d   1      18.940  -1.391   7.159  0.00  0.00    -0.261 NA
ATOM     27  C23 <0> d   1      19.256  -2.224   6.189  0.00  0.00     0.117 A 
ATOM     28  C22 <0> d   1      19.318  -1.797   4.876  0.00  0.00     0.019 A 
ATOM     29  C21 <0> d   1      19.035  -0.471   4.575  0.00  0.00     0.004 A 
ATOM     30  C20 <0> d   1      18.700   0.384   5.609  0.00  0.00     0.031 A 
ENDBRANCH  24  25
ENDBRANCH   5  23
TORSDOF 5
ENDMDL
MODEL 3
REMARK VINA RESULT:      -8.8      4.231     10.026
REMARK  5 active torsions:
REMARK  status: ('A' for Active; 'I' for Inactive)
REMARK       I    between atoms: N2_2  and  C3_3 
REMARK    1  A    between atoms: C3_3  and  C5_5 
REMARK    2  A    between atoms: C10_10  and  S11_11 
REMARK    3  A    between atoms: S11_11  and  C12_12 
REMARK    4  A    between atoms: C16_16  and  C17_17 
REMARK    5  A    between atoms: C18_18  and  C19_19 
ROOT
ATOM      1  C12 <0> d   1      18.330  -1.563   9.905  0.00  0.00     0.007 A 
ATOM      2  C13 <0> d   1      17.415  -1.126  10.864  0.00  0.00     0.020 A 
ATOM      3  C14 <0> d   1      17.833  -0.387  11.932  0.00  0.00     0.017 A 
ATOM      4  C15 <0> d   1      19.185  -0.065  12.070  0.00  0.00     0.022 A 
ATOM      5  C16 <0> d   1      19.952   0.693  13.069  0.00  0.00     0.089 A 
ATOM      6  N25 <0> d   1      21.212   0.678  12.693  0.00  0.00    -0.174 NA
ATOM      7  N26 <0> d   1      21.345  -0.042  11.503  0.00  0.00    -0.277 N 
ATOM      8  C27 <0> d   1      20.114  -0.502  11.109  0.00  0.00     0.064 A 
ATOM      9  C28 <0> d   1      19.675  -1.261  10.028  0.00  0.00     0.051 A 
ATOM     10  H45 <0> d   1      22.178  -0.192  11.028  0.00  0.00     0.189 HD
ENDROOT
BRANCH   1  11
ATOM     11  S11 <0> d   1      17.770  -2.517   8.533  0.00  0.00    -0.089 SA
BRANCH  11  12
ATOM     12  C10 <0> d   1      18.241  -1.534   7.149  0.00  0.00     0.021 A 
ATOM     13  C5  <0> d   1      18.970  -2.106   6.093  0.00  0.00     0.049 A 
ATOM     14  C6  <0> d   1      19.337  -1.315   5.001  0.00  0.00     0.018 A 
ATOM     15  C7  <0> d   1      18.989   0.018   4.969  0.00  0.00     0.001 A 
ATOM     16  C8  <0> d   1      18.275   0.581   6.017  0.00  0.00     0.001 A 
ATOM     17  C9  <0> d   1      17.905  -0.187   7.102  0.00  0.00     0.020 A 
BRANCH  13  18
ATOM     18  C3  <0> d   1      19.339  -3.532   6.132  0.00  0.00     0.252 C 
ATOM     19  N2  <0> d   1      18.429  -4.473   5.813  0.00  0.00    -0.361 N 
ATOM     20  C1  <0> d   1      18.795  -5.891   5.851  0.00  0.00     0.149 C 
ATOM     21  H32 <0> d   1      17.530  -4.211   5.558  0.00  0.00     0.162 HD
ATOM     22  O4  <0> d   1      20.466  -3.860   6.451  0.00  0.00    -0.268 OA
ENDBRANCH  13  18
ENDBRANCH  11  12
ENDBRANCH   1  11
BRANCH   5  23
ATOM     23  C17 <0> d   1      19.410   1.347  14.269  0.00  0.00     0.036 C 
ATOM     24  C18 <0> d   1      19.220   0.638  15.396  0.00  0.00     0.034 C 
BRANCH  24  25
ATOM     25  C19 <0> d   1      18.678   1.293  16.597  0.00  0.00     0.056 A 
ATOM     26  N24 <0> d   1      18.976   2.566  16.846  0.00  0.00    -0.261 NA
ATOM     27  C23 <0> d   1      18.505   3.189  17.907  0.00  0.00     0.117 A 
ATOM     28  C22 <0> d   1      17.689   2.535  18.811  0.00  0.00     0.019 A 
ATOM     29  C21 <0> d   1      17.357   1.204  18.594  0.00  0.00     0.004 A 
ATOM     30  C20 <0> d   1      17.859   0.573  17.470  0.00  0.00     0.031 A 
ENDBRANCH  24  25
ENDBRANCH   5  23
TORSDOF 5
ENDMDL
MODEL 4
REMARK VINA RESULT:      -8.8      3.083      3.435
REMARK  5 active torsions:
REMARK  status: ('A' for Active; 'I' for Inactive)
REMARK       I    between atoms: N2_2  and  C3_3 
REMARK    1  A    between atoms: C3_3  and  C5_5 
REMARK    2  A    between atoms: C10_10  and  S11_11 
REMARK    3  A    between atoms: S11_11  and  C12_12 
REMARK    4  A    between atoms: C16_16  and  C17_17 
REMARK    5  A    between atoms: C18_18  and  C19_19 
ROOT
ATOM      1  C12 <0> d   1      18.439   1.362  13.154  0.00  0.00     0.007 A 
ATOM      2  C13 <0> d   1      17.393   1.146  12.255  0.00  0.00     0.020 A 
ATOM      3  C14 <0> d   1      17.629   0.553  11.049  0.00  0.00     0.017 A 
ATOM      4  C15 <0> d   1      18.925   0.158  10.708  0.00  0.00     0.022 A 
ATOM      5  C16 <0> d   1      19.512  -0.490   9.528  0.00  0.00     0.089 A 
ATOM      6  N25 <0> d   1      20.800  -0.626   9.752  0.00  0.00    -0.174 NA
ATOM      7  N26 <0> d   1      21.122  -0.111  11.011  0.00  0.00    -0.277 N 
ATOM      8  C27 <0> d   1      19.984   0.372  11.609  0.00  0.00     0.064 A 
ATOM      9  C28 <0> d   1      19.731   0.984  12.832  0.00  0.00     0.051 A 
ATOM     10  H45 <0> d   1      22.009  -0.098  11.402  0.00  0.00     0.189 HD
ENDROOT
BRANCH   1  11
ATOM     11  S11 <0> d   1      18.113   2.130  14.706  0.00  0.00    -0.089 SA
BRANCH  11  12
ATOM     12  C10 <0> d   1      18.566   0.884  15.867  0.00  0.00     0.021 A 
ATOM     13  C5  <0> d   1      18.908   1.237  17.183  0.00  0.00     0.049 A 
ATOM     14  C6  <0> d   1      19.264   0.239  18.094  0.00  0.00     0.018 A 
ATOM     15  C7  <0> d   1      19.285  -1.080  17.695  0.00  0.00     0.001 A 
ATOM     16  C8  <0> d   1      18.953  -1.424  16.393  0.00  0.00     0.001 A 
ATOM     17  C9  <0> d   1      18.599  -0.451  15.482  0.00  0.00     0.020 A 
BRANCH  13  18
ATOM     18  C3  <0> d   1      18.883   2.649  17.603  0.00  0.00     0.252 C 
ATOM     19  N2  <0> d   1      17.760   3.177  18.129  0.00  0.00    -0.361 N 
ATOM     20  C1  <0> d   1      17.736   4.581  18.548  0.00  0.00     0.149 C 
ATOM     21  H32 <0> d   1      16.967   2.627  18.230  0.00  0.00     0.162 HD
ATOM     22  O4  <0> d   1      19.877   3.338  17.477  0.00  0.00    -0.268 OA
ENDBRANCH  13  18
ENDBRANCH  11  12
ENDBRANCH   1  11
BRANCH   5  23
ATOM     23  C17 <0> d   1      18.791  -0.909   8.317  0.00  0.00     0.036 C 
ATOM     24  C18 <0> d   1      19.345  -1.803   7.479  0.00  0.00     0.034 C 
BRANCH  24  25
ATOM     25  C19 <0> d   1      18.623  -2.223   6.266  0.00  0.00     0.056 A 
ATOM     26  N24 <0> d   1      18.543  -3.516   5.960  0.00  0.00    -0.261 NA
ATOM     27  C23 <0> d   1      17.901  -3.931   4.887  0.00  0.00     0.117 A 
ATOM     28  C22 <0> d   1      17.294  -3.032   4.030  0.00  0.00     0.019 A 
ATOM     29  C21 <0> d   1      17.358  -1.673   4.308  0.00  0.00     0.004 A 
ATOM     30  C20 <0> d   1      18.033  -1.262   5.442  0.00  0.00     0.031 A 
ENDBRANCH  24  25
ENDBRANCH   5  23
TORSDOF 5
ENDMDL
MODEL 5
REMARK VINA RESULT:      -8.7      5.064     10.709
REMARK  5 active torsions:
REMARK  status: ('A' for Active; 'I' for Inactive)
REMARK       I    between atoms: N2_2  and  C3_3 
REMARK    1  A    between atoms: C3_3  and  C5_5 
REMARK    2  A    between atoms: C10_10  and  S11_11 
REMARK    3  A    between atoms: S11_11  and  C12_12 
REMARK    4  A    between atoms: C16_16  and  C17_17 
REMARK    5  A    between atoms: C18_18  and  C19_19 
ROOT
ATOM      1  C12 <0> d   1      18.668   0.270  10.008  0.00  0.00     0.007 A 
ATOM      2  C13 <0> d   1      17.427   0.845  10.292  0.00  0.00     0.020 A 
ATOM      3  C14 <0> d   1      17.353   2.037  10.951  0.00  0.00     0.017 A 
ATOM      4  C15 <0> d   1      18.522   2.690  11.345  0.00  0.00     0.022 A 
ATOM      5  C16 <0> d   1      18.794   3.950  12.050  0.00  0.00     0.089 A 
ATOM      6  N25 <0> d   1      20.099   4.071  12.154  0.00  0.00    -0.174 NA
ATOM      7  N26 <0> d   1      20.728   2.971  11.564  0.00  0.00    -0.277 N 
ATOM      8  C27 <0> d   1      19.776   2.118  11.064  0.00  0.00     0.064 A 
ATOM      9  C28 <0> d   1      19.838   0.897  10.397  0.00  0.00     0.051 A 
ATOM     10  H45 <0> d   1      21.687   2.833  11.513  0.00  0.00     0.189 HD
ENDROOT
BRANCH   1  11
ATOM     11  S11 <0> d   1      18.743  -1.271   9.157  0.00  0.00    -0.089 SA
BRANCH  11  12
ATOM     12  C10 <0> d   1      18.936  -0.785   7.475  0.00  0.00     0.021 A 
ATOM     13  C5  <0> d   1      19.130  -1.756   6.478  0.00  0.00     0.049 A 
ATOM     14  C6  <0> d   1      19.281  -1.357   5.147  0.00  0.00     0.018 A 
ATOM     15  C7  <0> d   1      19.246  -0.018   4.823  0.00  0.00     0.001 A 
ATOM     16  C8  <0> d   1      19.061   0.938   5.811  0.00  0.00     0.001 A 
ATOM     17  C9  <0> d   1      18.910   0.560   7.129  0.00  0.00     0.020 A 
BRANCH  13  18
ATOM     18  C3  <0> d   1      19.166  -3.186   6.831  0.00  0.00     0.252 C 
ATOM     19  N2  <0> d   1      20.348  -3.803   7.028  0.00  0.00    -0.361 N 
ATOM     20  C1  <0> d   1      20.384  -5.225   7.380  0.00  0.00     0.149 C 
ATOM     21  H32 <0> d   1      21.175  -3.304   6.937  0.00  0.00     0.162 HD
ATOM     22  O4  <0> d   1      18.128  -3.810   6.945  0.00  0.00    -0.268 OA
ENDBRANCH  13  18
ENDBRANCH  11  12
ENDBRANCH   1  11
BRANCH   5  23
ATOM     23  C17 <0> d   1      17.790   4.902  12.548  0.00  0.00     0.036 C 
ATOM     24  C18 <0> d   1      17.473   4.924  13.855  0.00  0.00     0.034 C 
BRANCH  24  25
ATOM     25  C19 <0> d   1      16.468   5.878  14.354  0.00  0.00     0.056 A 
ATOM     26  N24 <0> d   1      15.192   5.508  14.440  0.00  0.00    -0.261 NA
ATOM     27  C23 <0> d   1      14.266   6.331  14.886  0.00  0.00     0.117 A 
ATOM     28  C22 <0> d   1      14.585   7.619  15.273  0.00  0.00     0.019 A 
ATOM     29  C21 <0> d   1      15.903   8.049  15.195  0.00  0.00     0.004 A 
ATOM     30  C20 <0> d   1      16.859   7.166  14.728  0.00  0.00     0.031 A 
ENDBRANCH  24  25
ENDBRANCH   5  23
TORSDOF 5
ENDMDL
MODEL 6
REMARK VINA RESULT:      -8.5      5.508     10.526
REMARK  5 active torsions:
REMARK  status: ('A' for Active; 'I' for Inactive)
REMARK       I    between atoms: N2_2  and  C3_3 
REMARK    1  A    between atoms: C3_3  and  C5_5 
REMARK    2  A    between atoms: C10_10  and  S11_11 
REMARK    3  A    between atoms: S11_11  and  C12_12 
REMARK    4  A    between atoms: C16_16  and  C17_17 
REMARK    5  A    between atoms: C18_18  and  C19_19 
ROOT
ATOM      1  C12 <0> d   1      19.304  -3.392   6.991  0.00  0.00     0.007 A 
ATOM      2  C13 <0> d   1      18.941  -2.942   8.262  0.00  0.00     0.020 A 
ATOM      3  C14 <0> d   1      18.740  -1.612   8.493  0.00  0.00     0.017 A 
ATOM      4  C15 <0> d   1      18.897  -0.693   7.454  0.00  0.00     0.022 A 
ATOM      5  C16 <0> d   1      18.761   0.767   7.361  0.00  0.00     0.089 A 
ATOM      6  N25 <0> d   1      19.031   1.110   6.121  0.00  0.00    -0.174 NA
ATOM      7  N26 <0> d   1      19.341  -0.026   5.369  0.00  0.00    -0.277 N 
ATOM      8  C27 <0> d   1      19.263  -1.137   6.171  0.00  0.00     0.064 A 
ATOM      9  C28 <0> d   1      19.472  -2.495   5.950  0.00  0.00     0.051 A 
ATOM     10  H45 <0> d   1      19.574  -0.030   4.427  0.00  0.00     0.189 HD
ENDROOT
BRANCH   1  11
ATOM     11  S11 <0> d   1      19.560  -5.113   6.713  0.00  0.00    -0.089 SA
BRANCH  11  12
ATOM     12  C10 <0> d   1      18.050  -5.832   7.269  0.00  0.00     0.021 A 
ATOM     13  C5  <0> d   1      16.938  -5.888   6.413  0.00  0.00     0.049 A 
ATOM     14  C6  <0> d   1      15.747  -6.462   6.866  0.00  0.00     0.018 A 
ATOM     15  C7  <0> d   1      15.670  -6.962   8.148  0.00  0.00     0.001 A 
ATOM     16  C8  <0> d   1      16.767  -6.899   8.993  0.00  0.00     0.001 A 
ATOM     17  C9  <0> d   1      17.950  -6.336   8.560  0.00  0.00     0.020 A 
BRANCH  13  18
ATOM     18  C3  <0> d   1      17.028  -5.353   5.043  0.00  0.00     0.252 C 
ATOM     19  N2  <0> d   1      16.522  -4.136   4.760  0.00  0.00    -0.361 N 
ATOM     20  C1  <0> d   1      16.611  -3.603   3.398  0.00  0.00     0.149 C 
ATOM     21  H32 <0> d   1      16.098  -3.613   5.459  0.00  0.00     0.162 HD
ATOM     22  O4  <0> d   1      17.559  -6.008   4.167  0.00  0.00    -0.268 OA
ENDBRANCH  13  18
ENDBRANCH  11  12
ENDBRANCH   1  11
BRANCH   5  23
ATOM     23  C17 <0> d   1      18.391   1.678   8.454  0.00  0.00     0.036 C 
ATOM     24  C18 <0> d   1      19.305   2.031   9.376  0.00  0.00     0.034 C 
BRANCH  24  25
ATOM     25  C19 <0> d   1      18.934   2.944  10.470  0.00  0.00     0.056 A 
ATOM     26  N24 <0> d   1      17.695   3.425  10.537  0.00  0.00    -0.261 NA
ATOM     27  C23 <0> d   1      17.324   4.238  11.504  0.00  0.00     0.117 A 
ATOM     28  C22 <0> d   1      18.217   4.633  12.483  0.00  0.00     0.019 A 
ATOM     29  C21 <0> d   1      19.522   4.160  12.449  0.00  0.00     0.004 A 
ATOM     30  C20 <0> d   1      19.887   3.303  11.427  0.00  0.00     0.031 A 
ENDBRANCH  24  25
ENDBRANCH   5  23
TORSDOF 5
ENDMDL
MODEL 7
REMARK VINA RESULT:      -8.4      2.096      3.207
REMARK  5 active torsions:
REMARK  status: ('A' for Active; 'I' for Inactive)
REMARK       I    between atoms: N2_2  and  C3_3 
REMARK    1  A    between atoms: C3_3  and  C5_5 
REMARK    2  A    between atoms: C10_10  and  S11_11 
REMARK    3  A    between atoms: S11_11  and  C12_12 
REMARK    4  A    between atoms: C16_16  and  C17_17 
REMARK    5  A    between atoms: C18_18  and  C19_19 
ROOT
ATOM      1  C12 <0> d   1      18.921  -0.226  12.665  0.00  0.00     0.007 A 
ATOM      2  C13 <0> d   1      17.620  -0.566  12.293  0.00  0.00     0.020 A 
ATOM      3  C14 <0> d   1      17.366  -1.755  11.673  0.00  0.00     0.017 A 
ATOM      4  C15 <0> d   1      18.413  -2.640  11.408  0.00  0.00     0.022 A 
ATOM      5  C16 <0> d   1      18.489  -3.964  10.776  0.00  0.00     0.089 A 
ATOM      6  N25 <0> d   1      19.749  -4.339  10.793  0.00  0.00    -0.174 NA
ATOM      7  N26 <0> d   1      20.531  -3.350  11.398  0.00  0.00    -0.277 N 
ATOM      8  C27 <0> d   1      19.728  -2.305  11.780  0.00  0.00     0.064 A 
ATOM      9  C28 <0> d   1      19.974  -1.086  12.405  0.00  0.00     0.051 A 
ATOM     10  H45 <0> d   1      21.491  -3.396  11.528  0.00  0.00     0.189 HD
ENDROOT
BRANCH   1  11
ATOM     11  S11 <0> d   1      19.228   1.315  13.464  0.00  0.00    -0.089 SA
BRANCH  11  12
ATOM     12  C10 <0> d   1      18.717   2.494  12.259  0.00  0.00     0.021 A 
ATOM     13  C5  <0> d   1      18.450   3.820  12.638  0.00  0.00     0.049 A 
ATOM     14  C6  <0> d   1      18.046   4.745  11.672  0.00  0.00     0.018 A 
ATOM     15  C7  <0> d   1      17.906   4.352  10.359  0.00  0.00     0.001 A 
ATOM     16  C8  <0> d   1      18.164   3.040   9.989  0.00  0.00     0.001 A 
ATOM     17  C9  <0> d   1      18.564   2.115  10.931  0.00  0.00     0.020 A 
BRANCH  13  18
ATOM     18  C3  <0> d   1      18.603   4.235  14.044  0.00  0.00     0.252 C 
ATOM     19  N2  <0> d   1      19.773   4.745  14.473  0.00  0.00    -0.361 N 
ATOM     20  C1  <0> d   1      19.925   5.159  15.871  0.00  0.00     0.149 C 
ATOM     21  H32 <0> d   1      20.517   4.839  13.856  0.00  0.00     0.162 HD
ATOM     22  O4  <0> d   1      17.671   4.118  14.816  0.00  0.00    -0.268 OA
ENDBRANCH  13  18
ENDBRANCH  11  12
ENDBRANCH   1  11
BRANCH   5  23
ATOM     23  C17 <0> d   1      17.361  -4.731  10.225  0.00  0.00     0.036 C 
ATOM     24  C18 <0> d   1      17.549  -5.534   9.162  0.00  0.00     0.034 C 
BRANCH  24  25
ATOM     25  C19 <0> d   1      16.420  -6.302   8.611  0.00  0.00     0.056 A 
ATOM     26  N24 <0> d   1      15.204  -5.762   8.585  0.00  0.00    -0.261 NA
ATOM     27  C23 <0> d   1      14.171  -6.414   8.093  0.00  0.00     0.117 A 
ATOM     28  C22 <0> d   1      14.311  -7.696   7.596  0.00  0.00     0.019 A 
ATOM     29  C21 <0> d   1      15.561  -8.301   7.608  0.00  0.00     0.004 A 
ATOM     30  C20 <0> d   1      16.632  -7.594   8.124  0.00  0.00     0.031 A 
ENDBRANCH  24  25
ENDBRANCH   5  23
TORSDOF 5
ENDMDL
MODEL 8
REMARK VINA RESULT:      -8.4      5.058     10.302
REMARK  5 active torsions:
REMARK  status: ('A' for Active; 'I' for Inactive)
REMARK       I    between atoms: N2_2  and  C3_3 
REMARK    1  A    between atoms: C3_3  and  C5_5 
REMARK    2  A    between atoms: C10_10  and  S11_11 
REMARK    3  A    between atoms: S11_11  and  C12_12 
REMARK    4  A    between atoms: C16_16  and  C17_17 
REMARK    5  A    between atoms: C18_18  and  C19_19 
ROOT
ATOM      1  C12 <0> d   1      19.127  -3.504   7.102  0.00  0.00     0.007 A 
ATOM      2  C13 <0> d   1      19.157  -2.939   8.378  0.00  0.00     0.020 A 
ATOM      3  C14 <0> d   1      19.180  -1.584   8.535  0.00  0.00     0.017 A 
ATOM      4  C15 <0> d   1      19.173  -0.753   7.413  0.00  0.00     0.022 A 
ATOM      5  C16 <0> d   1      19.191   0.705   7.228  0.00  0.00     0.089 A 
ATOM      6  N25 <0> d   1      19.173   0.939   5.935  0.00  0.00    -0.174 NA
ATOM      7  N26 <0> d   1      19.145  -0.269   5.232  0.00  0.00    -0.277 N 
ATOM      8  C27 <0> d   1      19.144  -1.313   6.123  0.00  0.00     0.064 A 
ATOM      9  C28 <0> d   1      19.128  -2.697   5.977  0.00  0.00     0.051 A 
ATOM     10  H45 <0> d   1      19.127  -0.356   4.266  0.00  0.00     0.189 HD
ENDROOT
BRANCH   1  11
ATOM     11  S11 <0> d   1      19.099  -5.256   6.921  0.00  0.00    -0.089 SA
BRANCH  11  12
ATOM     12  C10 <0> d   1      17.487  -5.562   6.276  0.00  0.00     0.021 A 
ATOM     13  C5  <0> d   1      16.431  -5.889   7.142  0.00  0.00     0.049 A 
ATOM     14  C6  <0> d   1      15.159  -6.128   6.617  0.00  0.00     0.018 A 
ATOM     15  C7  <0> d   1      14.949  -6.048   5.258  0.00  0.00     0.001 A 
ATOM     16  C8  <0> d   1      15.996  -5.730   4.405  0.00  0.00     0.001 A 
ATOM     17  C9  <0> d   1      17.258  -5.491   4.908  0.00  0.00     0.020 A 
BRANCH  13  18
ATOM     18  C3  <0> d   1      16.662  -5.974   8.595  0.00  0.00     0.252 C 
ATOM     19  N2  <0> d   1      16.422  -4.904   9.379  0.00  0.00    -0.361 N 
ATOM     20  C1  <0> d   1      16.650  -4.988  10.824  0.00  0.00     0.149 C 
ATOM     21  H32 <0> d   1      16.098  -4.078   8.986  0.00  0.00     0.162 HD
ATOM     22  O4  <0> d   1      17.067  -7.009   9.087  0.00  0.00    -0.268 OA
ENDBRANCH  13  18
ENDBRANCH  11  12
ENDBRANCH   1  11
BRANCH   5  23
ATOM     23  C17 <0> d   1      19.223   1.716   8.295  0.00  0.00     0.036 C 
ATOM     24  C18 <0> d   1      18.413   1.595   9.362  0.00  0.00     0.034 C 
BRANCH  24  25
ATOM     25  C19 <0> d   1      18.445   2.608  10.430  0.00  0.00     0.056 A 
ATOM     26  N24 <0> d   1      17.339   3.285  10.732  0.00  0.00    -0.261 NA
ATOM     27  C23 <0> d   1      17.327   4.194  11.685  0.00  0.00     0.117 A 
ATOM     28  C22 <0> d   1      18.472   4.489  12.401  0.00  0.00     0.019 A 
ATOM     29  C21 <0> d   1      19.650   3.812  12.116  0.00  0.00     0.004 A 
ATOM     30  C20 <0> d   1      19.637   2.857  11.115  0.00  0.00     0.031 A 
ENDBRANCH  24  25
ENDBRANCH   5  23
TORSDOF 5
ENDMDL
MODEL 9
REMARK VINA RESULT:      -8.3      4.892     10.148
REMARK  5 active torsions:
REMARK  status: ('A' for Active; 'I' for Inactive)
REMARK       I    between atoms: N2_2  and  C3_3 
REMARK    1  A    between atoms: C3_3  and  C5_5 
REMARK    2  A    between atoms: C10_10  and  S11_11 
REMARK    3  A    between atoms: S11_11  and  C12_12 
REMARK    4  A    between atoms: C16_16  and  C17_17 
REMARK    5  A    between atoms: C18_18  and  C19_19 
ROOT
ATOM      1  C12 <0> d   1      19.086   2.020  10.503  0.00  0.00     0.007 A 
ATOM      2  C13 <0> d   1      17.753   2.424  10.418  0.00  0.00     0.020 A 
ATOM      3  C14 <0> d   1      17.278   3.418  11.223  0.00  0.00     0.017 A 
ATOM      4  C15 <0> d   1      18.129   4.037  12.141  0.00  0.00     0.022 A 
ATOM      5  C16 <0> d   1      17.950   5.109  13.129  0.00  0.00     0.089 A 
ATOM      6  N25 <0> d   1      19.106   5.291  13.728  0.00  0.00    -0.174 NA
ATOM      7  N26 <0> d   1      20.057   4.409  13.207  0.00  0.00    -0.277 N 
ATOM      8  C27 <0> d   1      19.474   3.636  12.234  0.00  0.00     0.064 A 
ATOM      9  C28 <0> d   1      19.944   2.616  11.411  0.00  0.00     0.051 A 
ATOM     10  H45 <0> d   1      20.984   4.353  13.487  0.00  0.00     0.189 HD
ENDROOT
BRANCH   1  11
ATOM     11  S11 <0> d   1      19.679   0.734   9.454  0.00  0.00    -0.089 SA
BRANCH  11  12
ATOM     12  C10 <0> d   1      18.933  -0.709  10.136  0.00  0.00     0.021 A 
ATOM     13  C5  <0> d   1      18.342  -1.663   9.292  0.00  0.00     0.049 A 
ATOM     14  C6  <0> d   1      17.754  -2.803   9.845  0.00  0.00     0.018 A 
ATOM     15  C7  <0> d   1      17.751  -2.981  11.212  0.00  0.00     0.001 A 
ATOM     16  C8  <0> d   1      18.330  -2.034  12.043  0.00  0.00     0.001 A 
ATOM     17  C9  <0> d   1      18.915  -0.903  11.512  0.00  0.00     0.020 A 
BRANCH  13  18
ATOM     18  C3  <0> d   1      18.347  -1.467   7.831  0.00  0.00     0.252 C 
ATOM     19  N2  <0> d   1      17.372  -0.747   7.243  0.00  0.00    -0.361 N 
ATOM     20  C1  <0> d   1      17.378  -0.552   5.791  0.00  0.00     0.149 C 
ATOM     21  H32 <0> d   1      16.665  -0.358   7.782  0.00  0.00     0.162 HD
ATOM     22  O4  <0> d   1      19.233  -1.956   7.156  0.00  0.00    -0.268 OA
ENDBRANCH  13  18
ENDBRANCH  11  12
ENDBRANCH   1  11
BRANCH   5  23
ATOM     23  C17 <0> d   1      16.705   5.844  13.400  0.00  0.00     0.036 C 
ATOM     24  C18 <0> d   1      16.088   5.709  14.587  0.00  0.00     0.034 C 
BRANCH  24  25
ATOM     25  C19 <0> d   1      14.842   6.445  14.858  0.00  0.00     0.056 A 
ATOM     26  N24 <0> d   1      13.668   5.865  14.623  0.00  0.00    -0.261 NA
ATOM     27  C23 <0> d   1      12.532   6.489  14.858  0.00  0.00     0.117 A 
ATOM     28  C22 <0> d   1      12.519   7.781  15.349  0.00  0.00     0.019 A 
ATOM     29  C21 <0> d   1      13.721   8.427  15.603  0.00  0.00     0.004 A 
ATOM     30  C20 <0> d   1      14.901   7.750  15.353  0.00  0.00     0.031 A 
ENDBRANCH  24  25
ENDBRANCH   5  23
TORSDOF 5
ENDMDL
