MODEL 1
REMARK VINA RESULT:      -4.7      0.000      0.000
REMARK  5 active torsions:
REMARK  status: ('A' for Active; 'I' for Inactive)
REMARK    1  A    between atoms: C2_2  and  O3_3 
REMARK    2  A    between atoms: C2_2  and  P4_4 
REMARK    3  A    between atoms: C2_2  and  P8_8 
REMARK    4  A    between atoms: P4_4  and  O7_7 
REMARK    5  A    between atoms: P8_8  and  O11_11 
ROOT
ATOM      1  C1  ZIN A   1      17.851   1.738  11.296  0.00  0.00     0.075 C 
ATOM      2  C2  ZIN A   1      19.327   1.498  10.969  0.00  0.00     0.264 C 
ENDROOT
BRANCH   2   3
ATOM      3  O3  ZIN A   1      19.997   2.753  10.841  0.00  0.00    -0.367 OA
ATOM      4  H15 ZIN A   1      20.938   2.721  11.063  0.00  0.00     0.212 HD
ENDBRANCH   2   3
BRANCH   2   5
ATOM      5  P4  ZIN A   1      20.096   0.532  12.309  0.00  0.00     0.296 P 
ATOM      6  O5  ZIN A   1      19.657   1.105  13.675  0.00  0.00    -0.644 OA
ATOM      7  O6  ZIN A   1      19.651  -0.944  12.203  0.00  0.00    -0.644 OA
BRANCH   5   8
ATOM      8  O7  ZIN A   1      21.698   0.618  12.182  0.00  0.00    -0.320 OA
ATOM      9  H16 ZIN A   1      22.016   0.719  11.274  0.00  0.00     0.221 HD
ENDBRANCH   5   8
ENDBRANCH   2   5
BRANCH   2  10
ATOM     10  P8  ZIN A   1      19.459   0.575   9.402  0.00  0.00     0.296 P 
ATOM     11  O9  ZIN A   1      19.656   1.567   8.235  0.00  0.00    -0.644 OA
ATOM     12  O10 ZIN A   1      18.166  -0.240   9.174  0.00  0.00    -0.644 OA
BRANCH  10  13
ATOM     13  O11 ZIN A   1      20.718  -0.426   9.474  0.00  0.00    -0.320 OA
ATOM     14  H17 ZIN A   1      21.268  -0.424   8.679  0.00  0.00     0.221 HD
ENDBRANCH  10  13
ENDBRANCH   2  10
TORSDOF 5
ENDMDL
MODEL 2
REMARK VINA RESULT:      -4.7      2.173      4.282
REMARK  5 active torsions:
REMARK  status: ('A' for Active; 'I' for Inactive)
REMARK    1  A    between atoms: C2_2  and  O3_3 
REMARK    2  A    between atoms: C2_2  and  P4_4 
REMARK    3  A    between atoms: C2_2  and  P8_8 
REMARK    4  A    between atoms: P4_4  and  O7_7 
REMARK    5  A    between atoms: P8_8  and  O11_11 
ROOT
ATOM      1  C1  ZIN A   1      17.825  -1.709  11.765  0.00  0.00     0.075 C 
ATOM      2  C2  ZIN A   1      19.302  -1.476  12.090  0.00  0.00     0.264 C 
ENDROOT
BRANCH   2   3
ATOM      3  O3  ZIN A   1      19.959  -2.735  12.248  0.00  0.00    -0.367 OA
ATOM      4  H15 ZIN A   1      20.399  -3.052  11.447  0.00  0.00     0.212 HD
ENDBRANCH   2   3
BRANCH   2   5
ATOM      5  P4  ZIN A   1      20.085  -0.549  10.730  0.00  0.00     0.296 P 
ATOM      6  O5  ZIN A   1      19.670  -1.169   9.378  0.00  0.00    -0.644 OA
ATOM      7  O6  ZIN A   1      19.627   0.926  10.782  0.00  0.00    -0.644 OA
BRANCH   5   8
ATOM      8  O7  ZIN A   1      21.685  -0.619  10.884  0.00  0.00    -0.320 OA
ATOM      9  H16 ZIN A   1      22.165  -0.526  10.049  0.00  0.00     0.221 HD
ENDBRANCH   5   8
ENDBRANCH   2   5
BRANCH   2  10
ATOM     10  P8  ZIN A   1      19.441  -0.520  13.636  0.00  0.00     0.296 P 
ATOM     11  O9  ZIN A   1      19.619  -1.488  14.826  0.00  0.00    -0.644 OA
ATOM     12  O10 ZIN A   1      18.158   0.317  13.840  0.00  0.00    -0.644 OA
BRANCH  10  13
ATOM     13  O11 ZIN A   1      20.713   0.463  13.547  0.00  0.00    -0.320 OA
ATOM     14  H17 ZIN A   1      20.936   0.894  14.384  0.00  0.00     0.221 HD
ENDBRANCH  10  13
ENDBRANCH   2  10
TORSDOF 5
ENDMDL
MODEL 3
REMARK VINA RESULT:      -4.6      1.984      3.272
REMARK  5 active torsions:
REMARK  status: ('A' for Active; 'I' for Inactive)
REMARK    1  A    between atoms: C2_2  and  O3_3 
REMARK    2  A    between atoms: C2_2  and  P4_4 
REMARK    3  A    between atoms: C2_2  and  P8_8 
REMARK    4  A    between atoms: P4_4  and  O7_7 
REMARK    5  A    between atoms: P8_8  and  O11_11 
ROOT
ATOM      1  C1  ZIN A   1      19.338   1.974  10.022  0.00  0.00     0.075 C 
ATOM      2  C2  ZIN A   1      19.675   2.029  11.514  0.00  0.00     0.264 C 
ENDROOT
BRANCH   2   3
ATOM      3  O3  ZIN A   1      20.755   2.941  11.724  0.00  0.00    -0.367 OA
ATOM      4  H15 ZIN A   1      20.634   3.525  12.486  0.00  0.00     0.212 HD
ENDBRANCH   2   3
BRANCH   2   5
ATOM      5  P4  ZIN A   1      18.214   2.592  12.447  0.00  0.00     0.296 P 
ATOM      6  O5  ZIN A   1      18.607   3.783  13.349  0.00  0.00    -0.644 OA
ATOM      7  O6  ZIN A   1      17.112   3.035  11.460  0.00  0.00    -0.644 OA
BRANCH   5   8
ATOM      8  O7  ZIN A   1      17.663   1.387  13.360  0.00  0.00    -0.320 OA
ATOM      9  H16 ZIN A   1      16.704   1.269  13.320  0.00  0.00     0.221 HD
ENDBRANCH   5   8
ENDBRANCH   2   5
BRANCH   2  10
ATOM     10  P8  ZIN A   1      20.160   0.369  12.089  0.00  0.00     0.296 P 
ATOM     11  O9  ZIN A   1      19.064  -0.650  11.705  0.00  0.00    -0.644 OA
ATOM     12  O10 ZIN A   1      20.334   0.386  13.624  0.00  0.00    -0.644 OA
BRANCH  10  13
ATOM     13  O11 ZIN A   1      21.552  -0.054  11.397  0.00  0.00    -0.320 OA
ATOM     14  H17 ZIN A   1      22.191   0.669  11.326  0.00  0.00     0.221 HD
ENDBRANCH  10  13
ENDBRANCH   2  10
TORSDOF 5
ENDMDL
MODEL 4
REMARK VINA RESULT:      -4.6      1.730      3.163
REMARK  5 active torsions:
REMARK  status: ('A' for Active; 'I' for Inactive)
REMARK    1  A    between atoms: C2_2  and  O3_3 
REMARK    2  A    between atoms: C2_2  and  P4_4 
REMARK    3  A    between atoms: C2_2  and  P8_8 
REMARK    4  A    between atoms: P4_4  and  O7_7 
REMARK    5  A    between atoms: P8_8  and  O11_11 
ROOT
ATOM      1  C1  ZIN A   1      19.724   0.321  13.412  0.00  0.00     0.075 C 
ATOM      2  C2  ZIN A   1      20.346   0.656  12.055  0.00  0.00     0.264 C 
ENDROOT
BRANCH   2   3
ATOM      3  O3  ZIN A   1      21.770   0.670  12.174  0.00  0.00    -0.367 OA
ATOM      4  H15 ZIN A   1      22.159   1.555  12.141  0.00  0.00     0.212 HD
ENDBRANCH   2   3
BRANCH   2   5
ATOM      5  P4  ZIN A   1      19.851  -0.602  10.832  0.00  0.00     0.296 P 
ATOM      6  O5  ZIN A   1      20.207  -2.007  11.365  0.00  0.00    -0.644 OA
ATOM      7  O6  ZIN A   1      18.328  -0.514  10.590  0.00  0.00    -0.644 OA
BRANCH   5   8
ATOM      8  O7  ZIN A   1      20.629  -0.341   9.447  0.00  0.00    -0.320 OA
ATOM      9  H16 ZIN A   1      21.582  -0.498   9.496  0.00  0.00     0.221 HD
ENDBRANCH   5   8
ENDBRANCH   2   5
BRANCH   2  10
ATOM     10  P8  ZIN A   1      19.765   2.296  11.508  0.00  0.00     0.296 P 
ATOM     11  O9  ZIN A   1      18.504   2.688  12.308  0.00  0.00    -0.644 OA
ATOM     12  O10 ZIN A   1      19.426   2.246  10.002  0.00  0.00    -0.644 OA
BRANCH  10  13
ATOM     13  O11 ZIN A   1      20.923   3.386  11.761  0.00  0.00    -0.320 OA
ATOM     14  H17 ZIN A   1      21.766   3.170  11.340  0.00  0.00     0.221 HD
ENDBRANCH  10  13
ENDBRANCH   2  10
TORSDOF 5
ENDMDL
MODEL 5
REMARK VINA RESULT:      -4.6      2.569      3.703
REMARK  5 active torsions:
REMARK  status: ('A' for Active; 'I' for Inactive)
REMARK    1  A    between atoms: C2_2  and  O3_3 
REMARK    2  A    between atoms: C2_2  and  P4_4 
REMARK    3  A    between atoms: C2_2  and  P8_8 
REMARK    4  A    between atoms: P4_4  and  O7_7 
REMARK    5  A    between atoms: P8_8  and  O11_11 
ROOT
ATOM      1  C1  ZIN A   1      17.822  -1.151  12.465  0.00  0.00     0.075 C 
ATOM      2  C2  ZIN A   1      19.313  -1.470  12.345  0.00  0.00     0.264 C 
ENDROOT
BRANCH   2   3
ATOM      3  O3  ZIN A   1      19.864  -1.670  13.649  0.00  0.00    -0.367 OA
ATOM      4  H15 ZIN A   1      19.357  -1.250  14.358  0.00  0.00     0.212 HD
ENDBRANCH   2   3
BRANCH   2   5
ATOM      5  P4  ZIN A   1      19.534  -2.983  11.353  0.00  0.00     0.296 P 
ATOM      6  O5  ZIN A   1      18.565  -4.075  11.857  0.00  0.00    -0.644 OA
ATOM      7  O6  ZIN A   1      19.235  -2.675   9.869  0.00  0.00    -0.644 OA
BRANCH   5   8
ATOM      8  O7  ZIN A   1      21.050  -3.503  11.498  0.00  0.00    -0.320 OA
ATOM      9  H16 ZIN A   1      21.657  -2.850  11.871  0.00  0.00     0.221 HD
ENDBRANCH   5   8
ENDBRANCH   2   5
BRANCH   2  10
ATOM     10  P8  ZIN A   1      20.168  -0.080  11.531  0.00  0.00     0.296 P 
ATOM     11  O9  ZIN A   1      20.579   0.964  12.592  0.00  0.00    -0.644 OA
ATOM     12  O10 ZIN A   1      19.219   0.576  10.503  0.00  0.00    -0.644 OA
BRANCH  10  13
ATOM     13  O11 ZIN A   1      21.482  -0.626  10.777  0.00  0.00    -0.320 OA
ATOM     14  H17 ZIN A   1      22.295  -0.161  11.018  0.00  0.00     0.221 HD
ENDBRANCH  10  13
ENDBRANCH   2  10
TORSDOF 5
ENDMDL
MODEL 6
REMARK VINA RESULT:      -4.6      0.932      3.593
REMARK  5 active torsions:
REMARK  status: ('A' for Active; 'I' for Inactive)
REMARK    1  A    between atoms: C2_2  and  O3_3 
REMARK    2  A    between atoms: C2_2  and  P4_4 
REMARK    3  A    between atoms: C2_2  and  P8_8 
REMARK    4  A    between atoms: P4_4  and  O7_7 
REMARK    5  A    between atoms: P8_8  and  O11_11 
ROOT
ATOM      1  C1  ZIN A   1      19.630   2.793  11.103  0.00  0.00     0.075 C 
ATOM      2  C2  ZIN A   1      19.148   1.341  11.137  0.00  0.00     0.264 C 
ENDROOT
BRANCH   2   3
ATOM      3  O3  ZIN A   1      17.756   1.308  11.460  0.00  0.00    -0.367 OA
ATOM      4  H15 ZIN A   1      17.574   1.204  12.404  0.00  0.00     0.212 HD
ENDBRANCH   2   3
BRANCH   2   5
ATOM      5  P4  ZIN A   1      19.412   0.574   9.505  0.00  0.00     0.296 P 
ATOM      6  O5  ZIN A   1      18.193  -0.304   9.145  0.00  0.00    -0.644 OA
ATOM      7  O6  ZIN A   1      19.583   1.679   8.439  0.00  0.00    -0.644 OA
BRANCH   5   8
ATOM      8  O7  ZIN A   1      20.737  -0.338   9.548  0.00  0.00    -0.320 OA
ATOM      9  H16 ZIN A   1      21.389  -0.056  10.204  0.00  0.00     0.221 HD
ENDBRANCH   5   8
ENDBRANCH   2   5
BRANCH   2  10
ATOM     10  P8  ZIN A   1      20.087   0.419  12.400  0.00  0.00     0.296 P 
ATOM     11  O9  ZIN A   1      19.754  -1.085  12.292  0.00  0.00    -0.644 OA
ATOM     12  O10 ZIN A   1      19.701   0.933  13.805  0.00  0.00    -0.644 OA
BRANCH  10  13
ATOM     13  O11 ZIN A   1      21.664   0.639  12.162  0.00  0.00    -0.320 OA
ATOM     14  H17 ZIN A   1      21.877   1.429  11.647  0.00  0.00     0.221 HD
ENDBRANCH  10  13
ENDBRANCH   2  10
TORSDOF 5
ENDMDL
MODEL 7
REMARK VINA RESULT:      -4.6      1.685      2.265
REMARK  5 active torsions:
REMARK  status: ('A' for Active; 'I' for Inactive)
REMARK    1  A    between atoms: C2_2  and  O3_3 
REMARK    2  A    between atoms: C2_2  and  P4_4 
REMARK    3  A    between atoms: C2_2  and  P8_8 
REMARK    4  A    between atoms: P4_4  and  O7_7 
REMARK    5  A    between atoms: P8_8  and  O11_11 
ROOT
ATOM      1  C1  ZIN A   1      19.706   1.976  11.793  0.00  0.00     0.075 C 
ATOM      2  C2  ZIN A   1      20.232   0.572  12.102  0.00  0.00     0.264 C 
ENDROOT
BRANCH   2   3
ATOM      3  O3  ZIN A   1      21.650   0.621  12.271  0.00  0.00    -0.367 OA
ATOM      4  H15 ZIN A   1      22.066   1.399  11.875  0.00  0.00     0.212 HD
ENDBRANCH   2   3
BRANCH   2   5
ATOM      5  P4  ZIN A   1      19.459  -0.043  13.633  0.00  0.00     0.296 P 
ATOM      6  O5  ZIN A   1      19.652   0.995  14.761  0.00  0.00    -0.644 OA
ATOM      7  O6  ZIN A   1      17.949  -0.268  13.394  0.00  0.00    -0.644 OA
BRANCH   5   8
ATOM      8  O7  ZIN A   1      20.146  -1.434  14.061  0.00  0.00    -0.320 OA
ATOM      9  H16 ZIN A   1      19.740  -2.214  13.659  0.00  0.00     0.221 HD
ENDBRANCH   5   8
ENDBRANCH   2   5
BRANCH   2  10
ATOM     10  P8  ZIN A   1      19.821  -0.547  10.722  0.00  0.00     0.296 P 
ATOM     11  O9  ZIN A   1      18.415  -0.205  10.183  0.00  0.00    -0.644 OA
ATOM     12  O10 ZIN A   1      19.840  -2.009  11.223  0.00  0.00    -0.644 OA
BRANCH  10  13
ATOM     13  O11 ZIN A   1      20.906  -0.369   9.546  0.00  0.00    -0.320 OA
ATOM     14  H17 ZIN A   1      21.244   0.533   9.457  0.00  0.00     0.221 HD
ENDBRANCH  10  13
ENDBRANCH   2  10
TORSDOF 5
ENDMDL
MODEL 8
REMARK VINA RESULT:      -4.5      2.655      4.054
REMARK  5 active torsions:
REMARK  status: ('A' for Active; 'I' for Inactive)
REMARK    1  A    between atoms: C2_2  and  O3_3 
REMARK    2  A    between atoms: C2_2  and  P4_4 
REMARK    3  A    between atoms: C2_2  and  P8_8 
REMARK    4  A    between atoms: P4_4  and  O7_7 
REMARK    5  A    between atoms: P8_8  and  O11_11 
ROOT
ATOM      1  C1  ZIN A   1      19.261  -1.871  13.000  0.00  0.00     0.075 C 
ATOM      2  C2  ZIN A   1      19.657  -1.943  11.524  0.00  0.00     0.264 C 
ENDROOT
BRANCH   2   3
ATOM      3  O3  ZIN A   1      20.733  -2.870  11.364  0.00  0.00    -0.367 OA
ATOM      4  H15 ZIN A   1      20.450  -3.761  11.113  0.00  0.00     0.212 HD
ENDBRANCH   2   3
BRANCH   2   5
ATOM      5  P4  ZIN A   1      18.227  -2.495  10.538  0.00  0.00     0.296 P 
ATOM      6  O5  ZIN A   1      18.644  -3.687   9.649  0.00  0.00    -0.644 OA
ATOM      7  O6  ZIN A   1      17.087  -2.932  11.484  0.00  0.00    -0.644 OA
BRANCH   5   8
ATOM      8  O7  ZIN A   1      17.717  -1.285   9.607  0.00  0.00    -0.320 OA
ATOM      9  H16 ZIN A   1      18.371  -0.981   8.963  0.00  0.00     0.221 HD
ENDBRANCH   5   8
ENDBRANCH   2   5
BRANCH   2  10
ATOM     10  P8  ZIN A   1      20.186  -0.293  10.956  0.00  0.00     0.296 P 
ATOM     11  O9  ZIN A   1      19.097   0.745  11.304  0.00  0.00    -0.644 OA
ATOM     12  O10 ZIN A   1      20.403  -0.321   9.426  0.00  0.00    -0.644 OA
BRANCH  10  13
ATOM     13  O11 ZIN A   1      21.564   0.109  11.685  0.00  0.00    -0.320 OA
ATOM     14  H17 ZIN A   1      21.444   0.607  12.505  0.00  0.00     0.221 HD
ENDBRANCH  10  13
ENDBRANCH   2  10
TORSDOF 5
ENDMDL
MODEL 9
REMARK VINA RESULT:      -4.5      2.236      3.187
REMARK  5 active torsions:
REMARK  status: ('A' for Active; 'I' for Inactive)
REMARK    1  A    between atoms: C2_2  and  O3_3 
REMARK    2  A    between atoms: C2_2  and  P4_4 
REMARK    3  A    between atoms: C2_2  and  P8_8 
REMARK    4  A    between atoms: P4_4  and  O7_7 
REMARK    5  A    between atoms: P8_8  and  O11_11 
ROOT
ATOM      1  C1  ZIN A   1      19.753  -0.228   9.623  0.00  0.00     0.075 C 
ATOM      2  C2  ZIN A   1      20.351  -0.579  10.987  0.00  0.00     0.264 C 
ENDROOT
BRANCH   2   3
ATOM      3  O3  ZIN A   1      21.775  -0.620  10.888  0.00  0.00    -0.367 OA
ATOM      4  H15 ZIN A   1      22.234  -0.321  11.685  0.00  0.00     0.212 HD
ENDBRANCH   2   3
BRANCH   2   5
ATOM      5  P4  ZIN A   1      19.863   0.684  12.207  0.00  0.00     0.296 P 
ATOM      6  O5  ZIN A   1      20.254   2.084  11.683  0.00  0.00    -0.644 OA
ATOM      7  O6  ZIN A   1      18.335   0.625  12.427  0.00  0.00    -0.644 OA
BRANCH   5   8
ATOM      8  O7  ZIN A   1      20.617   0.404  13.601  0.00  0.00    -0.320 OA
ATOM      9  H16 ZIN A   1      21.427  -0.116  13.513  0.00  0.00     0.221 HD
ENDBRANCH   5   8
ENDBRANCH   2   5
BRANCH   2  10
ATOM     10  P8  ZIN A   1      19.731  -2.209  11.521  0.00  0.00     0.296 P 
ATOM     11  O9  ZIN A   1      18.454  -2.559  10.727  0.00  0.00    -0.644 OA
ATOM     12  O10 ZIN A   1      19.405  -2.167  13.030  0.00  0.00    -0.644 OA
BRANCH  10  13
ATOM     13  O11 ZIN A   1      20.858  -3.327  11.246  0.00  0.00    -0.320 OA
ATOM     14  H17 ZIN A   1      20.818  -4.081  11.850  0.00  0.00     0.221 HD
ENDBRANCH  10  13
ENDBRANCH   2  10
TORSDOF 5
ENDMDL
