MODEL 1
REMARK VINA RESULT:      -9.4      0.000      0.000
REMARK  10 active torsions:
REMARK  status: ('A' for Active; 'I' for Inactive)
REMARK    1  A    between atoms: C2_2  and  N5_5 
REMARK       I    between atoms: N5_5  and  C6_6 
REMARK       I    between atoms: C6_6  and  N8_8 
REMARK    2  A    between atoms: N8_8  and  C9_9 
REMARK    3  A    between atoms: C9_9  and  C11_10 
REMARK    4  A    between atoms: C9_9  and  C39_34 
REMARK       I    between atoms: C11_10  and  N13_12 
REMARK    5  A    between atoms: C19_16  and  C21_17 
REMARK       I    between atoms: C21_17  and  N23_19 
REMARK    6  A    between atoms: N23_19  and  C24_20 
REMARK    7  A    between atoms: C24_20  and  C26_21 
REMARK    8  A    between atoms: C24_20  and  C31_26 
REMARK    9  A    between atoms: C26_21  and  C27_22 
REMARK   10  A    between atoms: C31_26  and  C33_28 
REMARK       I    between atoms: C33_28  and  N34_29 
ROOT
ATOM      1  C11 ZIN A   1      19.303   0.171  11.724  0.00  0.00     0.244 C 
ATOM      2  O12 ZIN A   1      20.440   0.063  12.131  0.00  0.00    -0.271 OA
ATOM      3  N13 ZIN A   1      18.605   1.299  11.965  0.00  0.00    -0.336 N 
ATOM      4  C14 ZIN A   1      17.184   1.574  11.648  0.00  0.00     0.132 C 
ATOM      5  C15 ZIN A   1      17.169   3.041  11.165  0.00  0.00     0.019 A 
ATOM      6  C17 ZIN A   1      18.423   3.681  11.799  0.00  0.00     0.032 A 
ATOM      7  C19 ZIN A   1      19.083   2.542  12.613  0.00  0.00     0.184 C 
ATOM      8  C36 ZIN A   1      18.296   3.507  10.242  0.00  0.00    -0.036 A 
ATOM      9  C37 ZIN A   1      19.163   2.435   9.579  0.00  0.00     0.016 C 
ATOM     10  C38 ZIN A   1      18.057   4.769   9.409  0.00  0.00     0.016 C 
ENDROOT
BRANCH   1  11
ATOM     11  C9  ZIN A   1      18.669  -0.955  10.947  0.00  0.00     0.185 C 
BRANCH  11  12
ATOM     12  N8  ZIN A   1      19.368  -1.120   9.670  0.00  0.00    -0.329 N 
ATOM     13  C6  ZIN A   1      18.692  -0.995   8.510  0.00  0.00     0.317 C 
ATOM     14  N5  ZIN A   1      19.336  -1.146   7.335  0.00  0.00    -0.335 N 
ATOM     15  O7  ZIN A   1      17.503  -0.744   8.524  0.00  0.00    -0.247 OA
ATOM     16  H52 ZIN A   1      20.285  -1.346   7.325  0.00  0.00     0.165 HD
ATOM     17  H53 ZIN A   1      20.318  -1.319   9.658  0.00  0.00     0.165 HD
BRANCH  14  18
ATOM     18  C2  ZIN A   1      18.600  -1.010   6.076  0.00  0.00     0.023 C 
ATOM     19  C1  ZIN A   1      17.396  -0.089   6.285  0.00  0.00     0.037 C 
ATOM     20  C3  ZIN A   1      18.116  -2.386   5.615  0.00  0.00     0.037 C 
ATOM     21  C4  ZIN A   1      19.521  -0.411   5.010  0.00  0.00     0.037 C 
ENDBRANCH  14  18
ENDBRANCH  11  12
BRANCH  11  22
ATOM     22  C39 ZIN A   1      18.769  -2.250  11.754  0.00  0.00    -0.022 C 
ATOM     23  C40 ZIN A   1      17.585  -3.157  11.413  0.00  0.00     0.017 C 
ATOM     24  C41 ZIN A   1      20.076  -2.966  11.409  0.00  0.00     0.017 C 
ATOM     25  C42 ZIN A   1      18.746  -1.922  13.248  0.00  0.00     0.017 C 
ENDBRANCH  11  22
ENDBRANCH   1  11
BRANCH   7  26
ATOM     26  C21 ZIN A   1      18.640   2.601  14.052  0.00  0.00     0.241 C 
ATOM     27  O22 ZIN A   1      17.692   3.287  14.368  0.00  0.00    -0.271 OA
ATOM     28  N23 ZIN A   1      19.300   1.891  14.989  0.00  0.00    -0.347 N 
ATOM     29  H56 ZIN A   1      20.059   1.343  14.737  0.00  0.00     0.163 HD
BRANCH  28  30
ATOM     30  C24 ZIN A   1      18.869   1.948  16.389  0.00  0.00     0.165 C 
BRANCH  30  31
ATOM     31  C26 ZIN A   1      19.564   0.839  17.181  0.00  0.00     0.038 C 
BRANCH  31  32
ATOM     32  C27 ZIN A   1      18.539  -0.225  17.578  0.00  0.00    -0.012 C 
ATOM     33  C30 ZIN A   1      18.604  -1.496  16.716  0.00  0.00     0.005 C 
ATOM     34  C29 ZIN A   1      17.067  -1.506  16.750  0.00  0.00     0.001 C 
ATOM     35  C28 ZIN A   1      17.141   0.013  16.979  0.00  0.00     0.005 C 
ENDBRANCH  31  32
ENDBRANCH  30  31
BRANCH  30  36
ATOM     36  C31 ZIN A   1      19.236   3.288  16.974  0.00  0.00     0.238 C 
ATOM     37  O32 ZIN A   1      20.348   3.732  16.814  0.00  0.00    -0.285 OA
BRANCH  36  38
ATOM     38  C33 ZIN A   1      18.227   4.066  17.746  0.00  0.00     0.287 C 
ATOM     39  N34 ZIN A   1      17.344   4.853  17.102  0.00  0.00    -0.363 N 
ATOM     40  H66 ZIN A   1      17.364   4.913  16.133  0.00  0.00     0.159 HD
ATOM     41  H67 ZIN A   1      16.687   5.359  17.605  0.00  0.00     0.159 HD
ATOM     42  O35 ZIN A   1      18.201   3.991  18.958  0.00  0.00    -0.265 OA
ENDBRANCH  36  38
ENDBRANCH  30  36
ENDBRANCH  28  30
ENDBRANCH   7  26
TORSDOF 10
ENDMDL
MODEL 2
REMARK VINA RESULT:      -9.2      2.643      5.005
REMARK  10 active torsions:
REMARK  status: ('A' for Active; 'I' for Inactive)
REMARK    1  A    between atoms: C2_2  and  N5_5 
REMARK       I    between atoms: N5_5  and  C6_6 
REMARK       I    between atoms: C6_6  and  N8_8 
REMARK    2  A    between atoms: N8_8  and  C9_9 
REMARK    3  A    between atoms: C9_9  and  C11_10 
REMARK    4  A    between atoms: C9_9  and  C39_34 
REMARK       I    between atoms: C11_10  and  N13_12 
REMARK    5  A    between atoms: C19_16  and  C21_17 
REMARK       I    between atoms: C21_17  and  N23_19 
REMARK    6  A    between atoms: N23_19  and  C24_20 
REMARK    7  A    between atoms: C24_20  and  C26_21 
REMARK    8  A    between atoms: C24_20  and  C31_26 
REMARK    9  A    between atoms: C26_21  and  C27_22 
REMARK   10  A    between atoms: C31_26  and  C33_28 
REMARK       I    between atoms: C33_28  and  N34_29 
ROOT
ATOM      1  C11 ZIN A   1      17.466   0.203  11.578  0.00  0.00     0.244 C 
ATOM      2  O12 ZIN A   1      16.265   0.347  11.486  0.00  0.00    -0.271 OA
ATOM      3  N13 ZIN A   1      18.119   0.670  12.660  0.00  0.00    -0.336 N 
ATOM      4  C14 ZIN A   1      19.581   0.688  12.902  0.00  0.00     0.132 C 
ATOM      5  C15 ZIN A   1      19.734   0.327  14.395  0.00  0.00     0.019 A 
ATOM      6  C17 ZIN A   1      18.387   0.719  15.039  0.00  0.00     0.032 A 
ATOM      7  C19 ZIN A   1      17.540   1.288  13.876  0.00  0.00     0.184 C 
ATOM      8  C36 ZIN A   1      18.846  -0.782  14.964  0.00  0.00    -0.036 A 
ATOM      9  C37 ZIN A   1      18.120  -1.692  13.970  0.00  0.00     0.016 C 
ATOM     10  C38 ZIN A   1      19.289  -1.450  16.267  0.00  0.00     0.016 C 
ENDROOT
BRANCH   1  11
ATOM     11  C9  ZIN A   1      18.228  -0.498  10.482  0.00  0.00     0.185 C 
BRANCH  11  12
ATOM     12  N8  ZIN A   1      17.493  -1.694  10.065  0.00  0.00    -0.329 N 
ATOM     13  C6  ZIN A   1      17.974  -2.918  10.359  0.00  0.00     0.317 C 
ATOM     14  N5  ZIN A   1      17.297  -4.019   9.976  0.00  0.00    -0.335 N 
ATOM     15  O7  ZIN A   1      19.018  -3.029  10.972  0.00  0.00    -0.247 OA
ATOM     16  H52 ZIN A   1      16.464  -3.930   9.487  0.00  0.00     0.165 HD
ATOM     17  H53 ZIN A   1      16.659  -1.606   9.577  0.00  0.00     0.165 HD
BRANCH  14  18
ATOM     18  C2  ZIN A   1      17.821  -5.349  10.296  0.00  0.00     0.023 C 
ATOM     19  C1  ZIN A   1      17.714  -5.590  11.804  0.00  0.00     0.037 C 
ATOM     20  C3  ZIN A   1      19.287  -5.437   9.869  0.00  0.00     0.037 C 
ATOM     21  C4  ZIN A   1      17.008  -6.410   9.550  0.00  0.00     0.037 C 
ENDBRANCH  14  18
ENDBRANCH  11  12
BRANCH  11  22
ATOM     22  C39 ZIN A   1      18.387   0.445   9.288  0.00  0.00    -0.022 C 
ATOM     23  C40 ZIN A   1      19.803   0.319   8.723  0.00  0.00     0.017 C 
ATOM     24  C41 ZIN A   1      17.371   0.075   8.207  0.00  0.00     0.017 C 
ATOM     25  C42 ZIN A   1      18.147   1.887   9.742  0.00  0.00     0.017 C 
ENDBRANCH  11  22
ENDBRANCH   1  11
BRANCH   7  26
ATOM     26  C21 ZIN A   1      17.660   2.789  13.823  0.00  0.00     0.241 C 
ATOM     27  O22 ZIN A   1      17.533   3.371  12.767  0.00  0.00    -0.271 OA
ATOM     28  N23 ZIN A   1      17.908   3.484  14.951  0.00  0.00    -0.347 N 
ATOM     29  H56 ZIN A   1      18.010   3.018  15.795  0.00  0.00     0.163 HD
BRANCH  28  30
ATOM     30  C24 ZIN A   1      18.025   4.944  14.900  0.00  0.00     0.165 C 
BRANCH  30  31
ATOM     31  C26 ZIN A   1      17.326   5.553  16.117  0.00  0.00     0.038 C 
BRANCH  31  32
ATOM     32  C27 ZIN A   1      16.199   6.476  15.651  0.00  0.00    -0.012 C 
ATOM     33  C30 ZIN A   1      14.891   6.299  16.439  0.00  0.00     0.005 C 
ATOM     34  C29 ZIN A   1      14.153   6.455  15.099  0.00  0.00     0.001 C 
ATOM     35  C28 ZIN A   1      15.438   5.947  14.423  0.00  0.00     0.005 C 
ENDBRANCH  31  32
ENDBRANCH  30  31
BRANCH  30  36
ATOM     36  C31 ZIN A   1      19.481   5.333  14.910  0.00  0.00     0.238 C 
ATOM     37  O32 ZIN A   1      19.906   6.099  14.078  0.00  0.00    -0.285 OA
BRANCH  36  38
ATOM     38  C33 ZIN A   1      20.395   4.774  15.945  0.00  0.00     0.287 C 
ATOM     39  N34 ZIN A   1      21.679   5.177  15.999  0.00  0.00    -0.363 N 
ATOM     40  H66 ZIN A   1      22.010   5.832  15.364  0.00  0.00     0.159 HD
ATOM     41  H67 ZIN A   1      22.274   4.813  16.674  0.00  0.00     0.159 HD
ATOM     42  O35 ZIN A   1      19.982   3.955  16.740  0.00  0.00    -0.265 OA
ENDBRANCH  36  38
ENDBRANCH  30  36
ENDBRANCH  28  30
ENDBRANCH   7  26
TORSDOF 10
ENDMDL
MODEL 3
REMARK VINA RESULT:      -9.0      1.709      3.111
REMARK  10 active torsions:
REMARK  status: ('A' for Active; 'I' for Inactive)
REMARK    1  A    between atoms: C2_2  and  N5_5 
REMARK       I    between atoms: N5_5  and  C6_6 
REMARK       I    between atoms: C6_6  and  N8_8 
REMARK    2  A    between atoms: N8_8  and  C9_9 
REMARK    3  A    between atoms: C9_9  and  C11_10 
REMARK    4  A    between atoms: C9_9  and  C39_34 
REMARK       I    between atoms: C11_10  and  N13_12 
REMARK    5  A    between atoms: C19_16  and  C21_17 
REMARK       I    between atoms: C21_17  and  N23_19 
REMARK    6  A    between atoms: N23_19  and  C24_20 
REMARK    7  A    between atoms: C24_20  and  C26_21 
REMARK    8  A    between atoms: C24_20  and  C31_26 
REMARK    9  A    between atoms: C26_21  and  C27_22 
REMARK   10  A    between atoms: C31_26  and  C33_28 
REMARK       I    between atoms: C33_28  and  N34_29 
ROOT
ATOM      1  C11 ZIN A   1      19.645  -0.728  10.842  0.00  0.00     0.244 C 
ATOM      2  O12 ZIN A   1      20.850  -0.869  10.824  0.00  0.00    -0.271 OA
ATOM      3  N13 ZIN A   1      19.097   0.292  11.531  0.00  0.00    -0.336 N 
ATOM      4  C14 ZIN A   1      17.659   0.564  11.761  0.00  0.00     0.132 C 
ATOM      5  C15 ZIN A   1      17.527   2.097  11.633  0.00  0.00     0.019 A 
ATOM      6  C17 ZIN A   1      18.936   2.645  11.945  0.00  0.00     0.032 A 
ATOM      7  C19 ZIN A   1      19.795   1.391  12.238  0.00  0.00     0.184 C 
ATOM      8  C36 ZIN A   1      18.301   2.797  10.515  0.00  0.00    -0.036 A 
ATOM      9  C37 ZIN A   1      18.874   1.927   9.394  0.00  0.00     0.016 C 
ATOM     10  C38 ZIN A   1      17.838   4.193  10.094  0.00  0.00     0.016 C 
ENDROOT
BRANCH   1  11
ATOM     11  C9  ZIN A   1      18.762  -1.693  10.093  0.00  0.00     0.185 C 
BRANCH  11  12
ATOM     12  N8  ZIN A   1      19.254  -1.840   8.721  0.00  0.00    -0.329 N 
ATOM     13  C6  ZIN A   1      18.538  -1.344   7.691  0.00  0.00     0.317 C 
ATOM     14  N5  ZIN A   1      18.992  -1.480   6.429  0.00  0.00    -0.335 N 
ATOM     15  O7  ZIN A   1      17.486  -0.774   7.902  0.00  0.00    -0.247 OA
ATOM     16  H52 ZIN A   1      19.832  -1.935   6.262  0.00  0.00     0.165 HD
ATOM     17  H53 ZIN A   1      20.094  -2.295   8.553  0.00  0.00     0.165 HD
BRANCH  14  18
ATOM     18  C2  ZIN A   1      18.214  -0.941   5.311  0.00  0.00     0.023 C 
ATOM     19  C1  ZIN A   1      17.640  -2.095   4.486  0.00  0.00     0.037 C 
ATOM     20  C3  ZIN A   1      19.118  -0.081   4.426  0.00  0.00     0.037 C 
ATOM     21  C4  ZIN A   1      17.068  -0.084   5.854  0.00  0.00     0.037 C 
ENDBRANCH  14  18
ENDBRANCH  11  12
BRANCH  11  22
ATOM     22  C39 ZIN A   1      18.784  -3.053  10.792  0.00  0.00    -0.022 C 
ATOM     23  C40 ZIN A   1      17.353  -3.483  11.119  0.00  0.00     0.017 C 
ATOM     24  C41 ZIN A   1      19.431  -4.089   9.871  0.00  0.00     0.017 C 
ATOM     25  C42 ZIN A   1      19.593  -2.947  12.087  0.00  0.00     0.017 C 
ENDBRANCH  11  22
ENDBRANCH   1  11
BRANCH   7  26
ATOM     26  C21 ZIN A   1      19.850   1.126  13.720  0.00  0.00     0.241 C 
ATOM     27  O22 ZIN A   1      20.314   0.086  14.134  0.00  0.00    -0.271 OA
ATOM     28  N23 ZIN A   1      19.382   2.048  14.586  0.00  0.00    -0.347 N 
ATOM     29  H56 ZIN A   1      19.011   2.880  14.255  0.00  0.00     0.163 HD
BRANCH  28  30
ATOM     30  C24 ZIN A   1      19.436   1.790  16.028  0.00  0.00     0.165 C 
BRANCH  30  31
ATOM     31  C26 ZIN A   1      19.073   3.068  16.787  0.00  0.00     0.038 C 
BRANCH  31  32
ATOM     32  C27 ZIN A   1      19.030   4.246  15.812  0.00  0.00    -0.012 C 
ATOM     33  C30 ZIN A   1      20.104   5.313  16.085  0.00  0.00     0.005 C 
ATOM     34  C29 ZIN A   1      19.029   6.365  15.763  0.00  0.00     0.001 C 
ATOM     35  C28 ZIN A   1      17.987   5.315  16.184  0.00  0.00     0.005 C 
ENDBRANCH  31  32
ENDBRANCH  30  31
BRANCH  30  36
ATOM     36  C31 ZIN A   1      18.454   0.702  16.381  0.00  0.00     0.238 C 
ATOM     37  O32 ZIN A   1      17.319   0.759  15.975  0.00  0.00    -0.285 OA
BRANCH  36  38
ATOM     38  C33 ZIN A   1      18.886  -0.445  17.229  0.00  0.00     0.287 C 
ATOM     39  N34 ZIN A   1      19.249  -1.609  16.655  0.00  0.00    -0.363 N 
ATOM     40  H66 ZIN A   1      19.230  -1.701  15.689  0.00  0.00     0.159 HD
ATOM     41  H67 ZIN A   1      19.530  -2.355  17.207  0.00  0.00     0.159 HD
ATOM     42  O35 ZIN A   1      18.911  -0.331  18.437  0.00  0.00    -0.265 OA
ENDBRANCH  36  38
ENDBRANCH  30  36
ENDBRANCH  28  30
ENDBRANCH   7  26
TORSDOF 10
ENDMDL
MODEL 4
REMARK VINA RESULT:      -9.0      1.989      4.603
REMARK  10 active torsions:
REMARK  status: ('A' for Active; 'I' for Inactive)
REMARK    1  A    between atoms: C2_2  and  N5_5 
REMARK       I    between atoms: N5_5  and  C6_6 
REMARK       I    between atoms: C6_6  and  N8_8 
REMARK    2  A    between atoms: N8_8  and  C9_9 
REMARK    3  A    between atoms: C9_9  and  C11_10 
REMARK    4  A    between atoms: C9_9  and  C39_34 
REMARK       I    between atoms: C11_10  and  N13_12 
REMARK    5  A    between atoms: C19_16  and  C21_17 
REMARK       I    between atoms: C21_17  and  N23_19 
REMARK    6  A    between atoms: N23_19  and  C24_20 
REMARK    7  A    between atoms: C24_20  and  C26_21 
REMARK    8  A    between atoms: C24_20  and  C31_26 
REMARK    9  A    between atoms: C26_21  and  C27_22 
REMARK   10  A    between atoms: C31_26  and  C33_28 
REMARK       I    between atoms: C33_28  and  N34_29 
ROOT
ATOM      1  C11 ZIN A   1      17.980   0.352  11.034  0.00  0.00     0.244 C 
ATOM      2  O12 ZIN A   1      16.901   0.789  11.375  0.00  0.00    -0.271 OA
ATOM      3  N13 ZIN A   1      18.616  -0.549  11.808  0.00  0.00    -0.336 N 
ATOM      4  C14 ZIN A   1      19.974  -1.112  11.619  0.00  0.00     0.132 C 
ATOM      5  C15 ZIN A   1      19.835  -2.602  11.999  0.00  0.00     0.019 A 
ATOM      6  C17 ZIN A   1      18.611  -2.661  12.938  0.00  0.00     0.032 A 
ATOM      7  C19 ZIN A   1      18.120  -1.197  13.045  0.00  0.00     0.184 C 
ATOM      8  C36 ZIN A   1      18.589  -3.353  11.527  0.00  0.00    -0.036 A 
ATOM      9  C37 ZIN A   1      17.737  -2.702  10.436  0.00  0.00     0.016 C 
ATOM     10  C38 ZIN A   1      18.651  -4.881  11.491  0.00  0.00     0.016 C 
ENDROOT
BRANCH   1  11
ATOM     11  C9  ZIN A   1      18.608   0.814   9.745  0.00  0.00     0.185 C 
BRANCH  11  12
ATOM     12  N8  ZIN A   1      17.764   0.409   8.618  0.00  0.00    -0.329 N 
ATOM     13  C6  ZIN A   1      18.280  -0.344   7.626  0.00  0.00     0.317 C 
ATOM     14  N5  ZIN A   1      17.503  -0.717   6.590  0.00  0.00    -0.335 N 
ATOM     15  O7  ZIN A   1      19.445  -0.688   7.667  0.00  0.00    -0.247 OA
ATOM     16  H52 ZIN A   1      16.573  -0.442   6.557  0.00  0.00     0.165 HD
ATOM     17  H53 ZIN A   1      16.834   0.683   8.585  0.00  0.00     0.165 HD
BRANCH  14  18
ATOM     18  C2  ZIN A   1      18.064  -1.536   5.512  0.00  0.00     0.023 C 
ATOM     19  C1  ZIN A   1      18.519  -2.883   6.079  0.00  0.00     0.037 C 
ATOM     20  C3  ZIN A   1      19.261  -0.813   4.891  0.00  0.00     0.037 C 
ATOM     21  C4  ZIN A   1      16.997  -1.768   4.440  0.00  0.00     0.037 C 
ENDBRANCH  14  18
ENDBRANCH  11  12
BRANCH  11  22
ATOM     22  C39 ZIN A   1      18.741   2.338   9.761  0.00  0.00    -0.022 C 
ATOM     23  C40 ZIN A   1      17.447   2.958  10.290  0.00  0.00     0.017 C 
ATOM     24  C41 ZIN A   1      19.907   2.739  10.667  0.00  0.00     0.017 C 
ATOM     25  C42 ZIN A   1      19.003   2.842   8.340  0.00  0.00     0.017 C 
ENDBRANCH  11  22
ENDBRANCH   1  11
BRANCH   7  26
ATOM     26  C21 ZIN A   1      18.704  -0.536  14.267  0.00  0.00     0.241 C 
ATOM     27  O22 ZIN A   1      19.371  -1.182  15.047  0.00  0.00    -0.271 OA
ATOM     28  N23 ZIN A   1      18.483   0.775  14.494  0.00  0.00    -0.347 N 
ATOM     29  H56 ZIN A   1      17.950   1.291  13.871  0.00  0.00     0.163 HD
BRANCH  28  30
ATOM     30  C24 ZIN A   1      19.051   1.417  15.683  0.00  0.00     0.165 C 
BRANCH  30  31
ATOM     31  C26 ZIN A   1      18.730   2.912  15.656  0.00  0.00     0.038 C 
BRANCH  31  32
ATOM     32  C27 ZIN A   1      18.620   3.385  14.205  0.00  0.00    -0.012 C 
ATOM     33  C30 ZIN A   1      19.459   4.637  13.899  0.00  0.00     0.005 C 
ATOM     34  C29 ZIN A   1      18.277   5.124  13.044  0.00  0.00     0.001 C 
ATOM     35  C28 ZIN A   1      17.377   4.248  13.931  0.00  0.00     0.005 C 
ENDBRANCH  31  32
ENDBRANCH  30  31
BRANCH  30  36
ATOM     36  C31 ZIN A   1      18.456   0.798  16.922  0.00  0.00     0.238 C 
ATOM     37  O32 ZIN A   1      17.266   0.599  16.984  0.00  0.00    -0.285 OA
BRANCH  36  38
ATOM     38  C33 ZIN A   1      19.334   0.431  18.068  0.00  0.00     0.287 C 
ATOM     39  N34 ZIN A   1      19.640  -0.861  18.296  0.00  0.00    -0.363 N 
ATOM     40  H66 ZIN A   1      19.289  -1.553  17.713  0.00  0.00     0.159 HD
ATOM     41  H67 ZIN A   1      20.212  -1.100  19.042  0.00  0.00     0.159 HD
ATOM     42  O35 ZIN A   1      19.773   1.296  18.797  0.00  0.00    -0.265 OA
ENDBRANCH  36  38
ENDBRANCH  30  36
ENDBRANCH  28  30
ENDBRANCH   7  26
TORSDOF 10
ENDMDL
MODEL 5
REMARK VINA RESULT:      -8.9      2.844      8.577
REMARK  10 active torsions:
REMARK  status: ('A' for Active; 'I' for Inactive)
REMARK    1  A    between atoms: C2_2  and  N5_5 
REMARK       I    between atoms: N5_5  and  C6_6 
REMARK       I    between atoms: C6_6  and  N8_8 
REMARK    2  A    between atoms: N8_8  and  C9_9 
REMARK    3  A    between atoms: C9_9  and  C11_10 
REMARK    4  A    between atoms: C9_9  and  C39_34 
REMARK       I    between atoms: C11_10  and  N13_12 
REMARK    5  A    between atoms: C19_16  and  C21_17 
REMARK       I    between atoms: C21_17  and  N23_19 
REMARK    6  A    between atoms: N23_19  and  C24_20 
REMARK    7  A    between atoms: C24_20  and  C26_21 
REMARK    8  A    between atoms: C24_20  and  C31_26 
REMARK    9  A    between atoms: C26_21  and  C27_22 
REMARK   10  A    between atoms: C31_26  and  C33_28 
REMARK       I    between atoms: C33_28  and  N34_29 
ROOT
ATOM      1  C11 ZIN A   1      19.662   0.194  11.029  0.00  0.00     0.244 C 
ATOM      2  O12 ZIN A   1      20.766   0.042  10.551  0.00  0.00    -0.271 OA
ATOM      3  N13 ZIN A   1      19.091  -0.801  11.735  0.00  0.00    -0.336 N 
ATOM      4  C14 ZIN A   1      17.721  -0.846  12.298  0.00  0.00     0.132 C 
ATOM      5  C15 ZIN A   1      17.888  -1.517  13.679  0.00  0.00     0.019 A 
ATOM      6  C17 ZIN A   1      19.187  -2.344  13.564  0.00  0.00     0.032 A 
ATOM      7  C19 ZIN A   1      19.688  -2.101  12.120  0.00  0.00     0.184 C 
ATOM      8  C36 ZIN A   1      19.089  -1.112  14.536  0.00  0.00    -0.036 A 
ATOM      9  C37 ZIN A   1      19.848   0.157  14.144  0.00  0.00     0.016 C 
ATOM     10  C38 ZIN A   1      19.021  -1.403  16.037  0.00  0.00     0.016 C 
ENDROOT
BRANCH   1  11
ATOM     11  C9  ZIN A   1      18.928   1.497  10.833  0.00  0.00     0.185 C 
BRANCH  11  12
ATOM     12  N8  ZIN A   1      19.723   2.593  11.393  0.00  0.00    -0.329 N 
ATOM     13  C6  ZIN A   1      19.247   3.307  12.433  0.00  0.00     0.317 C 
ATOM     14  N5  ZIN A   1      19.979   4.315  12.949  0.00  0.00    -0.335 N 
ATOM     15  O7  ZIN A   1      18.160   3.041  12.906  0.00  0.00    -0.247 OA
ATOM     16  H52 ZIN A   1      20.846   4.527  12.570  0.00  0.00     0.165 HD
ATOM     17  H53 ZIN A   1      20.591   2.805  11.016  0.00  0.00     0.165 HD
BRANCH  14  18
ATOM     18  C2  ZIN A   1      19.461   5.091  14.078  0.00  0.00     0.023 C 
ATOM     19  C1  ZIN A   1      20.437   6.223  14.409  0.00  0.00     0.037 C 
ATOM     20  C3  ZIN A   1      19.306   4.179  15.296  0.00  0.00     0.037 C 
ATOM     21  C4  ZIN A   1      18.099   5.684  13.708  0.00  0.00     0.037 C 
ENDBRANCH  14  18
ENDBRANCH  11  12
BRANCH  11  22
ATOM     22  C39 ZIN A   1      18.708   1.738   9.339  0.00  0.00    -0.022 C 
ATOM     23  C40 ZIN A   1      17.663   0.753   8.811  0.00  0.00     0.017 C 
ATOM     24  C41 ZIN A   1      18.215   3.170   9.121  0.00  0.00     0.017 C 
ATOM     25  C42 ZIN A   1      20.026   1.532   8.590  0.00  0.00     0.017 C 
ENDBRANCH  11  22
ENDBRANCH   1  11
BRANCH   7  26
ATOM     26  C21 ZIN A   1      19.210  -3.201  11.207  0.00  0.00     0.241 C 
ATOM     27  O22 ZIN A   1      18.745  -4.218  11.674  0.00  0.00    -0.271 OA
ATOM     28  N23 ZIN A   1      19.301  -3.054   9.870  0.00  0.00    -0.347 N 
ATOM     29  H56 ZIN A   1      19.674  -2.241   9.496  0.00  0.00     0.163 HD
BRANCH  28  30
ATOM     30  C24 ZIN A   1      18.837  -4.124   8.983  0.00  0.00     0.165 C 
BRANCH  30  31
ATOM     31  C26 ZIN A   1      17.341  -3.947   8.713  0.00  0.00     0.038 C 
BRANCH  31  32
ATOM     32  C27 ZIN A   1      16.620  -5.277   8.941  0.00  0.00    -0.012 C 
ATOM     33  C30 ZIN A   1      17.554  -6.417   9.381  0.00  0.00     0.005 C 
ATOM     34  C29 ZIN A   1      16.739  -7.337   8.456  0.00  0.00     0.001 C 
ATOM     35  C28 ZIN A   1      16.381  -6.077   7.649  0.00  0.00     0.005 C 
ENDBRANCH  31  32
ENDBRANCH  30  31
BRANCH  30  36
ATOM     36  C31 ZIN A   1      19.592  -4.060   7.680  0.00  0.00     0.238 C 
ATOM     37  O32 ZIN A   1      19.596  -3.040   7.034  0.00  0.00    -0.285 OA
BRANCH  36  38
ATOM     38  C33 ZIN A   1      20.336  -5.255   7.191  0.00  0.00     0.287 C 
ATOM     39  N34 ZIN A   1      21.659  -5.366   7.420  0.00  0.00    -0.363 N 
ATOM     40  H66 ZIN A   1      22.128  -4.668   7.904  0.00  0.00     0.159 HD
ATOM     41  H67 ZIN A   1      22.143  -6.144   7.101  0.00  0.00     0.159 HD
ATOM     42  O35 ZIN A   1      19.750  -6.128   6.585  0.00  0.00    -0.265 OA
ENDBRANCH  36  38
ENDBRANCH  30  36
ENDBRANCH  28  30
ENDBRANCH   7  26
TORSDOF 10
ENDMDL
MODEL 6
REMARK VINA RESULT:      -8.9      2.756      4.730
REMARK  10 active torsions:
REMARK  status: ('A' for Active; 'I' for Inactive)
REMARK    1  A    between atoms: C2_2  and  N5_5 
REMARK       I    between atoms: N5_5  and  C6_6 
REMARK       I    between atoms: C6_6  and  N8_8 
REMARK    2  A    between atoms: N8_8  and  C9_9 
REMARK    3  A    between atoms: C9_9  and  C11_10 
REMARK    4  A    between atoms: C9_9  and  C39_34 
REMARK       I    between atoms: C11_10  and  N13_12 
REMARK    5  A    between atoms: C19_16  and  C21_17 
REMARK       I    between atoms: C21_17  and  N23_19 
REMARK    6  A    between atoms: N23_19  and  C24_20 
REMARK    7  A    between atoms: C24_20  and  C26_21 
REMARK    8  A    between atoms: C24_20  and  C31_26 
REMARK    9  A    between atoms: C26_21  and  C27_22 
REMARK   10  A    between atoms: C31_26  and  C33_28 
REMARK       I    between atoms: C33_28  and  N34_29 
ROOT
ATOM      1  C11 ZIN A   1      19.187   0.895  13.369  0.00  0.00     0.244 C 
ATOM      2  O12 ZIN A   1      20.252   1.179  13.874  0.00  0.00    -0.271 OA
ATOM      3  N13 ZIN A   1      18.695   1.647  12.365  0.00  0.00    -0.336 N 
ATOM      4  C14 ZIN A   1      17.375   1.526  11.702  0.00  0.00     0.132 C 
ATOM      5  C15 ZIN A   1      17.666   1.779  10.207  0.00  0.00     0.019 A 
ATOM      6  C17 ZIN A   1      18.968   2.608  10.189  0.00  0.00     0.032 A 
ATOM      7  C19 ZIN A   1      19.347   2.786  11.679  0.00  0.00     0.184 C 
ATOM      8  C36 ZIN A   1      18.922   1.151   9.600  0.00  0.00    -0.036 A 
ATOM      9  C37 ZIN A   1      19.621   0.047  10.397  0.00  0.00     0.016 C 
ATOM     10  C38 ZIN A   1      18.981   1.003   8.079  0.00  0.00     0.016 C 
ENDROOT
BRANCH   1  11
ATOM     11  C9  ZIN A   1      18.413  -0.300  13.864  0.00  0.00     0.185 C 
BRANCH  11  12
ATOM     12  N8  ZIN A   1      19.030  -1.527  13.352  0.00  0.00    -0.329 N 
ATOM     13  C6  ZIN A   1      18.390  -2.266  12.424  0.00  0.00     0.317 C 
ATOM     14  N5  ZIN A   1      18.958  -3.394  11.953  0.00  0.00    -0.335 N 
ATOM     15  O7  ZIN A   1      17.302  -1.915  12.012  0.00  0.00    -0.247 OA
ATOM     16  H52 ZIN A   1      19.826  -3.674  12.282  0.00  0.00     0.165 HD
ATOM     17  H53 ZIN A   1      19.899  -1.807  13.680  0.00  0.00     0.165 HD
BRANCH  14  18
ATOM     18  C2  ZIN A   1      18.261  -4.198  10.944  0.00  0.00     0.023 C 
ATOM     19  C1  ZIN A   1      19.243  -5.188  10.314  0.00  0.00     0.037 C 
ATOM     20  C3  ZIN A   1      17.696  -3.279   9.860  0.00  0.00     0.037 C 
ATOM     21  C4  ZIN A   1      17.116  -4.967  11.608  0.00  0.00     0.037 C 
ENDBRANCH  14  18
ENDBRANCH  11  12
BRANCH  11  22
ATOM     22  C39 ZIN A   1      18.431  -0.321  15.394  0.00  0.00    -0.022 C 
ATOM     23  C40 ZIN A   1      19.347  -1.446  15.879  0.00  0.00     0.017 C 
ATOM     24  C41 ZIN A   1      18.950   1.020  15.916  0.00  0.00     0.017 C 
ATOM     25  C42 ZIN A   1      17.012  -0.558  15.916  0.00  0.00     0.017 C 
ENDBRANCH  11  22
ENDBRANCH   1  11
BRANCH   7  26
ATOM     26  C21 ZIN A   1      18.821   4.099  12.200  0.00  0.00     0.241 C 
ATOM     27  O22 ZIN A   1      18.401   4.934  11.429  0.00  0.00    -0.271 OA
ATOM     28  N23 ZIN A   1      18.819   4.344  13.526  0.00  0.00    -0.347 N 
ATOM     29  H56 ZIN A   1      19.156   3.676  14.143  0.00  0.00     0.163 HD
BRANCH  28  30
ATOM     30  C24 ZIN A   1      18.308   5.621  14.033  0.00  0.00     0.165 C 
BRANCH  30  31
ATOM     31  C26 ZIN A   1      17.005   5.379  14.798  0.00  0.00     0.038 C 
BRANCH  31  32
ATOM     32  C27 ZIN A   1      16.007   6.490  14.472  0.00  0.00    -0.012 C 
ATOM     33  C30 ZIN A   1      15.855   7.531  15.594  0.00  0.00     0.005 C 
ATOM     34  C29 ZIN A   1      14.348   7.527  15.287  0.00  0.00     0.001 C 
ATOM     35  C28 ZIN A   1      14.543   6.102  14.742  0.00  0.00     0.005 C 
ENDBRANCH  31  32
ENDBRANCH  30  31
BRANCH  30  36
ATOM     36  C31 ZIN A   1      19.326   6.239  14.957  0.00  0.00     0.238 C 
ATOM     37  O32 ZIN A   1      19.354   7.437  15.108  0.00  0.00    -0.285 OA
BRANCH  36  38
ATOM     38  C33 ZIN A   1      20.295   5.373  15.684  0.00  0.00     0.287 C 
ATOM     39  N34 ZIN A   1      21.608   5.675  15.675  0.00  0.00    -0.363 N 
ATOM     40  H66 ZIN A   1      21.923   6.457  15.194  0.00  0.00     0.159 HD
ATOM     41  H67 ZIN A   1      22.239   5.111  16.149  0.00  0.00     0.159 HD
ATOM     42  O35 ZIN A   1      19.902   4.394  16.286  0.00  0.00    -0.265 OA
ENDBRANCH  36  38
ENDBRANCH  30  36
ENDBRANCH  28  30
ENDBRANCH   7  26
TORSDOF 10
ENDMDL
MODEL 7
REMARK VINA RESULT:      -8.8      1.966      7.904
REMARK  10 active torsions:
REMARK  status: ('A' for Active; 'I' for Inactive)
REMARK    1  A    between atoms: C2_2  and  N5_5 
REMARK       I    between atoms: N5_5  and  C6_6 
REMARK       I    between atoms: C6_6  and  N8_8 
REMARK    2  A    between atoms: N8_8  and  C9_9 
REMARK    3  A    between atoms: C9_9  and  C11_10 
REMARK    4  A    between atoms: C9_9  and  C39_34 
REMARK       I    between atoms: C11_10  and  N13_12 
REMARK    5  A    between atoms: C19_16  and  C21_17 
REMARK       I    between atoms: C21_17  and  N23_19 
REMARK    6  A    between atoms: N23_19  and  C24_20 
REMARK    7  A    between atoms: C24_20  and  C26_21 
REMARK    8  A    between atoms: C24_20  and  C31_26 
REMARK    9  A    between atoms: C26_21  and  C27_22 
REMARK   10  A    between atoms: C31_26  and  C33_28 
REMARK       I    between atoms: C33_28  and  N34_29 
ROOT
ATOM      1  C11 ZIN A   1      17.897   0.776  13.318  0.00  0.00     0.244 C 
ATOM      2  O12 ZIN A   1      16.899   0.088  13.352  0.00  0.00    -0.271 OA
ATOM      3  N13 ZIN A   1      18.477   1.064  12.136  0.00  0.00    -0.336 N 
ATOM      4  C14 ZIN A   1      19.748   1.788  11.900  0.00  0.00     0.132 C 
ATOM      5  C15 ZIN A   1      19.467   2.676  10.669  0.00  0.00     0.019 A 
ATOM      6  C17 ZIN A   1      18.307   1.976   9.929  0.00  0.00     0.032 A 
ATOM      7  C19 ZIN A   1      17.992   0.721  10.779  0.00  0.00     0.184 C 
ATOM      8  C36 ZIN A   1      18.116   3.390  10.588  0.00  0.00    -0.036 A 
ATOM      9  C37 ZIN A   1      17.274   3.466  11.863  0.00  0.00     0.016 C 
ATOM     10  C38 ZIN A   1      18.003   4.595   9.651  0.00  0.00     0.016 C 
ENDROOT
BRANCH   1  11
ATOM     11  C9  ZIN A   1      18.489   1.310  14.597  0.00  0.00     0.185 C 
BRANCH  11  12
ATOM     12  N8  ZIN A   1      17.628   2.370  15.128  0.00  0.00    -0.329 N 
ATOM     13  C6  ZIN A   1      18.079   3.640  15.182  0.00  0.00     0.317 C 
ATOM     14  N5  ZIN A   1      17.286   4.615  15.669  0.00  0.00    -0.335 N 
ATOM     15  O7  ZIN A   1      19.198   3.904  14.790  0.00  0.00    -0.247 OA
ATOM     16  H52 ZIN A   1      16.393   4.403  15.982  0.00  0.00     0.165 HD
ATOM     17  H53 ZIN A   1      16.735   2.159  15.440  0.00  0.00     0.165 HD
BRANCH  14  18
ATOM     18  C2  ZIN A   1      17.777   5.995  15.728  0.00  0.00     0.023 C 
ATOM     19  C1  ZIN A   1      16.768   6.863  16.484  0.00  0.00     0.037 C 
ATOM     20  C3  ZIN A   1      17.952   6.536  14.308  0.00  0.00     0.037 C 
ATOM     21  C4  ZIN A   1      19.123   6.026  16.456  0.00  0.00     0.037 C 
ENDBRANCH  14  18
ENDBRANCH  11  12
BRANCH  11  22
ATOM     22  C39 ZIN A   1      18.594   0.178  15.622  0.00  0.00    -0.022 C 
ATOM     23  C40 ZIN A   1      19.313  -1.016  14.991  0.00  0.00     0.017 C 
ATOM     24  C41 ZIN A   1      19.383   0.664  16.839  0.00  0.00     0.017 C 
ATOM     25  C42 ZIN A   1      17.190  -0.245  16.059  0.00  0.00     0.017 C 
ENDBRANCH  11  22
ENDBRANCH   1  11
BRANCH   7  26
ATOM     26  C21 ZIN A   1      18.724  -0.478  10.235  0.00  0.00     0.241 C 
ATOM     27  O22 ZIN A   1      19.825  -0.761  10.657  0.00  0.00    -0.271 OA
ATOM     28  N23 ZIN A   1      18.154  -1.237   9.277  0.00  0.00    -0.347 N 
ATOM     29  H56 ZIN A   1      17.274  -1.011   8.939  0.00  0.00     0.163 HD
BRANCH  28  30
ATOM     30  C24 ZIN A   1      18.866  -2.404   8.748  0.00  0.00     0.165 C 
BRANCH  30  31
ATOM     31  C26 ZIN A   1      17.989  -3.648   8.903  0.00  0.00     0.038 C 
BRANCH  31  32
ATOM     32  C27 ZIN A   1      17.601  -3.820  10.373  0.00  0.00    -0.012 C 
ATOM     33  C30 ZIN A   1      18.663  -4.554  11.209  0.00  0.00     0.005 C 
ATOM     34  C29 ZIN A   1      17.500  -5.280  11.906  0.00  0.00     0.001 C 
ATOM     35  C28 ZIN A   1      16.680  -5.025  10.630  0.00  0.00     0.005 C 
ENDBRANCH  31  32
ENDBRANCH  30  31
BRANCH  30  36
ATOM     36  C31 ZIN A   1      19.175  -2.186   7.289  0.00  0.00     0.238 C 
ATOM     37  O32 ZIN A   1      19.919  -2.941   6.711  0.00  0.00    -0.285 OA
BRANCH  36  38
ATOM     38  C33 ZIN A   1      18.561  -1.040   6.560  0.00  0.00     0.287 C 
ATOM     39  N34 ZIN A   1      17.489  -1.241   5.770  0.00  0.00    -0.363 N 
ATOM     40  H66 ZIN A   1      17.115  -2.131   5.676  0.00  0.00     0.159 HD
ATOM     41  H67 ZIN A   1      17.089  -0.495   5.296  0.00  0.00     0.159 HD
ATOM     42  O35 ZIN A   1      19.028   0.074   6.678  0.00  0.00    -0.265 OA
ENDBRANCH  36  38
ENDBRANCH  30  36
ENDBRANCH  28  30
ENDBRANCH   7  26
TORSDOF 10
ENDMDL
MODEL 8
REMARK VINA RESULT:      -8.5      2.515      5.472
REMARK  10 active torsions:
REMARK  status: ('A' for Active; 'I' for Inactive)
REMARK    1  A    between atoms: C2_2  and  N5_5 
REMARK       I    between atoms: N5_5  and  C6_6 
REMARK       I    between atoms: C6_6  and  N8_8 
REMARK    2  A    between atoms: N8_8  and  C9_9 
REMARK    3  A    between atoms: C9_9  and  C11_10 
REMARK    4  A    between atoms: C9_9  and  C39_34 
REMARK       I    between atoms: C11_10  and  N13_12 
REMARK    5  A    between atoms: C19_16  and  C21_17 
REMARK       I    between atoms: C21_17  and  N23_19 
REMARK    6  A    between atoms: N23_19  and  C24_20 
REMARK    7  A    between atoms: C24_20  and  C26_21 
REMARK    8  A    between atoms: C24_20  and  C31_26 
REMARK    9  A    between atoms: C26_21  and  C27_22 
REMARK   10  A    between atoms: C31_26  and  C33_28 
REMARK       I    between atoms: C33_28  and  N34_29 
ROOT
ATOM      1  C11 ZIN A   1      17.790   0.229  11.915  0.00  0.00     0.244 C 
ATOM      2  O12 ZIN A   1      16.615   0.462  11.728  0.00  0.00    -0.271 OA
ATOM      3  N13 ZIN A   1      18.361   0.548  13.094  0.00  0.00    -0.336 N 
ATOM      4  C14 ZIN A   1      19.790   0.443  13.469  0.00  0.00     0.132 C 
ATOM      5  C15 ZIN A   1      19.775  -0.064  14.928  0.00  0.00     0.019 A 
ATOM      6  C17 ZIN A   1      18.397   0.358  15.481  0.00  0.00     0.032 A 
ATOM      7  C19 ZIN A   1      17.702   1.089  14.306  0.00  0.00     0.184 C 
ATOM      8  C36 ZIN A   1      18.772  -1.157  15.300  0.00  0.00    -0.036 A 
ATOM      9  C37 ZIN A   1      18.094  -1.920  14.159  0.00  0.00     0.016 C 
ATOM     10  C38 ZIN A   1      19.045  -1.972  16.566  0.00  0.00     0.016 C 
ENDROOT
BRANCH   1  11
ATOM     11  C9  ZIN A   1      18.613  -0.418  10.831  0.00  0.00     0.185 C 
BRANCH  11  12
ATOM     12  N8  ZIN A   1      17.859  -1.529  10.244  0.00  0.00    -0.329 N 
ATOM     13  C6  ZIN A   1      18.222  -2.801  10.505  0.00  0.00     0.317 C 
ATOM     14  N5  ZIN A   1      17.528  -3.824   9.966  0.00  0.00    -0.335 N 
ATOM     15  O7  ZIN A   1      19.173  -3.026  11.228  0.00  0.00    -0.247 OA
ATOM     16  H52 ZIN A   1      16.769  -3.644   9.389  0.00  0.00     0.165 HD
ATOM     17  H53 ZIN A   1      17.100  -1.350   9.668  0.00  0.00     0.165 HD
BRANCH  14  18
ATOM     18  C2  ZIN A   1      17.922  -5.206  10.250  0.00  0.00     0.023 C 
ATOM     19  C1  ZIN A   1      17.773  -5.481  11.748  0.00  0.00     0.037 C 
ATOM     20  C3  ZIN A   1      19.379  -5.417   9.835  0.00  0.00     0.037 C 
ATOM     21  C4  ZIN A   1      17.024  -6.164   9.464  0.00  0.00     0.037 C 
ENDBRANCH  14  18
ENDBRANCH  11  12
BRANCH  11  22
ATOM     22  C39 ZIN A   1      18.927   0.614   9.746  0.00  0.00    -0.022 C 
ATOM     23  C40 ZIN A   1      20.001   0.058   8.808  0.00  0.00     0.017 C 
ATOM     24  C41 ZIN A   1      17.659   0.916   8.947  0.00  0.00     0.017 C 
ATOM     25  C42 ZIN A   1      19.438   1.900  10.399  0.00  0.00     0.017 C 
ENDBRANCH  11  22
ENDBRANCH   1  11
BRANCH   7  26
ATOM     26  C21 ZIN A   1      17.915   2.576  14.413  0.00  0.00     0.241 C 
ATOM     27  O22 ZIN A   1      18.136   3.082  15.493  0.00  0.00    -0.271 OA
ATOM     28  N23 ZIN A   1      17.860   3.346  13.308  0.00  0.00    -0.347 N 
ATOM     29  H56 ZIN A   1      17.684   2.942  12.444  0.00  0.00     0.163 HD
BRANCH  28  30
ATOM     30  C24 ZIN A   1      18.068   4.793  13.412  0.00  0.00     0.165 C 
BRANCH  30  31
ATOM     31  C26 ZIN A   1      19.531   5.120  13.107  0.00  0.00     0.038 C 
BRANCH  31  32
ATOM     32  C27 ZIN A   1      20.101   5.999  14.221  0.00  0.00    -0.012 C 
ATOM     33  C30 ZIN A   1      20.725   5.201  15.378  0.00  0.00     0.005 C 
ATOM     34  C29 ZIN A   1      20.089   6.229  16.328  0.00  0.00     0.001 C 
ATOM     35  C28 ZIN A   1      19.043   6.480  15.229  0.00  0.00     0.005 C 
ENDBRANCH  31  32
ENDBRANCH  30  31
BRANCH  30  36
ATOM     36  C31 ZIN A   1      17.178   5.501  12.423  0.00  0.00     0.238 C 
ATOM     37  O32 ZIN A   1      16.571   6.490  12.759  0.00  0.00    -0.285 OA
BRANCH  36  38
ATOM     38  C33 ZIN A   1      17.049   4.983  11.032  0.00  0.00     0.287 C 
ATOM     39  N34 ZIN A   1      17.387   5.764   9.988  0.00  0.00    -0.363 N 
ATOM     40  H66 ZIN A   1      17.715   6.665  10.141  0.00  0.00     0.159 HD
ATOM     41  H67 ZIN A   1      17.303   5.427   9.082  0.00  0.00     0.159 HD
ATOM     42  O35 ZIN A   1      16.639   3.857  10.840  0.00  0.00    -0.265 OA
ENDBRANCH  36  38
ENDBRANCH  30  36
ENDBRANCH  28  30
ENDBRANCH   7  26
TORSDOF 10
ENDMDL
MODEL 9
REMARK VINA RESULT:      -8.2      2.154      5.369
REMARK  10 active torsions:
REMARK  status: ('A' for Active; 'I' for Inactive)
REMARK    1  A    between atoms: C2_2  and  N5_5 
REMARK       I    between atoms: N5_5  and  C6_6 
REMARK       I    between atoms: C6_6  and  N8_8 
REMARK    2  A    between atoms: N8_8  and  C9_9 
REMARK    3  A    between atoms: C9_9  and  C11_10 
REMARK    4  A    between atoms: C9_9  and  C39_34 
REMARK       I    between atoms: C11_10  and  N13_12 
REMARK    5  A    between atoms: C19_16  and  C21_17 
REMARK       I    between atoms: C21_17  and  N23_19 
REMARK    6  A    between atoms: N23_19  and  C24_20 
REMARK    7  A    between atoms: C24_20  and  C26_21 
REMARK    8  A    between atoms: C24_20  and  C31_26 
REMARK    9  A    between atoms: C26_21  and  C27_22 
REMARK   10  A    between atoms: C31_26  and  C33_28 
REMARK       I    between atoms: C33_28  and  N34_29 
ROOT
ATOM      1  C11 ZIN A   1      17.936  -0.838   9.222  0.00  0.00     0.244 C 
ATOM      2  O12 ZIN A   1      16.980  -0.095   9.289  0.00  0.00    -0.271 OA
ATOM      3  N13 ZIN A   1      18.476  -1.344  10.348  0.00  0.00    -0.336 N 
ATOM      4  C14 ZIN A   1      19.698  -2.171  10.478  0.00  0.00     0.132 C 
ATOM      5  C15 ZIN A   1      19.344  -3.225  11.549  0.00  0.00     0.019 A 
ATOM      6  C17 ZIN A   1      18.213  -2.584  12.380  0.00  0.00     0.032 A 
ATOM      7  C19 ZIN A   1      17.986  -1.193  11.739  0.00  0.00     0.184 C 
ATOM      8  C36 ZIN A   1      17.954  -3.861  11.502  0.00  0.00    -0.036 A 
ATOM      9  C37 ZIN A   1      17.132  -3.683  10.223  0.00  0.00     0.016 C 
ATOM     10  C38 ZIN A   1      17.754  -5.190  12.233  0.00  0.00     0.016 C 
ENDROOT
BRANCH   1  11
ATOM     11  C9  ZIN A   1      18.520  -1.196   7.880  0.00  0.00     0.185 C 
BRANCH  11  12
ATOM     12  N8  ZIN A   1      17.752  -2.296   7.291  0.00  0.00    -0.329 N 
ATOM     13  C6  ZIN A   1      18.298  -3.525   7.198  0.00  0.00     0.317 C 
ATOM     14  N5  ZIN A   1      17.590  -4.537   6.657  0.00  0.00    -0.335 N 
ATOM     15  O7  ZIN A   1      19.426  -3.721   7.603  0.00  0.00    -0.247 OA
ATOM     16  H52 ZIN A   1      16.689  -4.380   6.334  0.00  0.00     0.165 HD
ATOM     17  H53 ZIN A   1      16.851  -2.140   6.968  0.00  0.00     0.165 HD
BRANCH  14  18
ATOM     18  C2  ZIN A   1      18.184  -5.873   6.556  0.00  0.00     0.023 C 
ATOM     19  C1  ZIN A   1      17.695  -6.737   7.720  0.00  0.00     0.037 C 
ATOM     20  C3  ZIN A   1      19.708  -5.760   6.610  0.00  0.00     0.037 C 
ATOM     21  C4  ZIN A   1      17.766  -6.517   5.232  0.00  0.00     0.037 C 
ENDBRANCH  14  18
ENDBRANCH  11  12
BRANCH  11  22
ATOM     22  C39 ZIN A   1      18.458   0.022   6.956  0.00  0.00    -0.022 C 
ATOM     23  C40 ZIN A   1      19.353  -0.216   5.738  0.00  0.00     0.017 C 
ATOM     24  C41 ZIN A   1      17.016   0.239   6.494  0.00  0.00     0.017 C 
ATOM     25  C42 ZIN A   1      18.944   1.260   7.712  0.00  0.00     0.017 C 
ENDBRANCH  11  22
ENDBRANCH   1  11
BRANCH   7  26
ATOM     26  C21 ZIN A   1      18.775  -0.141  12.474  0.00  0.00     0.241 C 
ATOM     27  O22 ZIN A   1      19.984  -0.118  12.388  0.00  0.00    -0.271 OA
ATOM     28  N23 ZIN A   1      18.136   0.775  13.229  0.00  0.00    -0.347 N 
ATOM     29  H56 ZIN A   1      17.169   0.756  13.298  0.00  0.00     0.163 HD
BRANCH  28  30
ATOM     30  C24 ZIN A   1      18.903   1.798  13.944  0.00  0.00     0.165 C 
BRANCH  30  31
ATOM     31  C26 ZIN A   1      18.363   3.184  13.584  0.00  0.00     0.038 C 
BRANCH  31  32
ATOM     32  C27 ZIN A   1      17.805   3.161  12.160  0.00  0.00    -0.012 C 
ATOM     33  C30 ZIN A   1      18.852   3.493  11.083  0.00  0.00     0.005 C 
ATOM     34  C29 ZIN A   1      17.753   4.304  10.377  0.00  0.00     0.001 C 
ATOM     35  C28 ZIN A   1      17.092   4.463  11.757  0.00  0.00     0.005 C 
ENDBRANCH  31  32
ENDBRANCH  30  31
BRANCH  30  36
ATOM     36  C31 ZIN A   1      18.773   1.578  15.429  0.00  0.00     0.238 C 
ATOM     37  O32 ZIN A   1      19.118   2.442  16.200  0.00  0.00    -0.285 OA
BRANCH  36  38
ATOM     38  C33 ZIN A   1      18.216   0.297  15.947  0.00  0.00     0.287 C 
ATOM     39  N34 ZIN A   1      17.003   0.277  16.532  0.00  0.00    -0.363 N 
ATOM     40  H66 ZIN A   1      16.490   1.096  16.616  0.00  0.00     0.159 HD
ATOM     41  H67 ZIN A   1      16.640  -0.558  16.869  0.00  0.00     0.159 HD
ATOM     42  O35 ZIN A   1      18.856  -0.729  15.842  0.00  0.00    -0.265 OA
ENDBRANCH  36  38
ENDBRANCH  30  36
ENDBRANCH  28  30
ENDBRANCH   7  26
TORSDOF 10
ENDMDL
