MODEL 1
REMARK VINA RESULT:      -3.3      0.000      0.000
REMARK  1 active torsions:
REMARK  status: ('A' for Active; 'I' for Inactive)
REMARK    1  A    between atoms: C2_2  and  C4_4 
ROOT
ATOM      1  C1  ZIN A   1      18.726   2.821   9.659  0.00  0.00     0.103 C 
ATOM      2  C2  ZIN A   1      17.602   3.166  10.602  0.00  0.00     0.221 C 
ATOM      3  O3  ZIN A   1      17.135   2.317  11.323  0.00  0.00    -0.286 OA
ENDROOT
BRANCH   2   4
ATOM      4  C4  ZIN A   1      17.066   4.559  10.647  0.00  0.00     0.246 C 
ATOM      5  O5  ZIN A   1      16.229   4.865  11.480  0.00  0.00    -0.642 OA
ATOM      6  O6  ZIN A   1      17.465   5.392   9.848  0.00  0.00    -0.642 OA
ENDBRANCH   2   4
TORSDOF 1
ENDMDL
MODEL 2
REMARK VINA RESULT:      -3.3      7.408      8.088
REMARK  1 active torsions:
REMARK  status: ('A' for Active; 'I' for Inactive)
REMARK    1  A    between atoms: C2_2  and  C4_4 
ROOT
ATOM      1  C1  ZIN A   1      17.284  -0.189   6.026  0.00  0.00     0.103 C 
ATOM      2  C2  ZIN A   1      17.779  -1.209   5.034  0.00  0.00     0.221 C 
ATOM      3  O3  ZIN A   1      17.001  -1.754   4.287  0.00  0.00    -0.286 OA
ENDROOT
BRANCH   2   4
ATOM      4  C4  ZIN A   1      19.232  -1.549   4.974  0.00  0.00     0.246 C 
ATOM      5  O5  ZIN A   1      19.617  -2.651   5.330  0.00  0.00    -0.642 OA
ATOM      6  O6  ZIN A   1      20.035  -0.724   4.568  0.00  0.00    -0.642 OA
ENDBRANCH   2   4
TORSDOF 1
ENDMDL
MODEL 3
REMARK VINA RESULT:      -3.2      8.219      8.436
REMARK  1 active torsions:
REMARK  status: ('A' for Active; 'I' for Inactive)
REMARK    1  A    between atoms: C2_2  and  C4_4 
ROOT
ATOM      1  C1  ZIN A   1      17.042  -0.682  16.758  0.00  0.00     0.103 C 
ATOM      2  C2  ZIN A   1      18.446  -0.564  17.293  0.00  0.00     0.221 C 
ATOM      3  O3  ZIN A   1      19.307  -1.317  16.904  0.00  0.00    -0.286 OA
ENDROOT
BRANCH   2   4
ATOM      4  C4  ZIN A   1      18.775   0.484  18.304  0.00  0.00     0.246 C 
ATOM      5  O5  ZIN A   1      17.893   0.955  19.004  0.00  0.00    -0.642 OA
ATOM      6  O6  ZIN A   1      19.926   0.870  18.432  0.00  0.00    -0.642 OA
ENDBRANCH   2   4
TORSDOF 1
ENDMDL
MODEL 4
REMARK VINA RESULT:      -3.2      6.895      7.905
REMARK  1 active torsions:
REMARK  status: ('A' for Active; 'I' for Inactive)
REMARK    1  A    between atoms: C2_2  and  C4_4 
ROOT
ATOM      1  C1  ZIN A   1      18.142  -0.038   5.729  0.00  0.00     0.103 C 
ATOM      2  C2  ZIN A   1      19.199  -1.081   5.471  0.00  0.00     0.221 C 
ATOM      3  O3  ZIN A   1      19.966  -0.949   4.549  0.00  0.00    -0.286 OA
ENDROOT
BRANCH   2   4
ATOM      4  C4  ZIN A   1      19.296  -2.280   6.357  0.00  0.00     0.246 C 
ATOM      5  O5  ZIN A   1      18.661  -2.324   7.397  0.00  0.00    -0.642 OA
ATOM      6  O6  ZIN A   1      20.013  -3.216   6.039  0.00  0.00    -0.642 OA
ENDBRANCH   2   4
TORSDOF 1
ENDMDL
MODEL 5
REMARK VINA RESULT:      -3.1      6.205      7.202
REMARK  1 active torsions:
REMARK  status: ('A' for Active; 'I' for Inactive)
REMARK    1  A    between atoms: C2_2  and  C4_4 
ROOT
ATOM      1  C1  ZIN A   1      17.523  -0.194   7.049  0.00  0.00     0.103 C 
ATOM      2  C2  ZIN A   1      18.558   0.238   6.042  0.00  0.00     0.221 C 
ATOM      3  O3  ZIN A   1      19.177   1.261   6.211  0.00  0.00    -0.286 OA
ENDROOT
BRANCH   2   4
ATOM      4  C4  ZIN A   1      18.818  -0.600   4.833  0.00  0.00     0.246 C 
ATOM      5  O5  ZIN A   1      19.959  -0.930   4.553  0.00  0.00    -0.642 OA
ATOM      6  O6  ZIN A   1      17.889  -0.954   4.125  0.00  0.00    -0.642 OA
ENDBRANCH   2   4
TORSDOF 1
ENDMDL
MODEL 6
REMARK VINA RESULT:      -3.1      8.030      8.595
REMARK  1 active torsions:
REMARK  status: ('A' for Active; 'I' for Inactive)
REMARK    1  A    between atoms: C2_2  and  C4_4 
ROOT
ATOM      1  C1  ZIN A   1      17.608   1.342  18.709  0.00  0.00     0.103 C 
ATOM      2  C2  ZIN A   1      18.743   0.535  18.133  0.00  0.00     0.221 C 
ATOM      3  O3  ZIN A   1      19.885   0.819  18.404  0.00  0.00    -0.286 OA
ENDROOT
BRANCH   2   4
ATOM      4  C4  ZIN A   1      18.456  -0.617  17.227  0.00  0.00     0.246 C 
ATOM      5  O5  ZIN A   1      17.331  -0.778  16.782  0.00  0.00    -0.642 OA
ATOM      6  O6  ZIN A   1      19.347  -1.397  16.931  0.00  0.00    -0.642 OA
ENDBRANCH   2   4
TORSDOF 1
ENDMDL
MODEL 7
REMARK VINA RESULT:      -3.1      6.762      7.283
REMARK  1 active torsions:
REMARK  status: ('A' for Active; 'I' for Inactive)
REMARK    1  A    between atoms: C2_2  and  C4_4 
ROOT
ATOM      1  C1  ZIN A   1      18.480  -0.052  17.044  0.00  0.00     0.103 C 
ATOM      2  C2  ZIN A   1      19.257   1.142  17.536  0.00  0.00     0.221 C 
ATOM      3  O3  ZIN A   1      19.895   1.068  18.559  0.00  0.00    -0.286 OA
ENDROOT
BRANCH   2   4
ATOM      4  C4  ZIN A   1      19.239   2.417  16.758  0.00  0.00     0.246 C 
ATOM      5  O5  ZIN A   1      19.973   3.337  17.078  0.00  0.00    -0.642 OA
ATOM      6  O6  ZIN A   1      18.489   2.538  15.802  0.00  0.00    -0.642 OA
ENDBRANCH   2   4
TORSDOF 1
ENDMDL
MODEL 8
REMARK VINA RESULT:      -2.9      1.587      3.258
REMARK  1 active torsions:
REMARK  status: ('A' for Active; 'I' for Inactive)
REMARK    1  A    between atoms: C2_2  and  C4_4 
ROOT
ATOM      1  C1  ZIN A   1      18.722   2.640   9.608  0.00  0.00     0.103 C 
ATOM      2  C2  ZIN A   1      17.702   2.470  10.705  0.00  0.00     0.221 C 
ATOM      3  O3  ZIN A   1      17.000   3.399  11.026  0.00  0.00    -0.286 OA
ENDROOT
BRANCH   2   4
ATOM      4  C4  ZIN A   1      17.559   1.154  11.395  0.00  0.00     0.246 C 
ATOM      5  O5  ZIN A   1      18.493   0.694  12.032  0.00  0.00    -0.642 OA
ATOM      6  O6  ZIN A   1      16.508   0.537  11.321  0.00  0.00    -0.642 OA
ENDBRANCH   2   4
TORSDOF 1
ENDMDL
MODEL 9
REMARK VINA RESULT:      -2.9      4.019      4.962
REMARK  1 active torsions:
REMARK  status: ('A' for Active; 'I' for Inactive)
REMARK    1  A    between atoms: C2_2  and  C4_4 
ROOT
ATOM      1  C1  ZIN A   1      18.616  -1.593  13.253  0.00  0.00     0.103 C 
ATOM      2  C2  ZIN A   1      17.540  -1.331  12.230  0.00  0.00     0.221 C 
ATOM      3  O3  ZIN A   1      17.090  -2.243  11.578  0.00  0.00    -0.286 OA
ENDROOT
BRANCH   2   4
ATOM      4  C4  ZIN A   1      17.029   0.057  12.022  0.00  0.00     0.246 C 
ATOM      5  O5  ZIN A   1      17.693   1.013  12.388  0.00  0.00    -0.642 OA
ATOM      6  O6  ZIN A   1      15.947   0.235  11.485  0.00  0.00    -0.642 OA
ENDBRANCH   2   4
TORSDOF 1
ENDMDL
