MODEL 1
REMARK VINA RESULT:      -6.9      0.000      0.000
REMARK  8 active torsions:
REMARK  status: ('A' for Active; 'I' for Inactive)
REMARK    1  A    between atoms: C2_2  and  C3_3 
REMARK       I    between atoms: C3_3  and  N5_5 
REMARK    2  A    between atoms: N5_5  and  C6_6 
REMARK    3  A    between atoms: N5_5  and  C12_12 
REMARK    4  A    between atoms: C12_12  and  C13_13 
REMARK    5  A    between atoms: C13_13  and  O14_14 
REMARK    6  A    between atoms: N18_18  and  C19_19 
REMARK    7  A    between atoms: C19_19  and  C20_20 
REMARK    8  A    between atoms: C20_20  and  C21_21 
ROOT
ATOM      1  C12 ZIN A   1      18.051  -1.207  10.107  0.00  0.00     0.065 C 
ATOM      2  C16 ZIN A   1      16.915  -0.565   9.308  0.00  0.00     0.064 C 
ATOM      3  C17 ZIN A   1      17.504   0.221   8.135  0.00  0.00     0.275 C 
ATOM      4  N18 ZIN A   1      18.278  -0.683   7.276  0.00  0.00     0.088 N 
ATOM      5  C26 ZIN A   1      19.404  -1.277   8.010  0.00  0.00     0.275 C 
ATOM      6  C27 ZIN A   1      18.872  -2.108   9.179  0.00  0.00     0.064 C 
ENDROOT
BRANCH   1   7
ATOM      7  N5  ZIN A   1      18.913  -0.161  10.661  0.00  0.00    -0.306 N 
ATOM      8  C3  ZIN A   1      20.070  -0.494  11.269  0.00  0.00     0.224 C 
ATOM      9  O4  ZIN A   1      20.535  -1.603  11.121  0.00  0.00    -0.273 OA
BRANCH   8  10
ATOM     10  C2  ZIN A   1      20.785   0.515  12.131  0.00  0.00     0.099 C 
ATOM     11  C1  ZIN A   1      20.273   0.408  13.569  0.00  0.00     0.014 C 
ENDBRANCH   8  10
BRANCH   7  12
ATOM     12  C6  ZIN A   1      18.538   1.183  10.560  0.00  0.00     0.038 A 
ATOM     13  C11 ZIN A   1      19.124   1.999   9.601  0.00  0.00     0.030 A 
ATOM     14  C10 ZIN A   1      18.746   3.323   9.499  0.00  0.00     0.002 A 
ATOM     15  C9  ZIN A   1      17.795   3.841  10.360  0.00  0.00     0.000 A 
ATOM     16  C8  ZIN A   1      17.214   3.032  11.321  0.00  0.00     0.002 A 
ATOM     17  C7  ZIN A   1      17.583   1.705  11.422  0.00  0.00     0.030 A 
ENDBRANCH   7  12
ENDBRANCH   1   7
BRANCH   1  18
ATOM     18  C13 ZIN A   1      17.466  -2.044  11.246  0.00  0.00     0.198 C 
BRANCH  18  19
ATOM     19  O14 ZIN A   1      17.342  -3.404  10.824  0.00  0.00    -0.393 OA
ATOM     20  C15 ZIN A   1      17.812  -4.356  11.779  0.00  0.00     0.201 C 
ENDBRANCH  18  19
ENDBRANCH   1  18
BRANCH   4  21
ATOM     21  C19 ZIN A   1      18.745   0.007   6.066  0.00  0.00     0.277 C 
BRANCH  21  22
ATOM     22  C20 ZIN A   1      19.449  -0.993   5.147  0.00  0.00     0.076 C 
BRANCH  22  23
ATOM     23  C21 ZIN A   1      18.482  -2.079   4.752  0.00  0.00    -0.016 A 
ATOM     24  S25 ZIN A   1      18.646  -3.780   5.164  0.00  0.00    -0.106 SA
ATOM     25  C24 ZIN A   1      17.153  -4.160   4.317  0.00  0.00     0.050 A 
ATOM     26  C23 ZIN A   1      16.641  -3.046   3.791  0.00  0.00     0.008 A 
ATOM     27  C22 ZIN A   1      17.375  -1.898   4.031  0.00  0.00     0.015 A 
ENDBRANCH  22  23
ENDBRANCH  21  22
ENDBRANCH   4  21
TORSDOF 8
ENDMDL
MODEL 2
REMARK VINA RESULT:      -6.7      3.311      7.393
REMARK  8 active torsions:
REMARK  status: ('A' for Active; 'I' for Inactive)
REMARK    1  A    between atoms: C2_2  and  C3_3 
REMARK       I    between atoms: C3_3  and  N5_5 
REMARK    2  A    between atoms: N5_5  and  C6_6 
REMARK    3  A    between atoms: N5_5  and  C12_12 
REMARK    4  A    between atoms: C12_12  and  C13_13 
REMARK    5  A    between atoms: C13_13  and  O14_14 
REMARK    6  A    between atoms: N18_18  and  C19_19 
REMARK    7  A    between atoms: C19_19  and  C20_20 
REMARK    8  A    between atoms: C20_20  and  C21_21 
ROOT
ATOM      1  C12 ZIN A   1      18.253  -1.211   8.524  0.00  0.00     0.065 C 
ATOM      2  C16 ZIN A   1      17.357  -1.002   9.748  0.00  0.00     0.064 C 
ATOM      3  C17 ZIN A   1      18.172  -1.247  11.019  0.00  0.00     0.275 C 
ATOM      4  N18 ZIN A   1      19.309  -0.319  11.060  0.00  0.00     0.088 N 
ATOM      5  C26 ZIN A   1      20.210  -0.534   9.920  0.00  0.00     0.275 C 
ATOM      6  C27 ZIN A   1      19.456  -0.267   8.615  0.00  0.00     0.064 C 
ENDROOT
BRANCH   1   7
ATOM      7  N5  ZIN A   1      18.722  -2.598   8.492  0.00  0.00    -0.306 N 
ATOM      8  C3  ZIN A   1      19.510  -3.019   7.481  0.00  0.00     0.224 C 
ATOM      9  O4  ZIN A   1      20.055  -2.210   6.761  0.00  0.00    -0.273 OA
BRANCH   8  10
ATOM     10  C2  ZIN A   1      19.713  -4.494   7.249  0.00  0.00     0.099 C 
ATOM     11  C1  ZIN A   1      18.762  -4.972   6.150  0.00  0.00     0.014 C 
ENDBRANCH   8  10
BRANCH   7  12
ATOM     12  C6  ZIN A   1      18.353  -3.486   9.507  0.00  0.00     0.038 A 
ATOM     13  C11 ZIN A   1      19.275  -3.853  10.479  0.00  0.00     0.030 A 
ATOM     14  C10 ZIN A   1      18.906  -4.725  11.485  0.00  0.00     0.002 A 
ATOM     15  C9  ZIN A   1      17.624  -5.243  11.517  0.00  0.00     0.000 A 
ATOM     16  C8  ZIN A   1      16.705  -4.885  10.547  0.00  0.00     0.002 A 
ATOM     17  C7  ZIN A   1      17.067  -4.007   9.542  0.00  0.00     0.030 A 
ENDBRANCH   7  12
ENDBRANCH   1   7
BRANCH   1  18
ATOM     18  C13 ZIN A   1      17.461  -0.909   7.251  0.00  0.00     0.198 C 
BRANCH  18  19
ATOM     19  O14 ZIN A   1      17.947   0.299   6.662  0.00  0.00    -0.393 OA
ATOM     20  C15 ZIN A   1      18.188   0.206   5.257  0.00  0.00     0.201 C 
ENDBRANCH  18  19
ENDBRANCH   1  18
BRANCH   4  21
ATOM     21  C19 ZIN A   1      20.037  -0.431  12.332  0.00  0.00     0.277 C 
BRANCH  21  22
ATOM     22  C20 ZIN A   1      19.292  -1.389  13.264  0.00  0.00     0.076 C 
BRANCH  22  23
ATOM     23  C21 ZIN A   1      19.136  -0.751  14.620  0.00  0.00    -0.016 A 
ATOM     24  S25 ZIN A   1      19.153   0.980  14.933  0.00  0.00    -0.106 SA
ATOM     25  C24 ZIN A   1      18.919   0.701  16.654  0.00  0.00     0.050 A 
ATOM     26  C23 ZIN A   1      18.851  -0.611  16.889  0.00  0.00     0.008 A 
ATOM     27  C22 ZIN A   1      18.971  -1.412  15.766  0.00  0.00     0.015 A 
ENDBRANCH  22  23
ENDBRANCH  21  22
ENDBRANCH   4  21
TORSDOF 8
ENDMDL
MODEL 3
REMARK VINA RESULT:      -6.6      4.253      8.042
REMARK  8 active torsions:
REMARK  status: ('A' for Active; 'I' for Inactive)
REMARK    1  A    between atoms: C2_2  and  C3_3 
REMARK       I    between atoms: C3_3  and  N5_5 
REMARK    2  A    between atoms: N5_5  and  C6_6 
REMARK    3  A    between atoms: N5_5  and  C12_12 
REMARK    4  A    between atoms: C12_12  and  C13_13 
REMARK    5  A    between atoms: C13_13  and  O14_14 
REMARK    6  A    between atoms: N18_18  and  C19_19 
REMARK    7  A    between atoms: C19_19  and  C20_20 
REMARK    8  A    between atoms: C20_20  and  C21_21 
ROOT
ATOM      1  C12 ZIN A   1      19.315  -0.807  12.908  0.00  0.00     0.065 C 
ATOM      2  C16 ZIN A   1      20.315   0.064  13.673  0.00  0.00     0.064 C 
ATOM      3  C17 ZIN A   1      19.558   0.950  14.664  0.00  0.00     0.275 C 
ATOM      4  N18 ZIN A   1      18.802   0.108  15.599  0.00  0.00     0.088 N 
ATOM      5  C26 ZIN A   1      17.802  -0.704  14.892  0.00  0.00     0.275 C 
ATOM      6  C27 ZIN A   1      18.507  -1.641  13.908  0.00  0.00     0.064 C 
ENDROOT
BRANCH   1   7
ATOM      7  N5  ZIN A   1      18.408   0.047  12.138  0.00  0.00    -0.306 N 
ATOM      8  C3  ZIN A   1      17.378  -0.501  11.462  0.00  0.00     0.224 C 
ATOM      9  O4  ZIN A   1      17.031  -1.637  11.703  0.00  0.00    -0.273 OA
BRANCH   8  10
ATOM     10  C2  ZIN A   1      16.658   0.300  10.409  0.00  0.00     0.099 C 
ATOM     11  C1  ZIN A   1      17.341   0.091   9.055  0.00  0.00     0.014 C 
ENDBRANCH   8  10
BRANCH   7  12
ATOM     12  C6  ZIN A   1      18.610   1.431  12.104  0.00  0.00     0.038 A 
ATOM     13  C11 ZIN A   1      19.692   1.959  11.411  0.00  0.00     0.030 A 
ATOM     14  C10 ZIN A   1      19.885   3.327  11.374  0.00  0.00     0.002 A 
ATOM     15  C9  ZIN A   1      19.010   4.168  12.037  0.00  0.00     0.000 A 
ATOM     16  C8  ZIN A   1      17.936   3.644  12.733  0.00  0.00     0.002 A 
ATOM     17  C7  ZIN A   1      17.734   2.278  12.767  0.00  0.00     0.030 A 
ENDBRANCH   7  12
ENDBRANCH   1   7
BRANCH   1  18
ATOM     18  C13 ZIN A   1      20.070  -1.739  11.958  0.00  0.00     0.198 C 
BRANCH  18  19
ATOM     19  O14 ZIN A   1      19.826  -3.098  12.329  0.00  0.00    -0.393 OA
ATOM     20  C15 ZIN A   1      19.808  -4.008  11.228  0.00  0.00     0.201 C 
ENDBRANCH  18  19
ENDBRANCH   1  18
BRANCH   4  21
ATOM     21  C19 ZIN A   1      18.172   0.918  16.650  0.00  0.00     0.277 C 
BRANCH  21  22
ATOM     22  C20 ZIN A   1      19.240   1.755  17.358  0.00  0.00     0.076 C 
BRANCH  22  23
ATOM     23  C21 ZIN A   1      18.831   3.205  17.348  0.00  0.00    -0.016 A 
ATOM     24  S25 ZIN A   1      17.756   3.963  18.515  0.00  0.00    -0.106 SA
ATOM     25  C24 ZIN A   1      17.912   5.512  17.698  0.00  0.00     0.050 A 
ATOM     26  C23 ZIN A   1      18.716   5.381  16.642  0.00  0.00     0.008 A 
ATOM     27  C22 ZIN A   1      19.224   4.108  16.449  0.00  0.00     0.015 A 
ENDBRANCH  22  23
ENDBRANCH  21  22
ENDBRANCH   4  21
TORSDOF 8
ENDMDL
MODEL 4
REMARK VINA RESULT:      -6.6      3.753      7.976
REMARK  8 active torsions:
REMARK  status: ('A' for Active; 'I' for Inactive)
REMARK    1  A    between atoms: C2_2  and  C3_3 
REMARK       I    between atoms: C3_3  and  N5_5 
REMARK    2  A    between atoms: N5_5  and  C6_6 
REMARK    3  A    between atoms: N5_5  and  C12_12 
REMARK    4  A    between atoms: C12_12  and  C13_13 
REMARK    5  A    between atoms: C13_13  and  O14_14 
REMARK    6  A    between atoms: N18_18  and  C19_19 
REMARK    7  A    between atoms: C19_19  and  C20_20 
REMARK    8  A    between atoms: C20_20  and  C21_21 
ROOT
ATOM      1  C12 ZIN A   1      18.253   0.629  11.307  0.00  0.00     0.065 C 
ATOM      2  C16 ZIN A   1      17.282   0.041  12.334  0.00  0.00     0.064 C 
ATOM      3  C17 ZIN A   1      18.035  -0.936  13.240  0.00  0.00     0.275 C 
ATOM      4  N18 ZIN A   1      19.127  -0.231  13.922  0.00  0.00     0.088 N 
ATOM      5  C26 ZIN A   1      20.099   0.303  12.958  0.00  0.00     0.275 C 
ATOM      6  C27 ZIN A   1      19.407   1.317  12.044  0.00  0.00     0.064 C 
ENDROOT
BRANCH   1   7
ATOM      7  N5  ZIN A   1      18.783  -0.443  10.462  0.00  0.00    -0.306 N 
ATOM      8  C3  ZIN A   1      19.404  -0.143   9.303  0.00  0.00     0.224 C 
ATOM      9  O4  ZIN A   1      19.771   0.993   9.089  0.00  0.00    -0.273 OA
BRANCH   8  10
ATOM     10  C2  ZIN A   1      19.642  -1.219   8.276  0.00  0.00     0.099 C 
ATOM     11  C1  ZIN A   1      18.686  -1.018   7.097  0.00  0.00     0.014 C 
ENDBRANCH   8  10
BRANCH   7  12
ATOM     12  C6  ZIN A   1      18.645  -1.778  10.856  0.00  0.00     0.038 A 
ATOM     13  C11 ZIN A   1      17.402  -2.395  10.801  0.00  0.00     0.030 A 
ATOM     14  C10 ZIN A   1      17.270  -3.715  11.185  0.00  0.00     0.002 A 
ATOM     15  C9  ZIN A   1      18.372  -4.419  11.636  0.00  0.00     0.000 A 
ATOM     16  C8  ZIN A   1      19.610  -3.805  11.698  0.00  0.00     0.002 A 
ATOM     17  C7  ZIN A   1      19.749  -2.487  11.309  0.00  0.00     0.030 A 
ENDBRANCH   7  12
ENDBRANCH   1   7
BRANCH   1  18
ATOM     18  C13 ZIN A   1      17.521   1.652  10.437  0.00  0.00     0.198 C 
BRANCH  18  19
ATOM     19  O14 ZIN A   1      17.106   2.756  11.245  0.00  0.00    -0.393 OA
ATOM     20  C15 ZIN A   1      17.339   4.033  10.650  0.00  0.00     0.201 C 
ENDBRANCH  18  19
ENDBRANCH   1  18
BRANCH   4  21
ATOM     21  C19 ZIN A   1      19.787  -1.103  14.904  0.00  0.00     0.277 C 
BRANCH  21  22
ATOM     22  C20 ZIN A   1      18.736  -1.707  15.838  0.00  0.00     0.076 C 
BRANCH  22  23
ATOM     23  C21 ZIN A   1      18.306  -0.672  16.845  0.00  0.00    -0.016 A 
ATOM     24  S25 ZIN A   1      19.342   0.033  18.079  0.00  0.00    -0.106 SA
ATOM     25  C24 ZIN A   1      18.015   1.026  18.667  0.00  0.00     0.050 A 
ATOM     26  C23 ZIN A   1      16.919   0.782  17.947  0.00  0.00     0.008 A 
ATOM     27  C22 ZIN A   1      17.080  -0.156  16.941  0.00  0.00     0.015 A 
ENDBRANCH  22  23
ENDBRANCH  21  22
ENDBRANCH   4  21
TORSDOF 8
ENDMDL
MODEL 5
REMARK VINA RESULT:      -6.5      2.176      4.343
REMARK  8 active torsions:
REMARK  status: ('A' for Active; 'I' for Inactive)
REMARK    1  A    between atoms: C2_2  and  C3_3 
REMARK       I    between atoms: C3_3  and  N5_5 
REMARK    2  A    between atoms: N5_5  and  C6_6 
REMARK    3  A    between atoms: N5_5  and  C12_12 
REMARK    4  A    between atoms: C12_12  and  C13_13 
REMARK    5  A    between atoms: C13_13  and  O14_14 
REMARK    6  A    between atoms: N18_18  and  C19_19 
REMARK    7  A    between atoms: C19_19  and  C20_20 
REMARK    8  A    between atoms: C20_20  and  C21_21 
ROOT
ATOM      1  C12 ZIN A   1      19.263   0.612  10.194  0.00  0.00     0.065 C 
ATOM      2  C16 ZIN A   1      20.294  -0.156   9.362  0.00  0.00     0.064 C 
ATOM      3  C17 ZIN A   1      19.570  -1.141   8.442  0.00  0.00     0.275 C 
ATOM      4  N18 ZIN A   1      18.653  -0.407   7.561  0.00  0.00     0.088 N 
ATOM      5  C26 ZIN A   1      17.625   0.300   8.335  0.00  0.00     0.275 C 
ATOM      6  C27 ZIN A   1      18.291   1.329   9.251  0.00  0.00     0.064 C 
ENDROOT
BRANCH   1   7
ATOM      7  N5  ZIN A   1      18.522  -0.325  11.041  0.00  0.00    -0.306 N 
ATOM      8  C3  ZIN A   1      17.536   0.128  11.842  0.00  0.00     0.224 C 
ATOM      9  O4  ZIN A   1      17.075   1.236  11.669  0.00  0.00    -0.273 OA
BRANCH   8  10
ATOM     10  C2  ZIN A   1      17.008  -0.744  12.952  0.00  0.00     0.099 C 
ATOM     11  C1  ZIN A   1      17.792  -0.465  14.236  0.00  0.00     0.014 C 
ENDBRANCH   8  10
BRANCH   7  12
ATOM     12  C6  ZIN A   1      18.835  -1.688  11.019  0.00  0.00     0.038 A 
ATOM     13  C11 ZIN A   1      20.000  -2.143  11.623  0.00  0.00     0.030 A 
ATOM     14  C10 ZIN A   1      20.303  -3.491  11.606  0.00  0.00     0.002 A 
ATOM     15  C9  ZIN A   1      19.455  -4.384  10.976  0.00  0.00     0.000 A 
ATOM     16  C8  ZIN A   1      18.298  -3.932  10.368  0.00  0.00     0.002 A 
ATOM     17  C7  ZIN A   1      17.986  -2.586  10.388  0.00  0.00     0.030 A 
ENDBRANCH   7  12
ENDBRANCH   1   7
BRANCH   1  18
ATOM     18  C13 ZIN A   1      19.977   1.641  11.071  0.00  0.00     0.198 C 
BRANCH  18  19
ATOM     19  O14 ZIN A   1      19.611   2.958  10.655  0.00  0.00    -0.393 OA
ATOM     20  C15 ZIN A   1      19.373   3.865  11.734  0.00  0.00     0.201 C 
ENDBRANCH  18  19
ENDBRANCH   1  18
BRANCH   4  21
ATOM     21  C19 ZIN A   1      18.042  -1.304   6.571  0.00  0.00     0.277 C 
BRANCH  21  22
ATOM     22  C20 ZIN A   1      19.140  -2.012   5.776  0.00  0.00     0.076 C 
BRANCH  22  23
ATOM     23  C21 ZIN A   1      18.972  -3.504   5.905  0.00  0.00    -0.016 A 
ATOM     24  S25 ZIN A   1      17.788  -4.469   5.034  0.00  0.00    -0.106 SA
ATOM     25  C24 ZIN A   1      18.363  -5.935   5.817  0.00  0.00     0.050 A 
ATOM     26  C23 ZIN A   1      19.358  -5.635   6.653  0.00  0.00     0.008 A 
ATOM     27  C22 ZIN A   1      19.694  -4.293   6.701  0.00  0.00     0.015 A 
ENDBRANCH  22  23
ENDBRANCH  21  22
ENDBRANCH   4  21
TORSDOF 8
ENDMDL
MODEL 6
REMARK VINA RESULT:      -6.5      2.578      4.149
REMARK  8 active torsions:
REMARK  status: ('A' for Active; 'I' for Inactive)
REMARK    1  A    between atoms: C2_2  and  C3_3 
REMARK       I    between atoms: C3_3  and  N5_5 
REMARK    2  A    between atoms: N5_5  and  C6_6 
REMARK    3  A    between atoms: N5_5  and  C12_12 
REMARK    4  A    between atoms: C12_12  and  C13_13 
REMARK    5  A    between atoms: C13_13  and  O14_14 
REMARK    6  A    between atoms: N18_18  and  C19_19 
REMARK    7  A    between atoms: C19_19  and  C20_20 
REMARK    8  A    between atoms: C20_20  and  C21_21 
ROOT
ATOM      1  C12 ZIN A   1      18.218  -0.960  12.610  0.00  0.00     0.065 C 
ATOM      2  C16 ZIN A   1      17.235  -1.830  11.822  0.00  0.00     0.064 C 
ATOM      3  C17 ZIN A   1      18.015  -2.746  10.876  0.00  0.00     0.275 C 
ATOM      4  N18 ZIN A   1      18.928  -3.592  11.654  0.00  0.00     0.088 N 
ATOM      5  C26 ZIN A   1      19.913  -2.781  12.383  0.00  0.00     0.275 C 
ATOM      6  C27 ZIN A   1      19.189  -1.866  13.374  0.00  0.00     0.064 C 
ENDROOT
BRANCH   1   7
ATOM      7  N5  ZIN A   1      18.969  -0.109  11.685  0.00  0.00    -0.306 N 
ATOM      8  C3  ZIN A   1      19.900   0.744  12.161  0.00  0.00     0.224 C 
ATOM      9  O4  ZIN A   1      20.314   0.619  13.293  0.00  0.00    -0.273 OA
BRANCH   8  10
ATOM     10  C2  ZIN A   1      20.425   1.850  11.283  0.00  0.00     0.099 C 
ATOM     11  C1  ZIN A   1      19.703   3.156  11.623  0.00  0.00     0.014 C 
ENDBRANCH   8  10
BRANCH   7  12
ATOM     12  C6  ZIN A   1      18.723  -0.179  10.310  0.00  0.00     0.038 A 
ATOM     13  C11 ZIN A   1      19.660  -0.756   9.464  0.00  0.00     0.030 A 
ATOM     14  C10 ZIN A   1      19.410  -0.830   8.107  0.00  0.00     0.002 A 
ATOM     15  C9  ZIN A   1      18.234  -0.318   7.590  0.00  0.00     0.000 A 
ATOM     16  C8  ZIN A   1      17.301   0.263   8.430  0.00  0.00     0.002 A 
ATOM     17  C7  ZIN A   1      17.543   0.334   9.788  0.00  0.00     0.030 A 
ENDBRANCH   7  12
ENDBRANCH   1   7
BRANCH   1  18
ATOM     18  C13 ZIN A   1      17.448  -0.086  13.600  0.00  0.00     0.198 C 
BRANCH  18  19
ATOM     19  O14 ZIN A   1      17.691  -0.545  14.932  0.00  0.00    -0.393 OA
ATOM     20  C15 ZIN A   1      17.812   0.502  15.896  0.00  0.00     0.201 C 
ENDBRANCH  18  19
ENDBRANCH   1  18
BRANCH   4  21
ATOM     21  C19 ZIN A   1      19.595  -4.580  10.795  0.00  0.00     0.277 C 
BRANCH  21  22
ATOM     22  C20 ZIN A   1      18.547  -5.498  10.165  0.00  0.00     0.076 C 
BRANCH  22  23
ATOM     23  C21 ZIN A   1      18.729  -5.518   8.669  0.00  0.00    -0.016 A 
ATOM     24  S25 ZIN A   1      17.960  -6.654   7.569  0.00  0.00    -0.106 SA
ATOM     25  C24 ZIN A   1      18.748  -5.899   6.191  0.00  0.00     0.050 A 
ATOM     26  C23 ZIN A   1      19.513  -4.890   6.610  0.00  0.00     0.008 A 
ATOM     27  C22 ZIN A   1      19.503  -4.680   7.978  0.00  0.00     0.015 A 
ENDBRANCH  22  23
ENDBRANCH  21  22
ENDBRANCH   4  21
TORSDOF 8
ENDMDL
MODEL 7
REMARK VINA RESULT:      -6.3      2.876      6.810
REMARK  8 active torsions:
REMARK  status: ('A' for Active; 'I' for Inactive)
REMARK    1  A    between atoms: C2_2  and  C3_3 
REMARK       I    between atoms: C3_3  and  N5_5 
REMARK    2  A    between atoms: N5_5  and  C6_6 
REMARK    3  A    between atoms: N5_5  and  C12_12 
REMARK    4  A    between atoms: C12_12  and  C13_13 
REMARK    5  A    between atoms: C13_13  and  O14_14 
REMARK    6  A    between atoms: N18_18  and  C19_19 
REMARK    7  A    between atoms: C19_19  and  C20_20 
REMARK    8  A    between atoms: C20_20  and  C21_21 
ROOT
ATOM      1  C12 ZIN A   1      18.284  -1.456   8.153  0.00  0.00     0.065 C 
ATOM      2  C16 ZIN A   1      17.344  -1.163   9.325  0.00  0.00     0.064 C 
ATOM      3  C17 ZIN A   1      18.107  -1.333  10.640  0.00  0.00     0.275 C 
ATOM      4  N18 ZIN A   1      19.250  -0.413  10.667  0.00  0.00     0.088 N 
ATOM      5  C26 ZIN A   1      20.192  -0.705   9.578  0.00  0.00     0.275 C 
ATOM      6  C27 ZIN A   1      19.491  -0.516   8.231  0.00  0.00     0.064 C 
ENDROOT
BRANCH   1   7
ATOM      7  N5  ZIN A   1      18.741  -2.846   8.226  0.00  0.00    -0.306 N 
ATOM      8  C3  ZIN A   1      19.558  -3.336   7.272  0.00  0.00     0.224 C 
ATOM      9  O4  ZIN A   1      20.135  -2.580   6.520  0.00  0.00    -0.273 OA
BRANCH   8  10
ATOM     10  C2  ZIN A   1      19.755  -4.825   7.143  0.00  0.00     0.099 C 
ATOM     11  C1  ZIN A   1      18.743  -5.387   6.143  0.00  0.00     0.014 C 
ENDBRANCH   8  10
BRANCH   7  12
ATOM     12  C6  ZIN A   1      18.330  -3.663   9.284  0.00  0.00     0.038 A 
ATOM     13  C11 ZIN A   1      17.037  -4.169   9.311  0.00  0.00     0.030 A 
ATOM     14  C10 ZIN A   1      16.637  -4.982  10.354  0.00  0.00     0.002 A 
ATOM     15  C9  ZIN A   1      17.518  -5.279  11.378  0.00  0.00     0.000 A 
ATOM     16  C8  ZIN A   1      18.805  -4.771  11.357  0.00  0.00     0.002 A 
ATOM     17  C7  ZIN A   1      19.213  -3.964  10.313  0.00  0.00     0.030 A 
ENDBRANCH   7  12
ENDBRANCH   1   7
BRANCH   1  18
ATOM     18  C13 ZIN A   1      17.544  -1.229   6.833  0.00  0.00     0.198 C 
BRANCH  18  19
ATOM     19  O14 ZIN A   1      18.039  -0.044   6.207  0.00  0.00    -0.393 OA
ATOM     20  C15 ZIN A   1      18.361  -0.207   4.825  0.00  0.00     0.201 C 
ENDBRANCH  18  19
ENDBRANCH   1  18
BRANCH   4  21
ATOM     21  C19 ZIN A   1      19.927  -0.449  11.971  0.00  0.00     0.277 C 
BRANCH  21  22
ATOM     22  C20 ZIN A   1      20.577   0.908  12.247  0.00  0.00     0.076 C 
BRANCH  22  23
ATOM     23  C21 ZIN A   1      19.552   2.000  12.076  0.00  0.00    -0.016 A 
ATOM     24  S25 ZIN A   1      18.040   2.118  12.967  0.00  0.00    -0.106 SA
ATOM     25  C24 ZIN A   1      17.618   3.596  12.112  0.00  0.00     0.050 A 
ATOM     26  C23 ZIN A   1      18.582   3.901  11.242  0.00  0.00     0.008 A 
ATOM     27  C22 ZIN A   1      19.650   3.020  11.223  0.00  0.00     0.015 A 
ENDBRANCH  22  23
ENDBRANCH  21  22
ENDBRANCH   4  21
TORSDOF 8
ENDMDL
MODEL 8
REMARK VINA RESULT:      -6.2      3.830      7.516
REMARK  8 active torsions:
REMARK  status: ('A' for Active; 'I' for Inactive)
REMARK    1  A    between atoms: C2_2  and  C3_3 
REMARK       I    between atoms: C3_3  and  N5_5 
REMARK    2  A    between atoms: N5_5  and  C6_6 
REMARK    3  A    between atoms: N5_5  and  C12_12 
REMARK    4  A    between atoms: C12_12  and  C13_13 
REMARK    5  A    between atoms: C13_13  and  O14_14 
REMARK    6  A    between atoms: N18_18  and  C19_19 
REMARK    7  A    between atoms: C19_19  and  C20_20 
REMARK    8  A    between atoms: C20_20  and  C21_21 
ROOT
ATOM      1  C12 ZIN A   1      18.148   1.017  10.465  0.00  0.00     0.065 C 
ATOM      2  C16 ZIN A   1      17.198   1.828  11.350  0.00  0.00     0.064 C 
ATOM      3  C17 ZIN A   1      18.017   2.717  12.288  0.00  0.00     0.275 C 
ATOM      4  N18 ZIN A   1      18.863   3.618  11.496  0.00  0.00     0.088 N 
ATOM      5  C26 ZIN A   1      19.817   2.863  10.671  0.00  0.00     0.275 C 
ATOM      6  C27 ZIN A   1      19.051   1.978   9.685  0.00  0.00     0.064 C 
ENDROOT
BRANCH   1   7
ATOM      7  N5  ZIN A   1      18.971   0.142  11.301  0.00  0.00    -0.306 N 
ATOM      8  C3  ZIN A   1      19.908  -0.645  10.734  0.00  0.00     0.224 C 
ATOM      9  O4  ZIN A   1      20.264  -0.438   9.594  0.00  0.00    -0.273 OA
BRANCH   8  10
ATOM     10  C2  ZIN A   1      20.513  -1.780  11.518  0.00  0.00     0.099 C 
ATOM     11  C1  ZIN A   1      19.743  -3.069  11.224  0.00  0.00     0.014 C 
ENDBRANCH   8  10
BRANCH   7  12
ATOM     12  C6  ZIN A   1      18.787   0.121  12.687  0.00  0.00     0.038 A 
ATOM     13  C11 ZIN A   1      19.715   0.731  13.522  0.00  0.00     0.030 A 
ATOM     14  C10 ZIN A   1      19.526   0.715  14.890  0.00  0.00     0.002 A 
ATOM     15  C9  ZIN A   1      18.422   0.081  15.430  0.00  0.00     0.000 A 
ATOM     16  C8  ZIN A   1      17.500  -0.533  14.602  0.00  0.00     0.002 A 
ATOM     17  C7  ZIN A   1      17.680  -0.514  13.232  0.00  0.00     0.030 A 
ENDBRANCH   7  12
ENDBRANCH   1   7
BRANCH   1  18
ATOM     18  C13 ZIN A   1      17.335   0.171   9.483  0.00  0.00     0.198 C 
BRANCH  18  19
ATOM     19  O14 ZIN A   1      17.582   0.618   8.149  0.00  0.00    -0.393 OA
ATOM     20  C15 ZIN A   1      17.492  -0.411   7.163  0.00  0.00     0.201 C 
ENDBRANCH  18  19
ENDBRANCH   1  18
BRANCH   4  21
ATOM     21  C19 ZIN A   1      19.562   4.581  12.358  0.00  0.00     0.277 C 
BRANCH  21  22
ATOM     22  C20 ZIN A   1      19.038   4.459  13.790  0.00  0.00     0.076 C 
BRANCH  22  23
ATOM     23  C21 ZIN A   1      18.332   5.733  14.177  0.00  0.00    -0.016 A 
ATOM     24  S25 ZIN A   1      16.698   6.172  13.697  0.00  0.00    -0.106 SA
ATOM     25  C24 ZIN A   1      16.814   7.688  14.580  0.00  0.00     0.050 A 
ATOM     26  C23 ZIN A   1      18.015   7.781  15.153  0.00  0.00     0.008 A 
ATOM     27  C22 ZIN A   1      18.853   6.702  14.930  0.00  0.00     0.015 A 
ENDBRANCH  22  23
ENDBRANCH  21  22
ENDBRANCH   4  21
TORSDOF 8
ENDMDL
MODEL 9
REMARK VINA RESULT:      -6.2      2.957      6.403
REMARK  8 active torsions:
REMARK  status: ('A' for Active; 'I' for Inactive)
REMARK    1  A    between atoms: C2_2  and  C3_3 
REMARK       I    between atoms: C3_3  and  N5_5 
REMARK    2  A    between atoms: N5_5  and  C6_6 
REMARK    3  A    between atoms: N5_5  and  C12_12 
REMARK    4  A    between atoms: C12_12  and  C13_13 
REMARK    5  A    between atoms: C13_13  and  O14_14 
REMARK    6  A    between atoms: N18_18  and  C19_19 
REMARK    7  A    between atoms: C19_19  and  C20_20 
REMARK    8  A    between atoms: C20_20  and  C21_21 
ROOT
ATOM      1  C12 ZIN A   1      18.939  -1.950   8.296  0.00  0.00     0.065 C 
ATOM      2  C16 ZIN A   1      17.824  -1.156   7.612  0.00  0.00     0.064 C 
ATOM      3  C17 ZIN A   1      17.177  -0.214   8.630  0.00  0.00     0.275 C 
ATOM      4  N18 ZIN A   1      18.192   0.700   9.168  0.00  0.00     0.088 N 
ATOM      5  C26 ZIN A   1      19.250  -0.038   9.871  0.00  0.00     0.275 C 
ATOM      6  C27 ZIN A   1      19.959  -0.974   8.890  0.00  0.00     0.064 C 
ENDROOT
BRANCH   1   7
ATOM      7  N5  ZIN A   1      18.370  -2.774   9.365  0.00  0.00    -0.306 N 
ATOM      8  C3  ZIN A   1      17.597  -3.836   9.059  0.00  0.00     0.224 C 
ATOM      9  O4  ZIN A   1      17.595  -4.277   7.929  0.00  0.00    -0.273 OA
BRANCH   8  10
ATOM     10  C2  ZIN A   1      16.739  -4.474  10.120  0.00  0.00     0.099 C 
ATOM     11  C1  ZIN A   1      17.261  -5.880  10.420  0.00  0.00     0.014 C 
ENDBRANCH   8  10
BRANCH   7  12
ATOM     12  C6  ZIN A   1      18.627  -2.460  10.704  0.00  0.00     0.038 A 
ATOM     13  C11 ZIN A   1      19.835  -2.825  11.284  0.00  0.00     0.030 A 
ATOM     14  C10 ZIN A   1      20.089  -2.507  12.605  0.00  0.00     0.002 A 
ATOM     15  C9  ZIN A   1      19.137  -1.839  13.352  0.00  0.00     0.000 A 
ATOM     16  C8  ZIN A   1      17.930  -1.479  12.778  0.00  0.00     0.002 A 
ATOM     17  C7  ZIN A   1      17.674  -1.788  11.457  0.00  0.00     0.030 A 
ENDBRANCH   7  12
ENDBRANCH   1   7
BRANCH   1  18
ATOM     18  C13 ZIN A   1      19.630  -2.850   7.270  0.00  0.00     0.198 C 
BRANCH  18  19
ATOM     19  O14 ZIN A   1      19.566  -2.240   5.980  0.00  0.00    -0.393 OA
ATOM     20  C15 ZIN A   1      19.064  -3.098   4.954  0.00  0.00     0.201 C 
ENDBRANCH  18  19
ENDBRANCH   1  18
BRANCH   4  21
ATOM     21  C19 ZIN A   1      17.583   1.709  10.046  0.00  0.00     0.277 C 
BRANCH  21  22
ATOM     22  C20 ZIN A   1      18.416   2.991  10.005  0.00  0.00     0.076 C 
BRANCH  22  23
ATOM     23  C21 ZIN A   1      17.956   3.924  11.095  0.00  0.00    -0.016 A 
ATOM     24  S25 ZIN A   1      18.812   4.220  12.602  0.00  0.00    -0.106 SA
ATOM     25  C24 ZIN A   1      17.567   5.349  13.122  0.00  0.00     0.050 A 
ATOM     26  C23 ZIN A   1      16.620   5.432  12.186  0.00  0.00     0.008 A 
ATOM     27  C22 ZIN A   1      16.835   4.645  11.067  0.00  0.00     0.015 A 
ENDBRANCH  22  23
ENDBRANCH  21  22
ENDBRANCH   4  21
TORSDOF 8
ENDMDL
