MODEL 1
REMARK VINA RESULT:      -7.8      0.000      0.000
REMARK  11 active torsions:
REMARK  status: ('A' for Active; 'I' for Inactive)
REMARK    1  A    between atoms: C2_2  and  C3_3 
REMARK    2  A    between atoms: C3_3  and  N4_4 
REMARK    3  A    between atoms: N4_4  and  S5_5 
REMARK    4  A    between atoms: S5_5  and  N8_8 
REMARK    5  A    between atoms: N8_8  and  C9_9 
REMARK    6  A    between atoms: C13_13  and  O14_14 
REMARK    7  A    between atoms: O14_14  and  C15_15 
REMARK    8  A    between atoms: C15_15  and  C16_16 
REMARK    9  A    between atoms: C16_16  and  O17_17 
REMARK   10  A    between atoms: O17_17  and  C18_18 
REMARK   11  A    between atoms: C25_25  and  C26_26 
ROOT
ATOM      1  C9  ZIN A   1      18.766   3.455  14.864  0.00  0.00     0.155 A 
ATOM      2  N10 ZIN A   1      18.545   4.732  15.165  0.00  0.00    -0.223 NA
ATOM      3  C11 ZIN A   1      17.891   5.520  14.337  0.00  0.00     0.238 A 
ATOM      4  N12 ZIN A   1      17.427   5.093  13.181  0.00  0.00    -0.217 NA
ATOM      5  C13 ZIN A   1      17.600   3.833  12.796  0.00  0.00     0.180 A 
ATOM      6  C25 ZIN A   1      18.294   2.957  13.639  0.00  0.00     0.074 A 
ENDROOT
BRANCH   5   7
ATOM      7  O14 ZIN A   1      17.117   3.404  11.605  0.00  0.00    -0.332 OA
BRANCH   7   8
ATOM      8  C15 ZIN A   1      17.743   3.919  10.428  0.00  0.00     0.204 C 
BRANCH   8   9
ATOM      9  C16 ZIN A   1      18.489   2.792   9.712  0.00  0.00     0.205 C 
BRANCH   9  10
ATOM     10  O17 ZIN A   1      17.728   1.585   9.799  0.00  0.00    -0.317 OA
BRANCH  10  11
ATOM     11  C18 ZIN A   1      18.043   0.594   8.932  0.00  0.00     0.268 A 
ATOM     12  N24 ZIN A   1      17.780  -0.660   9.261  0.00  0.00    -0.218 NA
ATOM     13  C23 ZIN A   1      18.071  -1.652   8.435  0.00  0.00     0.141 A 
ATOM     14  C21 ZIN A   1      18.667  -1.364   7.217  0.00  0.00     0.046 A 
ATOM     15  C20 ZIN A   1      18.933  -0.039   6.907  0.00  0.00     0.141 A 
ATOM     16 Br22 ZIN A   1      19.108  -2.748   6.007  0.00  0.00    -0.048 Br
ATOM     17  N19 ZIN A   1      18.612   0.903   7.778  0.00  0.00    -0.218 NA
ENDBRANCH  10  11
ENDBRANCH   9  10
ENDBRANCH   8   9
ENDBRANCH   7   8
ENDBRANCH   5   7
BRANCH   6  18
ATOM     18  C26 ZIN A   1      18.514   1.541  13.255  0.00  0.00    -0.018 A 
ATOM     19  C32 ZIN A   1      19.752   1.136  12.760  0.00  0.00     0.014 A 
ATOM     20  C31 ZIN A   1      19.953  -0.184  12.410  0.00  0.00     0.020 A 
ATOM     21  C29 ZIN A   1      18.924  -1.101  12.539  0.00  0.00     0.011 A 
ATOM     22  C28 ZIN A   1      17.691  -0.701  13.025  0.00  0.00     0.020 A 
ATOM     23 Br30 ZIN A   1      19.204  -2.907  12.050  0.00  0.00    -0.051 Br
ATOM     24  C27 ZIN A   1      17.481   0.614  13.384  0.00  0.00     0.014 A 
ENDBRANCH   6  18
BRANCH   1  25
ATOM     25  N8  ZIN A   1      19.455   2.633  15.740  0.00  0.00    -0.251 N 
ATOM     26  H41 ZIN A   1      20.309   2.254  15.479  0.00  0.00     0.182 HD
BRANCH  25  27
ATOM     27  S5  ZIN A   1      18.822   2.300  17.233  0.00  0.00     0.320 S 
ATOM     28  O6  ZIN A   1      18.246   3.510  17.705  0.00  0.00    -0.182 OA
ATOM     29  O7  ZIN A   1      19.824   1.588  17.945  0.00  0.00    -0.182 OA
BRANCH  27  30
ATOM     30  N4  ZIN A   1      17.567   1.241  17.009  0.00  0.00    -0.303 N 
ATOM     31  H40 ZIN A   1      16.826   1.484  16.434  0.00  0.00     0.173 HD
BRANCH  30  32
ATOM     32  C3  ZIN A   1      17.580  -0.061  17.678  0.00  0.00     0.133 C 
BRANCH  32  33
ATOM     33  C2  ZIN A   1      17.611  -1.174  16.628  0.00  0.00     0.016 C 
ATOM     34  C1  ZIN A   1      19.063  -1.510  16.284  0.00  0.00     0.006 C 
ENDBRANCH  32  33
ENDBRANCH  30  32
ENDBRANCH  27  30
ENDBRANCH  25  27
ENDBRANCH   1  25
TORSDOF 11
ENDMDL
MODEL 2
REMARK VINA RESULT:      -7.7      4.217      7.791
REMARK  11 active torsions:
REMARK  status: ('A' for Active; 'I' for Inactive)
REMARK    1  A    between atoms: C2_2  and  C3_3 
REMARK    2  A    between atoms: C3_3  and  N4_4 
REMARK    3  A    between atoms: N4_4  and  S5_5 
REMARK    4  A    between atoms: S5_5  and  N8_8 
REMARK    5  A    between atoms: N8_8  and  C9_9 
REMARK    6  A    between atoms: C13_13  and  O14_14 
REMARK    7  A    between atoms: O14_14  and  C15_15 
REMARK    8  A    between atoms: C15_15  and  C16_16 
REMARK    9  A    between atoms: C16_16  and  O17_17 
REMARK   10  A    between atoms: O17_17  and  C18_18 
REMARK   11  A    between atoms: C25_25  and  C26_26 
ROOT
ATOM      1  C9  ZIN A   1      19.541  -2.640   6.938  0.00  0.00     0.155 A 
ATOM      2  N10 ZIN A   1      19.614  -2.668   5.609  0.00  0.00    -0.223 NA
ATOM      3  C11 ZIN A   1      19.229  -1.635   4.888  0.00  0.00     0.238 A 
ATOM      4  N12 ZIN A   1      18.757  -0.533   5.434  0.00  0.00    -0.217 NA
ATOM      5  C13 ZIN A   1      18.648  -0.415   6.754  0.00  0.00     0.180 A 
ATOM      6  C25 ZIN A   1      19.038  -1.488   7.564  0.00  0.00     0.074 A 
ENDROOT
BRANCH   5   7
ATOM      7  O14 ZIN A   1      18.162   0.723   7.305  0.00  0.00    -0.332 OA
BRANCH   7   8
ATOM      8  C15 ZIN A   1      19.061   1.829   7.409  0.00  0.00     0.204 C 
BRANCH   8   9
ATOM      9  C16 ZIN A   1      19.265   2.183   8.883  0.00  0.00     0.205 C 
BRANCH   9  10
ATOM     10  O17 ZIN A   1      18.015   2.103   9.571  0.00  0.00    -0.317 OA
BRANCH  10  11
ATOM     11  C18 ZIN A   1      17.919   2.759  10.753  0.00  0.00     0.268 A 
ATOM     12  N24 ZIN A   1      17.078   3.775  10.860  0.00  0.00    -0.218 NA
ATOM     13  C23 ZIN A   1      16.955   4.433  12.001  0.00  0.00     0.141 A 
ATOM     14  C21 ZIN A   1      17.729   4.054  13.087  0.00  0.00     0.046 A 
ATOM     15  C20 ZIN A   1      18.603   2.988  12.936  0.00  0.00     0.141 A 
ATOM     16 Br22 ZIN A   1      17.596   4.969  14.736  0.00  0.00    -0.048 Br
ATOM     17  N19 ZIN A   1      18.672   2.371  11.768  0.00  0.00    -0.218 NA
ENDBRANCH  10  11
ENDBRANCH   9  10
ENDBRANCH   8   9
ENDBRANCH   7   8
ENDBRANCH   5   7
BRANCH   6  18
ATOM     18  C26 ZIN A   1      18.936  -1.405   9.041  0.00  0.00    -0.018 A 
ATOM     19  C32 ZIN A   1      20.061  -1.092   9.803  0.00  0.00     0.014 A 
ATOM     20  C31 ZIN A   1      19.960  -1.011  11.177  0.00  0.00     0.020 A 
ATOM     21  C29 ZIN A   1      18.746  -1.252  11.799  0.00  0.00     0.011 A 
ATOM     22  C28 ZIN A   1      17.628  -1.568  11.046  0.00  0.00     0.020 A 
ATOM     23 Br30 ZIN A   1      18.616  -1.147  13.683  0.00  0.00    -0.051 Br
ATOM     24  C27 ZIN A   1      17.717  -1.646   9.672  0.00  0.00     0.014 A 
ENDBRANCH   6  18
BRANCH   1  25
ATOM     25  N8  ZIN A   1      19.947  -3.730   7.688  0.00  0.00    -0.251 N 
ATOM     26  H41 ZIN A   1      20.796  -3.704   8.158  0.00  0.00     0.182 HD
BRANCH  25  27
ATOM     27  S5  ZIN A   1      18.987  -5.075   7.784  0.00  0.00     0.320 S 
ATOM     28  O6  ZIN A   1      19.575  -6.049   6.931  0.00  0.00    -0.182 OA
ATOM     29  O7  ZIN A   1      17.648  -4.624   7.640  0.00  0.00    -0.182 OA
BRANCH  27  30
ATOM     30  N4  ZIN A   1      19.120  -5.663   9.327  0.00  0.00    -0.303 N 
ATOM     31  H40 ZIN A   1      18.849  -6.573   9.524  0.00  0.00     0.173 HD
BRANCH  30  32
ATOM     32  C3  ZIN A   1      19.647  -4.809  10.393  0.00  0.00     0.133 C 
BRANCH  32  33
ATOM     33  C2  ZIN A   1      18.730  -4.891  11.614  0.00  0.00     0.016 C 
ATOM     34  C1  ZIN A   1      17.327  -5.314  11.171  0.00  0.00     0.006 C 
ENDBRANCH  32  33
ENDBRANCH  30  32
ENDBRANCH  27  30
ENDBRANCH  25  27
ENDBRANCH   1  25
TORSDOF 11
ENDMDL
MODEL 3
REMARK VINA RESULT:      -7.6      3.360      6.919
REMARK  11 active torsions:
REMARK  status: ('A' for Active; 'I' for Inactive)
REMARK    1  A    between atoms: C2_2  and  C3_3 
REMARK    2  A    between atoms: C3_3  and  N4_4 
REMARK    3  A    between atoms: N4_4  and  S5_5 
REMARK    4  A    between atoms: S5_5  and  N8_8 
REMARK    5  A    between atoms: N8_8  and  C9_9 
REMARK    6  A    between atoms: C13_13  and  O14_14 
REMARK    7  A    between atoms: O14_14  and  C15_15 
REMARK    8  A    between atoms: C15_15  and  C16_16 
REMARK    9  A    between atoms: C16_16  and  O17_17 
REMARK   10  A    between atoms: O17_17  and  C18_18 
REMARK   11  A    between atoms: C25_25  and  C26_26 
ROOT
ATOM      1  C9  ZIN A   1      19.476   0.286   9.140  0.00  0.00     0.155 A 
ATOM      2  N10 ZIN A   1      19.497   0.900   7.959  0.00  0.00    -0.223 NA
ATOM      3  C11 ZIN A   1      19.053   2.133   7.828  0.00  0.00     0.238 A 
ATOM      4  N12 ZIN A   1      18.570   2.817   8.845  0.00  0.00    -0.217 NA
ATOM      5  C13 ZIN A   1      18.510   2.286  10.062  0.00  0.00     0.180 A 
ATOM      6  C25 ZIN A   1      18.964   0.975  10.251  0.00  0.00     0.074 A 
ENDROOT
BRANCH   5   7
ATOM      7  O14 ZIN A   1      18.012   2.999  11.101  0.00  0.00    -0.332 OA
BRANCH   7   8
ATOM      8  C15 ZIN A   1      18.479   4.340  11.250  0.00  0.00     0.204 C 
BRANCH   8   9
ATOM      9  C16 ZIN A   1      19.639   4.369  12.247  0.00  0.00     0.205 C 
BRANCH   9  10
ATOM     10  O17 ZIN A   1      19.218   5.013  13.451  0.00  0.00    -0.317 OA
BRANCH  10  11
ATOM     11  C18 ZIN A   1      19.157   4.250  14.569  0.00  0.00     0.268 A 
ATOM     12  N24 ZIN A   1      19.747   4.676  15.673  0.00  0.00    -0.218 NA
ATOM     13  C23 ZIN A   1      19.703   3.958  16.784  0.00  0.00     0.141 A 
ATOM     14  C21 ZIN A   1      19.037   2.742  16.776  0.00  0.00     0.046 A 
ATOM     15  C20 ZIN A   1      18.434   2.325  15.599  0.00  0.00     0.141 A 
ATOM     16 Br22 ZIN A   1      18.952   1.676  18.336  0.00  0.00    -0.048 Br
ATOM     17  N19 ZIN A   1      18.513   3.095  14.526  0.00  0.00    -0.218 NA
ENDBRANCH  10  11
ENDBRANCH   9  10
ENDBRANCH   8   9
ENDBRANCH   7   8
ENDBRANCH   5   7
BRANCH   6  18
ATOM     18  C26 ZIN A   1      18.918   0.337  11.589  0.00  0.00    -0.018 A 
ATOM     19  C32 ZIN A   1      20.029   0.396  12.430  0.00  0.00     0.014 A 
ATOM     20  C31 ZIN A   1      19.979  -0.195  13.676  0.00  0.00     0.020 A 
ATOM     21  C29 ZIN A   1      18.833  -0.854  14.087  0.00  0.00     0.011 A 
ATOM     22  C28 ZIN A   1      17.730  -0.919  13.253  0.00  0.00     0.020 A 
ATOM     23 Br30 ZIN A   1      18.774  -1.668  15.793  0.00  0.00    -0.051 Br
ATOM     24  C27 ZIN A   1      17.766  -0.327  12.007  0.00  0.00     0.014 A 
ENDBRANCH   6  18
BRANCH   1  25
ATOM     25  N8  ZIN A   1      19.945  -1.010   9.268  0.00  0.00    -0.251 N 
ATOM     26  H41 ZIN A   1      20.778  -1.179   9.737  0.00  0.00     0.182 HD
BRANCH  25  27
ATOM     27  S5  ZIN A   1      19.086  -2.270   8.623  0.00  0.00     0.320 S 
ATOM     28  O6  ZIN A   1      19.640  -2.516   7.337  0.00  0.00    -0.182 OA
ATOM     29  O7  ZIN A   1      17.714  -1.970   8.833  0.00  0.00    -0.182 OA
BRANCH  27  30
ATOM     30  N4  ZIN A   1      19.418  -3.609   9.540  0.00  0.00    -0.303 N 
ATOM     31  H40 ZIN A   1      19.541  -4.470   9.112  0.00  0.00     0.173 HD
BRANCH  30  32
ATOM     32  C3  ZIN A   1      19.526  -3.492  10.995  0.00  0.00     0.133 C 
BRANCH  32  33
ATOM     33  C2  ZIN A   1      18.640  -4.547  11.659  0.00  0.00     0.016 C 
ATOM     34  C1  ZIN A   1      17.169  -4.185  11.447  0.00  0.00     0.006 C 
ENDBRANCH  32  33
ENDBRANCH  30  32
ENDBRANCH  27  30
ENDBRANCH  25  27
ENDBRANCH   1  25
TORSDOF 11
ENDMDL
MODEL 4
REMARK VINA RESULT:      -7.5      1.923      2.521
REMARK  11 active torsions:
REMARK  status: ('A' for Active; 'I' for Inactive)
REMARK    1  A    between atoms: C2_2  and  C3_3 
REMARK    2  A    between atoms: C3_3  and  N4_4 
REMARK    3  A    between atoms: N4_4  and  S5_5 
REMARK    4  A    between atoms: S5_5  and  N8_8 
REMARK    5  A    between atoms: N8_8  and  C9_9 
REMARK    6  A    between atoms: C13_13  and  O14_14 
REMARK    7  A    between atoms: O14_14  and  C15_15 
REMARK    8  A    between atoms: C15_15  and  C16_16 
REMARK    9  A    between atoms: C16_16  and  O17_17 
REMARK   10  A    between atoms: O17_17  and  C18_18 
REMARK   11  A    between atoms: C25_25  and  C26_26 
ROOT
ATOM      1  C9  ZIN A   1      18.722   1.481  14.364  0.00  0.00     0.155 A 
ATOM      2  N10 ZIN A   1      18.548   2.682  14.909  0.00  0.00    -0.223 NA
ATOM      3  C11 ZIN A   1      18.042   3.677  14.210  0.00  0.00     0.238 A 
ATOM      4  N12 ZIN A   1      17.685   3.538  12.949  0.00  0.00    -0.217 NA
ATOM      5  C13 ZIN A   1      17.821   2.375  12.322  0.00  0.00     0.180 A 
ATOM      6  C25 ZIN A   1      18.360   1.288  13.021  0.00  0.00     0.074 A 
ENDROOT
BRANCH   5   7
ATOM      7  O14 ZIN A   1      17.449   2.243  11.026  0.00  0.00    -0.332 OA
BRANCH   7   8
ATOM      8  C15 ZIN A   1      18.165   3.020  10.064  0.00  0.00     0.204 C 
BRANCH   8   9
ATOM      9  C16 ZIN A   1      19.222   2.146   9.387  0.00  0.00     0.205 C 
BRANCH   9  10
ATOM     10  O17 ZIN A   1      18.985   2.116   7.977  0.00  0.00    -0.317 OA
BRANCH  10  11
ATOM     11  C18 ZIN A   1      18.992   0.901   7.378  0.00  0.00     0.268 A 
ATOM     12  N24 ZIN A   1      18.831  -0.184   8.116  0.00  0.00    -0.218 NA
ATOM     13  C23 ZIN A   1      18.827  -1.386   7.562  0.00  0.00     0.141 A 
ATOM     14  C21 ZIN A   1      19.005  -1.498   6.192  0.00  0.00     0.046 A 
ATOM     15  C20 ZIN A   1      19.176  -0.340   5.450  0.00  0.00     0.141 A 
ATOM     16 Br22 ZIN A   1      19.015  -3.194   5.354  0.00  0.00    -0.048 Br
ATOM     17  N19 ZIN A   1      19.165   0.830   6.068  0.00  0.00    -0.218 NA
ENDBRANCH  10  11
ENDBRANCH   9  10
ENDBRANCH   8   9
ENDBRANCH   7   8
ENDBRANCH   5   7
BRANCH   6  18
ATOM     18  C26 ZIN A   1      18.532  -0.032  12.367  0.00  0.00    -0.018 A 
ATOM     19  C32 ZIN A   1      17.459  -0.917  12.285  0.00  0.00     0.014 A 
ATOM     20  C31 ZIN A   1      17.623  -2.141  11.670  0.00  0.00     0.020 A 
ATOM     21  C29 ZIN A   1      18.854  -2.495  11.145  0.00  0.00     0.011 A 
ATOM     22  C28 ZIN A   1      19.924  -1.621  11.229  0.00  0.00     0.020 A 
ATOM     23 Br30 ZIN A   1      19.074  -4.178  10.310  0.00  0.00    -0.051 Br
ATOM     24  C27 ZIN A   1      19.770  -0.392  11.836  0.00  0.00     0.014 A 
ENDBRANCH   6  18
BRANCH   1  25
ATOM     25  N8  ZIN A   1      19.254   0.441  15.107  0.00  0.00    -0.251 N 
ATOM     26  H41 ZIN A   1      20.213   0.289  15.110  0.00  0.00     0.182 HD
BRANCH  25  27
ATOM     27  S5  ZIN A   1      18.258  -0.541  15.992  0.00  0.00     0.320 S 
ATOM     28  O6  ZIN A   1      18.484  -1.865  15.527  0.00  0.00    -0.182 OA
ATOM     29  O7  ZIN A   1      16.978   0.076  15.987  0.00  0.00    -0.182 OA
BRANCH  27  30
ATOM     30  N4  ZIN A   1      18.792  -0.498  17.559  0.00  0.00    -0.303 N 
ATOM     31  H40 ZIN A   1      18.717  -1.287  18.119  0.00  0.00     0.173 HD
BRANCH  30  32
ATOM     32  C3  ZIN A   1      19.379   0.730  18.099  0.00  0.00     0.133 C 
BRANCH  32  33
ATOM     33  C2  ZIN A   1      18.262   1.680  18.536  0.00  0.00     0.016 C 
ATOM     34  C1  ZIN A   1      18.769   3.123  18.481  0.00  0.00     0.006 C 
ENDBRANCH  32  33
ENDBRANCH  30  32
ENDBRANCH  27  30
ENDBRANCH  25  27
ENDBRANCH   1  25
TORSDOF 11
ENDMDL
MODEL 5
REMARK VINA RESULT:      -7.5      3.665      7.488
REMARK  11 active torsions:
REMARK  status: ('A' for Active; 'I' for Inactive)
REMARK    1  A    between atoms: C2_2  and  C3_3 
REMARK    2  A    between atoms: C3_3  and  N4_4 
REMARK    3  A    between atoms: N4_4  and  S5_5 
REMARK    4  A    between atoms: S5_5  and  N8_8 
REMARK    5  A    between atoms: N8_8  and  C9_9 
REMARK    6  A    between atoms: C13_13  and  O14_14 
REMARK    7  A    between atoms: O14_14  and  C15_15 
REMARK    8  A    between atoms: C15_15  and  C16_16 
REMARK    9  A    between atoms: C16_16  and  O17_17 
REMARK   10  A    between atoms: O17_17  and  C18_18 
REMARK   11  A    between atoms: C25_25  and  C26_26 
ROOT
ATOM      1  C9  ZIN A   1      18.226  -1.223   7.477  0.00  0.00     0.155 A 
ATOM      2  N10 ZIN A   1      18.253  -0.957   6.174  0.00  0.00    -0.223 NA
ATOM      3  C11 ZIN A   1      18.649   0.219   5.731  0.00  0.00     0.238 A 
ATOM      4  N12 ZIN A   1      19.035   1.182   6.542  0.00  0.00    -0.217 NA
ATOM      5  C13 ZIN A   1      19.042   1.006   7.860  0.00  0.00     0.180 A 
ATOM      6  C25 ZIN A   1      18.624  -0.224   8.381  0.00  0.00     0.074 A 
ENDROOT
BRANCH   5   7
ATOM      7  O14 ZIN A   1      19.442   2.003   8.686  0.00  0.00    -0.332 OA
BRANCH   7   8
ATOM      8  C15 ZIN A   1      18.543   3.100   8.861  0.00  0.00     0.204 C 
BRANCH   8   9
ATOM      9  C16 ZIN A   1      18.066   3.141  10.314  0.00  0.00     0.205 C 
BRANCH   9  10
ATOM     10  O17 ZIN A   1      19.174   2.907  11.186  0.00  0.00    -0.317 OA
BRANCH  10  11
ATOM     11  C18 ZIN A   1      19.066   3.368  12.456  0.00  0.00     0.268 A 
ATOM     12  N24 ZIN A   1      19.594   4.541  12.764  0.00  0.00    -0.218 NA
ATOM     13  C23 ZIN A   1      19.501   5.023  13.993  0.00  0.00     0.141 A 
ATOM     14  C21 ZIN A   1      18.852   4.277  14.964  0.00  0.00     0.046 A 
ATOM     15  C20 ZIN A   1      18.316   3.049  14.607  0.00  0.00     0.141 A 
ATOM     16 Br22 ZIN A   1      18.702   4.919  16.736  0.00  0.00    -0.048 Br
ATOM     17  N19 ZIN A   1      18.440   2.630  13.358  0.00  0.00    -0.218 NA
ENDBRANCH  10  11
ENDBRANCH   9  10
ENDBRANCH   8   9
ENDBRANCH   7   8
ENDBRANCH   5   7
BRANCH   6  18
ATOM     18  C26 ZIN A   1      18.613  -0.470   9.843  0.00  0.00    -0.018 A 
ATOM     19  C32 ZIN A   1      19.799  -0.773  10.510  0.00  0.00     0.014 A 
ATOM     20  C31 ZIN A   1      19.784  -0.995  11.872  0.00  0.00     0.020 A 
ATOM     21  C29 ZIN A   1      18.592  -0.929  12.573  0.00  0.00     0.011 A 
ATOM     22  C28 ZIN A   1      17.411  -0.634  11.914  0.00  0.00     0.020 A 
ATOM     23 Br30 ZIN A   1      18.578  -1.242  14.439  0.00  0.00    -0.051 Br
ATOM     24  C27 ZIN A   1      17.415  -0.404  10.554  0.00  0.00     0.014 A 
ENDBRANCH   6  18
BRANCH   1  25
ATOM     25  N8  ZIN A   1      17.808  -2.461   7.934  0.00  0.00    -0.251 N 
ATOM     26  H41 ZIN A   1      16.931  -2.557   8.338  0.00  0.00     0.182 HD
BRANCH  25  27
ATOM     27  S5  ZIN A   1      18.803  -3.776   7.792  0.00  0.00     0.320 S 
ATOM     28  O6  ZIN A   1      19.803  -3.422   6.846  0.00  0.00    -0.182 OA
ATOM     29  O7  ZIN A   1      17.956  -4.906   7.640  0.00  0.00    -0.182 OA
BRANCH  27  30
ATOM     30  N4  ZIN A   1      19.579  -3.964   9.244  0.00  0.00    -0.303 N 
ATOM     31  H40 ZIN A   1      20.288  -3.353   9.496  0.00  0.00     0.173 HD
BRANCH  30  32
ATOM     32  C3  ZIN A   1      19.192  -5.051  10.145  0.00  0.00     0.133 C 
BRANCH  32  33
ATOM     33  C2  ZIN A   1      18.666  -4.465  11.456  0.00  0.00     0.016 C 
ATOM     34  C1  ZIN A   1      17.150  -4.278  11.358  0.00  0.00     0.006 C 
ENDBRANCH  32  33
ENDBRANCH  30  32
ENDBRANCH  27  30
ENDBRANCH  25  27
ENDBRANCH   1  25
TORSDOF 11
ENDMDL
MODEL 6
REMARK VINA RESULT:      -7.4      4.104      8.032
REMARK  11 active torsions:
REMARK  status: ('A' for Active; 'I' for Inactive)
REMARK    1  A    between atoms: C2_2  and  C3_3 
REMARK    2  A    between atoms: C3_3  and  N4_4 
REMARK    3  A    between atoms: N4_4  and  S5_5 
REMARK    4  A    between atoms: S5_5  and  N8_8 
REMARK    5  A    between atoms: N8_8  and  C9_9 
REMARK    6  A    between atoms: C13_13  and  O14_14 
REMARK    7  A    between atoms: O14_14  and  C15_15 
REMARK    8  A    between atoms: C15_15  and  C16_16 
REMARK    9  A    between atoms: C16_16  and  O17_17 
REMARK   10  A    between atoms: O17_17  and  C18_18 
REMARK   11  A    between atoms: C25_25  and  C26_26 
ROOT
ATOM      1  C9  ZIN A   1      19.483  -2.851   7.416  0.00  0.00     0.155 A 
ATOM      2  N10 ZIN A   1      19.535  -2.919   6.088  0.00  0.00    -0.223 NA
ATOM      3  C11 ZIN A   1      19.156  -1.901   5.343  0.00  0.00     0.238 A 
ATOM      4  N12 ZIN A   1      18.711  -0.775   5.865  0.00  0.00    -0.217 NA
ATOM      5  C13 ZIN A   1      18.626  -0.617   7.181  0.00  0.00     0.180 A 
ATOM      6  C25 ZIN A   1      19.011  -1.673   8.017  0.00  0.00     0.074 A 
ENDROOT
BRANCH   5   7
ATOM      7  O14 ZIN A   1      18.168   0.544   7.707  0.00  0.00    -0.332 OA
BRANCH   7   8
ATOM      8  C15 ZIN A   1      19.048   1.669   7.662  0.00  0.00     0.204 C 
BRANCH   8   9
ATOM      9  C16 ZIN A   1      19.170   2.279   9.059  0.00  0.00     0.205 C 
BRANCH   9  10
ATOM     10  O17 ZIN A   1      17.944   2.092   9.769  0.00  0.00    -0.317 OA
BRANCH  10  11
ATOM     11  C18 ZIN A   1      17.781   2.799  10.914  0.00  0.00     0.268 A 
ATOM     12  N24 ZIN A   1      18.310   2.340  12.036  0.00  0.00    -0.218 NA
ATOM     13  C23 ZIN A   1      18.175   3.009  13.170  0.00  0.00     0.141 A 
ATOM     14  C21 ZIN A   1      17.459   4.196  13.173  0.00  0.00     0.046 A 
ATOM     15  C20 ZIN A   1      16.914   4.643  11.980  0.00  0.00     0.141 A 
ATOM     16 Br22 ZIN A   1      17.231   5.182  14.771  0.00  0.00    -0.048 Br
ATOM     17  N19 ZIN A   1      17.092   3.928  10.881  0.00  0.00    -0.218 NA
ENDBRANCH  10  11
ENDBRANCH   9  10
ENDBRANCH   8   9
ENDBRANCH   7   8
ENDBRANCH   5   7
BRANCH   6  18
ATOM     18  C26 ZIN A   1      18.934  -1.547   9.492  0.00  0.00    -0.018 A 
ATOM     19  C32 ZIN A   1      17.802  -1.990  10.173  0.00  0.00     0.014 A 
ATOM     20  C31 ZIN A   1      17.738  -1.876  11.547  0.00  0.00     0.020 A 
ATOM     21  C29 ZIN A   1      18.791  -1.311  12.247  0.00  0.00     0.011 A 
ATOM     22  C28 ZIN A   1      19.914  -0.864  11.573  0.00  0.00     0.020 A 
ATOM     23 Br30 ZIN A   1      18.693  -1.150  14.129  0.00  0.00    -0.051 Br
ATOM     24  C27 ZIN A   1      19.992  -0.979  10.201  0.00  0.00     0.014 A 
ENDBRANCH   6  18
BRANCH   1  25
ATOM     25  N8  ZIN A   1      19.884  -3.926   8.192  0.00  0.00    -0.251 N 
ATOM     26  H41 ZIN A   1      20.743  -3.904   8.643  0.00  0.00     0.182 HD
BRANCH  25  27
ATOM     27  S5  ZIN A   1      18.898  -5.247   8.349  0.00  0.00     0.320 S 
ATOM     28  O6  ZIN A   1      18.846  -5.544   9.738  0.00  0.00    -0.182 OA
ATOM     29  O7  ZIN A   1      19.322  -6.184   7.370  0.00  0.00    -0.182 OA
BRANCH  27  30
ATOM     30  N4  ZIN A   1      17.371  -4.774   7.914  0.00  0.00    -0.303 N 
ATOM     31  H40 ZIN A   1      17.249  -4.133   7.197  0.00  0.00     0.173 HD
BRANCH  30  32
ATOM     32  C3  ZIN A   1      16.208  -5.324   8.613  0.00  0.00     0.133 C 
BRANCH  32  33
ATOM     33  C2  ZIN A   1      15.467  -6.291   7.687  0.00  0.00     0.016 C 
ATOM     34  C1  ZIN A   1      13.969  -6.248   7.996  0.00  0.00     0.006 C 
ENDBRANCH  32  33
ENDBRANCH  30  32
ENDBRANCH  27  30
ENDBRANCH  25  27
ENDBRANCH   1  25
TORSDOF 11
ENDMDL
MODEL 7
REMARK VINA RESULT:      -7.3      4.391      9.543
REMARK  11 active torsions:
REMARK  status: ('A' for Active; 'I' for Inactive)
REMARK    1  A    between atoms: C2_2  and  C3_3 
REMARK    2  A    between atoms: C3_3  and  N4_4 
REMARK    3  A    between atoms: N4_4  and  S5_5 
REMARK    4  A    between atoms: S5_5  and  N8_8 
REMARK    5  A    between atoms: N8_8  and  C9_9 
REMARK    6  A    between atoms: C13_13  and  O14_14 
REMARK    7  A    between atoms: O14_14  and  C15_15 
REMARK    8  A    between atoms: C15_15  and  C16_16 
REMARK    9  A    between atoms: C16_16  and  O17_17 
REMARK   10  A    between atoms: O17_17  and  C18_18 
REMARK   11  A    between atoms: C25_25  and  C26_26 
ROOT
ATOM      1  C9  ZIN A   1      18.368  -2.362   7.166  0.00  0.00     0.155 A 
ATOM      2  N10 ZIN A   1      18.516  -3.639   6.826  0.00  0.00    -0.223 NA
ATOM      3  C11 ZIN A   1      18.973  -4.522   7.691  0.00  0.00     0.238 A 
ATOM      4  N12 ZIN A   1      19.302  -4.192   8.923  0.00  0.00    -0.217 NA
ATOM      5  C13 ZIN A   1      19.187  -2.940   9.352  0.00  0.00     0.180 A 
ATOM      6  C25 ZIN A   1      18.712  -1.963   8.468  0.00  0.00     0.074 A 
ENDROOT
BRANCH   5   7
ATOM      7  O14 ZIN A   1      19.529  -2.611  10.621  0.00  0.00    -0.332 OA
BRANCH   7   8
ATOM      8  C15 ZIN A   1      18.849  -3.298  11.674  0.00  0.00     0.204 C 
BRANCH   8   9
ATOM      9  C16 ZIN A   1      18.286  -2.280  12.667  0.00  0.00     0.205 C 
BRANCH   9  10
ATOM     10  O17 ZIN A   1      19.293  -1.317  12.986  0.00  0.00    -0.317 OA
BRANCH  10  11
ATOM     11  C18 ZIN A   1      19.195  -0.699  14.187  0.00  0.00     0.268 A 
ATOM     12  N24 ZIN A   1      19.317   0.617  14.247  0.00  0.00    -0.218 NA
ATOM     13  C23 ZIN A   1      19.221   1.253  15.404  0.00  0.00     0.141 A 
ATOM     14  C21 ZIN A   1      19.001   0.522  16.561  0.00  0.00     0.046 A 
ATOM     15  C20 ZIN A   1      18.882  -0.856  16.461  0.00  0.00     0.141 A 
ATOM     16 Br22 ZIN A   1      18.864   1.385  18.238  0.00  0.00    -0.048 Br
ATOM     17  N19 ZIN A   1      18.984  -1.427  15.272  0.00  0.00    -0.218 NA
ENDBRANCH  10  11
ENDBRANCH   9  10
ENDBRANCH   8   9
ENDBRANCH   7   8
ENDBRANCH   5   7
BRANCH   6  18
ATOM     18  C26 ZIN A   1      18.566  -0.551   8.897  0.00  0.00    -0.018 A 
ATOM     19  C32 ZIN A   1      17.509  -0.179   9.726  0.00  0.00     0.014 A 
ATOM     20  C31 ZIN A   1      17.380   1.135  10.128  0.00  0.00     0.020 A 
ATOM     21  C29 ZIN A   1      18.292   2.085   9.699  0.00  0.00     0.011 A 
ATOM     22  C28 ZIN A   1      19.340   1.720   8.871  0.00  0.00     0.020 A 
ATOM     23 Br30 ZIN A   1      18.105   3.886  10.247  0.00  0.00    -0.051 Br
ATOM     24  C27 ZIN A   1      19.482   0.408   8.469  0.00  0.00     0.014 A 
ENDBRANCH   6  18
BRANCH   1  25
ATOM     25  N8  ZIN A   1      17.888  -1.441   6.251  0.00  0.00    -0.251 N 
ATOM     26  H41 ZIN A   1      17.173  -0.835   6.503  0.00  0.00     0.182 HD
BRANCH  25  27
ATOM     27  S5  ZIN A   1      18.532  -1.373   4.727  0.00  0.00     0.320 S 
ATOM     28  O6  ZIN A   1      19.944  -1.383   4.889  0.00  0.00    -0.182 OA
ATOM     29  O7  ZIN A   1      17.836  -0.342   4.042  0.00  0.00    -0.182 OA
BRANCH  27  30
ATOM     30  N4  ZIN A   1      18.139  -2.790   3.965  0.00  0.00    -0.303 N 
ATOM     31  H40 ZIN A   1      18.832  -3.433   3.750  0.00  0.00     0.173 HD
BRANCH  30  32
ATOM     32  C3  ZIN A   1      16.744  -3.071   3.617  0.00  0.00     0.133 C 
BRANCH  32  33
ATOM     33  C2  ZIN A   1      16.517  -4.584   3.602  0.00  0.00     0.016 C 
ATOM     34  C1  ZIN A   1      15.301  -4.909   2.732  0.00  0.00     0.006 C 
ENDBRANCH  32  33
ENDBRANCH  30  32
ENDBRANCH  27  30
ENDBRANCH  25  27
ENDBRANCH   1  25
TORSDOF 11
ENDMDL
MODEL 8
REMARK VINA RESULT:      -7.3      4.167      8.898
REMARK  11 active torsions:
REMARK  status: ('A' for Active; 'I' for Inactive)
REMARK    1  A    between atoms: C2_2  and  C3_3 
REMARK    2  A    between atoms: C3_3  and  N4_4 
REMARK    3  A    between atoms: N4_4  and  S5_5 
REMARK    4  A    between atoms: S5_5  and  N8_8 
REMARK    5  A    between atoms: N8_8  and  C9_9 
REMARK    6  A    between atoms: C13_13  and  O14_14 
REMARK    7  A    between atoms: O14_14  and  C15_15 
REMARK    8  A    between atoms: C15_15  and  C16_16 
REMARK    9  A    between atoms: C16_16  and  O17_17 
REMARK   10  A    between atoms: O17_17  and  C18_18 
REMARK   11  A    between atoms: C25_25  and  C26_26 
ROOT
ATOM      1  C9  ZIN A   1      18.500  -3.404   8.689  0.00  0.00     0.155 A 
ATOM      2  N10 ZIN A   1      18.663  -4.723   8.741  0.00  0.00    -0.223 NA
ATOM      3  C11 ZIN A   1      19.190  -5.299   9.803  0.00  0.00     0.238 A 
ATOM      4  N12 ZIN A   1      19.577  -4.610  10.856  0.00  0.00    -0.217 NA
ATOM      5  C13 ZIN A   1      19.452  -3.287  10.894  0.00  0.00     0.180 A 
ATOM      6  C25 ZIN A   1      18.904  -2.628   9.788  0.00  0.00     0.074 A 
ENDROOT
BRANCH   5   7
ATOM      7  O14 ZIN A   1      19.853  -2.588  11.983  0.00  0.00    -0.332 OA
BRANCH   7   8
ATOM      8  C15 ZIN A   1      18.907  -2.438  13.042  0.00  0.00     0.204 C 
BRANCH   8   9
ATOM      9  C16 ZIN A   1      19.311  -1.255  13.924  0.00  0.00     0.205 C 
BRANCH   9  10
ATOM     10  O17 ZIN A   1      18.156  -0.470  14.228  0.00  0.00    -0.317 OA
BRANCH  10  11
ATOM     11  C18 ZIN A   1      18.365   0.825  14.568  0.00  0.00     0.268 A 
ATOM     12  N24 ZIN A   1      17.970   1.780  13.742  0.00  0.00    -0.218 NA
ATOM     13  C23 ZIN A   1      18.153   3.055  14.046  0.00  0.00     0.141 A 
ATOM     14  C21 ZIN A   1      18.776   3.382  15.240  0.00  0.00     0.046 A 
ATOM     15  C20 ZIN A   1      19.181   2.355  16.079  0.00  0.00     0.141 A 
ATOM     16 Br22 ZIN A   1      19.067   5.190  15.714  0.00  0.00    -0.048 Br
ATOM     17  N19 ZIN A   1      18.962   1.102  15.715  0.00  0.00    -0.218 NA
ENDBRANCH  10  11
ENDBRANCH   9  10
ENDBRANCH   8   9
ENDBRANCH   7   8
ENDBRANCH   5   7
BRANCH   6  18
ATOM     18  C26 ZIN A   1      18.743  -1.153   9.780  0.00  0.00    -0.018 A 
ATOM     19  C32 ZIN A   1      19.768  -0.341   9.297  0.00  0.00     0.014 A 
ATOM     20  C31 ZIN A   1      19.611   1.030   9.286  0.00  0.00     0.020 A 
ATOM     21  C29 ZIN A   1      18.443   1.599   9.766  0.00  0.00     0.011 A 
ATOM     22  C28 ZIN A   1      17.425   0.796  10.251  0.00  0.00     0.020 A 
ATOM     23 Br30 ZIN A   1      18.237   3.479   9.756  0.00  0.00    -0.051 Br
ATOM     24  C27 ZIN A   1      17.569  -0.576  10.261  0.00  0.00     0.014 A 
ENDBRANCH   6  18
BRANCH   1  25
ATOM     25  N8  ZIN A   1      17.946  -2.807   7.570  0.00  0.00    -0.251 N 
ATOM     26  H41 ZIN A   1      17.170  -2.231   7.662  0.00  0.00     0.182 HD
BRANCH  25  27
ATOM     27  S5  ZIN A   1      18.606  -3.074   6.075  0.00  0.00     0.320 S 
ATOM     28  O6  ZIN A   1      17.918  -4.190   5.526  0.00  0.00    -0.182 OA
ATOM     29  O7  ZIN A   1      20.016  -3.039   6.247  0.00  0.00    -0.182 OA
BRANCH  27  30
ATOM     30  N4  ZIN A   1      18.218  -1.772   5.128  0.00  0.00    -0.303 N 
ATOM     31  H40 ZIN A   1      17.295  -1.617   4.872  0.00  0.00     0.173 HD
BRANCH  30  32
ATOM     32  C3  ZIN A   1      19.267  -0.856   4.677  0.00  0.00     0.133 C 
BRANCH  32  33
ATOM     33  C2  ZIN A   1      19.123   0.482   5.404  0.00  0.00     0.016 C 
ATOM     34  C1  ZIN A   1      17.758   0.545   6.092  0.00  0.00     0.006 C 
ENDBRANCH  32  33
ENDBRANCH  30  32
ENDBRANCH  27  30
ENDBRANCH  25  27
ENDBRANCH   1  25
TORSDOF 11
ENDMDL
MODEL 9
REMARK VINA RESULT:      -7.1      3.141      5.506
REMARK  11 active torsions:
REMARK  status: ('A' for Active; 'I' for Inactive)
REMARK    1  A    between atoms: C2_2  and  C3_3 
REMARK    2  A    between atoms: C3_3  and  N4_4 
REMARK    3  A    between atoms: N4_4  and  S5_5 
REMARK    4  A    between atoms: S5_5  and  N8_8 
REMARK    5  A    between atoms: N8_8  and  C9_9 
REMARK    6  A    between atoms: C13_13  and  O14_14 
REMARK    7  A    between atoms: O14_14  and  C15_15 
REMARK    8  A    between atoms: C15_15  and  C16_16 
REMARK    9  A    between atoms: C16_16  and  O17_17 
REMARK   10  A    between atoms: O17_17  and  C18_18 
REMARK   11  A    between atoms: C25_25  and  C26_26 
ROOT
ATOM      1  C9  ZIN A   1      19.680   0.712  12.767  0.00  0.00     0.155 A 
ATOM      2  N10 ZIN A   1      19.919   0.527  14.063  0.00  0.00    -0.223 NA
ATOM      3  C11 ZIN A   1      19.726  -0.648  14.626  0.00  0.00     0.238 A 
ATOM      4  N12 ZIN A   1      19.291  -1.690  13.947  0.00  0.00    -0.217 NA
ATOM      5  C13 ZIN A   1      19.026  -1.598  12.648  0.00  0.00     0.180 A 
ATOM      6  C25 ZIN A   1      19.210  -0.369  12.004  0.00  0.00     0.074 A 
ENDROOT
BRANCH   5   7
ATOM      7  O14 ZIN A   1      18.581  -2.676  11.958  0.00  0.00    -0.332 OA
BRANCH   7   8
ATOM      8  C15 ZIN A   1      19.540  -3.686  11.642  0.00  0.00     0.204 C 
BRANCH   8   9
ATOM      9  C16 ZIN A   1      18.882  -4.762  10.776  0.00  0.00     0.205 C 
BRANCH   9  10
ATOM     10  O17 ZIN A   1      19.773  -5.139   9.724  0.00  0.00    -0.317 OA
BRANCH  10  11
ATOM     11  C18 ZIN A   1      19.337  -4.959   8.454  0.00  0.00     0.268 A 
ATOM     12  N24 ZIN A   1      18.956  -3.753   8.068  0.00  0.00    -0.218 NA
ATOM     13  C23 ZIN A   1      18.530  -3.541   6.833  0.00  0.00     0.141 A 
ATOM     14  C21 ZIN A   1      18.475  -4.605   5.945  0.00  0.00     0.046 A 
ATOM     15  C20 ZIN A   1      18.878  -5.856   6.386  0.00  0.00     0.141 A 
ATOM     16 Br22 ZIN A   1      17.866  -4.354   4.173  0.00  0.00    -0.048 Br
ATOM     17  N19 ZIN A   1      19.298  -5.996   7.633  0.00  0.00    -0.218 NA
ENDBRANCH  10  11
ENDBRANCH   9  10
ENDBRANCH   8   9
ENDBRANCH   7   8
ENDBRANCH   5   7
BRANCH   6  18
ATOM     18  C26 ZIN A   1      18.928  -0.215  10.556  0.00  0.00    -0.018 A 
ATOM     19  C32 ZIN A   1      17.637   0.081  10.123  0.00  0.00     0.014 A 
ATOM     20  C31 ZIN A   1      17.381   0.229   8.775  0.00  0.00     0.020 A 
ATOM     21  C29 ZIN A   1      18.403   0.073   7.853  0.00  0.00     0.011 A 
ATOM     22  C28 ZIN A   1      19.685  -0.227   8.279  0.00  0.00     0.020 A 
ATOM     23 Br30 ZIN A   1      18.043   0.269   6.007  0.00  0.00    -0.051 Br
ATOM     24  C27 ZIN A   1      19.953  -0.371   9.625  0.00  0.00     0.014 A 
ENDBRANCH   6  18
BRANCH   1  25
ATOM     25  N8  ZIN A   1      19.885   1.951  12.184  0.00  0.00    -0.251 N 
ATOM     26  H41 ZIN A   1      20.584   2.063  11.520  0.00  0.00     0.182 HD
BRANCH  25  27
ATOM     27  S5  ZIN A   1      18.940   3.239  12.618  0.00  0.00     0.320 S 
ATOM     28  O6  ZIN A   1      17.616   2.738  12.750  0.00  0.00    -0.182 OA
ATOM     29  O7  ZIN A   1      19.284   4.303  11.743  0.00  0.00    -0.182 OA
BRANCH  27  30
ATOM     30  N4  ZIN A   1      19.416   3.707  14.134  0.00  0.00    -0.303 N 
ATOM     31  H40 ZIN A   1      20.272   3.415  14.485  0.00  0.00     0.173 HD
BRANCH  30  32
ATOM     32  C3  ZIN A   1      18.545   4.562  14.943  0.00  0.00     0.133 C 
BRANCH  32  33
ATOM     33  C2  ZIN A   1      19.004   6.016  14.824  0.00  0.00     0.016 C 
ATOM     34  C1  ZIN A   1      20.529   6.062  14.701  0.00  0.00     0.006 C 
ENDBRANCH  32  33
ENDBRANCH  30  32
ENDBRANCH  27  30
ENDBRANCH  25  27
ENDBRANCH   1  25
TORSDOF 11
ENDMDL
