MODEL 1
REMARK VINA RESULT:      -6.1      0.000      0.000
REMARK  1 active torsions:
REMARK  status: ('A' for Active; 'I' for Inactive)
REMARK    1  A    between atoms: N1_1  and  N2_2 
ROOT
ATOM      1  N2  <0> d   1      19.809   3.015  11.094  0.00  0.00    -0.161 NA
ATOM      2  C3  <0> d   1      18.738   2.316  10.835  0.00  0.00     0.174 C 
ATOM      3  N4  <0> d   1      17.689   2.183  11.757  0.00  0.00    -0.259 N 
ATOM      4  N5  <0> d   1      17.001   0.960  11.811  0.00  0.00    -0.185 NA
ATOM      5  C6  <0> d   1      16.959   0.165  10.784  0.00  0.00     0.151 C 
ATOM      6  C7  <0> d   1      17.642   0.525   9.535  0.00  0.00    -0.003 A 
ATOM      7  C8  <0> d   1      17.424  -0.168   8.348  0.00  0.00     0.014 A 
ATOM      8  C9  <0> d   1      18.097   0.211   7.203  0.00  0.00     0.001 A 
ATOM      9  C10 <0> d   1      18.988   1.272   7.222  0.00  0.00     0.001 A 
ATOM     10  C11 <0> d   1      19.219   1.975   8.391  0.00  0.00     0.016 A 
ATOM     11  C12 <0> d   1      18.547   1.614   9.546  0.00  0.00     0.025 A 
ATOM     12  H15 <0> d   1      17.444   2.918  12.341  0.00  0.00     0.191 HD
ENDROOT
BRANCH   1  13
ATOM     13  N1  <0> d   1      19.941   3.661  12.331  0.00  0.00    -0.321 N 
ATOM     14  H13 <0> d   1      20.807   3.702  12.766  0.00  0.00     0.179 HD
ATOM     15  H14 <0> d   1      19.168   4.071  12.748  0.00  0.00     0.179 HD
ENDBRANCH   1  13
TORSDOF 1
ENDMDL
MODEL 2
REMARK VINA RESULT:      -6.1      4.612      6.281
REMARK  1 active torsions:
REMARK  status: ('A' for Active; 'I' for Inactive)
REMARK    1  A    between atoms: N1_1  and  N2_2 
ROOT
ATOM      1  N2  <0> d   1      20.762   0.072  13.183  0.00  0.00    -0.161 NA
ATOM      2  C3  <0> d   1      19.797   0.722  13.775  0.00  0.00     0.174 C 
ATOM      3  N4  <0> d   1      19.425   2.020  13.394  0.00  0.00    -0.259 N 
ATOM      4  N5  <0> d   1      19.004   2.912  14.393  0.00  0.00    -0.185 NA
ATOM      5  C6  <0> d   1      18.501   2.482  15.512  0.00  0.00     0.151 C 
ATOM      6  C7  <0> d   1      18.368   1.041  15.763  0.00  0.00    -0.003 A 
ATOM      7  C8  <0> d   1      17.621   0.544  16.827  0.00  0.00     0.014 A 
ATOM      8  C9  <0> d   1      17.533  -0.821  17.018  0.00  0.00     0.001 A 
ATOM      9  C10 <0> d   1      18.180  -1.701  16.166  0.00  0.00     0.001 A 
ATOM     10  C11 <0> d   1      18.928  -1.228  15.103  0.00  0.00     0.016 A 
ATOM     11  C12 <0> d   1      19.019   0.137  14.890  0.00  0.00     0.025 A 
ATOM     12  H15 <0> d   1      19.456   2.294  12.464  0.00  0.00     0.191 HD
ENDROOT
BRANCH   1  13
ATOM     13  N1  <0> d   1      21.468   0.671  12.131  0.00  0.00    -0.321 N 
ATOM     14  H13 <0> d   1      21.087   1.429  11.661  0.00  0.00     0.179 HD
ATOM     15  H14 <0> d   1      22.340   0.330  11.877  0.00  0.00     0.179 HD
ENDBRANCH   1  13
TORSDOF 1
ENDMDL
MODEL 3
REMARK VINA RESULT:      -5.7      2.582      4.120
REMARK  1 active torsions:
REMARK  status: ('A' for Active; 'I' for Inactive)
REMARK    1  A    between atoms: N1_1  and  N2_2 
ROOT
ATOM      1  N2  <0> d   1      20.527   1.328  12.131  0.00  0.00    -0.161 NA
ATOM      2  C3  <0> d   1      19.698   1.705  11.196  0.00  0.00     0.174 C 
ATOM      3  N4  <0> d   1      19.647   1.076   9.942  0.00  0.00    -0.259 N 
ATOM      4  N5  <0> d   1      19.376   1.864   8.813  0.00  0.00    -0.185 NA
ATOM      5  C6  <0> d   1      18.724   2.984   8.914  0.00  0.00     0.151 C 
ATOM      6  C7  <0> d   1      18.259   3.460  10.223  0.00  0.00    -0.003 A 
ATOM      7  C8  <0> d   1      17.358   4.513  10.348  0.00  0.00     0.014 A 
ATOM      8  C9  <0> d   1      16.958   4.922  11.604  0.00  0.00     0.001 A 
ATOM      9  C10 <0> d   1      17.442   4.298  12.742  0.00  0.00     0.001 A 
ATOM     10  C11 <0> d   1      18.338   3.249  12.641  0.00  0.00     0.016 A 
ATOM     11  C12 <0> d   1      18.744   2.820  11.388  0.00  0.00     0.025 A 
ATOM     12  H15 <0> d   1      19.794   0.120   9.859  0.00  0.00     0.191 HD
ENDROOT
BRANCH   1  13
ATOM     13  N1  <0> d   1      21.410   0.266  11.898  0.00  0.00    -0.321 N 
ATOM     14  H13 <0> d   1      21.956  -0.078  12.621  0.00  0.00     0.179 HD
ATOM     15  H14 <0> d   1      21.471  -0.129  11.014  0.00  0.00     0.179 HD
ENDBRANCH   1  13
TORSDOF 1
ENDMDL
MODEL 4
REMARK VINA RESULT:      -5.7      2.633      3.793
REMARK  1 active torsions:
REMARK  status: ('A' for Active; 'I' for Inactive)
REMARK    1  A    between atoms: N1_1  and  N2_2 
ROOT
ATOM      1  N2  <0> d   1      17.927  -1.695   8.291  0.00  0.00    -0.161 NA
ATOM      2  C3  <0> d   1      17.892  -1.063   9.433  0.00  0.00     0.174 C 
ATOM      3  N4  <0> d   1      17.646  -1.723  10.647  0.00  0.00    -0.259 N 
ATOM      4  N5  <0> d   1      16.908  -1.049  11.632  0.00  0.00    -0.185 NA
ATOM      5  C6  <0> d   1      16.865   0.249  11.673  0.00  0.00     0.151 C 
ATOM      6  C7  <0> d   1      17.587   1.049  10.675  0.00  0.00    -0.003 A 
ATOM      7  C8  <0> d   1      17.770   2.421  10.820  0.00  0.00     0.014 A 
ATOM      8  C9  <0> d   1      18.453   3.125   9.848  0.00  0.00     0.001 A 
ATOM      9  C10 <0> d   1      18.958   2.482   8.729  0.00  0.00     0.001 A 
ATOM     10  C11 <0> d   1      18.788   1.119   8.565  0.00  0.00     0.016 A 
ATOM     11  C12 <0> d   1      18.113   0.397   9.534  0.00  0.00     0.025 A 
ATOM     12  H15 <0> d   1      17.978  -2.621  10.801  0.00  0.00     0.191 HD
ENDROOT
BRANCH   1  13
ATOM     13  N1  <0> d   1      17.710  -3.079   8.250  0.00  0.00    -0.321 N 
ATOM     14  H13 <0> d   1      16.826  -3.436   8.422  0.00  0.00     0.179 HD
ATOM     15  H14 <0> d   1      18.445  -3.678   8.043  0.00  0.00     0.179 HD
ENDBRANCH   1  13
TORSDOF 1
ENDMDL
MODEL 5
REMARK VINA RESULT:      -5.6      2.930      3.898
REMARK  1 active torsions:
REMARK  status: ('A' for Active; 'I' for Inactive)
REMARK    1  A    between atoms: N1_1  and  N2_2 
ROOT
ATOM      1  N2  <0> d   1      20.365  -0.182  10.749  0.00  0.00    -0.161 NA
ATOM      2  C3  <0> d   1      20.081   0.663  11.703  0.00  0.00     0.174 C 
ATOM      3  N4  <0> d   1      20.564   0.504  13.011  0.00  0.00    -0.259 N 
ATOM      4  N5  <0> d   1      19.735   0.889  14.077  0.00  0.00    -0.185 NA
ATOM      5  C6  <0> d   1      18.806   1.784  13.918  0.00  0.00     0.151 C 
ATOM      6  C7  <0> d   1      18.592   2.412  12.608  0.00  0.00    -0.003 A 
ATOM      7  C8  <0> d   1      17.785   3.535  12.451  0.00  0.00     0.014 A 
ATOM      8  C9  <0> d   1      17.616   4.082  11.195  0.00  0.00     0.001 A 
ATOM      9  C10 <0> d   1      18.239   3.526  10.088  0.00  0.00     0.001 A 
ATOM     10  C11 <0> d   1      19.045   2.411  10.223  0.00  0.00     0.016 A 
ATOM     11  C12 <0> d   1      19.233   1.854  11.476  0.00  0.00     0.025 A 
ATOM     12  H15 <0> d   1      21.448   0.139  13.174  0.00  0.00     0.191 HD
ENDROOT
BRANCH   1  13
ATOM     13  N1  <0> d   1      21.173  -1.295  11.016  0.00  0.00    -0.321 N 
ATOM     14  H13 <0> d   1      21.195  -2.038  10.394  0.00  0.00     0.179 HD
ATOM     15  H14 <0> d   1      21.715  -1.318  11.820  0.00  0.00     0.179 HD
ENDBRANCH   1  13
TORSDOF 1
ENDMDL
MODEL 6
REMARK VINA RESULT:      -5.6      5.435      6.755
REMARK  1 active torsions:
REMARK  status: ('A' for Active; 'I' for Inactive)
REMARK    1  A    between atoms: N1_1  and  N2_2 
ROOT
ATOM      1  N2  <0> d   1      19.512   3.649  15.900  0.00  0.00    -0.161 NA
ATOM      2  C3  <0> d   1      19.190   2.603  16.611  0.00  0.00     0.174 C 
ATOM      3  N4  <0> d   1      19.177   2.625  18.014  0.00  0.00    -0.259 N 
ATOM      4  N5  <0> d   1      19.566   1.465  18.701  0.00  0.00    -0.185 NA
ATOM      5  C6  <0> d   1      19.470   0.291  18.151  0.00  0.00     0.151 C 
ATOM      6  C7  <0> d   1      18.956   0.151  16.782  0.00  0.00    -0.003 A 
ATOM      7  C8  <0> d   1      18.610  -1.087  16.248  0.00  0.00     0.014 A 
ATOM      8  C9  <0> d   1      18.135  -1.161  14.953  0.00  0.00     0.001 A 
ATOM      9  C10 <0> d   1      18.001  -0.020  14.179  0.00  0.00     0.001 A 
ATOM     10  C11 <0> d   1      18.340   1.220  14.691  0.00  0.00     0.016 A 
ATOM     11  C12 <0> d   1      18.809   1.314  15.990  0.00  0.00     0.025 A 
ATOM     12  H15 <0> d   1      18.904   3.422  18.496  0.00  0.00     0.191 HD
ENDROOT
BRANCH   1  13
ATOM     13  N1  <0> d   1      19.866   4.846  16.537  0.00  0.00    -0.321 N 
ATOM     14  H13 <0> d   1      19.866   5.678  16.039  0.00  0.00     0.179 HD
ATOM     15  H14 <0> d   1      20.105   4.843  17.477  0.00  0.00     0.179 HD
ENDBRANCH   1  13
TORSDOF 1
ENDMDL
MODEL 7
REMARK VINA RESULT:      -5.6      3.504      4.451
REMARK  1 active torsions:
REMARK  status: ('A' for Active; 'I' for Inactive)
REMARK    1  A    between atoms: N1_1  and  N2_2 
ROOT
ATOM      1  N2  <0> d   1      20.578  -0.297  12.154  0.00  0.00    -0.161 NA
ATOM      2  C3  <0> d   1      20.218  -0.861  11.033  0.00  0.00     0.174 C 
ATOM      3  N4  <0> d   1      20.734  -0.459   9.792  0.00  0.00    -0.259 N 
ATOM      4  N5  <0> d   1      19.885  -0.493   8.675  0.00  0.00    -0.185 NA
ATOM      5  C6  <0> d   1      18.861  -1.292   8.632  0.00  0.00     0.151 C 
ATOM      6  C7  <0> d   1      18.560  -2.179   9.763  0.00  0.00    -0.003 A 
ATOM      7  C8  <0> d   1      17.632  -3.212   9.665  0.00  0.00     0.014 A 
ATOM      8  C9  <0> d   1      17.385  -4.013  10.763  0.00  0.00     0.001 A 
ATOM      9  C10 <0> d   1      18.048  -3.800  11.961  0.00  0.00     0.001 A 
ATOM     10  C11 <0> d   1      18.974  -2.779  12.080  0.00  0.00     0.016 A 
ATOM     11  C12 <0> d   1      19.241  -1.972  10.987  0.00  0.00     0.025 A 
ATOM     12  H15 <0> d   1      21.655  -0.165   9.708  0.00  0.00     0.191 HD
ENDROOT
BRANCH   1  13
ATOM     13  N1  <0> d   1      21.507   0.752  12.143  0.00  0.00    -0.321 N 
ATOM     14  H13 <0> d   1      21.453   1.440  11.462  0.00  0.00     0.179 HD
ATOM     15  H14 <0> d   1      22.200   0.792  12.820  0.00  0.00     0.179 HD
ENDBRANCH   1  13
TORSDOF 1
ENDMDL
MODEL 8
REMARK VINA RESULT:      -5.6      1.984      2.765
REMARK  1 active torsions:
REMARK  status: ('A' for Active; 'I' for Inactive)
REMARK    1  A    between atoms: N1_1  and  N2_2 
ROOT
ATOM      1  N2  <0> d   1      20.027  -0.373  12.257  0.00  0.00    -0.161 NA
ATOM      2  C3  <0> d   1      20.018   0.676  11.480  0.00  0.00     0.174 C 
ATOM      3  N4  <0> d   1      20.377   1.952  11.940  0.00  0.00    -0.259 N 
ATOM      4  N5  <0> d   1      19.697   3.063  11.418  0.00  0.00    -0.185 NA
ATOM      5  C6  <0> d   1      19.131   3.019  10.249  0.00  0.00     0.151 C 
ATOM      6  C7  <0> d   1      19.183   1.793   9.442  0.00  0.00    -0.003 A 
ATOM      7  C8  <0> d   1      18.810   1.775   8.101  0.00  0.00     0.014 A 
ATOM      8  C9  <0> d   1      18.875   0.593   7.392  0.00  0.00     0.001 A 
ATOM      9  C10 <0> d   1      19.306  -0.577   7.998  0.00  0.00     0.001 A 
ATOM     10  C11 <0> d   1      19.682  -0.581   9.329  0.00  0.00     0.016 A 
ATOM     11  C12 <0> d   1      19.631   0.597  10.054  0.00  0.00     0.025 A 
ATOM     12  H15 <0> d   1      21.080   2.063  12.600  0.00  0.00     0.191 HD
ENDROOT
BRANCH   1  13
ATOM     13  N1  <0> d   1      20.401  -0.245  13.602  0.00  0.00    -0.321 N 
ATOM     14  H13 <0> d   1      21.191  -0.701  13.930  0.00  0.00     0.179 HD
ATOM     15  H14 <0> d   1      19.873   0.305  14.201  0.00  0.00     0.179 HD
ENDBRANCH   1  13
TORSDOF 1
ENDMDL
MODEL 9
REMARK VINA RESULT:      -5.6      3.547      4.874
REMARK  1 active torsions:
REMARK  status: ('A' for Active; 'I' for Inactive)
REMARK    1  A    between atoms: N1_1  and  N2_2 
ROOT
ATOM      1  N2  <0> d   1      17.796  -2.358   8.684  0.00  0.00    -0.161 NA
ATOM      2  C3  <0> d   1      17.896  -1.255   7.995  0.00  0.00     0.174 C 
ATOM      3  N4  <0> d   1      17.786  -1.232   6.597  0.00  0.00    -0.259 N 
ATOM      4  N5  <0> d   1      18.580  -0.322   5.881  0.00  0.00    -0.185 NA
ATOM      5  C6  <0> d   1      19.018   0.769   6.434  0.00  0.00     0.151 C 
ATOM      6  C7  <0> d   1      18.699   1.075   7.834  0.00  0.00    -0.003 A 
ATOM      7  C8  <0> d   1      18.936   2.330   8.388  0.00  0.00     0.014 A 
ATOM      8  C9  <0> d   1      18.620   2.561   9.712  0.00  0.00     0.001 A 
ATOM      9  C10 <0> d   1      18.070   1.559  10.496  0.00  0.00     0.001 A 
ATOM     10  C11 <0> d   1      17.826   0.305   9.966  0.00  0.00     0.016 A 
ATOM     11  C12 <0> d   1      18.129   0.059   8.637  0.00  0.00     0.025 A 
ATOM     12  H15 <0> d   1      17.175  -1.829   6.136  0.00  0.00     0.191 HD
ENDROOT
BRANCH   1  13
ATOM     13  N1  <0> d   1      17.576  -3.576   8.028  0.00  0.00    -0.321 N 
ATOM     14  H13 <0> d   1      18.177  -4.322   8.175  0.00  0.00     0.179 HD
ATOM     15  H14 <0> d   1      16.818  -3.674   7.430  0.00  0.00     0.179 HD
ENDBRANCH   1  13
TORSDOF 1
ENDMDL
