MODEL 1
REMARK VINA RESULT:      -6.3      0.000      0.000
REMARK  8 active torsions:
REMARK  status: ('A' for Active; 'I' for Inactive)
REMARK    1  A    between atoms: O2_2  and  C3_3 
REMARK    2  A    between atoms: C3_3  and  C5_5 
REMARK    3  A    between atoms: C11_11  and  C12_12 
REMARK    4  A    between atoms: C12_12  and  O14_14 
REMARK    5  A    between atoms: O14_14  and  C15_15 
REMARK    6  A    between atoms: C15_15  and  C16_16 
REMARK    7  A    between atoms: C19_19  and  C21_20 
REMARK    8  A    between atoms: C26_25  and  N27_26 
ROOT
ATOM      1  C5  ZIN A   1      18.730  -3.117  10.310  0.00  0.00     0.052 C 
ATOM      2  C6  ZIN A   1      18.030  -2.018  10.641  0.00  0.00     0.018 C 
ATOM      3  C7  ZIN A   1      17.919  -1.614  12.089  0.00  0.00     0.069 C 
ATOM      4  N8  ZIN A   1      17.417  -1.262   9.679  0.00  0.00    -0.362 N 
ATOM      5  C9  ZIN A   1      17.791  -1.380   8.369  0.00  0.00     0.018 C 
ATOM      6  C10 ZIN A   1      17.425  -0.294   7.390  0.00  0.00     0.069 C 
ATOM      7  C11 ZIN A   1      18.476  -2.455   7.943  0.00  0.00     0.052 C 
ATOM      8  C19 ZIN A   1      18.860  -3.563   8.882  0.00  0.00     0.103 C 
ATOM      9  H36 ZIN A   1      16.718  -0.638   9.929  0.00  0.00     0.165 HD
ENDROOT
BRANCH   8  10
ATOM     10  C21 ZIN A   1      17.957  -4.747   8.648  0.00  0.00    -0.012 A 
ATOM     11  C26 ZIN A   1      18.493  -5.955   8.241  0.00  0.00     0.110 A 
ATOM     12  C25 ZIN A   1      17.667  -7.042   8.032  0.00  0.00     0.037 A 
ATOM     13  C24 ZIN A   1      16.302  -6.919   8.217  0.00  0.00     0.002 A 
ATOM     14  C23 ZIN A   1      15.766  -5.711   8.619  0.00  0.00     0.001 A 
ATOM     15  C22 ZIN A   1      16.593  -4.624   8.834  0.00  0.00     0.011 A 
BRANCH  11  16
ATOM     16  N27 ZIN A   1      19.954  -6.085   8.035  0.00  0.00    -0.115 N 
ATOM     17  O28 ZIN A   1      20.449  -5.767   6.969  0.00  0.00    -0.532 OA
ATOM     18  O29 ZIN A   1      20.660  -6.507   8.933  0.00  0.00    -0.532 OA
ENDBRANCH  11  16
ENDBRANCH   8  10
BRANCH   1  19
ATOM     19  C3  ZIN A   1      19.357  -3.871  11.330  0.00  0.00     0.291 C 
ATOM     20  O4  ZIN A   1      20.331  -3.422  11.906  0.00  0.00    -0.260 OA
BRANCH  19  21
ATOM     21  O2  ZIN A   1      18.875  -5.085  11.665  0.00  0.00    -0.323 OA
ATOM     22  C1  ZIN A   1      17.551  -5.132  12.203  0.00  0.00     0.213 C 
ENDBRANCH  19  21
ENDBRANCH   1  19
BRANCH   7  23
ATOM     23  C12 ZIN A   1      18.847  -2.543   6.581  0.00  0.00     0.292 C 
ATOM     24  O13 ZIN A   1      19.987  -2.281   6.242  0.00  0.00    -0.259 OA
BRANCH  23  25
ATOM     25  O14 ZIN A   1      17.939  -2.919   5.656  0.00  0.00    -0.317 OA
BRANCH  25  26
ATOM     26  C15 ZIN A   1      18.268  -4.047   4.844  0.00  0.00     0.183 C 
BRANCH  26  27
ATOM     27  C16 ZIN A   1      17.124  -5.062   4.893  0.00  0.00     0.002 C 
ATOM     28  C17 ZIN A   1      16.011  -4.622   3.941  0.00  0.00     0.011 C 
ATOM     29  C18 ZIN A   1      17.644  -6.437   4.469  0.00  0.00     0.011 C 
ENDBRANCH  26  27
ENDBRANCH  25  26
ENDBRANCH  23  25
ENDBRANCH   7  23
TORSDOF 8
ENDMDL
MODEL 2
REMARK VINA RESULT:      -6.2      2.998      6.486
REMARK  8 active torsions:
REMARK  status: ('A' for Active; 'I' for Inactive)
REMARK    1  A    between atoms: O2_2  and  C3_3 
REMARK    2  A    between atoms: C3_3  and  C5_5 
REMARK    3  A    between atoms: C11_11  and  C12_12 
REMARK    4  A    between atoms: C12_12  and  O14_14 
REMARK    5  A    between atoms: O14_14  and  C15_15 
REMARK    6  A    between atoms: C15_15  and  C16_16 
REMARK    7  A    between atoms: C19_19  and  C21_20 
REMARK    8  A    between atoms: C26_25  and  N27_26 
ROOT
ATOM      1  C5  ZIN A   1      18.350  -0.323   8.235  0.00  0.00     0.052 C 
ATOM      2  C6  ZIN A   1      18.735   0.940   7.986  0.00  0.00     0.018 C 
ATOM      3  C7  ZIN A   1      19.196   1.318   6.602  0.00  0.00     0.069 C 
ATOM      4  N8  ZIN A   1      18.715   1.887   8.974  0.00  0.00    -0.362 N 
ATOM      5  C9  ZIN A   1      17.978   1.683  10.107  0.00  0.00     0.018 C 
ATOM      6  C10 ZIN A   1      17.629   2.855  10.988  0.00  0.00     0.069 C 
ATOM      7  C11 ZIN A   1      17.565   0.450  10.448  0.00  0.00     0.052 C 
ATOM      8  C19 ZIN A   1      17.892  -0.747   9.602  0.00  0.00     0.103 C 
ATOM      9  H36 ZIN A   1      19.223   2.706   8.867  0.00  0.00     0.165 HD
ENDROOT
BRANCH   8  10
ATOM     10  C21 ZIN A   1      18.986  -1.541  10.267  0.00  0.00    -0.012 A 
ATOM     11  C26 ZIN A   1      18.778  -2.870  10.587  0.00  0.00     0.110 A 
ATOM     12  C25 ZIN A   1      19.783  -3.601  11.192  0.00  0.00     0.037 A 
ATOM     13  C24 ZIN A   1      20.992  -2.999  11.489  0.00  0.00     0.002 A 
ATOM     14  C23 ZIN A   1      21.198  -1.670  11.174  0.00  0.00     0.001 A 
ATOM     15  C22 ZIN A   1      20.195  -0.941  10.563  0.00  0.00     0.011 A 
BRANCH  11  16
ATOM     16  N27 ZIN A   1      17.481  -3.513  10.277  0.00  0.00    -0.115 N 
ATOM     17  O28 ZIN A   1      16.647  -3.656  11.153  0.00  0.00    -0.532 OA
ATOM     18  O29 ZIN A   1      17.248  -3.896   9.144  0.00  0.00    -0.532 OA
ENDBRANCH  11  16
ENDBRANCH   8  10
BRANCH   1  19
ATOM     19  C3  ZIN A   1      18.376  -1.274   7.189  0.00  0.00     0.291 C 
ATOM     20  O4  ZIN A   1      17.468  -1.312   6.378  0.00  0.00    -0.260 OA
BRANCH  19  21
ATOM     21  O2  ZIN A   1      19.407  -2.138   7.088  0.00  0.00    -0.323 OA
ATOM     22  C1  ZIN A   1      19.289  -3.179   6.115  0.00  0.00     0.213 C 
ENDBRANCH  19  21
ENDBRANCH   1  19
BRANCH   7  23
ATOM     23  C12 ZIN A   1      16.803   0.277  11.626  0.00  0.00     0.292 C 
ATOM     24  O13 ZIN A   1      15.608   0.058  11.552  0.00  0.00    -0.259 OA
BRANCH  23  25
ATOM     25  O14 ZIN A   1      17.400   0.354  12.834  0.00  0.00    -0.317 OA
BRANCH  25  26
ATOM     26  C15 ZIN A   1      17.670  -0.878  13.505  0.00  0.00     0.183 C 
BRANCH  26  27
ATOM     27  C16 ZIN A   1      19.087  -0.845  14.081  0.00  0.00     0.002 C 
ATOM     28  C17 ZIN A   1      19.660   0.566  13.944  0.00  0.00     0.011 C 
ATOM     29  C18 ZIN A   1      19.044  -1.236  15.560  0.00  0.00     0.011 C 
ENDBRANCH  26  27
ENDBRANCH  25  26
ENDBRANCH  23  25
ENDBRANCH   7  23
TORSDOF 8
ENDMDL
MODEL 3
REMARK VINA RESULT:      -6.2      5.195      8.145
REMARK  8 active torsions:
REMARK  status: ('A' for Active; 'I' for Inactive)
REMARK    1  A    between atoms: O2_2  and  C3_3 
REMARK    2  A    between atoms: C3_3  and  C5_5 
REMARK    3  A    between atoms: C11_11  and  C12_12 
REMARK    4  A    between atoms: C12_12  and  O14_14 
REMARK    5  A    between atoms: O14_14  and  C15_15 
REMARK    6  A    between atoms: C15_15  and  C16_16 
REMARK    7  A    between atoms: C19_19  and  C21_20 
REMARK    8  A    between atoms: C26_25  and  N27_26 
ROOT
ATOM      1  C5  ZIN A   1      18.426   0.463  14.737  0.00  0.00     0.052 C 
ATOM      2  C6  ZIN A   1      18.822  -0.821  14.788  0.00  0.00     0.018 C 
ATOM      3  C7  ZIN A   1      19.368  -1.381  16.075  0.00  0.00     0.069 C 
ATOM      4  N8  ZIN A   1      18.736  -1.624  13.683  0.00  0.00    -0.362 N 
ATOM      5  C9  ZIN A   1      17.929  -1.271  12.636  0.00  0.00     0.018 C 
ATOM      6  C10 ZIN A   1      17.522  -2.314  11.628  0.00  0.00     0.069 C 
ATOM      7  C11 ZIN A   1      17.501  -0.006  12.493  0.00  0.00     0.052 C 
ATOM      8  C19 ZIN A   1      17.884   1.067  13.473  0.00  0.00     0.103 C 
ATOM      9  H36 ZIN A   1      19.247  -2.448  13.645  0.00  0.00     0.165 HD
ENDROOT
BRANCH   8  10
ATOM     10  C21 ZIN A   1      18.937   1.950  12.854  0.00  0.00    -0.012 A 
ATOM     11  C26 ZIN A   1      18.734   3.316  12.774  0.00  0.00     0.110 A 
ATOM     12  C25 ZIN A   1      19.701   4.126  12.212  0.00  0.00     0.037 A 
ATOM     13  C24 ZIN A   1      20.868   3.571  11.719  0.00  0.00     0.002 A 
ATOM     14  C23 ZIN A   1      21.069   2.206  11.794  0.00  0.00     0.001 A 
ATOM     15  C22 ZIN A   1      20.103   1.396  12.362  0.00  0.00     0.011 A 
BRANCH  11  16
ATOM     16  N27 ZIN A   1      17.482   3.910  13.296  0.00  0.00    -0.115 N 
ATOM     17  O28 ZIN A   1      17.363   4.131  14.488  0.00  0.00    -0.532 OA
ATOM     18  O29 ZIN A   1      16.572   4.179  12.533  0.00  0.00    -0.532 OA
ENDBRANCH  11  16
ENDBRANCH   8  10
BRANCH   1  19
ATOM     19  C3  ZIN A   1      18.521   1.263  15.900  0.00  0.00     0.291 C 
ATOM     20  O4  ZIN A   1      19.448   2.042  16.028  0.00  0.00    -0.260 OA
BRANCH  19  21
ATOM     21  O2  ZIN A   1      17.585   1.163  16.866  0.00  0.00    -0.323 OA
ATOM     22  C1  ZIN A   1      18.017   1.371  18.213  0.00  0.00     0.213 C 
ENDBRANCH  19  21
ENDBRANCH   1  19
BRANCH   7  23
ATOM     23  C12 ZIN A   1      16.666   0.323  11.400  0.00  0.00     0.292 C 
ATOM     24  O13 ZIN A   1      15.488   0.016  11.419  0.00  0.00    -0.259 OA
BRANCH  23  25
ATOM     25  O14 ZIN A   1      17.175   0.976  10.335  0.00  0.00    -0.317 OA
BRANCH  25  26
ATOM     26  C15 ZIN A   1      17.386   0.214   9.145  0.00  0.00     0.183 C 
BRANCH  26  27
ATOM     27  C16 ZIN A   1      18.739   0.584   8.535  0.00  0.00     0.002 C 
ATOM     28  C17 ZIN A   1      19.031   2.062   8.800  0.00  0.00     0.011 C 
ATOM     29  C18 ZIN A   1      19.835  -0.274   9.170  0.00  0.00     0.011 C 
ENDBRANCH  26  27
ENDBRANCH  25  26
ENDBRANCH  23  25
ENDBRANCH   7  23
TORSDOF 8
ENDMDL
MODEL 4
REMARK VINA RESULT:      -6.1      2.463      5.499
REMARK  8 active torsions:
REMARK  status: ('A' for Active; 'I' for Inactive)
REMARK    1  A    between atoms: O2_2  and  C3_3 
REMARK    2  A    between atoms: C3_3  and  C5_5 
REMARK    3  A    between atoms: C11_11  and  C12_12 
REMARK    4  A    between atoms: C12_12  and  O14_14 
REMARK    5  A    between atoms: O14_14  and  C15_15 
REMARK    6  A    between atoms: C15_15  and  C16_16 
REMARK    7  A    between atoms: C19_19  and  C21_20 
REMARK    8  A    between atoms: C26_25  and  N27_26 
ROOT
ATOM      1  C5  ZIN A   1      17.693  -4.324   5.174  0.00  0.00     0.052 C 
ATOM      2  C6  ZIN A   1      18.239  -3.864   4.035  0.00  0.00     0.018 C 
ATOM      3  C7  ZIN A   1      18.003  -4.605   2.745  0.00  0.00     0.069 C 
ATOM      4  N8  ZIN A   1      19.007  -2.731   4.034  0.00  0.00    -0.362 N 
ATOM      5  C9  ZIN A   1      18.941  -1.853   5.081  0.00  0.00     0.018 C 
ATOM      6  C10 ZIN A   1      19.454  -0.447   4.905  0.00  0.00     0.069 C 
ATOM      7  C11 ZIN A   1      18.429  -2.231   6.265  0.00  0.00     0.052 C 
ATOM      8  C19 ZIN A   1      17.908  -3.623   6.485  0.00  0.00     0.103 C 
ATOM      9  H36 ZIN A   1      19.598  -2.550   3.286  0.00  0.00     0.165 HD
ENDROOT
BRANCH   8  10
ATOM     10  C21 ZIN A   1      18.905  -4.401   7.306  0.00  0.00    -0.012 A 
ATOM     11  C26 ZIN A   1      18.585  -4.791   8.593  0.00  0.00     0.110 A 
ATOM     12  C25 ZIN A   1      19.496  -5.510   9.343  0.00  0.00     0.037 A 
ATOM     13  C24 ZIN A   1      20.732  -5.828   8.812  0.00  0.00     0.002 A 
ATOM     14  C23 ZIN A   1      21.054  -5.433   7.527  0.00  0.00     0.001 A 
ATOM     15  C22 ZIN A   1      20.140  -4.719   6.774  0.00  0.00     0.011 A 
BRANCH  11  16
ATOM     16  N27 ZIN A   1      17.265  -4.445   9.165  0.00  0.00    -0.115 N 
ATOM     17  O28 ZIN A   1      17.157  -3.490   9.915  0.00  0.00    -0.532 OA
ATOM     18  O29 ZIN A   1      16.286  -5.113   8.885  0.00  0.00    -0.532 OA
ENDBRANCH  11  16
ENDBRANCH   8  10
BRANCH   1  19
ATOM     19  C3  ZIN A   1      16.898  -5.493   5.137  0.00  0.00     0.291 C 
ATOM     20  O4  ZIN A   1      15.685  -5.403   5.081  0.00  0.00    -0.260 OA
BRANCH  19  21
ATOM     21  O2  ZIN A   1      17.483  -6.708   5.164  0.00  0.00    -0.323 OA
ATOM     22  C1  ZIN A   1      17.252  -7.515   6.322  0.00  0.00     0.213 C 
ENDBRANCH  19  21
ENDBRANCH   1  19
BRANCH   7  23
ATOM     23  C12 ZIN A   1      18.375  -1.296   7.324  0.00  0.00     0.292 C 
ATOM     24  O13 ZIN A   1      17.396  -0.586   7.460  0.00  0.00    -0.259 OA
BRANCH  23  25
ATOM     25  O14 ZIN A   1      19.408  -1.192   8.187  0.00  0.00    -0.317 OA
BRANCH  25  26
ATOM     26  C15 ZIN A   1      19.625   0.086   8.788  0.00  0.00     0.183 C 
BRANCH  26  27
ATOM     27  C16 ZIN A   1      19.533  -0.045  10.309  0.00  0.00     0.002 C 
ATOM     28  C17 ZIN A   1      18.117   0.310  10.767  0.00  0.00     0.011 C 
ATOM     29  C18 ZIN A   1      19.854  -1.485  10.717  0.00  0.00     0.011 C 
ENDBRANCH  26  27
ENDBRANCH  25  26
ENDBRANCH  23  25
ENDBRANCH   7  23
TORSDOF 8
ENDMDL
MODEL 5
REMARK VINA RESULT:      -5.9      2.751      5.854
REMARK  8 active torsions:
REMARK  status: ('A' for Active; 'I' for Inactive)
REMARK    1  A    between atoms: O2_2  and  C3_3 
REMARK    2  A    between atoms: C3_3  and  C5_5 
REMARK    3  A    between atoms: C11_11  and  C12_12 
REMARK    4  A    between atoms: C12_12  and  O14_14 
REMARK    5  A    between atoms: O14_14  and  C15_15 
REMARK    6  A    between atoms: C15_15  and  C16_16 
REMARK    7  A    between atoms: C19_19  and  C21_20 
REMARK    8  A    between atoms: C26_25  and  N27_26 
ROOT
ATOM      1  C5  ZIN A   1      18.914  -3.424   9.039  0.00  0.00     0.052 C 
ATOM      2  C6  ZIN A   1      19.653  -3.691   7.948  0.00  0.00     0.018 C 
ATOM      3  C7  ZIN A   1      20.232  -5.069   7.760  0.00  0.00     0.069 C 
ATOM      4  N8  ZIN A   1      19.886  -2.725   7.007  0.00  0.00    -0.362 N 
ATOM      5  C9  ZIN A   1      19.098  -1.609   6.956  0.00  0.00     0.018 C 
ATOM      6  C10 ZIN A   1      19.084  -0.765   5.707  0.00  0.00     0.069 C 
ATOM      7  C11 ZIN A   1      18.340  -1.253   8.007  0.00  0.00     0.052 C 
ATOM      8  C19 ZIN A   1      18.324  -2.062   9.272  0.00  0.00     0.103 C 
ATOM      9  H36 ZIN A   1      20.612  -2.836   6.372  0.00  0.00     0.165 HD
ENDROOT
BRANCH   8  10
ATOM     10  C21 ZIN A   1      19.129  -1.348  10.328  0.00  0.00    -0.012 A 
ATOM     11  C26 ZIN A   1      18.557  -1.056  11.553  0.00  0.00     0.110 A 
ATOM     12  C25 ZIN A   1      19.296  -0.407  12.523  0.00  0.00     0.037 A 
ATOM     13  C24 ZIN A   1      20.603  -0.037  12.265  0.00  0.00     0.002 A 
ATOM     14  C23 ZIN A   1      21.173  -0.324  11.040  0.00  0.00     0.001 A 
ATOM     15  C22 ZIN A   1      20.436  -0.980  10.071  0.00  0.00     0.011 A 
BRANCH  11  16
ATOM     16  N27 ZIN A   1      17.155  -1.445  11.826  0.00  0.00    -0.115 N 
ATOM     17  O28 ZIN A   1      16.886  -2.600  12.102  0.00  0.00    -0.532 OA
ATOM     18  O29 ZIN A   1      16.271  -0.608  11.778  0.00  0.00    -0.532 OA
ENDBRANCH  11  16
ENDBRANCH   8  10
BRANCH   1  19
ATOM     19  C3  ZIN A   1      18.686  -4.448   9.988  0.00  0.00     0.291 C 
ATOM     20  O4  ZIN A   1      19.467  -4.610  10.908  0.00  0.00    -0.260 OA
BRANCH  19  21
ATOM     21  O2  ZIN A   1      17.603  -5.245   9.874  0.00  0.00    -0.323 OA
ATOM     22  C1  ZIN A   1      17.227  -5.997  11.030  0.00  0.00     0.213 C 
ENDBRANCH  19  21
ENDBRANCH   1  19
BRANCH   7  23
ATOM     23  C12 ZIN A   1      17.536  -0.093   7.918  0.00  0.00     0.292 C 
ATOM     24  O13 ZIN A   1      16.737   0.026   7.008  0.00  0.00    -0.259 OA
BRANCH  23  25
ATOM     25  O14 ZIN A   1      17.653   0.883   8.843  0.00  0.00    -0.317 OA
BRANCH  25  26
ATOM     26  C15 ZIN A   1      18.678   1.856   8.635  0.00  0.00     0.183 C 
BRANCH  26  27
ATOM     27  C16 ZIN A   1      18.643   2.884   9.767  0.00  0.00     0.002 C 
ATOM     28  C17 ZIN A   1      18.116   4.216   9.231  0.00  0.00     0.011 C 
ATOM     29  C18 ZIN A   1      17.721   2.383  10.881  0.00  0.00     0.011 C 
ENDBRANCH  26  27
ENDBRANCH  25  26
ENDBRANCH  23  25
ENDBRANCH   7  23
TORSDOF 8
ENDMDL
MODEL 6
REMARK VINA RESULT:      -5.8      8.098     11.930
REMARK  8 active torsions:
REMARK  status: ('A' for Active; 'I' for Inactive)
REMARK    1  A    between atoms: O2_2  and  C3_3 
REMARK    2  A    between atoms: C3_3  and  C5_5 
REMARK    3  A    between atoms: C11_11  and  C12_12 
REMARK    4  A    between atoms: C12_12  and  O14_14 
REMARK    5  A    between atoms: O14_14  and  C15_15 
REMARK    6  A    between atoms: C15_15  and  C16_16 
REMARK    7  A    between atoms: C19_19  and  C21_20 
REMARK    8  A    between atoms: C26_25  and  N27_26 
ROOT
ATOM      1  C5  ZIN A   1      17.566   4.756  17.735  0.00  0.00     0.052 C 
ATOM      2  C6  ZIN A   1      18.022   4.364  18.938  0.00  0.00     0.018 C 
ATOM      3  C7  ZIN A   1      17.627   5.134  20.171  0.00  0.00     0.069 C 
ATOM      4  N8  ZIN A   1      18.842   3.275  19.054  0.00  0.00    -0.362 N 
ATOM      5  C9  ZIN A   1      18.920   2.360  18.040  0.00  0.00     0.018 C 
ATOM      6  C10 ZIN A   1      19.483   0.990  18.316  0.00  0.00     0.069 C 
ATOM      7  C11 ZIN A   1      18.506   2.671  16.800  0.00  0.00     0.052 C 
ATOM      8  C19 ZIN A   1      17.941   4.025  16.478  0.00  0.00     0.103 C 
ATOM      9  H36 ZIN A   1      19.367   3.150  19.861  0.00  0.00     0.165 HD
ENDROOT
BRANCH   8  10
ATOM     10  C21 ZIN A   1      18.971   4.827  15.726  0.00  0.00    -0.012 A 
ATOM     11  C26 ZIN A   1      18.741   5.189  14.411  0.00  0.00     0.110 A 
ATOM     12  C25 ZIN A   1      19.684   5.929  13.724  0.00  0.00     0.037 A 
ATOM     13  C24 ZIN A   1      20.862   6.298  14.346  0.00  0.00     0.002 A 
ATOM     14  C23 ZIN A   1      21.094   5.933  15.658  0.00  0.00     0.001 A 
ATOM     15  C22 ZIN A   1      20.149   5.197  16.348  0.00  0.00     0.011 A 
BRANCH  11  16
ATOM     16  N27 ZIN A   1      17.483   4.788  13.743  0.00  0.00    -0.115 N 
ATOM     17  O28 ZIN A   1      17.437   3.754  13.100  0.00  0.00    -0.532 OA
ATOM     18  O29 ZIN A   1      16.493   5.490  13.838  0.00  0.00    -0.532 OA
ENDBRANCH  11  16
ENDBRANCH   8  10
BRANCH   1  19
ATOM     19  C3  ZIN A   1      16.714   5.882  17.653  0.00  0.00     0.291 C 
ATOM     20  O4  ZIN A   1      15.507   5.730  17.599  0.00  0.00    -0.260 OA
BRANCH  19  21
ATOM     21  O2  ZIN A   1      17.238   7.125  17.635  0.00  0.00    -0.323 OA
ATOM     22  C1  ZIN A   1      16.996   7.915  16.468  0.00  0.00     0.213 C 
ENDBRANCH  19  21
ENDBRANCH   1  19
BRANCH   7  23
ATOM     23  C12 ZIN A   1      18.600   1.700  15.776  0.00  0.00     0.292 C 
ATOM     24  O13 ZIN A   1      19.532   1.728  14.993  0.00  0.00    -0.259 OA
BRANCH  23  25
ATOM     25  O14 ZIN A   1      17.658   0.740  15.666  0.00  0.00    -0.317 OA
BRANCH  25  26
ATOM     26  C15 ZIN A   1      17.657  -0.036  14.467  0.00  0.00     0.183 C 
BRANCH  26  27
ATOM     27  C16 ZIN A   1      18.192  -1.438  14.768  0.00  0.00     0.002 C 
ATOM     28  C17 ZIN A   1      19.636  -1.550  14.276  0.00  0.00     0.011 C 
ATOM     29  C18 ZIN A   1      18.147  -1.687  16.277  0.00  0.00     0.011 C 
ENDBRANCH  26  27
ENDBRANCH  25  26
ENDBRANCH  23  25
ENDBRANCH   7  23
TORSDOF 8
ENDMDL
MODEL 7
REMARK VINA RESULT:      -5.7      1.667      5.763
REMARK  8 active torsions:
REMARK  status: ('A' for Active; 'I' for Inactive)
REMARK    1  A    between atoms: O2_2  and  C3_3 
REMARK    2  A    between atoms: C3_3  and  C5_5 
REMARK    3  A    between atoms: C11_11  and  C12_12 
REMARK    4  A    between atoms: C12_12  and  O14_14 
REMARK    5  A    between atoms: O14_14  and  C15_15 
REMARK    6  A    between atoms: C15_15  and  C16_16 
REMARK    7  A    between atoms: C19_19  and  C21_20 
REMARK    8  A    between atoms: C26_25  and  N27_26 
ROOT
ATOM      1  C5  ZIN A   1      17.371  -5.057   7.858  0.00  0.00     0.052 C 
ATOM      2  C6  ZIN A   1      16.324  -5.508   8.571  0.00  0.00     0.018 C 
ATOM      3  C7  ZIN A   1      15.249  -6.313   7.887  0.00  0.00     0.069 C 
ATOM      4  N8  ZIN A   1      16.222  -5.242   9.909  0.00  0.00    -0.362 N 
ATOM      5  C9  ZIN A   1      17.323  -4.847  10.619  0.00  0.00     0.018 C 
ATOM      6  C10 ZIN A   1      17.315  -4.949  12.122  0.00  0.00     0.069 C 
ATOM      7  C11 ZIN A   1      18.409  -4.365   9.991  0.00  0.00     0.052 C 
ATOM      8  C19 ZIN A   1      18.461  -4.243   8.495  0.00  0.00     0.103 C 
ATOM      9  H36 ZIN A   1      15.367  -5.339  10.356  0.00  0.00     0.165 HD
ENDROOT
BRANCH   8  10
ATOM     10  C21 ZIN A   1      18.289  -2.797   8.108  0.00  0.00    -0.012 A 
ATOM     11  C26 ZIN A   1      18.940  -2.297   6.994  0.00  0.00     0.110 A 
ATOM     12  C25 ZIN A   1      18.778  -0.972   6.637  0.00  0.00     0.037 A 
ATOM     13  C24 ZIN A   1      17.977  -0.143   7.399  0.00  0.00     0.002 A 
ATOM     14  C23 ZIN A   1      17.331  -0.640   8.514  0.00  0.00     0.001 A 
ATOM     15  C22 ZIN A   1      17.488  -1.967   8.869  0.00  0.00     0.011 A 
BRANCH  11  16
ATOM     16  N27 ZIN A   1      19.804  -3.183   6.182  0.00  0.00    -0.115 N 
ATOM     17  O28 ZIN A   1      19.645  -3.250   4.976  0.00  0.00    -0.532 OA
ATOM     18  O29 ZIN A   1      20.674  -3.844   6.720  0.00  0.00    -0.532 OA
ENDBRANCH  11  16
ENDBRANCH   8  10
BRANCH   1  19
ATOM     19  C3  ZIN A   1      17.447  -5.356   6.477  0.00  0.00     0.291 C 
ATOM     20  O4  ZIN A   1      18.180  -6.247   6.087  0.00  0.00    -0.260 OA
BRANCH  19  21
ATOM     21  O2  ZIN A   1      16.707  -4.656   5.593  0.00  0.00    -0.323 OA
ATOM     22  C1  ZIN A   1      16.589  -5.195   4.274  0.00  0.00     0.213 C 
ENDBRANCH  19  21
ENDBRANCH   1  19
BRANCH   7  23
ATOM     23  C12 ZIN A   1      19.530  -3.967  10.756  0.00  0.00     0.292 C 
ATOM     24  O13 ZIN A   1      20.334  -4.798  11.135  0.00  0.00    -0.259 OA
BRANCH  23  25
ATOM     25  O14 ZIN A   1      19.710  -2.666  11.065  0.00  0.00    -0.317 OA
BRANCH  25  26
ATOM     26  C15 ZIN A   1      19.556  -2.297  12.436  0.00  0.00     0.183 C 
BRANCH  26  27
ATOM     27  C16 ZIN A   1      18.895  -0.919  12.522  0.00  0.00     0.002 C 
ATOM     28  C17 ZIN A   1      19.478  -0.006  11.443  0.00  0.00     0.011 C 
ATOM     29  C18 ZIN A   1      17.387  -1.064  12.307  0.00  0.00     0.011 C 
ENDBRANCH  26  27
ENDBRANCH  25  26
ENDBRANCH  23  25
ENDBRANCH   7  23
TORSDOF 8
ENDMDL
MODEL 8
REMARK VINA RESULT:      -5.6      7.091     10.113
REMARK  8 active torsions:
REMARK  status: ('A' for Active; 'I' for Inactive)
REMARK    1  A    between atoms: O2_2  and  C3_3 
REMARK    2  A    between atoms: C3_3  and  C5_5 
REMARK    3  A    between atoms: C11_11  and  C12_12 
REMARK    4  A    between atoms: C12_12  and  O14_14 
REMARK    5  A    between atoms: O14_14  and  C15_15 
REMARK    6  A    between atoms: C15_15  and  C16_16 
REMARK    7  A    between atoms: C19_19  and  C21_20 
REMARK    8  A    between atoms: C26_25  and  N27_26 
ROOT
ATOM      1  C5  ZIN A   1      17.287   5.231  15.156  0.00  0.00     0.052 C 
ATOM      2  C6  ZIN A   1      16.222   5.661  14.458  0.00  0.00     0.018 C 
ATOM      3  C7  ZIN A   1      15.121   6.408  15.164  0.00  0.00     0.069 C 
ATOM      4  N8  ZIN A   1      16.125   5.426  13.113  0.00  0.00    -0.362 N 
ATOM      5  C9  ZIN A   1      17.238   5.090  12.391  0.00  0.00     0.018 C 
ATOM      6  C10 ZIN A   1      17.221   5.229  10.891  0.00  0.00     0.069 C 
ATOM      7  C11 ZIN A   1      18.343   4.632  13.004  0.00  0.00     0.052 C 
ATOM      8  C19 ZIN A   1      18.404   4.474  14.496  0.00  0.00     0.103 C 
ATOM      9  H36 ZIN A   1      15.265   5.502  12.671  0.00  0.00     0.165 HD
ENDROOT
BRANCH   8  10
ATOM     10  C21 ZIN A   1      18.288   3.013  14.846  0.00  0.00    -0.012 A 
ATOM     11  C26 ZIN A   1      18.967   2.508  15.940  0.00  0.00     0.110 A 
ATOM     12  C25 ZIN A   1      18.856   1.170  16.265  0.00  0.00     0.037 A 
ATOM     13  C24 ZIN A   1      18.075   0.333  15.489  0.00  0.00     0.002 A 
ATOM     14  C23 ZIN A   1      17.401   0.836  14.393  0.00  0.00     0.001 A 
ATOM     15  C22 ZIN A   1      17.507   2.176  14.072  0.00  0.00     0.011 A 
BRANCH  11  16
ATOM     16  N27 ZIN A   1      19.808   3.403  16.766  0.00  0.00    -0.115 N 
ATOM     17  O28 ZIN A   1      20.644   4.114  16.237  0.00  0.00    -0.532 OA
ATOM     18  O29 ZIN A   1      19.664   3.429  17.975  0.00  0.00    -0.532 OA
ENDBRANCH  11  16
ENDBRANCH   8  10
BRANCH   1  19
ATOM     19  C3  ZIN A   1      17.358   5.498  16.544  0.00  0.00     0.291 C 
ATOM     20  O4  ZIN A   1      18.062   6.402  16.954  0.00  0.00    -0.260 OA
BRANCH  19  21
ATOM     21  O2  ZIN A   1      16.644   4.752  17.412  0.00  0.00    -0.323 OA
ATOM     22  C1  ZIN A   1      16.630   5.178  18.776  0.00  0.00     0.213 C 
ENDBRANCH  19  21
ENDBRANCH   1  19
BRANCH   7  23
ATOM     23  C12 ZIN A   1      19.475   4.295  12.226  0.00  0.00     0.292 C 
ATOM     24  O13 ZIN A   1      20.525   4.889  12.389  0.00  0.00    -0.259 OA
BRANCH  23  25
ATOM     25  O14 ZIN A   1      19.393   3.314  11.302  0.00  0.00    -0.317 OA
BRANCH  25  26
ATOM     26  C15 ZIN A   1      19.982   2.056  11.636  0.00  0.00     0.183 C 
BRANCH  26  27
ATOM     27  C16 ZIN A   1      19.348   0.955  10.784  0.00  0.00     0.002 C 
ATOM     28  C17 ZIN A   1      19.377  -0.366  11.554  0.00  0.00     0.011 C 
ATOM     29  C18 ZIN A   1      17.899   1.328  10.466  0.00  0.00     0.011 C 
ENDBRANCH  26  27
ENDBRANCH  25  26
ENDBRANCH  23  25
ENDBRANCH   7  23
TORSDOF 8
ENDMDL
MODEL 9
REMARK VINA RESULT:      -5.6      2.311      5.235
REMARK  8 active torsions:
REMARK  status: ('A' for Active; 'I' for Inactive)
REMARK    1  A    between atoms: O2_2  and  C3_3 
REMARK    2  A    between atoms: C3_3  and  C5_5 
REMARK    3  A    between atoms: C11_11  and  C12_12 
REMARK    4  A    between atoms: C12_12  and  O14_14 
REMARK    5  A    between atoms: O14_14  and  C15_15 
REMARK    6  A    between atoms: C15_15  and  C16_16 
REMARK    7  A    between atoms: C19_19  and  C21_20 
REMARK    8  A    between atoms: C26_25  and  N27_26 
ROOT
ATOM      1  C5  ZIN A   1      18.052  -3.810   9.434  0.00  0.00     0.052 C 
ATOM      2  C6  ZIN A   1      17.289  -3.827  10.541  0.00  0.00     0.018 C 
ATOM      3  C7  ZIN A   1      16.426  -5.027  10.831  0.00  0.00     0.069 C 
ATOM      4  N8  ZIN A   1      17.286  -2.766  11.405  0.00  0.00    -0.362 N 
ATOM      5  C9  ZIN A   1      18.300  -1.848  11.373  0.00  0.00     0.018 C 
ATOM      6  C10 ZIN A   1      18.516  -0.937  12.553  0.00  0.00     0.069 C 
ATOM      7  C11 ZIN A   1      19.101  -1.746  10.299  0.00  0.00     0.052 C 
ATOM      8  C19 ZIN A   1      18.921  -2.631   9.099  0.00  0.00     0.103 C 
ATOM      9  H36 ZIN A   1      16.564  -2.668  12.045  0.00  0.00     0.165 HD
ENDROOT
BRANCH   8  10
ATOM     10  C21 ZIN A   1      18.275  -1.839   7.990  0.00  0.00    -0.012 A 
ATOM     11  C26 ZIN A   1      18.583  -2.119   6.672  0.00  0.00     0.110 A 
ATOM     12  C25 ZIN A   1      17.988  -1.397   5.655  0.00  0.00     0.037 A 
ATOM     13  C24 ZIN A   1      17.094  -0.387   5.956  0.00  0.00     0.002 A 
ATOM     14  C23 ZIN A   1      16.790  -0.103   7.274  0.00  0.00     0.001 A 
ATOM     15  C22 ZIN A   1      17.381  -0.829   8.291  0.00  0.00     0.011 A 
BRANCH  11  16
ATOM     16  N27 ZIN A   1      19.546  -3.196   6.349  0.00  0.00    -0.115 N 
ATOM     17  O28 ZIN A   1      19.243  -4.065   5.550  0.00  0.00    -0.532 OA
ATOM     18  O29 ZIN A   1      20.642  -3.213   6.880  0.00  0.00    -0.532 OA
ENDBRANCH  11  16
ENDBRANCH   8  10
BRANCH   1  19
ATOM     19  C3  ZIN A   1      18.036  -4.927   8.566  0.00  0.00     0.291 C 
ATOM     20  O4  ZIN A   1      18.955  -5.725   8.585  0.00  0.00    -0.260 OA
BRANCH  19  21
ATOM     21  O2  ZIN A   1      17.003  -5.108   7.718  0.00  0.00    -0.323 OA
ATOM     22  C1  ZIN A   1      16.723  -6.450   7.313  0.00  0.00     0.213 C 
ENDBRANCH  19  21
ENDBRANCH   1  19
BRANCH   7  23
ATOM     23  C12 ZIN A   1      20.140  -0.786  10.300  0.00  0.00     0.292 C 
ATOM     24  O13 ZIN A   1      21.184  -1.021  10.880  0.00  0.00    -0.259 OA
BRANCH  23  25
ATOM     25  O14 ZIN A   1      19.975   0.389   9.658  0.00  0.00    -0.317 OA
BRANCH  25  26
ATOM     26  C15 ZIN A   1      19.549   1.504  10.444  0.00  0.00     0.183 C 
BRANCH  26  27
ATOM     27  C16 ZIN A   1      18.460   2.272   9.691  0.00  0.00     0.002 C 
ATOM     28  C17 ZIN A   1      18.192   3.601  10.398  0.00  0.00     0.011 C 
ATOM     29  C18 ZIN A   1      18.926   2.541   8.259  0.00  0.00     0.011 C 
ENDBRANCH  26  27
ENDBRANCH  25  26
ENDBRANCH  23  25
ENDBRANCH   7  23
TORSDOF 8
ENDMDL
