MODEL 1
REMARK VINA RESULT:      -7.5      0.000      0.000
REMARK  3 active torsions:
REMARK  status: ('A' for Active; 'I' for Inactive)
REMARK    1  A    between atoms: C2_2  and  C4_3 
REMARK    2  A    between atoms: C2_2  and  N19_18 
REMARK    3  A    between atoms: C4_3  and  N5_4 
ROOT
ATOM      1  N5  ZIN A   1      18.319   2.347  13.762  0.00  0.00    -0.343 N 
ATOM      2  C6  ZIN A   1      18.392   2.547  12.378  0.00  0.00     0.052 A 
ATOM      3  C7  ZIN A   1      17.569   3.476  11.763  0.00  0.00     0.031 A 
ATOM      4  C8  ZIN A   1      17.643   3.667  10.394  0.00  0.00     0.002 A 
ATOM      5  C9  ZIN A   1      18.534   2.935   9.634  0.00  0.00     0.002 A 
ATOM      6  C10 ZIN A   1      19.362   2.003  10.239  0.00  0.00     0.021 A 
ATOM      7  C11 ZIN A   1      19.293   1.809  11.606  0.00  0.00     0.032 A 
ATOM      8  S12 ZIN A   1      20.338   0.631  12.401  0.00  0.00    -0.086 SA
ATOM      9  C13 ZIN A   1      19.353   0.154  13.786  0.00  0.00     0.032 A 
ATOM     10  C14 ZIN A   1      19.473  -1.110  14.333  0.00  0.00     0.021 A 
ATOM     11  C15 ZIN A   1      18.692  -1.466  15.420  0.00  0.00     0.002 A 
ATOM     12  C16 ZIN A   1      17.797  -0.561  15.955  0.00  0.00     0.002 A 
ATOM     13  C17 ZIN A   1      17.672   0.706  15.411  0.00  0.00     0.031 A 
ATOM     14  C18 ZIN A   1      18.452   1.072  14.322  0.00  0.00     0.052 A 
ENDROOT
BRANCH   1  15
ATOM     15  C4  ZIN A   1      18.104   3.498  14.642  0.00  0.00     0.162 C 
BRANCH  15  16
ATOM     16  C2  ZIN A   1      19.235   4.509  14.443  0.00  0.00     0.201 C 
ATOM     17  C1  ZIN A   1      18.655   5.924  14.411  0.00  0.00     0.042 C 
BRANCH  16  18
ATOM     18  N19 ZIN A   1      20.193   4.398  15.552  0.00  0.00    -0.073 N 
ATOM     19  H20 ZIN A   1      20.919   3.742  15.304  0.00  0.00     0.279 HD
ATOM     20  C21 ZIN A   1      20.791   5.713  15.816  0.00  0.00     0.269 C 
ATOM     21  C22 ZIN A   1      19.496   3.925  16.755  0.00  0.00     0.269 C 
ENDBRANCH  16  18
ENDBRANCH  15  16
ENDBRANCH   1  15
TORSDOF 3
ENDMDL
MODEL 2
REMARK VINA RESULT:      -7.2      2.484      5.343
REMARK  3 active torsions:
REMARK  status: ('A' for Active; 'I' for Inactive)
REMARK    1  A    between atoms: C2_2  and  C4_3 
REMARK    2  A    between atoms: C2_2  and  N19_18 
REMARK    3  A    between atoms: C4_3  and  N5_4 
ROOT
ATOM      1  N5  ZIN A   1      19.034   1.649  10.820  0.00  0.00    -0.343 N 
ATOM      2  C6  ZIN A   1      19.041   0.748  11.892  0.00  0.00     0.052 A 
ATOM      3  C7  ZIN A   1      20.016   0.835  12.870  0.00  0.00     0.031 A 
ATOM      4  C8  ZIN A   1      20.020  -0.061  13.926  0.00  0.00     0.002 A 
ATOM      5  C9  ZIN A   1      19.053  -1.044  14.011  0.00  0.00     0.002 A 
ATOM      6  C10 ZIN A   1      18.072  -1.140  13.037  0.00  0.00     0.021 A 
ATOM      7  C11 ZIN A   1      18.064  -0.247  11.981  0.00  0.00     0.032 A 
ATOM      8  S12 ZIN A   1      16.823  -0.345  10.730  0.00  0.00    -0.086 SA
ATOM      9  C13 ZIN A   1      17.676   0.304   9.328  0.00  0.00     0.032 A 
ATOM     10  C14 ZIN A   1      17.344  -0.107   8.050  0.00  0.00     0.021 A 
ATOM     11  C15 ZIN A   1      18.023   0.415   6.962  0.00  0.00     0.002 A 
ATOM     12  C16 ZIN A   1      19.028   1.343   7.153  0.00  0.00     0.002 A 
ATOM     13  C17 ZIN A   1      19.365   1.758   8.430  0.00  0.00     0.031 A 
ATOM     14  C18 ZIN A   1      18.687   1.241   9.527  0.00  0.00     0.052 A 
ENDROOT
BRANCH   1  15
ATOM     15  C4  ZIN A   1      19.393   3.049  11.059  0.00  0.00     0.162 C 
BRANCH  15  16
ATOM     16  C2  ZIN A   1      18.403   3.666  12.049  0.00  0.00     0.201 C 
ATOM     17  C1  ZIN A   1      19.084   4.808  12.806  0.00  0.00     0.042 C 
BRANCH  16  18
ATOM     18  N19 ZIN A   1      17.240   4.189  11.318  0.00  0.00    -0.073 N 
ATOM     19  H20 ZIN A   1      16.619   3.427  11.088  0.00  0.00     0.279 HD
ATOM     20  C21 ZIN A   1      16.531   5.162  12.159  0.00  0.00     0.269 C 
ATOM     21  C22 ZIN A   1      17.691   4.844  10.083  0.00  0.00     0.269 C 
ENDBRANCH  16  18
ENDBRANCH  15  16
ENDBRANCH   1  15
TORSDOF 3
ENDMDL
MODEL 3
REMARK VINA RESULT:      -7.1      5.681      7.316
REMARK  3 active torsions:
REMARK  status: ('A' for Active; 'I' for Inactive)
REMARK    1  A    between atoms: C2_2  and  C4_3 
REMARK    2  A    between atoms: C2_2  and  N19_18 
REMARK    3  A    between atoms: C4_3  and  N5_4 
ROOT
ATOM      1  N5  ZIN A   1      18.171  -2.463   8.824  0.00  0.00    -0.343 N 
ATOM      2  C6  ZIN A   1      18.297  -1.718   7.645  0.00  0.00     0.052 A 
ATOM      3  C7  ZIN A   1      17.728  -0.460   7.550  0.00  0.00     0.031 A 
ATOM      4  C8  ZIN A   1      17.852   0.270   6.381  0.00  0.00     0.002 A 
ATOM      5  C9  ZIN A   1      18.542  -0.250   5.303  0.00  0.00     0.002 A 
ATOM      6  C10 ZIN A   1      19.115  -1.509   5.387  0.00  0.00     0.021 A 
ATOM      7  C11 ZIN A   1      18.994  -2.242   6.553  0.00  0.00     0.032 A 
ATOM      8  S12 ZIN A   1      19.719  -3.845   6.687  0.00  0.00    -0.086 SA
ATOM      9  C13 ZIN A   1      18.640  -4.630   7.843  0.00  0.00     0.032 A 
ATOM     10  C14 ZIN A   1      18.447  -5.999   7.808  0.00  0.00     0.021 A 
ATOM     11  C15 ZIN A   1      17.598  -6.597   8.724  0.00  0.00     0.002 A 
ATOM     12  C16 ZIN A   1      16.947  -5.828   9.669  0.00  0.00     0.002 A 
ATOM     13  C17 ZIN A   1      17.137  -4.457   9.709  0.00  0.00     0.031 A 
ATOM     14  C18 ZIN A   1      17.988  -3.850   8.795  0.00  0.00     0.052 A 
ENDROOT
BRANCH   1  15
ATOM     15  C4  ZIN A   1      18.239  -1.775  10.116  0.00  0.00     0.162 C 
BRANCH  15  16
ATOM     16  C2  ZIN A   1      19.699  -1.670  10.561  0.00  0.00     0.201 C 
ATOM     17  C1  ZIN A   1      20.081  -0.197  10.714  0.00  0.00     0.042 C 
BRANCH  16  18
ATOM     18  N19 ZIN A   1      19.869  -2.356  11.849  0.00  0.00    -0.073 N 
ATOM     19  H20 ZIN A   1      20.578  -1.884  12.391  0.00  0.00     0.279 HD
ATOM     20  C21 ZIN A   1      18.598  -2.337  12.585  0.00  0.00     0.269 C 
ATOM     21  C22 ZIN A   1      20.278  -3.747  11.613  0.00  0.00     0.269 C 
ENDBRANCH  16  18
ENDBRANCH  15  16
ENDBRANCH   1  15
TORSDOF 3
ENDMDL
MODEL 4
REMARK VINA RESULT:      -7.0      2.508      5.065
REMARK  3 active torsions:
REMARK  status: ('A' for Active; 'I' for Inactive)
REMARK    1  A    between atoms: C2_2  and  C4_3 
REMARK    2  A    between atoms: C2_2  and  N19_18 
REMARK    3  A    between atoms: C4_3  and  N5_4 
ROOT
ATOM      1  N5  ZIN A   1      19.334  -0.203  12.603  0.00  0.00    -0.343 N 
ATOM      2  C6  ZIN A   1      18.989  -1.448  12.061  0.00  0.00     0.052 A 
ATOM      3  C7  ZIN A   1      19.811  -2.545  12.255  0.00  0.00     0.031 A 
ATOM      4  C8  ZIN A   1      19.467  -3.772  11.714  0.00  0.00     0.002 A 
ATOM      5  C9  ZIN A   1      18.305  -3.910  10.980  0.00  0.00     0.002 A 
ATOM      6  C10 ZIN A   1      17.475  -2.819  10.781  0.00  0.00     0.021 A 
ATOM      7  C11 ZIN A   1      17.814  -1.591  11.319  0.00  0.00     0.032 A 
ATOM      8  S12 ZIN A   1      16.772  -0.187  11.083  0.00  0.00    -0.086 SA
ATOM      9  C13 ZIN A   1      17.936   1.138  11.143  0.00  0.00     0.032 A 
ATOM     10  C14 ZIN A   1      17.706   2.309  10.447  0.00  0.00     0.021 A 
ATOM     11  C15 ZIN A   1      18.630   3.339  10.507  0.00  0.00     0.002 A 
ATOM     12  C16 ZIN A   1      19.779   3.194  11.261  0.00  0.00     0.002 A 
ATOM     13  C17 ZIN A   1      20.015   2.023  11.961  0.00  0.00     0.031 A 
ATOM     14  C18 ZIN A   1      19.092   0.987  11.907  0.00  0.00     0.052 A 
ENDROOT
BRANCH   1  15
ATOM     15  C4  ZIN A   1      19.956  -0.146  13.927  0.00  0.00     0.162 C 
BRANCH  15  16
ATOM     16  C2  ZIN A   1      18.872   0.038  14.992  0.00  0.00     0.201 C 
ATOM     17  C1  ZIN A   1      18.782  -1.223  15.852  0.00  0.00     0.042 C 
BRANCH  16  18
ATOM     18  N19 ZIN A   1      19.211   1.187  15.842  0.00  0.00    -0.073 N 
ATOM     19  H20 ZIN A   1      20.207   1.349  15.808  0.00  0.00     0.279 HD
ATOM     20  C21 ZIN A   1      18.506   2.381  15.357  0.00  0.00     0.269 C 
ATOM     21  C22 ZIN A   1      18.808   0.909  17.227  0.00  0.00     0.269 C 
ENDBRANCH  16  18
ENDBRANCH  15  16
ENDBRANCH   1  15
TORSDOF 3
ENDMDL
MODEL 5
REMARK VINA RESULT:      -6.8      1.770      4.613
REMARK  3 active torsions:
REMARK  status: ('A' for Active; 'I' for Inactive)
REMARK    1  A    between atoms: C2_2  and  C4_3 
REMARK    2  A    between atoms: C2_2  and  N19_18 
REMARK    3  A    between atoms: C4_3  and  N5_4 
ROOT
ATOM      1  N5  ZIN A   1      18.870   3.296  13.800  0.00  0.00    -0.343 N 
ATOM      2  C6  ZIN A   1      18.724   3.256  12.408  0.00  0.00     0.052 A 
ATOM      3  C7  ZIN A   1      19.515   2.411  11.648  0.00  0.00     0.031 A 
ATOM      4  C8  ZIN A   1      19.370   2.378  10.272  0.00  0.00     0.002 A 
ATOM      5  C9  ZIN A   1      18.438   3.185   9.648  0.00  0.00     0.002 A 
ATOM      6  C10 ZIN A   1      17.641   4.034  10.400  0.00  0.00     0.021 A 
ATOM      7  C11 ZIN A   1      17.782   4.071  11.775  0.00  0.00     0.032 A 
ATOM      8  S12 ZIN A   1      16.776   5.140  12.754  0.00  0.00    -0.086 SA
ATOM      9  C13 ZIN A   1      17.833   5.464  14.130  0.00  0.00     0.032 A 
ATOM     10  C14 ZIN A   1      17.738   6.655  14.826  0.00  0.00     0.021 A 
ATOM     11  C15 ZIN A   1      18.574   6.891  15.904  0.00  0.00     0.002 A 
ATOM     12  C16 ZIN A   1      19.499   5.937  16.284  0.00  0.00     0.002 A 
ATOM     13  C17 ZIN A   1      19.599   4.742  15.591  0.00  0.00     0.031 A 
ATOM     14  C18 ZIN A   1      18.762   4.497  14.510  0.00  0.00     0.052 A 
ENDROOT
BRANCH   1  15
ATOM     15  C4  ZIN A   1      19.133   2.054  14.529  0.00  0.00     0.162 C 
BRANCH  15  16
ATOM     16  C2  ZIN A   1      17.810   1.342  14.818  0.00  0.00     0.201 C 
ATOM     17  C1  ZIN A   1      17.790  -0.009  14.101  0.00  0.00     0.042 C 
BRANCH  16  18
ATOM     18  N19 ZIN A   1      17.675   1.130  16.266  0.00  0.00    -0.073 N 
ATOM     19  H20 ZIN A   1      17.023   1.803  16.644  0.00  0.00     0.279 HD
ATOM     20  C21 ZIN A   1      17.176  -0.228  16.517  0.00  0.00     0.269 C 
ATOM     21  C22 ZIN A   1      18.983   1.299  16.911  0.00  0.00     0.269 C 
ENDBRANCH  16  18
ENDBRANCH  15  16
ENDBRANCH   1  15
TORSDOF 3
ENDMDL
MODEL 6
REMARK VINA RESULT:      -6.8      3.500      6.082
REMARK  3 active torsions:
REMARK  status: ('A' for Active; 'I' for Inactive)
REMARK    1  A    between atoms: C2_2  and  C4_3 
REMARK    2  A    between atoms: C2_2  and  N19_18 
REMARK    3  A    between atoms: C4_3  and  N5_4 
ROOT
ATOM      1  N5  ZIN A   1      18.941  -1.145  11.318  0.00  0.00    -0.343 N 
ATOM      2  C6  ZIN A   1      18.951  -0.053  10.442  0.00  0.00     0.052 A 
ATOM      3  C7  ZIN A   1      19.809  -0.038   9.355  0.00  0.00     0.031 A 
ATOM      4  C8  ZIN A   1      19.817   1.046   8.494  0.00  0.00     0.002 A 
ATOM      5  C9  ZIN A   1      18.973   2.118   8.713  0.00  0.00     0.002 A 
ATOM      6  C10 ZIN A   1      18.111   2.113   9.797  0.00  0.00     0.021 A 
ATOM      7  C11 ZIN A   1      18.098   1.032  10.659  0.00  0.00     0.032 A 
ATOM      8  S12 ZIN A   1      17.006   1.000  12.045  0.00  0.00    -0.086 SA
ATOM      9  C13 ZIN A   1      17.907   0.001  13.188  0.00  0.00     0.032 A 
ATOM     10  C14 ZIN A   1      17.753   0.178  14.551  0.00  0.00     0.021 A 
ATOM     11  C15 ZIN A   1      18.468  -0.616  15.432  0.00  0.00     0.002 A 
ATOM     12  C16 ZIN A   1      19.330  -1.582  14.950  0.00  0.00     0.002 A 
ATOM     13  C17 ZIN A   1      19.487  -1.764  13.587  0.00  0.00     0.031 A 
ATOM     14  C18 ZIN A   1      18.773  -0.973  12.696  0.00  0.00     0.052 A 
ENDROOT
BRANCH   1  15
ATOM     15  C4  ZIN A   1      19.102  -2.497  10.778  0.00  0.00     0.162 C 
BRANCH  15  16
ATOM     16  C2  ZIN A   1      17.752  -3.008  10.270  0.00  0.00     0.201 C 
ATOM     17  C1  ZIN A   1      17.860  -3.337   8.780  0.00  0.00     0.042 C 
BRANCH  16  18
ATOM     18  N19 ZIN A   1      17.376  -4.218  11.013  0.00  0.00    -0.073 N 
ATOM     19  H20 ZIN A   1      16.804  -3.962  11.805  0.00  0.00     0.279 HD
ATOM     20  C21 ZIN A   1      16.617  -5.117  10.133  0.00  0.00     0.269 C 
ATOM     21  C22 ZIN A   1      18.587  -4.901  11.484  0.00  0.00     0.269 C 
ENDBRANCH  16  18
ENDBRANCH  15  16
ENDBRANCH   1  15
TORSDOF 3
ENDMDL
MODEL 7
REMARK VINA RESULT:      -6.7      4.645      6.067
REMARK  3 active torsions:
REMARK  status: ('A' for Active; 'I' for Inactive)
REMARK    1  A    between atoms: C2_2  and  C4_3 
REMARK    2  A    between atoms: C2_2  and  N19_18 
REMARK    3  A    between atoms: C4_3  and  N5_4 
ROOT
ATOM      1  N5  ZIN A   1      18.087  -1.280   9.109  0.00  0.00    -0.343 N 
ATOM      2  C6  ZIN A   1      17.972  -1.178   7.717  0.00  0.00     0.052 A 
ATOM      3  C7  ZIN A   1      17.236  -0.150   7.152  0.00  0.00     0.031 A 
ATOM      4  C8  ZIN A   1      17.123  -0.056   5.775  0.00  0.00     0.002 A 
ATOM      5  C9  ZIN A   1      17.741  -0.983   4.959  0.00  0.00     0.002 A 
ATOM      6  C10 ZIN A   1      18.479  -2.016   5.514  0.00  0.00     0.021 A 
ATOM      7  C11 ZIN A   1      18.596  -2.114   6.889  0.00  0.00     0.032 A 
ATOM      8  S12 ZIN A   1      19.534  -3.417   7.620  0.00  0.00    -0.086 SA
ATOM      9  C13 ZIN A   1      18.713  -3.622   9.170  0.00  0.00     0.032 A 
ATOM     10  C14 ZIN A   1      18.698  -4.852   9.801  0.00  0.00     0.021 A 
ATOM     11  C15 ZIN A   1      18.050  -4.994  11.016  0.00  0.00     0.002 A 
ATOM     12  C16 ZIN A   1      17.423  -3.908  11.597  0.00  0.00     0.002 A 
ATOM     13  C17 ZIN A   1      17.435  -2.674  10.970  0.00  0.00     0.031 A 
ATOM     14  C18 ZIN A   1      18.084  -2.523   9.751  0.00  0.00     0.052 A 
ENDROOT
BRANCH   1  15
ATOM     15  C4  ZIN A   1      18.219  -0.060   9.908  0.00  0.00     0.162 C 
BRANCH  15  16
ATOM     16  C2  ZIN A   1      19.538   0.634   9.564  0.00  0.00     0.201 C 
ATOM     17  C1  ZIN A   1      19.250   2.029   9.005  0.00  0.00     0.042 C 
BRANCH  16  18
ATOM     18  N19 ZIN A   1      20.360   0.753  10.776  0.00  0.00    -0.073 N 
ATOM     19  H20 ZIN A   1      21.224   1.225  10.552  0.00  0.00     0.279 HD
ATOM     20  C21 ZIN A   1      19.629   1.525  11.789  0.00  0.00     0.269 C 
ATOM     21  C22 ZIN A   1      20.657  -0.587  11.300  0.00  0.00     0.269 C 
ENDBRANCH  16  18
ENDBRANCH  15  16
ENDBRANCH   1  15
TORSDOF 3
ENDMDL
MODEL 8
REMARK VINA RESULT:      -6.7      1.837      5.677
REMARK  3 active torsions:
REMARK  status: ('A' for Active; 'I' for Inactive)
REMARK    1  A    between atoms: C2_2  and  C4_3 
REMARK    2  A    between atoms: C2_2  and  N19_18 
REMARK    3  A    between atoms: C4_3  and  N5_4 
ROOT
ATOM      1  N5  ZIN A   1      18.128   2.425  14.011  0.00  0.00    -0.343 N 
ATOM      2  C6  ZIN A   1      18.176   1.571  15.120  0.00  0.00     0.052 A 
ATOM      3  C7  ZIN A   1      17.560   0.332  15.074  0.00  0.00     0.031 A 
ATOM      4  C8  ZIN A   1      17.608  -0.507  16.174  0.00  0.00     0.002 A 
ATOM      5  C9  ZIN A   1      18.269  -0.115  17.322  0.00  0.00     0.002 A 
ATOM      6  C10 ZIN A   1      18.889   1.122  17.379  0.00  0.00     0.021 A 
ATOM      7  C11 ZIN A   1      18.845   1.964  16.283  0.00  0.00     0.032 A 
ATOM      8  S12 ZIN A   1      19.631   3.543  16.329  0.00  0.00    -0.086 SA
ATOM      9  C13 ZIN A   1      18.631   4.473  15.210  0.00  0.00     0.032 A 
ATOM     10  C14 ZIN A   1      18.486   5.839  15.365  0.00  0.00     0.021 A 
ATOM     11  C15 ZIN A   1      17.698   6.552  14.476  0.00  0.00     0.002 A 
ATOM     12  C16 ZIN A   1      17.062   5.900  13.438  0.00  0.00     0.002 A 
ATOM     13  C17 ZIN A   1      17.204   4.532  13.277  0.00  0.00     0.031 A 
ATOM     14  C18 ZIN A   1      17.993   3.810  14.163  0.00  0.00     0.052 A 
ENDROOT
BRANCH   1  15
ATOM     15  C4  ZIN A   1      18.227   1.857  12.665  0.00  0.00     0.162 C 
BRANCH  15  16
ATOM     16  C2  ZIN A   1      19.685   1.890  12.204  0.00  0.00     0.201 C 
ATOM     17  C1  ZIN A   1      20.372   0.579  12.591  0.00  0.00     0.042 C 
BRANCH  16  18
ATOM     18  N19 ZIN A   1      19.734   2.056  10.745  0.00  0.00    -0.073 N 
ATOM     19  H20 ZIN A   1      20.663   2.339  10.470  0.00  0.00     0.279 HD
ATOM     20  C21 ZIN A   1      19.399   0.782  10.096  0.00  0.00     0.269 C 
ATOM     21  C22 ZIN A   1      18.768   3.084  10.336  0.00  0.00     0.269 C 
ENDBRANCH  16  18
ENDBRANCH  15  16
ENDBRANCH   1  15
TORSDOF 3
ENDMDL
MODEL 9
REMARK VINA RESULT:      -6.6      3.946      7.490
REMARK  3 active torsions:
REMARK  status: ('A' for Active; 'I' for Inactive)
REMARK    1  A    between atoms: C2_2  and  C4_3 
REMARK    2  A    between atoms: C2_2  and  N19_18 
REMARK    3  A    between atoms: C4_3  and  N5_4 
ROOT
ATOM      1  N5  ZIN A   1      18.415  -1.549  10.952  0.00  0.00    -0.343 N 
ATOM      2  C6  ZIN A   1      18.690  -1.106  12.252  0.00  0.00     0.052 A 
ATOM      3  C7  ZIN A   1      17.930  -1.556  13.318  0.00  0.00     0.031 A 
ATOM      4  C8  ZIN A   1      18.204  -1.112  14.600  0.00  0.00     0.002 A 
ATOM      5  C9  ZIN A   1      19.235  -0.219  14.825  0.00  0.00     0.002 A 
ATOM      6  C10 ZIN A   1      20.001   0.237  13.765  0.00  0.00     0.021 A 
ATOM      7  C11 ZIN A   1      19.732  -0.204  12.482  0.00  0.00     0.032 A 
ATOM      8  S12 ZIN A   1      20.697   0.359  11.117  0.00  0.00    -0.086 SA
ATOM      9  C13 ZIN A   1      19.533   0.264   9.793  0.00  0.00     0.032 A 
ATOM     10  C14 ZIN A   1      19.626   1.119   8.710  0.00  0.00     0.021 A 
ATOM     11  C15 ZIN A   1      18.705   1.028   7.680  0.00  0.00     0.002 A 
ATOM     12  C16 ZIN A   1      17.697   0.085   7.735  0.00  0.00     0.002 A 
ATOM     13  C17 ZIN A   1      17.599  -0.775   8.816  0.00  0.00     0.031 A 
ATOM     14  C18 ZIN A   1      18.520  -0.691   9.852  0.00  0.00     0.052 A 
ENDROOT
BRANCH   1  15
ATOM     15  C4  ZIN A   1      18.015  -2.942  10.741  0.00  0.00     0.162 C 
BRANCH  15  16
ATOM     16  C2  ZIN A   1      19.223  -3.753  10.268  0.00  0.00     0.201 C 
ATOM     17  C1  ZIN A   1      19.998  -4.270  11.481  0.00  0.00     0.042 C 
BRANCH  16  18
ATOM     18  N19 ZIN A   1      18.763  -4.890   9.459  0.00  0.00    -0.073 N 
ATOM     19  H20 ZIN A   1      18.077  -5.417   9.980  0.00  0.00     0.279 HD
ATOM     20  C21 ZIN A   1      18.159  -4.395   8.216  0.00  0.00     0.269 C 
ATOM     21  C22 ZIN A   1      19.905  -5.757   9.139  0.00  0.00     0.269 C 
ENDBRANCH  16  18
ENDBRANCH  15  16
ENDBRANCH   1  15
TORSDOF 3
ENDMDL
