MODEL 1
REMARK VINA RESULT:      -8.5      0.000      0.000
REMARK  0 active torsions:
REMARK  status: ('A' for Active; 'I' for Inactive)
ROOT
ATOM      1  C1  ZIN A   1      19.734  -2.971  11.064  0.00  0.00     0.269 C 
ATOM      2  N2  ZIN A   1      18.398  -3.128  10.475  0.00  0.00    -0.072 N 
ATOM      3  H3  ZIN A   1      18.160  -4.108  10.425  0.00  0.00     0.279 HD
ATOM      4  C4  ZIN A   1      17.405  -2.416  11.297  0.00  0.00     0.249 C 
ATOM      5  C5  ZIN A   1      17.857  -0.967  11.438  0.00  0.00     0.125 C 
ATOM      6  N6  ZIN A   1      17.960  -0.320  10.108  0.00  0.00    -0.255 NA
ATOM      7  C7  ZIN A   1      18.157   1.022  10.352  0.00  0.00     0.112 A 
ATOM      8  N8  ZIN A   1      18.051   1.304  11.666  0.00  0.00    -0.248 NA
ATOM      9  C9  ZIN A   1      18.109   2.515  12.159  0.00  0.00     0.118 A 
ATOM     10  C10 ZIN A   1      18.283   3.591  11.311  0.00  0.00     0.020 A 
ATOM     11  C11 ZIN A   1      18.434   3.349   9.963  0.00  0.00     0.012 A 
ATOM     12  C12 ZIN A   1      18.413   2.031   9.468  0.00  0.00    -0.013 A 
ATOM     13  C13 ZIN A   1      18.768   1.943   8.041  0.00  0.00     0.081 C 
ATOM     14  C14 ZIN A   1      18.942   0.680   7.302  0.00  0.00    -0.046 A 
ATOM     15  C15 ZIN A   1      19.239   0.873   5.939  0.00  0.00     0.008 A 
ATOM     16  C16 ZIN A   1      19.363  -0.174   5.063  0.00  0.00     0.001 A 
ATOM     17  C17 ZIN A   1      19.179  -1.465   5.523  0.00  0.00     0.001 A 
ATOM     18  C18 ZIN A   1      18.920  -1.663   6.856  0.00  0.00     0.009 A 
ATOM     19  C19 ZIN A   1      18.841  -0.595   7.762  0.00  0.00    -0.032 A 
ATOM     20  C20 ZIN A   1      18.747  -1.049   9.186  0.00  0.00     0.124 C 
ATOM     21  C22 ZIN A   1      18.375  -2.542   9.133  0.00  0.00     0.259 C 
ENDROOT
TORSDOF 0
ENDMDL
MODEL 2
REMARK VINA RESULT:      -8.3      2.280      5.755
REMARK  0 active torsions:
REMARK  status: ('A' for Active; 'I' for Inactive)
ROOT
ATOM      1  C1  ZIN A   1      17.805  -0.363  14.350  0.00  0.00     0.269 C 
ATOM      2  N2  ZIN A   1      18.938   0.504  14.702  0.00  0.00    -0.072 N 
ATOM      3  H3  ZIN A   1      19.146   0.411  15.685  0.00  0.00     0.279 HD
ATOM      4  C4  ZIN A   1      20.118   0.129  13.905  0.00  0.00     0.249 C 
ATOM      5  C5  ZIN A   1      19.729   0.179  12.431  0.00  0.00     0.125 C 
ATOM      6  N6  ZIN A   1      19.284   1.541  12.053  0.00  0.00    -0.255 NA
ATOM      7  C7  ZIN A   1      19.169   1.537  10.679  0.00  0.00     0.112 A 
ATOM      8  N8  ZIN A   1      19.620   0.381  10.152  0.00  0.00    -0.248 NA
ATOM      9  C9  ZIN A   1      19.703   0.150   8.867  0.00  0.00     0.118 A 
ATOM     10  C10 ZIN A   1      19.320   1.127   7.969  0.00  0.00     0.020 A 
ATOM     11  C11 ZIN A   1      18.817   2.311   8.462  0.00  0.00     0.012 A 
ATOM     12  C12 ZIN A   1      18.697   2.514   9.851  0.00  0.00    -0.013 A 
ATOM     13  C13 ZIN A   1      17.977   3.751  10.195  0.00  0.00     0.081 C 
ATOM     14  C14 ZIN A   1      17.605   4.145  11.566  0.00  0.00    -0.046 A 
ATOM     15  C15 ZIN A   1      16.961   5.395  11.627  0.00  0.00     0.008 A 
ATOM     16  C16 ZIN A   1      16.603   5.976  12.816  0.00  0.00     0.001 A 
ATOM     17  C17 ZIN A   1      16.891   5.323  14.000  0.00  0.00     0.001 A 
ATOM     18  C18 ZIN A   1      17.491   4.090  13.947  0.00  0.00     0.009 A 
ATOM     19  C19 ZIN A   1      17.814   3.474  12.729  0.00  0.00    -0.032 A 
ATOM     20  C20 ZIN A   1      18.277   2.060  12.900  0.00  0.00     0.124 C 
ATOM     21  C22 ZIN A   1      18.610   1.898  14.393  0.00  0.00     0.259 C 
ENDROOT
TORSDOF 0
ENDMDL
MODEL 3
REMARK VINA RESULT:      -8.3      1.081      4.563
REMARK  0 active torsions:
REMARK  status: ('A' for Active; 'I' for Inactive)
ROOT
ATOM      1  C1  ZIN A   1      17.375  -2.552  11.487  0.00  0.00     0.269 C 
ATOM      2  N2  ZIN A   1      18.720  -2.150  11.919  0.00  0.00    -0.072 N 
ATOM      3  H3  ZIN A   1      18.906  -2.518  12.841  0.00  0.00     0.279 HD
ATOM      4  C4  ZIN A   1      19.722  -2.658  10.968  0.00  0.00     0.249 C 
ATOM      5  C5  ZIN A   1      19.344  -2.168   9.574  0.00  0.00     0.125 C 
ATOM      6  N6  ZIN A   1      19.320  -0.687   9.529  0.00  0.00    -0.255 NA
ATOM      7  C7  ZIN A   1      19.187  -0.348   8.200  0.00  0.00     0.112 A 
ATOM      8  N8  ZIN A   1      19.265  -1.435   7.405  0.00  0.00    -0.248 NA
ATOM      9  C9  ZIN A   1      19.256  -1.384   6.098  0.00  0.00     0.118 A 
ATOM     10  C10 ZIN A   1      19.168  -0.163   5.461  0.00  0.00     0.020 A 
ATOM     11  C11 ZIN A   1      19.049   0.974   6.232  0.00  0.00     0.012 A 
ATOM     12  C12 ZIN A   1      19.016   0.884   7.636  0.00  0.00    -0.013 A 
ATOM     13  C13 ZIN A   1      18.704   2.165   8.291  0.00  0.00     0.081 C 
ATOM     14  C14 ZIN A   1      18.487   2.330   9.740  0.00  0.00    -0.046 A 
ATOM     15  C15 ZIN A   1      18.246   3.665  10.115  0.00  0.00     0.008 A 
ATOM     16  C16 ZIN A   1      18.096   4.041  11.425  0.00  0.00     0.001 A 
ATOM     17  C17 ZIN A   1      18.194   3.083  12.418  0.00  0.00     0.001 A 
ATOM     18  C18 ZIN A   1      18.398   1.774  12.057  0.00  0.00     0.009 A 
ATOM     19  C19 ZIN A   1      18.504   1.383  10.715  0.00  0.00    -0.032 A 
ATOM     20  C20 ZIN A   1      18.526  -0.105  10.545  0.00  0.00     0.124 C 
ATOM     21  C22 ZIN A   1      18.818  -0.688  11.939  0.00  0.00     0.259 C 
ENDROOT
TORSDOF 0
ENDMDL
MODEL 4
REMARK VINA RESULT:      -8.3      1.789      4.744
REMARK  0 active torsions:
REMARK  status: ('A' for Active; 'I' for Inactive)
ROOT
ATOM      1  C1  ZIN A   1      17.002  -4.830   8.841  0.00  0.00     0.269 C 
ATOM      2  N2  ZIN A   1      18.265  -4.671   9.573  0.00  0.00    -0.072 N 
ATOM      3  H3  ZIN A   1      18.384  -5.437  10.219  0.00  0.00     0.279 HD
ATOM      4  C4  ZIN A   1      19.391  -4.640   8.624  0.00  0.00     0.249 C 
ATOM      5  C5  ZIN A   1      19.119  -3.540   7.603  0.00  0.00     0.125 C 
ATOM      6  N6  ZIN A   1      18.995  -2.223   8.273  0.00  0.00    -0.255 NA
ATOM      7  C7  ZIN A   1      18.973  -1.283   7.265  0.00  0.00     0.112 A 
ATOM      8  N8  ZIN A   1      19.206  -1.847   6.063  0.00  0.00    -0.248 NA
ATOM      9  C9  ZIN A   1      19.323  -1.168   4.950  0.00  0.00     0.118 A 
ATOM     10  C10 ZIN A   1      19.214   0.208   4.974  0.00  0.00     0.020 A 
ATOM     11  C11 ZIN A   1      18.938   0.826   6.174  0.00  0.00     0.012 A 
ATOM     12  C12 ZIN A   1      18.772   0.064   7.347  0.00  0.00    -0.013 A 
ATOM     13  C13 ZIN A   1      18.307   0.863   8.494  0.00  0.00     0.081 C 
ATOM     14  C14 ZIN A   1      17.935   0.300   9.805  0.00  0.00    -0.046 A 
ATOM     15  C15 ZIN A   1      17.565   1.282  10.743  0.00  0.00     0.008 A 
ATOM     16  C16 ZIN A   1      17.258   0.973  12.043  0.00  0.00     0.001 A 
ATOM     17  C17 ZIN A   1      17.324  -0.345  12.457  0.00  0.00     0.001 A 
ATOM     18  C18 ZIN A   1      17.655  -1.312  11.540  0.00  0.00     0.009 A 
ATOM     19  C19 ZIN A   1      17.921  -1.001  10.198  0.00  0.00    -0.032 A 
ATOM     20  C20 ZIN A   1      18.066  -2.218   9.339  0.00  0.00     0.124 C 
ATOM     21  C22 ZIN A   1      18.258  -3.402  10.305  0.00  0.00     0.259 C 
ENDROOT
TORSDOF 0
ENDMDL
MODEL 5
REMARK VINA RESULT:      -8.3      3.845      6.830
REMARK  0 active torsions:
REMARK  status: ('A' for Active; 'I' for Inactive)
ROOT
ATOM      1  C1  ZIN A   1      16.964   4.926  14.421  0.00  0.00     0.269 C 
ATOM      2  N2  ZIN A   1      18.230   4.780  13.691  0.00  0.00    -0.072 N 
ATOM      3  H3  ZIN A   1      18.353   5.560  13.063  0.00  0.00     0.279 HD
ATOM      4  C4  ZIN A   1      19.351   4.725  14.644  0.00  0.00     0.249 C 
ATOM      5  C5  ZIN A   1      19.073   3.604  15.639  0.00  0.00     0.125 C 
ATOM      6  N6  ZIN A   1      18.949   2.303  14.939  0.00  0.00    -0.255 NA
ATOM      7  C7  ZIN A   1      18.920   1.341  15.926  0.00  0.00     0.112 A 
ATOM      8  N8  ZIN A   1      19.149   1.877  17.142  0.00  0.00    -0.248 NA
ATOM      9  C9  ZIN A   1      19.261   1.173  18.240  0.00  0.00     0.118 A 
ATOM     10  C10 ZIN A   1      19.148  -0.202  18.185  0.00  0.00     0.020 A 
ATOM     11  C11 ZIN A   1      18.876  -0.792  16.970  0.00  0.00     0.012 A 
ATOM     12  C12 ZIN A   1      18.716  -0.005  15.814  0.00  0.00    -0.013 A 
ATOM     13  C13 ZIN A   1      18.253  -0.776  14.648  0.00  0.00     0.081 C 
ATOM     14  C14 ZIN A   1      17.889  -0.184  13.348  0.00  0.00    -0.046 A 
ATOM     15  C15 ZIN A   1      17.520  -1.144  12.387  0.00  0.00     0.008 A 
ATOM     16  C16 ZIN A   1      17.219  -0.805  11.093  0.00  0.00     0.001 A 
ATOM     17  C17 ZIN A   1      17.290   0.522  10.708  0.00  0.00     0.001 A 
ATOM     18  C18 ZIN A   1      17.620   1.467  11.648  0.00  0.00     0.009 A 
ATOM     19  C19 ZIN A   1      17.880   1.126  12.983  0.00  0.00    -0.032 A 
ATOM     20  C20 ZIN A   1      18.024   2.324  13.870  0.00  0.00     0.124 C 
ATOM     21  C22 ZIN A   1      18.223   3.527  12.931  0.00  0.00     0.259 C 
ENDROOT
TORSDOF 0
ENDMDL
MODEL 6
REMARK VINA RESULT:      -8.1      1.382      4.127
REMARK  0 active torsions:
REMARK  status: ('A' for Active; 'I' for Inactive)
ROOT
ATOM      1  C1  ZIN A   1      17.533   3.040  10.733  0.00  0.00     0.269 C 
ATOM      2  N2  ZIN A   1      18.949   3.172  10.364  0.00  0.00    -0.072 N 
ATOM      3  H3  ZIN A   1      19.179   4.146  10.236  0.00  0.00     0.279 HD
ATOM      4  C4  ZIN A   1      19.795   2.595  11.422  0.00  0.00     0.249 C 
ATOM      5  C5  ZIN A   1      19.344   1.157  11.658  0.00  0.00     0.125 C 
ATOM      6  N6  ZIN A   1      19.479   0.357  10.418  0.00  0.00    -0.255 NA
ATOM      7  C7  ZIN A   1      19.261  -0.954  10.786  0.00  0.00     0.112 A 
ATOM      8  N8  ZIN A   1      19.143  -1.077  12.123  0.00  0.00    -0.248 NA
ATOM      9  C9  ZIN A   1      19.016  -2.223  12.742  0.00  0.00     0.118 A 
ATOM     10  C10 ZIN A   1      19.005  -3.396  12.014  0.00  0.00     0.020 A 
ATOM     11  C11 ZIN A   1      19.085  -3.318  10.640  0.00  0.00     0.012 A 
ATOM     12  C12 ZIN A   1      19.174  -2.067  10.000  0.00  0.00    -0.013 A 
ATOM     13  C13 ZIN A   1      19.069  -2.159   8.534  0.00  0.00     0.081 C 
ATOM     14  C14 ZIN A   1      19.009  -0.997   7.628  0.00  0.00    -0.046 A 
ATOM     15  C15 ZIN A   1      18.953  -1.358   6.269  0.00  0.00     0.008 A 
ATOM     16  C16 ZIN A   1      18.969  -0.426   5.264  0.00  0.00     0.001 A 
ATOM     17  C17 ZIN A   1      19.054   0.916   5.589  0.00  0.00     0.001 A 
ATOM     18  C18 ZIN A   1      19.077   1.277   6.913  0.00  0.00     0.009 A 
ATOM     19  C19 ZIN A   1      19.012   0.325   7.942  0.00  0.00    -0.032 A 
ATOM     20  C20 ZIN A   1      18.854   0.946   9.295  0.00  0.00     0.124 C 
ATOM     21  C22 ZIN A   1      19.210   2.434   9.126  0.00  0.00     0.259 C 
ENDROOT
TORSDOF 0
ENDMDL
MODEL 7
REMARK VINA RESULT:      -8.1      4.018      6.919
REMARK  0 active torsions:
REMARK  status: ('A' for Active; 'I' for Inactive)
ROOT
ATOM      1  C1  ZIN A   1      17.704   5.160  16.167  0.00  0.00     0.269 C 
ATOM      2  N2  ZIN A   1      19.040   5.193  15.558  0.00  0.00    -0.072 N 
ATOM      3  H3  ZIN A   1      19.362   6.148  15.494  0.00  0.00     0.279 HD
ATOM      4  C4  ZIN A   1      19.979   4.403  16.372  0.00  0.00     0.249 C 
ATOM      5  C5  ZIN A   1      19.402   3.001  16.532  0.00  0.00     0.125 C 
ATOM      6  N6  ZIN A   1      19.222   2.355  15.210  0.00  0.00    -0.255 NA
ATOM      7  C7  ZIN A   1      18.911   1.037  15.469  0.00  0.00     0.112 A 
ATOM      8  N8  ZIN A   1      19.013   0.757  16.784  0.00  0.00    -0.248 NA
ATOM      9  C9  ZIN A   1      18.856  -0.439  17.290  0.00  0.00     0.118 A 
ATOM     10  C10 ZIN A   1      18.574  -1.503  16.455  0.00  0.00     0.020 A 
ATOM     11  C11 ZIN A   1      18.424  -1.259  15.107  0.00  0.00     0.012 A 
ATOM     12  C12 ZIN A   1      18.554   0.048  14.599  0.00  0.00    -0.013 A 
ATOM     13  C13 ZIN A   1      18.186   0.155  13.177  0.00  0.00     0.081 C 
ATOM     14  C14 ZIN A   1      18.113   1.422  12.428  0.00  0.00    -0.046 A 
ATOM     15  C15 ZIN A   1      17.779   1.245  11.072  0.00  0.00     0.008 A 
ATOM     16  C16 ZIN A   1      17.735   2.292  10.187  0.00  0.00     0.001 A 
ATOM     17  C17 ZIN A   1      18.039   3.566  10.633  0.00  0.00     0.001 A 
ATOM     18  C18 ZIN A   1      18.335   3.750  11.960  0.00  0.00     0.009 A 
ATOM     19  C19 ZIN A   1      18.333   2.687  12.875  0.00  0.00    -0.032 A 
ATOM     20  C20 ZIN A   1      18.489   3.143  14.293  0.00  0.00     0.124 C 
ATOM     21  C22 ZIN A   1      18.990   4.597  14.221  0.00  0.00     0.259 C 
ENDROOT
TORSDOF 0
ENDMDL
MODEL 8
REMARK VINA RESULT:      -8.0      2.180      4.970
REMARK  0 active torsions:
REMARK  status: ('A' for Active; 'I' for Inactive)
ROOT
ATOM      1  C1  ZIN A   1      17.022   4.554  12.142  0.00  0.00     0.269 C 
ATOM      2  N2  ZIN A   1      18.449   4.746  11.853  0.00  0.00    -0.072 N 
ATOM      3  H3  ZIN A   1      18.606   5.685  11.517  0.00  0.00     0.279 HD
ATOM      4  C4  ZIN A   1      19.241   4.514  13.073  0.00  0.00     0.249 C 
ATOM      5  C5  ZIN A   1      18.894   3.128  13.605  0.00  0.00     0.125 C 
ATOM      6  N6  ZIN A   1      19.211   2.087  12.599  0.00  0.00    -0.255 NA
ATOM      7  C7  ZIN A   1      19.073   0.877  13.246  0.00  0.00     0.112 A 
ATOM      8  N8  ZIN A   1      18.844   1.048  14.563  0.00  0.00    -0.248 NA
ATOM      9  C9  ZIN A   1      18.760   0.064  15.422  0.00  0.00     0.118 A 
ATOM     10  C10 ZIN A   1      18.915  -1.238  14.989  0.00  0.00     0.020 A 
ATOM     11  C11 ZIN A   1      19.114  -1.464  13.644  0.00  0.00     0.012 A 
ATOM     12  C12 ZIN A   1      19.155  -0.387  12.737  0.00  0.00    -0.013 A 
ATOM     13  C13 ZIN A   1      19.192  -0.818  11.329  0.00  0.00     0.081 C 
ATOM     14  C14 ZIN A   1      19.116   0.097  10.176  0.00  0.00    -0.046 A 
ATOM     15  C15 ZIN A   1      19.217  -0.565   8.938  0.00  0.00     0.008 A 
ATOM     16  C16 ZIN A   1      19.245   0.113   7.746  0.00  0.00     0.001 A 
ATOM     17  C17 ZIN A   1      19.184   1.495   7.754  0.00  0.00     0.001 A 
ATOM     18  C18 ZIN A   1      19.055   2.145   8.956  0.00  0.00     0.009 A 
ATOM     19  C19 ZIN A   1      18.978   1.449  10.171  0.00  0.00    -0.032 A 
ATOM     20  C20 ZIN A   1      18.644   2.339  11.328  0.00  0.00     0.124 C 
ATOM     21  C22 ZIN A   1      18.885   3.779  10.842  0.00  0.00     0.259 C 
ENDROOT
TORSDOF 0
ENDMDL
MODEL 9
REMARK VINA RESULT:      -8.0      1.620      4.614
REMARK  0 active torsions:
REMARK  status: ('A' for Active; 'I' for Inactive)
ROOT
ATOM      1  C1  ZIN A   1      17.376  -3.495  10.456  0.00  0.00     0.269 C 
ATOM      2  N2  ZIN A   1      18.831  -3.364  10.619  0.00  0.00    -0.072 N 
ATOM      3  H3  ZIN A   1      19.125  -3.849  11.453  0.00  0.00     0.279 HD
ATOM      4  C4  ZIN A   1      19.517  -3.929   9.445  0.00  0.00     0.249 C 
ATOM      5  C5  ZIN A   1      18.965  -3.244   8.199  0.00  0.00     0.125 C 
ATOM      6  N6  ZIN A   1      19.200  -1.782   8.259  0.00  0.00    -0.255 NA
ATOM      7  C7  ZIN A   1      18.872  -1.292   7.013  0.00  0.00     0.112 A 
ATOM      8  N8  ZIN A   1      18.594  -2.290   6.150  0.00  0.00    -0.248 NA
ATOM      9  C9  ZIN A   1      18.336  -2.106   4.881  0.00  0.00     0.118 A 
ATOM     10  C10 ZIN A   1      18.346  -0.827   4.359  0.00  0.00     0.020 A 
ATOM     11  C11 ZIN A   1      18.588   0.229   5.211  0.00  0.00     0.012 A 
ATOM     12  C12 ZIN A   1      18.817   0.002   6.582  0.00  0.00    -0.013 A 
ATOM     13  C13 ZIN A   1      18.877   1.244   7.371  0.00  0.00     0.081 C 
ATOM     14  C14 ZIN A   1      18.984   1.293   8.841  0.00  0.00    -0.046 A 
ATOM     15  C15 ZIN A   1      19.066   2.604   9.346  0.00  0.00     0.008 A 
ATOM     16  C16 ZIN A   1      19.247   2.864  10.680  0.00  0.00     0.001 A 
ATOM     17  C17 ZIN A   1      19.365   1.806  11.564  0.00  0.00     0.001 A 
ATOM     18  C18 ZIN A   1      19.255   0.525  11.082  0.00  0.00     0.009 A 
ATOM     19  C19 ZIN A   1      19.021   0.261   9.725  0.00  0.00    -0.032 A 
ATOM     20  C20 ZIN A   1      18.741  -1.185   9.456  0.00  0.00     0.124 C 
ATOM     21  C22 ZIN A   1      19.193  -1.948  10.715  0.00  0.00     0.259 C 
ENDROOT
TORSDOF 0
ENDMDL
