MODEL 1
REMARK VINA RESULT:      -6.3      0.000      0.000
REMARK  5 active torsions:
REMARK  status: ('A' for Active; 'I' for Inactive)
REMARK    1  A    between atoms: C2_2  and  N3_3 
REMARK    2  A    between atoms: N3_3  and  C4_4 
REMARK    3  A    between atoms: N3_3  and  C6_6 
REMARK    4  A    between atoms: C6_6  and  C7_7 
REMARK       I    between atoms: C7_7  and  N9_9 
REMARK    5  A    between atoms: N9_9  and  C10_10 
ROOT
ATOM      1  C7  ZIN A   1      18.965   1.709  12.975  0.00  0.00     0.250 C 
ATOM      2  O8  ZIN A   1      17.761   1.657  13.111  0.00  0.00    -0.271 OA
ATOM      3  N9  ZIN A   1      19.774   1.199  13.924  0.00  0.00    -0.325 N 
ATOM      4  H30 ZIN A   1      20.737   1.277  13.834  0.00  0.00     0.169 HD
ENDROOT
BRANCH   3   5
ATOM      5  C10 ZIN A   1      19.226   0.559  15.041  0.00  0.00     0.046 A 
ATOM      6  C16 ZIN A   1      18.982   1.276  16.205  0.00  0.00    -0.035 A 
ATOM      7  C15 ZIN A   1      18.434   0.641  17.303  0.00  0.00     0.009 A 
ATOM      8  C17 ZIN A   1      19.300   2.748  16.264  0.00  0.00     0.050 C 
ATOM      9  C14 ZIN A   1      18.141  -0.709  17.249  0.00  0.00     0.001 A 
ATOM     10  C13 ZIN A   1      18.389  -1.426  16.094  0.00  0.00     0.009 A 
ATOM     11  C11 ZIN A   1      18.930  -0.797  14.990  0.00  0.00    -0.035 A 
ATOM     12  C12 ZIN A   1      19.201  -1.581  13.731  0.00  0.00     0.050 C 
ENDBRANCH   3   5
BRANCH   1  13
ATOM     13  C6  ZIN A   1      19.557   2.344  11.742  0.00  0.00     0.374 C 
BRANCH  13  14
ATOM     14  N3  ZIN A   1      18.619   2.203  10.620  0.00  0.00     0.096 N 
BRANCH  14  15
ATOM     15  C2  ZIN A   1      18.383   3.496   9.966  0.00  0.00     0.268 C 
ATOM     16  C1  ZIN A   1      17.291   4.258  10.720  0.00  0.00     0.037 C 
ENDBRANCH  14  15
BRANCH  14  17
ATOM     17  C4  ZIN A   1      19.099   1.204   9.656  0.00  0.00     0.268 C 
ATOM     18  C5  ZIN A   1      19.188   1.838   8.267  0.00  0.00     0.037 C 
ENDBRANCH  14  17
ENDBRANCH  13  14
ENDBRANCH   1  13
TORSDOF 5
ENDMDL
MODEL 2
REMARK VINA RESULT:      -6.3      0.072      2.078
REMARK  5 active torsions:
REMARK  status: ('A' for Active; 'I' for Inactive)
REMARK    1  A    between atoms: C2_2  and  N3_3 
REMARK    2  A    between atoms: N3_3  and  C4_4 
REMARK    3  A    between atoms: N3_3  and  C6_6 
REMARK    4  A    between atoms: C6_6  and  C7_7 
REMARK       I    between atoms: C7_7  and  N9_9 
REMARK    5  A    between atoms: N9_9  and  C10_10 
ROOT
ATOM      1  C7  ZIN A   1      18.952   1.788  12.976  0.00  0.00     0.250 C 
ATOM      2  O8  ZIN A   1      17.750   1.765  13.138  0.00  0.00    -0.271 OA
ATOM      3  N9  ZIN A   1      19.767   1.228  13.892  0.00  0.00    -0.325 N 
ATOM      4  H30 ZIN A   1      20.729   1.281  13.782  0.00  0.00     0.169 HD
ENDROOT
BRANCH   3   5
ATOM      5  C10 ZIN A   1      19.224   0.569  15.001  0.00  0.00     0.046 A 
ATOM      6  C16 ZIN A   1      18.912  -0.782  14.923  0.00  0.00    -0.035 A 
ATOM      7  C15 ZIN A   1      18.382  -1.430  16.023  0.00  0.00     0.009 A 
ATOM      8  C17 ZIN A   1      19.163  -1.542  13.647  0.00  0.00     0.050 C 
ATOM      9  C14 ZIN A   1      18.152  -0.734  17.195  0.00  0.00     0.001 A 
ATOM     10  C13 ZIN A   1      18.457   0.613  17.272  0.00  0.00     0.009 A 
ATOM     11  C11 ZIN A   1      18.993   1.266  16.180  0.00  0.00    -0.035 A 
ATOM     12  C12 ZIN A   1      19.323   2.734  16.265  0.00  0.00     0.050 C 
ENDBRANCH   3   5
BRANCH   1  13
ATOM     13  C6  ZIN A   1      19.534   2.443  11.750  0.00  0.00     0.374 C 
BRANCH  13  14
ATOM     14  N3  ZIN A   1      18.644   2.216  10.604  0.00  0.00     0.096 N 
BRANCH  14  15
ATOM     15  C2  ZIN A   1      18.350   3.475   9.907  0.00  0.00     0.268 C 
ATOM     16  C1  ZIN A   1      17.342   4.287  10.724  0.00  0.00     0.037 C 
ENDBRANCH  14  15
BRANCH  14  17
ATOM     17  C4  ZIN A   1      19.216   1.225   9.682  0.00  0.00     0.268 C 
ATOM     18  C5  ZIN A   1      19.198   1.783   8.258  0.00  0.00     0.037 C 
ENDBRANCH  14  17
ENDBRANCH  13  14
ENDBRANCH   1  13
TORSDOF 5
ENDMDL
MODEL 3
REMARK VINA RESULT:      -6.1      4.573      7.460
REMARK  5 active torsions:
REMARK  status: ('A' for Active; 'I' for Inactive)
REMARK    1  A    between atoms: C2_2  and  N3_3 
REMARK    2  A    between atoms: N3_3  and  C4_4 
REMARK    3  A    between atoms: N3_3  and  C6_6 
REMARK    4  A    between atoms: C6_6  and  C7_7 
REMARK       I    between atoms: C7_7  and  N9_9 
REMARK    5  A    between atoms: N9_9  and  C10_10 
ROOT
ATOM      1  C7  ZIN A   1      18.135  -2.347   8.920  0.00  0.00     0.250 C 
ATOM      2  O8  ZIN A   1      19.182  -2.189   9.512  0.00  0.00    -0.271 OA
ATOM      3  N9  ZIN A   1      17.404  -1.278   8.545  0.00  0.00    -0.325 N 
ATOM      4  H30 ZIN A   1      16.548  -1.405   8.107  0.00  0.00     0.169 HD
ENDROOT
BRANCH   3   5
ATOM      5  C10 ZIN A   1      17.881   0.015   8.787  0.00  0.00     0.046 A 
ATOM      6  C16 ZIN A   1      18.645   0.666   7.827  0.00  0.00    -0.035 A 
ATOM      7  C15 ZIN A   1      19.109   1.945   8.067  0.00  0.00     0.009 A 
ATOM      8  C17 ZIN A   1      18.956  -0.017   6.520  0.00  0.00     0.050 C 
ATOM      9  C14 ZIN A   1      18.824   2.572   9.266  0.00  0.00     0.001 A 
ATOM     10  C13 ZIN A   1      18.068   1.924  10.226  0.00  0.00     0.009 A 
ATOM     11  C11 ZIN A   1      17.596   0.648   9.989  0.00  0.00    -0.035 A 
ATOM     12  C12 ZIN A   1      16.774  -0.058  11.037  0.00  0.00     0.050 C 
ENDBRANCH   3   5
BRANCH   1  13
ATOM     13  C6  ZIN A   1      17.651  -3.739   8.604  0.00  0.00     0.374 C 
BRANCH  13  14
ATOM     14  N3  ZIN A   1      18.033  -4.649   9.691  0.00  0.00     0.096 N 
BRANCH  14  15
ATOM     15  C2  ZIN A   1      16.894  -4.916  10.580  0.00  0.00     0.268 C 
ATOM     16  C1  ZIN A   1      17.407  -5.267  11.977  0.00  0.00     0.037 C 
ENDBRANCH  14  15
BRANCH  14  17
ATOM     17  C4  ZIN A   1      18.591  -5.900   9.160  0.00  0.00     0.268 C 
ATOM     18  C5  ZIN A   1      20.113  -5.779   9.064  0.00  0.00     0.037 C 
ENDBRANCH  14  17
ENDBRANCH  13  14
ENDBRANCH   1  13
TORSDOF 5
ENDMDL
MODEL 4
REMARK VINA RESULT:      -6.0      4.078      8.444
REMARK  5 active torsions:
REMARK  status: ('A' for Active; 'I' for Inactive)
REMARK    1  A    between atoms: C2_2  and  N3_3 
REMARK    2  A    between atoms: N3_3  and  C4_4 
REMARK    3  A    between atoms: N3_3  and  C6_6 
REMARK    4  A    between atoms: C6_6  and  C7_7 
REMARK       I    between atoms: C7_7  and  N9_9 
REMARK    5  A    between atoms: N9_9  and  C10_10 
ROOT
ATOM      1  C7  ZIN A   1      18.757  -1.913   9.152  0.00  0.00     0.250 C 
ATOM      2  O8  ZIN A   1      17.600  -2.050   8.814  0.00  0.00    -0.271 OA
ATOM      3  N9  ZIN A   1      19.679  -1.511   8.254  0.00  0.00    -0.325 N 
ATOM      4  H30 ZIN A   1      20.611  -1.440   8.515  0.00  0.00     0.169 HD
ENDROOT
BRANCH   3   5
ATOM      5  C10 ZIN A   1      19.292  -1.197   6.946  0.00  0.00     0.046 A 
ATOM      6  C16 ZIN A   1      19.280  -2.184   5.969  0.00  0.00    -0.035 A 
ATOM      7  C15 ZIN A   1      18.891  -1.871   4.680  0.00  0.00     0.009 A 
ATOM      8  C17 ZIN A   1      19.675  -3.595   6.317  0.00  0.00     0.050 C 
ATOM      9  C14 ZIN A   1      18.528  -0.576   4.360  0.00  0.00     0.001 A 
ATOM     10  C13 ZIN A   1      18.545   0.409   5.331  0.00  0.00     0.009 A 
ATOM     11  C11 ZIN A   1      18.926   0.102   6.622  0.00  0.00    -0.035 A 
ATOM     12  C12 ZIN A   1      18.946   1.177   7.679  0.00  0.00     0.050 C 
ENDBRANCH   3   5
BRANCH   1  13
ATOM     13  C6  ZIN A   1      19.164  -2.191  10.576  0.00  0.00     0.374 C 
BRANCH  13  14
ATOM     14  N3  ZIN A   1      17.966  -2.453  11.385  0.00  0.00     0.096 N 
BRANCH  14  15
ATOM     15  C2  ZIN A   1      17.996  -3.811  11.945  0.00  0.00     0.268 C 
ATOM     16  C1  ZIN A   1      16.816  -4.615  11.396  0.00  0.00     0.037 C 
ENDBRANCH  14  15
BRANCH  14  17
ATOM     17  C4  ZIN A   1      17.817  -1.449  12.446  0.00  0.00     0.268 C 
ATOM     18  C5  ZIN A   1      16.940  -0.301  11.943  0.00  0.00     0.037 C 
ENDBRANCH  14  17
ENDBRANCH  13  14
ENDBRANCH   1  13
TORSDOF 5
ENDMDL
MODEL 5
REMARK VINA RESULT:      -6.0      4.640      7.354
REMARK  5 active torsions:
REMARK  status: ('A' for Active; 'I' for Inactive)
REMARK    1  A    between atoms: C2_2  and  N3_3 
REMARK    2  A    between atoms: N3_3  and  C4_4 
REMARK    3  A    between atoms: N3_3  and  C6_6 
REMARK    4  A    between atoms: C6_6  and  C7_7 
REMARK       I    between atoms: C7_7  and  N9_9 
REMARK    5  A    between atoms: N9_9  and  C10_10 
ROOT
ATOM      1  C7  ZIN A   1      18.161  -2.382   8.711  0.00  0.00     0.250 C 
ATOM      2  O8  ZIN A   1      19.206  -2.249   9.313  0.00  0.00    -0.271 OA
ATOM      3  N9  ZIN A   1      17.428  -1.299   8.386  0.00  0.00    -0.325 N 
ATOM      4  H30 ZIN A   1      16.573  -1.408   7.940  0.00  0.00     0.169 HD
ENDROOT
BRANCH   3   5
ATOM      5  C10 ZIN A   1      17.899  -0.017   8.691  0.00  0.00     0.046 A 
ATOM      6  C16 ZIN A   1      17.614   0.554   9.924  0.00  0.00    -0.035 A 
ATOM      7  C15 ZIN A   1      18.086   1.817  10.224  0.00  0.00     0.009 A 
ATOM      8  C17 ZIN A   1      16.803  -0.210  10.939  0.00  0.00     0.050 C 
ATOM      9  C14 ZIN A   1      18.831   2.518   9.293  0.00  0.00     0.001 A 
ATOM     10  C13 ZIN A   1      19.111   1.954   8.062  0.00  0.00     0.009 A 
ATOM     11  C11 ZIN A   1      18.648   0.689   7.758  0.00  0.00    -0.035 A 
ATOM     12  C12 ZIN A   1      18.953   0.076   6.415  0.00  0.00     0.050 C 
ENDBRANCH   3   5
BRANCH   1  13
ATOM     13  C6  ZIN A   1      17.683  -3.759   8.328  0.00  0.00     0.374 C 
BRANCH  13  14
ATOM     14  N3  ZIN A   1      17.951  -4.695   9.427  0.00  0.00     0.096 N 
BRANCH  14  15
ATOM     15  C2  ZIN A   1      16.719  -5.008  10.164  0.00  0.00     0.268 C 
ATOM     16  C1  ZIN A   1      16.913  -4.680  11.646  0.00  0.00     0.037 C 
ENDBRANCH  14  15
BRANCH  14  17
ATOM     17  C4  ZIN A   1      18.595  -5.919   8.932  0.00  0.00     0.268 C 
ATOM     18  C5  ZIN A   1      20.113  -5.782   9.056  0.00  0.00     0.037 C 
ENDBRANCH  14  17
ENDBRANCH  13  14
ENDBRANCH   1  13
TORSDOF 5
ENDMDL
MODEL 6
REMARK VINA RESULT:      -6.0      4.094      8.215
REMARK  5 active torsions:
REMARK  status: ('A' for Active; 'I' for Inactive)
REMARK    1  A    between atoms: C2_2  and  N3_3 
REMARK    2  A    between atoms: N3_3  and  C4_4 
REMARK    3  A    between atoms: N3_3  and  C6_6 
REMARK    4  A    between atoms: C6_6  and  C7_7 
REMARK       I    between atoms: C7_7  and  N9_9 
REMARK    5  A    between atoms: N9_9  and  C10_10 
ROOT
ATOM      1  C7  ZIN A   1      18.756  -1.906   9.141  0.00  0.00     0.250 C 
ATOM      2  O8  ZIN A   1      17.599  -2.050   8.804  0.00  0.00    -0.271 OA
ATOM      3  N9  ZIN A   1      19.673  -1.497   8.242  0.00  0.00    -0.325 N 
ATOM      4  H30 ZIN A   1      20.605  -1.421   8.501  0.00  0.00     0.169 HD
ENDROOT
BRANCH   3   5
ATOM      5  C10 ZIN A   1      19.282  -1.183   6.935  0.00  0.00     0.046 A 
ATOM      6  C16 ZIN A   1      18.908   0.115   6.614  0.00  0.00    -0.035 A 
ATOM      7  C15 ZIN A   1      18.529   0.422   5.322  0.00  0.00     0.009 A 
ATOM      8  C17 ZIN A   1      18.932   1.190   7.671  0.00  0.00     0.050 C 
ATOM      9  C14 ZIN A   1      18.508  -0.562   4.352  0.00  0.00     0.001 A 
ATOM     10  C13 ZIN A   1      18.874  -1.858   4.672  0.00  0.00     0.009 A 
ATOM     11  C11 ZIN A   1      19.261  -2.171   5.959  0.00  0.00    -0.035 A 
ATOM     12  C12 ZIN A   1      19.658  -3.583   6.306  0.00  0.00     0.050 C 
ENDBRANCH   3   5
BRANCH   1  13
ATOM     13  C6  ZIN A   1      19.166  -2.185  10.564  0.00  0.00     0.374 C 
BRANCH  13  14
ATOM     14  N3  ZIN A   1      17.980  -2.532  11.357  0.00  0.00     0.096 N 
BRANCH  14  15
ATOM     15  C2  ZIN A   1      18.061  -3.914  11.849  0.00  0.00     0.268 C 
ATOM     16  C1  ZIN A   1      16.778  -4.661  11.484  0.00  0.00     0.037 C 
ENDBRANCH  14  15
BRANCH  14  17
ATOM     17  C4  ZIN A   1      17.794  -1.587  12.467  0.00  0.00     0.268 C 
ATOM     18  C5  ZIN A   1      17.003  -0.373  11.976  0.00  0.00     0.037 C 
ENDBRANCH  14  17
ENDBRANCH  13  14
ENDBRANCH   1  13
TORSDOF 5
ENDMDL
MODEL 7
REMARK VINA RESULT:      -6.0      1.519      6.075
REMARK  5 active torsions:
REMARK  status: ('A' for Active; 'I' for Inactive)
REMARK    1  A    between atoms: C2_2  and  N3_3 
REMARK    2  A    between atoms: N3_3  and  C4_4 
REMARK    3  A    between atoms: N3_3  and  C6_6 
REMARK    4  A    between atoms: C6_6  and  C7_7 
REMARK       I    between atoms: C7_7  and  N9_9 
REMARK    5  A    between atoms: N9_9  and  C10_10 
ROOT
ATOM      1  C7  ZIN A   1      18.516   1.586  13.898  0.00  0.00     0.250 C 
ATOM      2  O8  ZIN A   1      17.433   1.227  13.488  0.00  0.00    -0.271 OA
ATOM      3  N9  ZIN A   1      19.069   2.724  13.433  0.00  0.00    -0.325 N 
ATOM      4  H30 ZIN A   1      19.953   2.991  13.731  0.00  0.00     0.169 HD
ENDROOT
BRANCH   3   5
ATOM      5  C10 ZIN A   1      18.369   3.521  12.521  0.00  0.00     0.046 A 
ATOM      6  C16 ZIN A   1      18.509   3.305  11.157  0.00  0.00    -0.035 A 
ATOM      7  C15 ZIN A   1      17.811   4.090  10.260  0.00  0.00     0.009 A 
ATOM      8  C17 ZIN A   1      19.410   2.205  10.657  0.00  0.00     0.050 C 
ATOM      9  C14 ZIN A   1      16.984   5.098  10.718  0.00  0.00     0.001 A 
ATOM     10  C13 ZIN A   1      16.848   5.320  12.076  0.00  0.00     0.009 A 
ATOM     11  C11 ZIN A   1      17.537   4.535  12.978  0.00  0.00    -0.035 A 
ATOM     12  C12 ZIN A   1      17.388   4.779  14.459  0.00  0.00     0.050 C 
ENDBRANCH   3   5
BRANCH   1  13
ATOM     13  C6  ZIN A   1      19.244   0.760  14.927  0.00  0.00     0.374 C 
BRANCH  13  14
ATOM     14  N3  ZIN A   1      18.735  -0.617  14.899  0.00  0.00     0.096 N 
BRANCH  14  15
ATOM     15  C2  ZIN A   1      19.628  -1.494  14.130  0.00  0.00     0.268 C 
ATOM     16  C1  ZIN A   1      18.861  -2.095  12.950  0.00  0.00     0.037 C 
ENDBRANCH  14  15
BRANCH  14  17
ATOM     17  C4  ZIN A   1      18.535  -1.132  16.260  0.00  0.00     0.268 C 
ATOM     18  C5  ZIN A   1      17.282  -0.498  16.867  0.00  0.00     0.037 C 
ENDBRANCH  14  17
ENDBRANCH  13  14
ENDBRANCH   1  13
TORSDOF 5
ENDMDL
MODEL 8
REMARK VINA RESULT:      -5.9      1.465      5.724
REMARK  5 active torsions:
REMARK  status: ('A' for Active; 'I' for Inactive)
REMARK    1  A    between atoms: C2_2  and  N3_3 
REMARK    2  A    between atoms: N3_3  and  C4_4 
REMARK    3  A    between atoms: N3_3  and  C6_6 
REMARK    4  A    between atoms: C6_6  and  C7_7 
REMARK       I    between atoms: C7_7  and  N9_9 
REMARK    5  A    between atoms: N9_9  and  C10_10 
ROOT
ATOM      1  C7  ZIN A   1      18.622   1.477  13.707  0.00  0.00     0.250 C 
ATOM      2  O8  ZIN A   1      17.473   1.208  13.425  0.00  0.00    -0.271 OA
ATOM      3  N9  ZIN A   1      19.205   2.575  13.185  0.00  0.00    -0.325 N 
ATOM      4  H30 ZIN A   1      20.136   2.768  13.379  0.00  0.00     0.169 HD
ENDROOT
BRANCH   3   5
ATOM      5  C10 ZIN A   1      18.467   3.435  12.364  0.00  0.00     0.046 A 
ATOM      6  C16 ZIN A   1      17.725   4.466  12.925  0.00  0.00    -0.035 A 
ATOM      7  C15 ZIN A   1      17.004   5.317  12.110  0.00  0.00     0.009 A 
ATOM      8  C17 ZIN A   1      17.719   4.665  14.418  0.00  0.00     0.050 C 
ATOM      9  C14 ZIN A   1      17.010   5.136  10.740  0.00  0.00     0.001 A 
ATOM     10  C13 ZIN A   1      17.743   4.106  10.179  0.00  0.00     0.009 A 
ATOM     11  C11 ZIN A   1      18.472   3.256  10.987  0.00  0.00    -0.035 A 
ATOM     12  C12 ZIN A   1      19.270   2.133  10.375  0.00  0.00     0.050 C 
ENDBRANCH   3   5
BRANCH   1  13
ATOM     13  C6  ZIN A   1      19.397   0.584  14.641  0.00  0.00     0.374 C 
BRANCH  13  14
ATOM     14  N3  ZIN A   1      18.805  -0.760  14.638  0.00  0.00     0.096 N 
BRANCH  14  15
ATOM     15  C2  ZIN A   1      19.512  -1.645  13.701  0.00  0.00     0.268 C 
ATOM     16  C1  ZIN A   1      18.535  -2.144  12.636  0.00  0.00     0.037 C 
ENDBRANCH  14  15
BRANCH  14  17
ATOM     17  C4  ZIN A   1      18.788  -1.331  15.991  0.00  0.00     0.268 C 
ATOM     18  C5  ZIN A   1      17.632  -0.723  16.787  0.00  0.00     0.037 C 
ENDBRANCH  14  17
ENDBRANCH  13  14
ENDBRANCH   1  13
TORSDOF 5
ENDMDL
MODEL 9
REMARK VINA RESULT:      -5.9      1.441      2.266
REMARK  5 active torsions:
REMARK  status: ('A' for Active; 'I' for Inactive)
REMARK    1  A    between atoms: C2_2  and  N3_3 
REMARK    2  A    between atoms: N3_3  and  C4_4 
REMARK    3  A    between atoms: N3_3  and  C6_6 
REMARK    4  A    between atoms: C6_6  and  C7_7 
REMARK       I    between atoms: C7_7  and  N9_9 
REMARK    5  A    between atoms: N9_9  and  C10_10 
ROOT
ATOM      1  C7  ZIN A   1      17.413   0.557  11.595  0.00  0.00     0.250 C 
ATOM      2  O8  ZIN A   1      16.334   0.191  12.012  0.00  0.00    -0.271 OA
ATOM      3  N9  ZIN A   1      18.477   0.596  12.421  0.00  0.00    -0.325 N 
ATOM      4  H30 ZIN A   1      19.330   0.927  12.098  0.00  0.00     0.169 HD
ENDROOT
BRANCH   3   5
ATOM      5  C10 ZIN A   1      18.352   0.160  13.745  0.00  0.00     0.046 A 
ATOM      6  C16 ZIN A   1      18.077   1.073  14.755  0.00  0.00    -0.035 A 
ATOM      7  C15 ZIN A   1      17.948   0.637  16.060  0.00  0.00     0.009 A 
ATOM      8  C17 ZIN A   1      17.905   2.533  14.426  0.00  0.00     0.050 C 
ATOM      9  C14 ZIN A   1      18.105  -0.703  16.363  0.00  0.00     0.001 A 
ATOM     10  C13 ZIN A   1      18.385  -1.612  15.359  0.00  0.00     0.009 A 
ATOM     11  C11 ZIN A   1      18.508  -1.185  14.052  0.00  0.00    -0.035 A 
ATOM     12  C12 ZIN A   1      18.815  -2.178  12.960  0.00  0.00     0.050 C 
ENDBRANCH   3   5
BRANCH   1  13
ATOM     13  C6  ZIN A   1      17.564   0.968  10.153  0.00  0.00     0.374 C 
BRANCH  13  14
ATOM     14  N3  ZIN A   1      18.487   2.106  10.062  0.00  0.00     0.096 N 
BRANCH  14  15
ATOM     15  C2  ZIN A   1      19.192   2.111   8.773  0.00  0.00     0.268 C 
ATOM     16  C1  ZIN A   1      18.697   0.945   7.916  0.00  0.00     0.037 C 
ENDBRANCH  14  15
BRANCH  14  17
ATOM     17  C4  ZIN A   1      17.781   3.376  10.280  0.00  0.00     0.268 C 
ATOM     18  C5  ZIN A   1      18.565   4.231  11.278  0.00  0.00     0.037 C 
ENDBRANCH  14  17
ENDBRANCH  13  14
ENDBRANCH   1  13
TORSDOF 5
ENDMDL
