MODEL 1
REMARK VINA RESULT:      -7.6      0.000      0.000
REMARK  1 active torsions:
REMARK  status: ('A' for Active; 'I' for Inactive)
REMARK    1  A    between atoms: O2_2  and  C3_3 
ROOT
ATOM      1  C3  ZIN A   1      19.403   3.528  11.719  0.00  0.00     0.102 A 
ATOM      2  C4  ZIN A   1      18.408   3.792  10.779  0.00  0.00     0.040 A 
ATOM      3  C5  ZIN A   1      17.709   2.799  10.112  0.00  0.00     0.011 A 
ATOM      4  C6  ZIN A   1      17.992   1.466  10.352  0.00  0.00    -0.046 A 
ATOM      5  C7  ZIN A   1      17.234   0.313   9.782  0.00  0.00     0.075 C 
ATOM      6  C8  ZIN A   1      17.771  -1.042  10.212  0.00  0.00     0.232 C 
ATOM      7  C10 ZIN A   1      18.377  -1.064  11.619  0.00  0.00     0.036 C 
ATOM      8  C12 ZIN A   1      17.340  -0.603  12.642  0.00  0.00     0.015 C 
ATOM      9  C13 ZIN A   1      17.963  -0.667  14.036  0.00  0.00     0.081 C 
ATOM     10  C14 ZIN A   1      19.207   0.168  14.083  0.00  0.00     0.157 C 
ATOM     11  O15 ZIN A   1      19.416   0.837  15.067  0.00  0.00    -0.295 OA
ATOM     12  C16 ZIN A   1      20.206   0.212  12.963  0.00  0.00     0.212 C 
ATOM     13  O18 ZIN A   1      20.592   1.607  12.779  0.00  0.00    -0.334 OA
ATOM     14  C19 ZIN A   1      19.703   2.184  11.966  0.00  0.00     0.111 A 
ATOM     15  C20 ZIN A   1      19.014   1.223  11.242  0.00  0.00    -0.003 A 
ATOM     16  C21 ZIN A   1      19.575  -0.128  11.616  0.00  0.00     0.031 C 
ATOM     17  C22 ZIN A   1      20.608  -0.566  10.582  0.00  0.00     0.048 C 
ATOM     18  C23 ZIN A   1      19.940  -0.595   9.202  0.00  0.00     0.273 C 
ATOM     19  N24 ZIN A   1      18.789  -1.508   9.261  0.00  0.00     0.089 N 
ATOM     20  C25 ZIN A   1      18.174  -1.666   7.935  0.00  0.00     0.310 C 
ENDROOT
BRANCH   1  21
ATOM     21  O2  ZIN A   1      20.055   4.533  12.363  0.00  0.00    -0.353 OA
ATOM     22  C1  ZIN A   1      19.473   5.012  13.577  0.00  0.00     0.210 C 
ENDBRANCH   1  21
TORSDOF 1
ENDMDL
MODEL 2
REMARK VINA RESULT:      -7.2      2.648      5.286
REMARK  1 active torsions:
REMARK  status: ('A' for Active; 'I' for Inactive)
REMARK    1  A    between atoms: O2_2  and  C3_3 
ROOT
ATOM      1  C3  ZIN A   1      18.725  -2.429   9.807  0.00  0.00     0.102 A 
ATOM      2  C4  ZIN A   1      17.718  -2.846  10.676  0.00  0.00     0.040 A 
ATOM      3  C5  ZIN A   1      17.271  -2.085  11.743  0.00  0.00     0.011 A 
ATOM      4  C6  ZIN A   1      17.836  -0.849  12.003  0.00  0.00    -0.046 A 
ATOM      5  C7  ZIN A   1      17.364   0.105  13.050  0.00  0.00     0.075 C 
ATOM      6  C8  ZIN A   1      18.177   1.387  13.118  0.00  0.00     0.232 C 
ATOM      7  C10 ZIN A   1      18.743   1.849  11.770  0.00  0.00     0.036 C 
ATOM      8  C12 ZIN A   1      17.606   2.044  10.767  0.00  0.00     0.015 C 
ATOM      9  C13 ZIN A   1      18.197   2.535   9.445  0.00  0.00     0.081 C 
ATOM     10  C14 ZIN A   1      19.225   1.563   8.948  0.00  0.00     0.157 C 
ATOM     11  O15 ZIN A   1      19.259   1.313   7.767  0.00  0.00    -0.295 OA
ATOM     12  C16 ZIN A   1      20.214   0.884   9.851  0.00  0.00     0.212 C 
ATOM     13  O18 ZIN A   1      20.286  -0.515   9.443  0.00  0.00    -0.334 OA
ATOM     14  C19 ZIN A   1      19.310  -1.183  10.064  0.00  0.00     0.111 A 
ATOM     15  C20 ZIN A   1      18.867  -0.475  11.171  0.00  0.00    -0.003 A 
ATOM     16  C21 ZIN A   1      19.703   0.776  11.285  0.00  0.00     0.031 C 
ATOM     17  C22 ZIN A   1      20.831   0.557  12.290  0.00  0.00     0.048 C 
ATOM     18  C23 ZIN A   1      20.216   0.164  13.638  0.00  0.00     0.273 C 
ATOM     19  N24 ZIN A   1      19.294   1.230  14.059  0.00  0.00     0.089 N 
ATOM     20  C25 ZIN A   1      18.759   0.963  15.401  0.00  0.00     0.310 C 
ENDROOT
BRANCH   1  21
ATOM     21  O2  ZIN A   1      19.125  -3.200   8.762  0.00  0.00    -0.353 OA
ATOM     22  C1  ZIN A   1      18.512  -2.947   7.496  0.00  0.00     0.210 C 
ENDBRANCH   1  21
TORSDOF 1
ENDMDL
MODEL 3
REMARK VINA RESULT:      -7.0      3.422      6.166
REMARK  1 active torsions:
REMARK  status: ('A' for Active; 'I' for Inactive)
REMARK    1  A    between atoms: O2_2  and  C3_3 
ROOT
ATOM      1  C3  ZIN A   1      18.416  -4.321   9.608  0.00  0.00     0.102 A 
ATOM      2  C4  ZIN A   1      17.648  -4.313  10.770  0.00  0.00     0.040 A 
ATOM      3  C5  ZIN A   1      17.323  -3.156  11.459  0.00  0.00     0.011 A 
ATOM      4  C6  ZIN A   1      17.776  -1.928  11.012  0.00  0.00    -0.046 A 
ATOM      5  C7  ZIN A   1      17.400  -0.609  11.604  0.00  0.00     0.075 C 
ATOM      6  C8  ZIN A   1      18.054   0.577  10.913  0.00  0.00     0.232 C 
ATOM      7  C10 ZIN A   1      18.296   0.380   9.413  0.00  0.00     0.036 C 
ATOM      8  C12 ZIN A   1      16.976   0.071   8.708  0.00  0.00     0.015 C 
ATOM      9  C13 ZIN A   1      17.244  -0.087   7.211  0.00  0.00     0.081 C 
ATOM     10  C14 ZIN A   1      18.267  -1.158   6.981  0.00  0.00     0.157 C 
ATOM     11  O15 ZIN A   1      18.106  -1.921   6.059  0.00  0.00    -0.295 OA
ATOM     12  C16 ZIN A   1      19.482  -1.328   7.847  0.00  0.00     0.212 C 
ATOM     13  O18 ZIN A   1      19.642  -2.757   8.096  0.00  0.00    -0.334 OA
ATOM     14  C19 ZIN A   1      18.886  -3.085   9.149  0.00  0.00     0.111 A 
ATOM     15  C20 ZIN A   1      18.579  -1.957   9.895  0.00  0.00    -0.003 A 
ATOM     16  C21 ZIN A   1      19.268  -0.777   9.253  0.00  0.00     0.031 C 
ATOM     17  C22 ZIN A   1      20.583  -0.489   9.973  0.00  0.00     0.048 C 
ATOM     18  C23 ZIN A   1      20.285  -0.232  11.455  0.00  0.00     0.273 C 
ATOM     19  N24 ZIN A   1      19.339   0.890  11.552  0.00  0.00     0.089 N 
ATOM     20  C25 ZIN A   1      19.102   1.258  12.955  0.00  0.00     0.310 C 
ENDROOT
BRANCH   1  21
ATOM     21  O2  ZIN A   1      18.700  -5.478   8.952  0.00  0.00    -0.353 OA
ATOM     22  C1  ZIN A   1      20.025  -5.995   9.092  0.00  0.00     0.210 C 
ENDBRANCH   1  21
TORSDOF 1
ENDMDL
MODEL 4
REMARK VINA RESULT:      -6.9      1.877      4.203
REMARK  1 active torsions:
REMARK  status: ('A' for Active; 'I' for Inactive)
REMARK    1  A    between atoms: O2_2  and  C3_3 
ROOT
ATOM      1  C3  ZIN A   1      18.303   0.328  15.977  0.00  0.00     0.102 A 
ATOM      2  C4  ZIN A   1      19.010  -0.864  16.123  0.00  0.00     0.040 A 
ATOM      3  C5  ZIN A   1      19.483  -1.604  15.052  0.00  0.00     0.011 A 
ATOM      4  C6  ZIN A   1      19.249  -1.182  13.755  0.00  0.00    -0.046 A 
ATOM      5  C7  ZIN A   1      19.801  -1.832  12.530  0.00  0.00     0.075 C 
ATOM      6  C8  ZIN A   1      19.374  -1.158  11.237  0.00  0.00     0.232 C 
ATOM      7  C10 ZIN A   1      19.171   0.357  11.352  0.00  0.00     0.036 C 
ATOM      8  C12 ZIN A   1      20.456   1.019  11.847  0.00  0.00     0.015 C 
ATOM      9  C13 ZIN A   1      20.234   2.531  11.919  0.00  0.00     0.081 C 
ATOM     10  C14 ZIN A   1      19.066   2.837  12.808  0.00  0.00     0.157 C 
ATOM     11  O15 ZIN A   1      19.145   3.778  13.561  0.00  0.00    -0.295 OA
ATOM     12  C16 ZIN A   1      17.802   2.026  12.806  0.00  0.00     0.212 C 
ATOM     13  O18 ZIN A   1      17.408   1.832  14.197  0.00  0.00    -0.334 OA
ATOM     14  C19 ZIN A   1      18.054   0.763  14.670  0.00  0.00     0.111 A 
ATOM     15  C20 ZIN A   1      18.502  -0.033  13.627  0.00  0.00    -0.003 A 
ATOM     16  C21 ZIN A   1      18.037   0.595  12.335  0.00  0.00     0.031 C 
ATOM     17  C22 ZIN A   1      16.753  -0.082  11.861  0.00  0.00     0.048 C 
ATOM     18  C23 ZIN A   1      17.022  -1.582  11.696  0.00  0.00     0.273 C 
ATOM     19  N24 ZIN A   1      18.128  -1.756  10.742  0.00  0.00     0.089 N 
ATOM     20  C25 ZIN A   1      18.356  -3.178  10.454  0.00  0.00     0.310 C 
ENDROOT
BRANCH   1  21
ATOM     21  O2  ZIN A   1      17.870   1.033  17.056  0.00  0.00    -0.353 OA
ATOM     22  C1  ZIN A   1      18.767   1.144  18.162  0.00  0.00     0.210 C 
ENDBRANCH   1  21
TORSDOF 1
ENDMDL
MODEL 5
REMARK VINA RESULT:      -6.9      3.119      5.077
REMARK  1 active torsions:
REMARK  status: ('A' for Active; 'I' for Inactive)
REMARK    1  A    between atoms: O2_2  and  C3_3 
ROOT
ATOM      1  C3  ZIN A   1      18.194  -0.104   7.099  0.00  0.00     0.102 A 
ATOM      2  C4  ZIN A   1      18.882   1.101   6.967  0.00  0.00     0.040 A 
ATOM      3  C5  ZIN A   1      19.383   1.813   8.043  0.00  0.00     0.011 A 
ATOM      4  C6  ZIN A   1      19.201   1.347   9.333  0.00  0.00    -0.046 A 
ATOM      5  C7  ZIN A   1      19.789   1.966  10.559  0.00  0.00     0.075 C 
ATOM      6  C8  ZIN A   1      19.416   1.245  11.844  0.00  0.00     0.232 C 
ATOM      7  C10 ZIN A   1      19.227  -0.268  11.688  0.00  0.00     0.036 C 
ATOM      8  C12 ZIN A   1      20.501  -0.898  11.127  0.00  0.00     0.015 C 
ATOM      9  C13 ZIN A   1      20.294  -2.409  11.014  0.00  0.00     0.081 C 
ATOM     10  C14 ZIN A   1      19.098  -2.701  10.158  0.00  0.00     0.157 C 
ATOM     11  O15 ZIN A   1      19.161  -3.617   9.373  0.00  0.00    -0.295 OA
ATOM     12  C16 ZIN A   1      17.826  -1.907  10.231  0.00  0.00     0.212 C 
ATOM     13  O18 ZIN A   1      17.380  -1.675   8.861  0.00  0.00    -0.334 OA
ATOM     14  C19 ZIN A   1      17.997  -0.583   8.400  0.00  0.00     0.111 A 
ATOM     15  C20 ZIN A   1      18.472   0.185   9.452  0.00  0.00    -0.003 A 
ATOM     16  C21 ZIN A   1      18.061  -0.489  10.739  0.00  0.00     0.031 C 
ATOM     17  C22 ZIN A   1      16.788   0.156  11.279  0.00  0.00     0.048 C 
ATOM     18  C23 ZIN A   1      17.044   1.654  11.482  0.00  0.00     0.273 C 
ATOM     19  N24 ZIN A   1      18.181   1.811  12.402  0.00  0.00     0.089 N 
ATOM     20  C25 ZIN A   1      18.404   3.227  12.726  0.00  0.00     0.310 C 
ENDROOT
BRANCH   1  21
ATOM     21  O2  ZIN A   1      17.730  -0.780   6.014  0.00  0.00    -0.353 OA
ATOM     22  C1  ZIN A   1      18.350  -0.495   4.759  0.00  0.00     0.210 C 
ENDBRANCH   1  21
TORSDOF 1
ENDMDL
MODEL 6
REMARK VINA RESULT:      -6.9      2.168      4.082
REMARK  1 active torsions:
REMARK  status: ('A' for Active; 'I' for Inactive)
REMARK    1  A    between atoms: O2_2  and  C3_3 
ROOT
ATOM      1  C3  ZIN A   1      18.217   3.535  10.778  0.00  0.00     0.102 A 
ATOM      2  C4  ZIN A   1      19.215   3.865  11.693  0.00  0.00     0.040 A 
ATOM      3  C5  ZIN A   1      19.911   2.923  12.432  0.00  0.00     0.011 A 
ATOM      4  C6  ZIN A   1      19.621   1.577  12.295  0.00  0.00    -0.046 A 
ATOM      5  C7  ZIN A   1      20.375   0.467  12.951  0.00  0.00     0.075 C 
ATOM      6  C8  ZIN A   1      19.831  -0.914  12.627  0.00  0.00     0.232 C 
ATOM      7  C10 ZIN A   1      19.221  -1.041  11.227  0.00  0.00     0.036 C 
ATOM      8  C12 ZIN A   1      20.259  -0.665  10.170  0.00  0.00     0.015 C 
ATOM      9  C13 ZIN A   1      19.632  -0.833   8.786  0.00  0.00     0.081 C 
ATOM     10  C14 ZIN A   1      18.391   0.002   8.677  0.00  0.00     0.157 C 
ATOM     11  O15 ZIN A   1      18.184   0.595   7.646  0.00  0.00    -0.295 OA
ATOM     12  C16 ZIN A   1      17.396   0.136   9.793  0.00  0.00     0.212 C 
ATOM     13  O18 ZIN A   1      17.016   1.543   9.870  0.00  0.00    -0.334 OA
ATOM     14  C19 ZIN A   1      17.910   2.176  10.635  0.00  0.00     0.111 A 
ATOM     15  C20 ZIN A   1      18.596   1.271  11.429  0.00  0.00    -0.003 A 
ATOM     16  C21 ZIN A   1      18.028  -0.102  11.160  0.00  0.00     0.031 C 
ATOM     17  C22 ZIN A   1      16.995  -0.455  12.227  0.00  0.00     0.048 C 
ATOM     18  C23 ZIN A   1      17.666  -0.381  13.604  0.00  0.00     0.273 C 
ATOM     19  N24 ZIN A   1      18.814  -1.301  13.613  0.00  0.00     0.089 N 
ATOM     20  C25 ZIN A   1      19.430  -1.360  14.945  0.00  0.00     0.310 C 
ENDROOT
BRANCH   1  21
ATOM     21  O2  ZIN A   1      17.568   4.490  10.060  0.00  0.00    -0.353 OA
ATOM     22  C1  ZIN A   1      16.808   5.451  10.796  0.00  0.00     0.210 C 
ENDBRANCH   1  21
TORSDOF 1
ENDMDL
MODEL 7
REMARK VINA RESULT:      -6.8      1.515      4.036
REMARK  1 active torsions:
REMARK  status: ('A' for Active; 'I' for Inactive)
REMARK    1  A    between atoms: O2_2  and  C3_3 
ROOT
ATOM      1  C3  ZIN A   1      18.045  -0.189  14.768  0.00  0.00     0.102 A 
ATOM      2  C4  ZIN A   1      18.914  -1.275  14.672  0.00  0.00     0.040 A 
ATOM      3  C5  ZIN A   1      19.602  -1.598  13.514  0.00  0.00     0.011 A 
ATOM      4  C6  ZIN A   1      19.436  -0.839  12.369  0.00  0.00    -0.046 A 
ATOM      5  C7  ZIN A   1      20.204  -1.022  11.102  0.00  0.00     0.075 C 
ATOM      6  C8  ZIN A   1      19.808  -0.048  10.004  0.00  0.00     0.232 C 
ATOM      7  C10 ZIN A   1      19.359   1.326  10.510  0.00  0.00     0.036 C 
ATOM      8  C12 ZIN A   1      20.467   1.961  11.349  0.00  0.00     0.015 C 
ATOM      9  C13 ZIN A   1      20.002   3.343  11.811  0.00  0.00     0.081 C 
ATOM     10  C14 ZIN A   1      18.717   3.225  12.575  0.00  0.00     0.157 C 
ATOM     11  O15 ZIN A   1      18.571   3.901  13.565  0.00  0.00    -0.295 OA
ATOM     12  C16 ZIN A   1      17.604   2.305  12.165  0.00  0.00     0.212 C 
ATOM     13  O18 ZIN A   1      17.107   1.658  13.375  0.00  0.00    -0.334 OA
ATOM     14  C19 ZIN A   1      17.864   0.583  13.614  0.00  0.00     0.111 A 
ATOM     15  C20 ZIN A   1      18.534   0.196  12.464  0.00  0.00    -0.003 A 
ATOM     16  C21 ZIN A   1      18.108   1.120  11.348  0.00  0.00     0.031 C 
ATOM     17  C22 ZIN A   1      17.001   0.465  10.526  0.00  0.00     0.048 C 
ATOM     18  C23 ZIN A   1      17.518  -0.873   9.985  0.00  0.00     0.273 C 
ATOM     19  N24 ZIN A   1      18.728  -0.618   9.188  0.00  0.00     0.089 N 
ATOM     20  C25 ZIN A   1      19.206  -1.851   8.548  0.00  0.00     0.310 C 
ENDROOT
BRANCH   1  21
ATOM     21  O2  ZIN A   1      17.400   0.103  15.928  0.00  0.00    -0.353 OA
ATOM     22  C1  ZIN A   1      17.195  -0.973  16.846  0.00  0.00     0.210 C 
ENDBRANCH   1  21
TORSDOF 1
ENDMDL
MODEL 8
REMARK VINA RESULT:      -6.7      2.627      5.224
REMARK  1 active torsions:
REMARK  status: ('A' for Active; 'I' for Inactive)
REMARK    1  A    between atoms: O2_2  and  C3_3 
ROOT
ATOM      1  C3  ZIN A   1      19.605  -2.528  11.987  0.00  0.00     0.102 A 
ATOM      2  C4  ZIN A   1      18.648  -2.422  12.995  0.00  0.00     0.040 A 
ATOM      3  C5  ZIN A   1      17.831  -1.315  13.154  0.00  0.00     0.011 A 
ATOM      4  C6  ZIN A   1      17.949  -0.233  12.300  0.00  0.00    -0.046 A 
ATOM      5  C7  ZIN A   1      17.054   0.962  12.303  0.00  0.00     0.075 C 
ATOM      6  C8  ZIN A   1      17.421   2.001  11.256  0.00  0.00     0.232 C 
ATOM      7  C10 ZIN A   1      18.024   1.420   9.973  0.00  0.00     0.036 C 
ATOM      8  C12 ZIN A   1      17.052   0.419   9.347  0.00  0.00     0.015 C 
ATOM      9  C13 ZIN A   1      17.666  -0.117   8.053  0.00  0.00     0.081 C 
ATOM     10  C14 ZIN A   1      19.003  -0.734   8.335  0.00  0.00     0.157 C 
ATOM     11  O15 ZIN A   1      19.295  -1.762   7.772  0.00  0.00    -0.295 OA
ATOM     12  C16 ZIN A   1      19.997  -0.132   9.286  0.00  0.00     0.212 C 
ATOM     13  O18 ZIN A   1      20.552  -1.222  10.082  0.00  0.00    -0.334 OA
ATOM     14  C19 ZIN A   1      19.738  -1.438  11.120  0.00  0.00     0.111 A 
ATOM     15  C20 ZIN A   1      18.935  -0.330  11.345  0.00  0.00    -0.003 A 
ATOM     16  C21 ZIN A   1      19.327   0.734  10.347  0.00  0.00     0.031 C 
ATOM     17  C22 ZIN A   1      20.296   1.720  10.994  0.00  0.00     0.048 C 
ATOM     18  C23 ZIN A   1      19.627   2.325  12.233  0.00  0.00     0.273 C 
ATOM     19  N24 ZIN A   1      18.372   2.970  11.817  0.00  0.00     0.089 N 
ATOM     20  C25 ZIN A   1      17.740   3.669  12.944  0.00  0.00     0.310 C 
ENDROOT
BRANCH   1  21
ATOM     21  O2  ZIN A   1      20.377  -3.640  11.856  0.00  0.00    -0.353 OA
ATOM     22  C1  ZIN A   1      19.931  -4.635  10.932  0.00  0.00     0.210 C 
ENDBRANCH   1  21
TORSDOF 1
ENDMDL
MODEL 9
REMARK VINA RESULT:      -6.7      1.810      3.712
REMARK  1 active torsions:
REMARK  status: ('A' for Active; 'I' for Inactive)
REMARK    1  A    between atoms: O2_2  and  C3_3 
ROOT
ATOM      1  C3  ZIN A   1      18.761   1.964  13.800  0.00  0.00     0.102 A 
ATOM      2  C4  ZIN A   1      19.799   1.121  14.193  0.00  0.00     0.040 A 
ATOM      3  C5  ZIN A   1      20.283   0.091  13.403  0.00  0.00     0.011 A 
ATOM      4  C6  ZIN A   1      19.726  -0.155  12.160  0.00  0.00    -0.046 A 
ATOM      5  C7  ZIN A   1      20.235  -1.157  11.178  0.00  0.00     0.075 C 
ATOM      6  C8  ZIN A   1      19.424  -1.218   9.894  0.00  0.00     0.232 C 
ATOM      7  C10 ZIN A   1      18.810   0.120   9.470  0.00  0.00     0.036 C 
ATOM      8  C12 ZIN A   1      19.910   1.169   9.304  0.00  0.00     0.015 C 
ATOM      9  C13 ZIN A   1      19.272   2.482   8.849  0.00  0.00     0.081 C 
ATOM     10  C14 ZIN A   1      18.228   2.915   9.834  0.00  0.00     0.157 C 
ATOM     11  O15 ZIN A   1      18.152   4.087  10.116  0.00  0.00    -0.295 OA
ATOM     12  C16 ZIN A   1      17.272   1.958  10.487  0.00  0.00     0.212 C 
ATOM     13  O18 ZIN A   1      17.186   2.325  11.897  0.00  0.00    -0.334 OA
ATOM     14  C19 ZIN A   1      18.185   1.721  12.548  0.00  0.00     0.111 A 
ATOM     15  C20 ZIN A   1      18.667   0.651  11.810  0.00  0.00    -0.003 A 
ATOM     16  C21 ZIN A   1      17.834   0.542  10.556  0.00  0.00     0.031 C 
ATOM     17  C22 ZIN A   1      16.743  -0.509  10.747  0.00  0.00     0.048 C 
ATOM     18  C23 ZIN A   1      17.405  -1.845  11.103  0.00  0.00     0.273 C 
ATOM     19  N24 ZIN A   1      18.341  -2.203  10.026  0.00  0.00     0.089 N 
ATOM     20  C25 ZIN A   1      18.924  -3.532  10.255  0.00  0.00     0.310 C 
ENDROOT
BRANCH   1  21
ATOM     21  O2  ZIN A   1      18.324   2.973  14.600  0.00  0.00    -0.353 OA
ATOM     22  C1  ZIN A   1      18.824   3.003  15.939  0.00  0.00     0.210 C 
ENDBRANCH   1  21
TORSDOF 1
ENDMDL
