MODEL 1
REMARK VINA RESULT:      -9.0      0.000      0.000
REMARK  8 active torsions:
REMARK  status: ('A' for Active; 'I' for Inactive)
REMARK    1  A    between atoms: C2_2  and  C3_3 
REMARK    2  A    between atoms: C3_3  and  C6_5 
REMARK    3  A    between atoms: C6_5  and  O8_7 
REMARK    4  A    between atoms: O8_7  and  C9_8 
REMARK    5  A    between atoms: C22_18  and  C24_19 
REMARK    6  A    between atoms: C24_19  and  C25_20 
REMARK    7  A    between atoms: C25_20  and  C26_21 
REMARK    8  A    between atoms: C29_23  and  O31_24 
ROOT
ATOM      1  C9  ZIN A   1      19.770   1.160  10.704  0.00  0.00     0.141 C 
ATOM      2  C11 ZIN A   1      18.995   0.431   9.608  0.00  0.00     0.041 C 
ATOM      3  C12 ZIN A   1      19.144   1.225   8.302  0.00  0.00     0.007 C 
ATOM      4  C14 ZIN A   1      18.402   0.509   7.172  0.00  0.00     0.014 C 
ATOM      5  C15 ZIN A   1      18.545   2.590   8.524  0.00  0.00    -0.015 C 
ATOM      6  C16 ZIN A   1      18.590   3.168   9.710  0.00  0.00    -0.055 C 
ATOM      7  C17 ZIN A   1      17.892   4.459   9.911  0.00  0.00     0.004 C 
ATOM      8  C18 ZIN A   1      17.644   4.888  11.136  0.00  0.00    -0.022 C 
ATOM      9  C19 ZIN A   1      18.044   4.154  12.380  0.00  0.00     0.009 C 
ATOM     10  C21 ZIN A   1      19.309   4.794  12.953  0.00  0.00     0.014 C 
ATOM     11  C22 ZIN A   1      18.318   2.675  12.099  0.00  0.00     0.004 C 
ATOM     12  C36 ZIN A   1      19.268   2.570  10.905  0.00  0.00     0.052 C 
ENDROOT
BRANCH  11  13
ATOM     13  C24 ZIN A   1      18.958   2.029  13.329  0.00  0.00     0.009 C 
BRANCH  13  14
ATOM     14  C25 ZIN A   1      17.914   1.900  14.440  0.00  0.00     0.033 C 
BRANCH  14  15
ATOM     15  C26 ZIN A   1      18.470   1.024  15.564  0.00  0.00     0.134 C 
ATOM     16  O35 ZIN A   1      18.651   1.829  16.763  0.00  0.00    -0.316 OA
ATOM     17  C33 ZIN A   1      18.999   1.149  17.877  0.00  0.00     0.261 C 
ATOM     18  C32 ZIN A   1      18.174  -0.059  18.260  0.00  0.00     0.142 C 
ATOM     19  O34 ZIN A   1      19.944   1.495  18.545  0.00  0.00    -0.265 OA
ATOM     20  C29 ZIN A   1      18.021  -0.954  17.024  0.00  0.00     0.130 C 
ATOM     21  C28 ZIN A   1      17.485  -0.110  15.863  0.00  0.00     0.065 C 
BRANCH  20  22
ATOM     22  O31 ZIN A   1      19.290  -1.505  16.670  0.00  0.00    -0.395 OA
ATOM     23  H63 ZIN A   1      19.760  -1.918  17.407  0.00  0.00     0.210 HD
ENDBRANCH  20  22
ENDBRANCH  14  15
ENDBRANCH  13  14
ENDBRANCH  11  13
BRANCH   1  24
ATOM     24  O8  ZIN A   1      19.628   0.426  11.949  0.00  0.00    -0.315 OA
BRANCH  24  25
ATOM     25  C6  ZIN A   1      19.685  -0.914  11.878  0.00  0.00     0.263 C 
ATOM     26  O7  ZIN A   1      20.588  -1.448  11.277  0.00  0.00    -0.265 OA
BRANCH  25  27
ATOM     27  C3  ZIN A   1      18.625  -1.750  12.546  0.00  0.00     0.081 C 
ATOM     28  C5  ZIN A   1      17.250  -1.126  12.297  0.00  0.00     0.020 C 
BRANCH  27  29
ATOM     29  C2  ZIN A   1      18.653  -3.167  11.969  0.00  0.00     0.010 C 
ATOM     30  C1  ZIN A   1      17.361  -3.429  11.192  0.00  0.00     0.006 C 
ENDBRANCH  27  29
ENDBRANCH  25  27
ENDBRANCH  24  25
ENDBRANCH   1  24
TORSDOF 8
ENDMDL
MODEL 2
REMARK VINA RESULT:      -8.9      3.591      7.353
REMARK  8 active torsions:
REMARK  status: ('A' for Active; 'I' for Inactive)
REMARK    1  A    between atoms: C2_2  and  C3_3 
REMARK    2  A    between atoms: C3_3  and  C6_5 
REMARK    3  A    between atoms: C6_5  and  O8_7 
REMARK    4  A    between atoms: O8_7  and  C9_8 
REMARK    5  A    between atoms: C22_18  and  C24_19 
REMARK    6  A    between atoms: C24_19  and  C25_20 
REMARK    7  A    between atoms: C25_20  and  C26_21 
REMARK    8  A    between atoms: C29_23  and  O31_24 
ROOT
ATOM      1  C9  ZIN A   1      17.882   0.037   9.976  0.00  0.00     0.141 C 
ATOM      2  C11 ZIN A   1      18.943   0.762  10.802  0.00  0.00     0.041 C 
ATOM      3  C12 ZIN A   1      18.839   2.265  10.508  0.00  0.00     0.007 C 
ATOM      4  C14 ZIN A   1      19.871   3.028  11.341  0.00  0.00     0.014 C 
ATOM      5  C15 ZIN A   1      19.115   2.466   9.041  0.00  0.00    -0.015 C 
ATOM      6  C16 ZIN A   1      18.777   1.550   8.152  0.00  0.00    -0.055 C 
ATOM      7  C17 ZIN A   1      19.167   1.737   6.736  0.00  0.00     0.004 C 
ATOM      8  C18 ZIN A   1      19.135   0.710   5.904  0.00  0.00    -0.022 C 
ATOM      9  C19 ZIN A   1      18.705  -0.671   6.292  0.00  0.00     0.009 C 
ATOM     10  C21 ZIN A   1      17.266  -0.896   5.825  0.00  0.00     0.014 C 
ATOM     11  C22 ZIN A   1      18.775  -0.881   7.806  0.00  0.00     0.004 C 
ATOM     12  C36 ZIN A   1      18.057   0.280   8.496  0.00  0.00     0.052 C 
ENDROOT
BRANCH  11  13
ATOM     13  C24 ZIN A   1      18.096  -2.201   8.174  0.00  0.00     0.009 C 
BRANCH  13  14
ATOM     14  C25 ZIN A   1      18.849  -3.362   7.519  0.00  0.00     0.033 C 
BRANCH  14  15
ATOM     15  C26 ZIN A   1      17.919  -4.570   7.399  0.00  0.00     0.134 C 
ATOM     16  O35 ZIN A   1      18.709  -5.793   7.391  0.00  0.00    -0.316 OA
ATOM     17  C33 ZIN A   1      18.005  -6.944   7.437  0.00  0.00     0.261 C 
ATOM     18  C32 ZIN A   1      16.950  -7.091   8.511  0.00  0.00     0.142 C 
ATOM     19  O34 ZIN A   1      18.211  -7.829   6.642  0.00  0.00    -0.265 OA
ATOM     20  C29 ZIN A   1      16.066  -5.838   8.497  0.00  0.00     0.130 C 
ATOM     21  C28 ZIN A   1      16.961  -4.598   8.593  0.00  0.00     0.065 C 
BRANCH  20  22
ATOM     22  O31 ZIN A   1      15.314  -5.793   7.284  0.00  0.00    -0.395 OA
ATOM     23  H63 ZIN A   1      14.398  -5.507   7.399  0.00  0.00     0.210 HD
ENDBRANCH  20  22
ENDBRANCH  14  15
ENDBRANCH  13  14
ENDBRANCH  11  13
BRANCH   1  24
ATOM     24  O8  ZIN A   1      17.976  -1.389  10.235  0.00  0.00    -0.315 OA
BRANCH  24  25
ATOM     25  C6  ZIN A   1      17.624  -1.811  11.460  0.00  0.00     0.263 C 
ATOM     26  O7  ZIN A   1      16.683  -1.304  12.026  0.00  0.00    -0.265 OA
BRANCH  25  27
ATOM     27  C3  ZIN A   1      18.401  -2.915  12.129  0.00  0.00     0.081 C 
ATOM     28  C5  ZIN A   1      17.616  -4.225  12.027  0.00  0.00     0.020 C 
BRANCH  27  29
ATOM     29  C2  ZIN A   1      19.756  -3.078  11.438  0.00  0.00     0.010 C 
ATOM     30  C1  ZIN A   1      19.877  -4.497  10.879  0.00  0.00     0.006 C 
ENDBRANCH  27  29
ENDBRANCH  25  27
ENDBRANCH  24  25
ENDBRANCH   1  24
TORSDOF 8
ENDMDL
MODEL 3
REMARK VINA RESULT:      -8.7      2.197      7.260
REMARK  8 active torsions:
REMARK  status: ('A' for Active; 'I' for Inactive)
REMARK    1  A    between atoms: C2_2  and  C3_3 
REMARK    2  A    between atoms: C3_3  and  C6_5 
REMARK    3  A    between atoms: C6_5  and  O8_7 
REMARK    4  A    between atoms: O8_7  and  C9_8 
REMARK    5  A    between atoms: C22_18  and  C24_19 
REMARK    6  A    between atoms: C24_19  and  C25_20 
REMARK    7  A    between atoms: C25_20  and  C26_21 
REMARK    8  A    between atoms: C29_23  and  O31_24 
ROOT
ATOM      1  C9  ZIN A   1      19.064   2.785  14.847  0.00  0.00     0.141 C 
ATOM      2  C11 ZIN A   1      18.202   3.673  15.743  0.00  0.00     0.041 C 
ATOM      3  C12 ZIN A   1      18.711   3.541  17.185  0.00  0.00     0.007 C 
ATOM      4  C14 ZIN A   1      17.887   4.441  18.109  0.00  0.00     0.014 C 
ATOM      5  C15 ZIN A   1      18.553   2.102  17.598  0.00  0.00    -0.015 C 
ATOM      6  C16 ZIN A   1      18.670   1.124  16.719  0.00  0.00    -0.055 C 
ATOM      7  C17 ZIN A   1      18.397  -0.268  17.145  0.00  0.00     0.004 C 
ATOM      8  C18 ZIN A   1      18.188  -1.204  16.235  0.00  0.00    -0.022 C 
ATOM      9  C19 ZIN A   1      18.222  -0.961  14.757  0.00  0.00     0.009 C 
ATOM     10  C21 ZIN A   1      19.567  -1.436  14.204  0.00  0.00     0.014 C 
ATOM     11  C22 ZIN A   1      18.041   0.521  14.424  0.00  0.00     0.004 C 
ATOM     12  C36 ZIN A   1      19.015   1.338  15.276  0.00  0.00     0.052 C 
ENDROOT
BRANCH  11  13
ATOM     13  C24 ZIN A   1      18.332   0.752  12.940  0.00  0.00     0.009 C 
BRANCH  13  14
ATOM     14  C25 ZIN A   1      17.277   0.034  12.095  0.00  0.00     0.033 C 
BRANCH  14  15
ATOM     15  C26 ZIN A   1      17.881  -0.349  10.743  0.00  0.00     0.134 C 
ATOM     16  O35 ZIN A   1      17.137   0.304   9.675  0.00  0.00    -0.316 OA
ATOM     17  C33 ZIN A   1      17.654   0.168   8.435  0.00  0.00     0.261 C 
ATOM     18  C32 ZIN A   1      19.117   0.494   8.234  0.00  0.00     0.142 C 
ATOM     19  O34 ZIN A   1      16.966  -0.203   7.515  0.00  0.00    -0.265 OA
ATOM     20  C29 ZIN A   1      19.928  -0.234   9.314  0.00  0.00     0.130 C 
ATOM     21  C28 ZIN A   1      19.342   0.105  10.688  0.00  0.00     0.065 C 
BRANCH  20  22
ATOM     22  O31 ZIN A   1      19.858  -1.644   9.098  0.00  0.00    -0.395 OA
ATOM     23  H63 ZIN A   1      19.300  -1.902   8.352  0.00  0.00     0.210 HD
ENDBRANCH  20  22
ENDBRANCH  14  15
ENDBRANCH  13  14
ENDBRANCH  11  13
BRANCH   1  24
ATOM     24  O8  ZIN A   1      18.586   2.889  13.480  0.00  0.00    -0.315 OA
BRANCH  24  25
ATOM     25  C6  ZIN A   1      18.525   4.120  12.947  0.00  0.00     0.263 C 
ATOM     26  O7  ZIN A   1      19.479   4.859  13.024  0.00  0.00    -0.265 OA
BRANCH  25  27
ATOM     27  C3  ZIN A   1      17.269   4.581  12.255  0.00  0.00     0.081 C 
ATOM     28  C5  ZIN A   1      16.732   5.833  12.951  0.00  0.00     0.020 C 
BRANCH  27  29
ATOM     29  C2  ZIN A   1      17.581   4.904  10.793  0.00  0.00     0.010 C 
ATOM     30  C1  ZIN A   1      18.076   3.642  10.084  0.00  0.00     0.006 C 
ENDBRANCH  27  29
ENDBRANCH  25  27
ENDBRANCH  24  25
ENDBRANCH   1  24
TORSDOF 8
ENDMDL
MODEL 4
REMARK VINA RESULT:      -8.7      2.281      6.184
REMARK  8 active torsions:
REMARK  status: ('A' for Active; 'I' for Inactive)
REMARK    1  A    between atoms: C2_2  and  C3_3 
REMARK    2  A    between atoms: C3_3  and  C6_5 
REMARK    3  A    between atoms: C6_5  and  O8_7 
REMARK    4  A    between atoms: O8_7  and  C9_8 
REMARK    5  A    between atoms: C22_18  and  C24_19 
REMARK    6  A    between atoms: C24_19  and  C25_20 
REMARK    7  A    between atoms: C25_20  and  C26_21 
REMARK    8  A    between atoms: C29_23  and  O31_24 
ROOT
ATOM      1  C9  ZIN A   1      17.885   1.437  12.158  0.00  0.00     0.141 C 
ATOM      2  C11 ZIN A   1      18.883   2.419  12.769  0.00  0.00     0.041 C 
ATOM      3  C12 ZIN A   1      18.615   3.811  12.179  0.00  0.00     0.007 C 
ATOM      4  C14 ZIN A   1      19.580   4.828  12.791  0.00  0.00     0.014 C 
ATOM      5  C15 ZIN A   1      18.832   3.728  10.691  0.00  0.00    -0.015 C 
ATOM      6  C16 ZIN A   1      18.571   2.618  10.025  0.00  0.00    -0.055 C 
ATOM      7  C17 ZIN A   1      18.905   2.545   8.584  0.00  0.00     0.004 C 
ATOM      8  C18 ZIN A   1      18.962   1.370   7.982  0.00  0.00    -0.022 C 
ATOM      9  C19 ZIN A   1      18.690   0.064   8.663  0.00  0.00     0.009 C 
ATOM     10  C21 ZIN A   1      17.272  -0.394   8.318  0.00  0.00     0.014 C 
ATOM     11  C22 ZIN A   1      18.819   0.181  10.183  0.00  0.00     0.004 C 
ATOM     12  C36 ZIN A   1      17.999   1.384  10.653  0.00  0.00     0.052 C 
ENDROOT
BRANCH  11  13
ATOM     13  C24 ZIN A   1      18.292  -1.094  10.843  0.00  0.00     0.009 C 
BRANCH  13  14
ATOM     14  C25 ZIN A   1      19.325  -2.213  10.687  0.00  0.00     0.033 C 
BRANCH  14  15
ATOM     15  C26 ZIN A   1      18.696  -3.386   9.933  0.00  0.00     0.134 C 
ATOM     16  O35 ZIN A   1      19.571  -4.547  10.023  0.00  0.00    -0.316 OA
ATOM     17  C33 ZIN A   1      19.069  -5.697   9.524  0.00  0.00     0.261 C 
ATOM     18  C32 ZIN A   1      17.692  -6.129   9.977  0.00  0.00     0.142 C 
ATOM     19  O34 ZIN A   1      19.702  -6.359   8.737  0.00  0.00    -0.265 OA
ATOM     20  C29 ZIN A   1      16.738  -4.936   9.834  0.00  0.00     0.130 C 
ATOM     21  C28 ZIN A   1      17.341  -3.728  10.558  0.00  0.00     0.065 C 
BRANCH  20  22
ATOM     22  O31 ZIN A   1      16.561  -4.627   8.451  0.00  0.00    -0.395 OA
ATOM     23  H63 ZIN A   1      16.204  -3.743   8.288  0.00  0.00     0.210 HD
ENDBRANCH  20  22
ENDBRANCH  14  15
ENDBRANCH  13  14
ENDBRANCH  11  13
BRANCH   1  24
ATOM     24  O8  ZIN A   1      18.136   0.113  12.698  0.00  0.00    -0.315 OA
BRANCH  24  25
ATOM     25  C6  ZIN A   1      17.795  -0.098  13.980  0.00  0.00     0.263 C 
ATOM     26  O7  ZIN A   1      17.111   0.710  14.563  0.00  0.00    -0.265 OA
BRANCH  25  27
ATOM     27  C3  ZIN A   1      18.264  -1.341  14.690  0.00  0.00     0.081 C 
ATOM     28  C5  ZIN A   1      19.772  -1.506  14.487  0.00  0.00     0.020 C 
BRANCH  27  29
ATOM     29  C2  ZIN A   1      17.961  -1.220  16.185  0.00  0.00     0.010 C 
ATOM     30  C1  ZIN A   1      19.266  -1.304  16.979  0.00  0.00     0.006 C 
ENDBRANCH  27  29
ENDBRANCH  25  27
ENDBRANCH  24  25
ENDBRANCH   1  24
TORSDOF 8
ENDMDL
MODEL 5
REMARK VINA RESULT:      -8.7      2.531      6.636
REMARK  8 active torsions:
REMARK  status: ('A' for Active; 'I' for Inactive)
REMARK    1  A    between atoms: C2_2  and  C3_3 
REMARK    2  A    between atoms: C3_3  and  C6_5 
REMARK    3  A    between atoms: C6_5  and  O8_7 
REMARK    4  A    between atoms: O8_7  and  C9_8 
REMARK    5  A    between atoms: C22_18  and  C24_19 
REMARK    6  A    between atoms: C24_19  and  C25_20 
REMARK    7  A    between atoms: C25_20  and  C26_21 
REMARK    8  A    between atoms: C29_23  and  O31_24 
ROOT
ATOM      1  C9  ZIN A   1      17.422   0.360  12.352  0.00  0.00     0.141 C 
ATOM      2  C11 ZIN A   1      18.175  -0.282  13.516  0.00  0.00     0.041 C 
ATOM      3  C12 ZIN A   1      17.776   0.444  14.809  0.00  0.00     0.007 C 
ATOM      4  C14 ZIN A   1      18.491  -0.192  16.002  0.00  0.00     0.014 C 
ATOM      5  C15 ZIN A   1      18.190   1.886  14.672  0.00  0.00    -0.015 C 
ATOM      6  C16 ZIN A   1      18.186   2.487  13.497  0.00  0.00    -0.055 C 
ATOM      7  C17 ZIN A   1      18.707   3.870  13.390  0.00  0.00     0.004 C 
ATOM      8  C18 ZIN A   1      19.017   4.365  12.205  0.00  0.00    -0.022 C 
ATOM      9  C19 ZIN A   1      18.861   3.618  10.916  0.00  0.00     0.009 C 
ATOM     10  C21 ZIN A   1      17.584   4.088  10.217  0.00  0.00     0.014 C 
ATOM     11  C22 ZIN A   1      18.777   2.108  11.144  0.00  0.00     0.004 C 
ATOM     12  C36 ZIN A   1      17.732   1.833  12.227  0.00  0.00     0.052 C 
ENDROOT
BRANCH  11  13
ATOM     13  C24 ZIN A   1      18.370   1.414   9.843  0.00  0.00     0.009 C 
BRANCH  13  14
ATOM     14  C25 ZIN A   1      19.342   1.808   8.729  0.00  0.00     0.033 C 
BRANCH  14  15
ATOM     15  C26 ZIN A   1      19.309   0.749   7.625  0.00  0.00     0.134 C 
ATOM     16  O35 ZIN A   1      18.416  -0.332   8.016  0.00  0.00    -0.316 OA
ATOM     17  C33 ZIN A   1      18.180  -1.266   7.069  0.00  0.00     0.261 C 
ATOM     18  C32 ZIN A   1      17.752  -0.795   5.696  0.00  0.00     0.142 C 
ATOM     19  O34 ZIN A   1      18.308  -2.442   7.312  0.00  0.00    -0.265 OA
ATOM     20  C29 ZIN A   1      18.718   0.305   5.238  0.00  0.00     0.130 C 
ATOM     21  C28 ZIN A   1      18.799   1.379   6.327  0.00  0.00     0.065 C 
BRANCH  20  22
ATOM     22  O31 ZIN A   1      20.014  -0.255   5.019  0.00  0.00    -0.395 OA
ATOM     23  H63 ZIN A   1      20.109  -0.708   4.170  0.00  0.00     0.210 HD
ENDBRANCH  20  22
ENDBRANCH  14  15
ENDBRANCH  13  14
ENDBRANCH  11  13
BRANCH   1  24
ATOM     24  O8  ZIN A   1      17.800  -0.309  11.120  0.00  0.00    -0.315 OA
BRANCH  24  25
ATOM     25  C6  ZIN A   1      17.953  -1.642  11.172  0.00  0.00     0.263 C 
ATOM     26  O7  ZIN A   1      17.037  -2.341  11.537  0.00  0.00    -0.265 OA
BRANCH  25  27
ATOM     27  C3  ZIN A   1      19.265  -2.266  10.775  0.00  0.00     0.081 C 
ATOM     28  C5  ZIN A   1      20.381  -1.224  10.891  0.00  0.00     0.020 C 
BRANCH  27  29
ATOM     29  C2  ZIN A   1      19.571  -3.445  11.701  0.00  0.00     0.010 C 
ATOM     30  C1  ZIN A   1      19.755  -4.715  10.868  0.00  0.00     0.006 C 
ENDBRANCH  27  29
ENDBRANCH  25  27
ENDBRANCH  24  25
ENDBRANCH   1  24
TORSDOF 8
ENDMDL
MODEL 6
REMARK VINA RESULT:      -8.6      2.823      6.258
REMARK  8 active torsions:
REMARK  status: ('A' for Active; 'I' for Inactive)
REMARK    1  A    between atoms: C2_2  and  C3_3 
REMARK    2  A    between atoms: C3_3  and  C6_5 
REMARK    3  A    between atoms: C6_5  and  O8_7 
REMARK    4  A    between atoms: O8_7  and  C9_8 
REMARK    5  A    between atoms: C22_18  and  C24_19 
REMARK    6  A    between atoms: C24_19  and  C25_20 
REMARK    7  A    between atoms: C25_20  and  C26_21 
REMARK    8  A    between atoms: C29_23  and  O31_24 
ROOT
ATOM      1  C9  ZIN A   1      18.829   1.201  10.945  0.00  0.00     0.141 C 
ATOM      2  C11 ZIN A   1      17.814   2.252  10.500  0.00  0.00     0.041 C 
ATOM      3  C12 ZIN A   1      18.066   3.537  11.302  0.00  0.00     0.007 C 
ATOM      4  C14 ZIN A   1      17.082   4.623  10.861  0.00  0.00     0.014 C 
ATOM      5  C15 ZIN A   1      17.857   3.217  12.759  0.00  0.00    -0.015 C 
ATOM      6  C16 ZIN A   1      18.138   2.020  13.240  0.00  0.00    -0.055 C 
ATOM      7  C17 ZIN A   1      17.813   1.715  14.653  0.00  0.00     0.004 C 
ATOM      8  C18 ZIN A   1      17.776   0.459  15.062  0.00  0.00    -0.022 C 
ATOM      9  C19 ZIN A   1      18.064  -0.719  14.182  0.00  0.00     0.009 C 
ATOM     10  C21 ZIN A   1      19.490  -1.204  14.446  0.00  0.00     0.014 C 
ATOM     11  C22 ZIN A   1      17.925  -0.365  12.700  0.00  0.00     0.004 C 
ATOM     12  C36 ZIN A   1      18.725   0.909  12.423  0.00  0.00     0.052 C 
ENDROOT
BRANCH  11  13
ATOM     13  C24 ZIN A   1      18.467  -1.512  11.845  0.00  0.00     0.009 C 
BRANCH  13  14
ATOM     14  C25 ZIN A   1      17.541  -2.724  11.972  0.00  0.00     0.033 C 
BRANCH  14  15
ATOM     15  C26 ZIN A   1      17.473  -3.457  10.631  0.00  0.00     0.134 C 
ATOM     16  O35 ZIN A   1      18.798  -3.494  10.030  0.00  0.00    -0.316 OA
ATOM     17  C33 ZIN A   1      18.911  -4.240   8.910  0.00  0.00     0.261 C 
ATOM     18  C32 ZIN A   1      18.387  -5.658   8.942  0.00  0.00     0.142 C 
ATOM     19  O34 ZIN A   1      19.415  -3.785   7.911  0.00  0.00    -0.265 OA
ATOM     20  C29 ZIN A   1      16.965  -5.636   9.518  0.00  0.00     0.130 C 
ATOM     21  C28 ZIN A   1      16.982  -4.889  10.856  0.00  0.00     0.065 C 
BRANCH  20  22
ATOM     22  O31 ZIN A   1      16.089  -4.969   8.608  0.00  0.00    -0.395 OA
ATOM     23  H63 ZIN A   1      15.162  -5.230   8.690  0.00  0.00     0.210 HD
ENDBRANCH  20  22
ENDBRANCH  14  15
ENDBRANCH  13  14
ENDBRANCH  11  13
BRANCH   1  24
ATOM     24  O8  ZIN A   1      18.595  -0.025  10.203  0.00  0.00    -0.315 OA
BRANCH  24  25
ATOM     25  C6  ZIN A   1      19.308  -0.203   9.079  0.00  0.00     0.263 C 
ATOM     26  O7  ZIN A   1      20.512  -0.293   9.136  0.00  0.00    -0.265 OA
BRANCH  25  27
ATOM     27  C3  ZIN A   1      18.607  -0.292   7.749  0.00  0.00     0.081 C 
ATOM     28  C5  ZIN A   1      17.101  -0.444   7.975  0.00  0.00     0.020 C 
BRANCH  27  29
ATOM     29  C2  ZIN A   1      18.875   0.981   6.944  0.00  0.00     0.010 C 
ATOM     30  C1  ZIN A   1      19.262   0.609   5.512  0.00  0.00     0.006 C 
ENDBRANCH  27  29
ENDBRANCH  25  27
ENDBRANCH  24  25
ENDBRANCH   1  24
TORSDOF 8
ENDMDL
MODEL 7
REMARK VINA RESULT:      -8.5      4.154      8.331
REMARK  8 active torsions:
REMARK  status: ('A' for Active; 'I' for Inactive)
REMARK    1  A    between atoms: C2_2  and  C3_3 
REMARK    2  A    between atoms: C3_3  and  C6_5 
REMARK    3  A    between atoms: C6_5  and  O8_7 
REMARK    4  A    between atoms: O8_7  and  C9_8 
REMARK    5  A    between atoms: C22_18  and  C24_19 
REMARK    6  A    between atoms: C24_19  and  C25_20 
REMARK    7  A    between atoms: C25_20  and  C26_21 
REMARK    8  A    between atoms: C29_23  and  O31_24 
ROOT
ATOM      1  C9  ZIN A   1      17.938  -0.931   8.986  0.00  0.00     0.141 C 
ATOM      2  C11 ZIN A   1      18.844  -0.152   9.936  0.00  0.00     0.041 C 
ATOM      3  C12 ZIN A   1      18.558   1.346   9.757  0.00  0.00     0.007 C 
ATOM      4  C14 ZIN A   1      19.431   2.159  10.715  0.00  0.00     0.014 C 
ATOM      5  C15 ZIN A   1      18.885   1.709   8.332  0.00  0.00    -0.015 C 
ATOM      6  C16 ZIN A   1      18.722   0.839   7.353  0.00  0.00    -0.055 C 
ATOM      7  C17 ZIN A   1      19.162   1.199   5.985  0.00  0.00     0.004 C 
ATOM      8  C18 ZIN A   1      19.314   0.254   5.074  0.00  0.00    -0.022 C 
ATOM      9  C19 ZIN A   1      19.052  -1.200   5.321  0.00  0.00     0.009 C 
ATOM     10  C21 ZIN A   1      17.684  -1.566   4.742  0.00  0.00     0.014 C 
ATOM     11  C22 ZIN A   1      19.065  -1.531   6.814  0.00  0.00     0.004 C 
ATOM     12  C36 ZIN A   1      18.161  -0.538   7.546  0.00  0.00     0.052 C 
ENDROOT
BRANCH  11  13
ATOM     13  C24 ZIN A   1      18.549  -2.956   7.028  0.00  0.00     0.009 C 
BRANCH  13  14
ATOM     14  C25 ZIN A   1      19.677  -3.953   6.756  0.00  0.00     0.033 C 
BRANCH  14  15
ATOM     15  C26 ZIN A   1      19.084  -5.267   6.244  0.00  0.00     0.134 C 
ATOM     16  O35 ZIN A   1      18.479  -5.992   7.352  0.00  0.00    -0.316 OA
ATOM     17  C33 ZIN A   1      17.788  -7.102   7.017  0.00  0.00     0.261 C 
ATOM     18  C32 ZIN A   1      16.748  -6.991   5.924  0.00  0.00     0.142 C 
ATOM     19  O34 ZIN A   1      17.997  -8.154   7.572  0.00  0.00    -0.265 OA
ATOM     20  C29 ZIN A   1      17.382  -6.283   4.721  0.00  0.00     0.130 C 
ATOM     21  C28 ZIN A   1      18.011  -4.968   5.193  0.00  0.00     0.065 C 
BRANCH  20  22
ATOM     22  O31 ZIN A   1      18.390  -7.118   4.149  0.00  0.00    -0.395 OA
ATOM     23  H63 ZIN A   1      18.629  -7.879   4.696  0.00  0.00     0.210 HD
ENDBRANCH  20  22
ENDBRANCH  14  15
ENDBRANCH  13  14
ENDBRANCH  11  13
BRANCH   1  24
ATOM     24  O8  ZIN A   1      18.207  -2.351   9.136  0.00  0.00    -0.315 OA
BRANCH  24  25
ATOM     25  C6  ZIN A   1      18.010  -2.884  10.352  0.00  0.00     0.263 C 
ATOM     26  O7  ZIN A   1      17.159  -2.429  11.080  0.00  0.00    -0.265 OA
BRANCH  25  27
ATOM     27  C3  ZIN A   1      18.850  -4.048  10.809  0.00  0.00     0.081 C 
ATOM     28  C5  ZIN A   1      20.006  -3.537  11.671  0.00  0.00     0.020 C 
BRANCH  27  29
ATOM     29  C2  ZIN A   1      17.987  -5.008  11.632  0.00  0.00     0.010 C 
ATOM     30  C1  ZIN A   1      17.272  -5.983  10.695  0.00  0.00     0.006 C 
ENDBRANCH  27  29
ENDBRANCH  25  27
ENDBRANCH  24  25
ENDBRANCH   1  24
TORSDOF 8
ENDMDL
MODEL 8
REMARK VINA RESULT:      -8.4      1.791      4.851
REMARK  8 active torsions:
REMARK  status: ('A' for Active; 'I' for Inactive)
REMARK    1  A    between atoms: C2_2  and  C3_3 
REMARK    2  A    between atoms: C3_3  and  C6_5 
REMARK    3  A    between atoms: C6_5  and  O8_7 
REMARK    4  A    between atoms: O8_7  and  C9_8 
REMARK    5  A    between atoms: C22_18  and  C24_19 
REMARK    6  A    between atoms: C24_19  and  C25_20 
REMARK    7  A    between atoms: C25_20  and  C26_21 
REMARK    8  A    between atoms: C29_23  and  O31_24 
ROOT
ATOM      1  C9  ZIN A   1      18.990  -1.013  11.693  0.00  0.00     0.141 C 
ATOM      2  C11 ZIN A   1      18.014  -2.111  12.108  0.00  0.00     0.041 C 
ATOM      3  C12 ZIN A   1      18.248  -3.332  11.206  0.00  0.00     0.007 C 
ATOM      4  C14 ZIN A   1      17.304  -4.465  11.612  0.00  0.00     0.014 C 
ATOM      5  C15 ZIN A   1      17.967  -2.914   9.786  0.00  0.00    -0.015 C 
ATOM      6  C16 ZIN A   1      18.206  -1.681   9.379  0.00  0.00    -0.055 C 
ATOM      7  C17 ZIN A   1      17.811  -1.284   8.008  0.00  0.00     0.004 C 
ATOM      8  C18 ZIN A   1      17.736  -0.003   7.692  0.00  0.00    -0.022 C 
ATOM      9  C19 ZIN A   1      18.045   1.116   8.639  0.00  0.00     0.009 C 
ATOM     10  C21 ZIN A   1      19.450   1.645   8.346  0.00  0.00     0.014 C 
ATOM     11  C22 ZIN A   1      17.981   0.655  10.096  0.00  0.00     0.004 C 
ATOM     12  C36 ZIN A   1      18.813  -0.620  10.246  0.00  0.00     0.052 C 
ENDROOT
BRANCH  11  13
ATOM     13  C24 ZIN A   1      18.543   1.750  11.006  0.00  0.00     0.009 C 
BRANCH  13  14
ATOM     14  C25 ZIN A   1      17.636   2.981  10.943  0.00  0.00     0.033 C 
BRANCH  14  15
ATOM     15  C26 ZIN A   1      17.550   3.622  12.329  0.00  0.00     0.134 C 
ATOM     16  O35 ZIN A   1      18.858   3.580  12.967  0.00  0.00    -0.316 OA
ATOM     17  C33 ZIN A   1      18.958   4.244  14.138  0.00  0.00     0.261 C 
ATOM     18  C32 ZIN A   1      18.472   5.676  14.190  0.00  0.00     0.142 C 
ATOM     19  O34 ZIN A   1      19.421   3.708  15.117  0.00  0.00    -0.265 OA
ATOM     20  C29 ZIN A   1      17.068   5.733  13.576  0.00  0.00     0.130 C 
ATOM     21  C28 ZIN A   1      17.103   5.080  12.191  0.00  0.00     0.065 C 
BRANCH  20  22
ATOM     22  O31 ZIN A   1      16.149   5.031  14.414  0.00  0.00    -0.395 OA
ATOM     23  H63 ZIN A   1      16.529   4.731  15.252  0.00  0.00     0.210 HD
ENDBRANCH  20  22
ENDBRANCH  14  15
ENDBRANCH  13  14
ENDBRANCH  11  13
BRANCH   1  24
ATOM     24  O8  ZIN A   1      18.771   0.153  12.530  0.00  0.00    -0.315 OA
BRANCH  24  25
ATOM     25  C6  ZIN A   1      19.523   0.259  13.637  0.00  0.00     0.263 C 
ATOM     26  O7  ZIN A   1      20.724   0.362  13.544  0.00  0.00    -0.265 OA
BRANCH  25  27
ATOM     27  C3  ZIN A   1      18.871   0.250  14.995  0.00  0.00     0.081 C 
ATOM     28  C5  ZIN A   1      17.418   0.716  14.866  0.00  0.00     0.020 C 
BRANCH  27  29
ATOM     29  C2  ZIN A   1      18.902  -1.168  15.568  0.00  0.00     0.010 C 
ATOM     30  C1  ZIN A   1      17.747  -1.347  16.555  0.00  0.00     0.006 C 
ENDBRANCH  27  29
ENDBRANCH  25  27
ENDBRANCH  24  25
ENDBRANCH   1  24
TORSDOF 8
ENDMDL
MODEL 9
REMARK VINA RESULT:      -8.3      2.513      4.607
REMARK  8 active torsions:
REMARK  status: ('A' for Active; 'I' for Inactive)
REMARK    1  A    between atoms: C2_2  and  C3_3 
REMARK    2  A    between atoms: C3_3  and  C6_5 
REMARK    3  A    between atoms: C6_5  and  O8_7 
REMARK    4  A    between atoms: O8_7  and  C9_8 
REMARK    5  A    between atoms: C22_18  and  C24_19 
REMARK    6  A    between atoms: C24_19  and  C25_20 
REMARK    7  A    between atoms: C25_20  and  C26_21 
REMARK    8  A    between atoms: C29_23  and  O31_24 
ROOT
ATOM      1  C9  ZIN A   1      19.103  -2.684   7.833  0.00  0.00     0.141 C 
ATOM      2  C11 ZIN A   1      18.327  -3.277   6.659  0.00  0.00     0.041 C 
ATOM      3  C12 ZIN A   1      19.068  -2.921   5.362  0.00  0.00     0.007 C 
ATOM      4  C14 ZIN A   1      18.333  -3.524   4.163  0.00  0.00     0.014 C 
ATOM      5  C15 ZIN A   1      19.094  -1.420   5.245  0.00  0.00    -0.015 C 
ATOM      6  C16 ZIN A   1      19.147  -0.654   6.319  0.00  0.00    -0.055 C 
ATOM      7  C17 ZIN A   1      19.057   0.817   6.163  0.00  0.00     0.004 C 
ATOM      8  C18 ZIN A   1      18.781   1.572   7.212  0.00  0.00    -0.022 C 
ATOM      9  C19 ZIN A   1      18.559   1.041   8.595  0.00  0.00     0.009 C 
ATOM     10  C21 ZIN A   1      19.832   1.245   9.418  0.00  0.00     0.014 C 
ATOM     11  C22 ZIN A   1      18.210  -0.448   8.579  0.00  0.00     0.004 C 
ATOM     12  C36 ZIN A   1      19.238  -1.184   7.718  0.00  0.00     0.052 C 
ENDROOT
BRANCH  11  13
ATOM     13  C24 ZIN A   1      18.241  -0.998  10.006  0.00  0.00     0.009 C 
BRANCH  13  14
ATOM     14  C25 ZIN A   1      17.089  -0.393  10.811  0.00  0.00     0.033 C 
BRANCH  14  15
ATOM     15  C26 ZIN A   1      17.535  -0.183  12.260  0.00  0.00     0.134 C 
ATOM     16  O35 ZIN A   1      18.790  -0.884  12.488  0.00  0.00    -0.316 OA
ATOM     17  C33 ZIN A   1      19.373  -0.663  13.687  0.00  0.00     0.261 C 
ATOM     18  C32 ZIN A   1      19.563   0.770  14.133  0.00  0.00     0.142 C 
ATOM     19  O34 ZIN A   1      19.729  -1.584  14.381  0.00  0.00    -0.265 OA
ATOM     20  C29 ZIN A   1      18.233   1.513  13.957  0.00  0.00     0.130 C 
ATOM     21  C28 ZIN A   1      17.737   1.311  12.522  0.00  0.00     0.065 C 
BRANCH  20  22
ATOM     22  O31 ZIN A   1      17.268   0.995  14.874  0.00  0.00    -0.395 OA
ATOM     23  H63 ZIN A   1      17.399   0.063  15.099  0.00  0.00     0.210 HD
ENDBRANCH  20  22
ENDBRANCH  14  15
ENDBRANCH  13  14
ENDBRANCH  11  13
BRANCH   1  24
ATOM     24  O8  ZIN A   1      18.406  -3.002   9.067  0.00  0.00    -0.315 OA
BRANCH  24  25
ATOM     25  C6  ZIN A   1      18.388  -4.291   9.442  0.00  0.00     0.263 C 
ATOM     26  O7  ZIN A   1      19.419  -4.921   9.487  0.00  0.00    -0.265 OA
BRANCH  25  27
ATOM     27  C3  ZIN A   1      17.084  -4.951   9.808  0.00  0.00     0.081 C 
ATOM     28  C5  ZIN A   1      17.257  -6.472   9.780  0.00  0.00     0.020 C 
BRANCH  27  29
ATOM     29  C2  ZIN A   1      16.665  -4.512  11.212  0.00  0.00     0.010 C 
ATOM     30  C1  ZIN A   1      17.400  -5.357  12.253  0.00  0.00     0.006 C 
ENDBRANCH  27  29
ENDBRANCH  25  27
ENDBRANCH  24  25
ENDBRANCH   1  24
TORSDOF 8
ENDMDL
