MODEL 1
REMARK VINA RESULT:      -6.1      0.000      0.000
REMARK  4 active torsions:
REMARK  status: ('A' for Active; 'I' for Inactive)
REMARK    1  A    between atoms: C7_7  and  C8_8 
REMARK    2  A    between atoms: C8_8  and  C9_9 
REMARK    3  A    between atoms: C8_8  and  C15_15 
REMARK    4  A    between atoms: C8_8  and  N21_21 
ROOT
ATOM      1  C8  <0> d   1      18.571   4.676  14.527  0.00  0.00     0.121 C 
ENDROOT
BRANCH   1   2
ATOM      2  C7  <0> d   1      18.364   3.459  15.388  0.00  0.00     0.002 A 
ATOM      3  C2  <0> d   1      18.273   3.590  16.762  0.00  0.00     0.043 A 
ATOM      4 Cl1  <0> d   1      18.392   5.161  17.494  0.00  0.00    -0.084 Cl
ATOM      5  C3  <0> d   1      18.083   2.472  17.554  0.00  0.00     0.024 A 
ATOM      6  C4  <0> d   1      17.989   1.221  16.971  0.00  0.00     0.002 A 
ATOM      7  C5  <0> d   1      18.086   1.089  15.598  0.00  0.00     0.001 A 
ATOM      8  C6  <0> d   1      18.276   2.207  14.808  0.00  0.00     0.012 A 
ENDBRANCH   1   2
BRANCH   1   9
ATOM      9  C9  <0> d   1      18.497   4.283  13.074  0.00  0.00    -0.020 A 
ATOM     10  C14 <0> d   1      19.542   3.589  12.492  0.00  0.00     0.010 A 
ATOM     11  C13 <0> d   1      19.472   3.223  11.161  0.00  0.00     0.001 A 
ATOM     12  C12 <0> d   1      18.361   3.560  10.408  0.00  0.00     0.000 A 
ATOM     13  C11 <0> d   1      17.320   4.258  10.989  0.00  0.00     0.001 A 
ATOM     14  C10 <0> d   1      17.387   4.620  12.321  0.00  0.00     0.010 A 
ENDBRANCH   1   9
BRANCH   1  15
ATOM     15  C15 <0> d   1      17.499   5.692  14.826  0.00  0.00    -0.020 A 
ATOM     16  C20 <0> d   1      16.181   5.292  14.943  0.00  0.00     0.010 A 
ATOM     17  C19 <0> d   1      15.199   6.224  15.223  0.00  0.00     0.001 A 
ATOM     18  C18 <0> d   1      15.533   7.556  15.377  0.00  0.00     0.000 A 
ATOM     19  C17 <0> d   1      16.851   7.957  15.255  0.00  0.00     0.001 A 
ATOM     20  C16 <0> d   1      17.834   7.025  14.980  0.00  0.00     0.010 A 
ENDBRANCH   1  15
BRANCH   1  21
ATOM     21  N21 <0> d   1      19.887   5.257  14.808  0.00  0.00    -0.329 N 
ATOM     22  C26 <0> d   1      20.758   4.850  15.756  0.00  0.00     0.184 A 
ATOM     23  N24 <0> d   1      21.819   5.605  15.702  0.00  0.00    -0.361 N 
ATOM     24  C23 <0> d   1      21.663   6.518  14.732  0.00  0.00     0.106 A 
ATOM     25  H25 <0> d   1      22.597   5.522  16.275  0.00  0.00     0.166 HD
ATOM     26  C22 <0> d   1      20.461   6.318  14.160  0.00  0.00     0.110 A 
ENDBRANCH   1  21
TORSDOF 4
ENDMDL
MODEL 2
REMARK VINA RESULT:      -6.0      1.512      4.872
REMARK  4 active torsions:
REMARK  status: ('A' for Active; 'I' for Inactive)
REMARK    1  A    between atoms: C7_7  and  C8_8 
REMARK    2  A    between atoms: C8_8  and  C9_9 
REMARK    3  A    between atoms: C8_8  and  C15_15 
REMARK    4  A    between atoms: C8_8  and  N21_21 
ROOT
ATOM      1  C8  <0> d   1      18.187   4.339  14.340  0.00  0.00     0.121 C 
ENDROOT
BRANCH   1   2
ATOM      2  C7  <0> d   1      18.064   4.372  12.839  0.00  0.00     0.002 A 
ATOM      3  C2  <0> d   1      18.892   3.584  12.060  0.00  0.00     0.043 A 
ATOM      4 Cl1  <0> d   1      20.069   2.553  12.812  0.00  0.00    -0.084 Cl
ATOM      5  C3  <0> d   1      18.780   3.615  10.682  0.00  0.00     0.024 A 
ATOM      6  C4  <0> d   1      17.843   4.437  10.082  0.00  0.00     0.002 A 
ATOM      7  C5  <0> d   1      17.019   5.228  10.862  0.00  0.00     0.001 A 
ATOM      8  C6  <0> d   1      17.132   5.198  12.239  0.00  0.00     0.012 A 
ENDBRANCH   1   2
BRANCH   1   9
ATOM      9  C9  <0> d   1      17.051   5.118  14.954  0.00  0.00    -0.020 A 
ATOM     10  C14 <0> d   1      15.896   5.342  14.230  0.00  0.00     0.010 A 
ATOM     11  C13 <0> d   1      14.853   6.051  14.795  0.00  0.00     0.001 A 
ATOM     12  C12 <0> d   1      14.969   6.544  16.082  0.00  0.00     0.000 A 
ATOM     13  C11 <0> d   1      16.126   6.323  16.804  0.00  0.00     0.001 A 
ATOM     14  C10 <0> d   1      17.167   5.610  16.242  0.00  0.00     0.010 A 
ENDBRANCH   1   9
BRANCH   1  15
ATOM     15  C15 <0> d   1      18.132   2.911  14.817  0.00  0.00    -0.020 A 
ATOM     16  C20 <0> d   1      17.453   1.961  14.079  0.00  0.00     0.010 A 
ATOM     17  C19 <0> d   1      17.408   0.650  14.515  0.00  0.00     0.001 A 
ATOM     18  C18 <0> d   1      18.034   0.291  15.694  0.00  0.00     0.000 A 
ATOM     19  C17 <0> d   1      18.708   1.243  16.436  0.00  0.00     0.001 A 
ATOM     20  C16 <0> d   1      18.758   2.553  15.998  0.00  0.00     0.010 A 
ENDBRANCH   1  15
BRANCH   1  21
ATOM     21  N21 <0> d   1      19.462   4.941  14.740  0.00  0.00    -0.329 N 
ATOM     22  C26 <0> d   1      20.218   4.586  15.801  0.00  0.00     0.184 A 
ATOM     23  N24 <0> d   1      21.279   5.344  15.831  0.00  0.00    -0.361 N 
ATOM     24  C23 <0> d   1      21.236   6.206  14.805  0.00  0.00     0.106 A 
ATOM     25  H25 <0> d   1      21.986   5.294  16.493  0.00  0.00     0.166 HD
ATOM     26  C22 <0> d   1      20.107   5.971  14.110  0.00  0.00     0.110 A 
ENDBRANCH   1  21
TORSDOF 4
ENDMDL
MODEL 3
REMARK VINA RESULT:      -5.9      9.188     12.107
REMARK  4 active torsions:
REMARK  status: ('A' for Active; 'I' for Inactive)
REMARK    1  A    between atoms: C7_7  and  C8_8 
REMARK    2  A    between atoms: C8_8  and  C9_9 
REMARK    3  A    between atoms: C8_8  and  C15_15 
REMARK    4  A    between atoms: C8_8  and  N21_21 
ROOT
ATOM      1  C8  <0> d   1      18.584  -4.373   8.415  0.00  0.00     0.121 C 
ENDROOT
BRANCH   1   2
ATOM      2  C7  <0> d   1      18.341  -3.273   7.416  0.00  0.00     0.002 A 
ATOM      3  C2  <0> d   1      18.223  -3.574   6.071  0.00  0.00     0.043 A 
ATOM      4 Cl1  <0> d   1      18.351  -5.221   5.535  0.00  0.00    -0.084 Cl
ATOM      5  C3  <0> d   1      18.000  -2.564   5.152  0.00  0.00     0.024 A 
ATOM      6  C4  <0> d   1      17.898  -1.252   5.579  0.00  0.00     0.002 A 
ATOM      7  C5  <0> d   1      18.021  -0.952   6.923  0.00  0.00     0.001 A 
ATOM      8  C6  <0> d   1      18.245  -1.962   7.840  0.00  0.00     0.012 A 
ENDBRANCH   1   2
BRANCH   1   9
ATOM      9  C9  <0> d   1      18.512  -3.809   9.811  0.00  0.00    -0.020 A 
ATOM     10  C14 <0> d   1      19.568  -3.073  10.315  0.00  0.00     0.010 A 
ATOM     11  C13 <0> d   1      19.499  -2.552  11.593  0.00  0.00     0.001 A 
ATOM     12  C12 <0> d   1      18.377  -2.774  12.372  0.00  0.00     0.000 A 
ATOM     13  C11 <0> d   1      17.324  -3.514  11.869  0.00  0.00     0.001 A 
ATOM     14  C10 <0> d   1      17.390  -4.032  10.590  0.00  0.00     0.010 A 
ENDBRANCH   1   9
BRANCH   1  15
ATOM     15  C15 <0> d   1      17.535  -5.443   8.251  0.00  0.00    -0.020 A 
ATOM     16  C20 <0> d   1      16.197  -5.099   8.216  0.00  0.00     0.010 A 
ATOM     17  C19 <0> d   1      15.236  -6.081   8.061  0.00  0.00     0.001 A 
ATOM     18  C18 <0> d   1      15.612  -7.406   7.949  0.00  0.00     0.000 A 
ATOM     19  C17 <0> d   1      16.950  -7.750   7.990  0.00  0.00     0.001 A 
ATOM     20  C16 <0> d   1      17.913  -6.769   8.141  0.00  0.00     0.010 A 
ENDBRANCH   1  15
BRANCH   1  21
ATOM     21  N21 <0> d   1      19.912  -4.952   8.192  0.00  0.00    -0.329 N 
ATOM     22  C26 <0> d   1      20.766  -4.640   7.195  0.00  0.00     0.184 A 
ATOM     23  N24 <0> d   1      21.846  -5.359   7.327  0.00  0.00    -0.361 N 
ATOM     24  C23 <0> d   1      21.719  -6.154   8.400  0.00  0.00     0.106 A 
ATOM     25  H25 <0> d   1      22.618  -5.326   6.741  0.00  0.00     0.166 HD
ATOM     26  C22 <0> d   1      20.516  -5.915   8.955  0.00  0.00     0.110 A 
ENDBRANCH   1  21
TORSDOF 4
ENDMDL
MODEL 4
REMARK VINA RESULT:      -5.8      9.125     11.401
REMARK  4 active torsions:
REMARK  status: ('A' for Active; 'I' for Inactive)
REMARK    1  A    between atoms: C7_7  and  C8_8 
REMARK    2  A    between atoms: C8_8  and  C9_9 
REMARK    3  A    between atoms: C8_8  and  C15_15 
REMARK    4  A    between atoms: C8_8  and  N21_21 
ROOT
ATOM      1  C8  <0> d   1      18.622  -4.023   7.969  0.00  0.00     0.121 C 
ENDROOT
BRANCH   1   2
ATOM      2  C7  <0> d   1      17.461  -4.983   7.959  0.00  0.00     0.002 A 
ATOM      3  C2  <0> d   1      17.408  -5.994   7.015  0.00  0.00     0.043 A 
ATOM      4 Cl1  <0> d   1      18.681  -6.159   5.847  0.00  0.00    -0.084 Cl
ATOM      5  C3  <0> d   1      16.342  -6.875   7.006  0.00  0.00     0.024 A 
ATOM      6  C4  <0> d   1      15.327  -6.744   7.937  0.00  0.00     0.002 A 
ATOM      7  C5  <0> d   1      15.379  -5.730   8.876  0.00  0.00     0.001 A 
ATOM      8  C6  <0> d   1      16.444  -4.849   8.885  0.00  0.00     0.012 A 
ENDBRANCH   1   2
BRANCH   1   9
ATOM      9  C9  <0> d   1      18.563  -3.150   6.742  0.00  0.00    -0.020 A 
ATOM     10  C14 <0> d   1      19.369  -2.031   6.651  0.00  0.00     0.010 A 
ATOM     11  C13 <0> d   1      19.319  -1.233   5.523  0.00  0.00     0.001 A 
ATOM     12  C12 <0> d   1      18.457  -1.550   4.490  0.00  0.00     0.000 A 
ATOM     13  C11 <0> d   1      17.648  -2.667   4.583  0.00  0.00     0.001 A 
ATOM     14  C10 <0> d   1      17.701  -3.467   5.708  0.00  0.00     0.010 A 
ENDBRANCH   1   9
BRANCH   1  15
ATOM     15  C15 <0> d   1      18.549  -3.160   9.203  0.00  0.00    -0.020 A 
ATOM     16  C20 <0> d   1      17.808  -1.994   9.187  0.00  0.00     0.010 A 
ATOM     17  C19 <0> d   1      17.737  -1.205  10.321  0.00  0.00     0.001 A 
ATOM     18  C18 <0> d   1      18.414  -1.578  11.466  0.00  0.00     0.000 A 
ATOM     19  C17 <0> d   1      19.161  -2.742  11.480  0.00  0.00     0.001 A 
ATOM     20  C16 <0> d   1      19.228  -3.534  10.348  0.00  0.00     0.010 A 
ENDBRANCH   1  15
BRANCH   1  21
ATOM     21  N21 <0> d   1      19.880  -4.776   7.973  0.00  0.00    -0.329 N 
ATOM     22  C26 <0> d   1      20.915  -4.610   7.124  0.00  0.00     0.184 A 
ATOM     23  N24 <0> d   1      21.856  -5.457   7.440  0.00  0.00    -0.361 N 
ATOM     24  C23 <0> d   1      21.455  -6.192   8.487  0.00  0.00     0.106 A 
ATOM     25  H25 <0> d   1      22.709  -5.544   6.986  0.00  0.00     0.166 HD
ATOM     26  C22 <0> d   1      20.221  -5.782   8.836  0.00  0.00     0.110 A 
ENDBRANCH   1  21
TORSDOF 4
ENDMDL
MODEL 5
REMARK VINA RESULT:      -5.6      1.012      4.326
REMARK  4 active torsions:
REMARK  status: ('A' for Active; 'I' for Inactive)
REMARK    1  A    between atoms: C7_7  and  C8_8 
REMARK    2  A    between atoms: C8_8  and  C9_9 
REMARK    3  A    between atoms: C8_8  and  C15_15 
REMARK    4  A    between atoms: C8_8  and  N21_21 
ROOT
ATOM      1  C8  <0> d   1      18.521   4.064  14.456  0.00  0.00     0.121 C 
ENDROOT
BRANCH   1   2
ATOM      2  C7  <0> d   1      17.296   4.881  14.771  0.00  0.00     0.002 A 
ATOM      3  C2  <0> d   1      17.100   5.371  16.049  0.00  0.00     0.043 A 
ATOM      4 Cl1  <0> d   1      18.270   5.050  17.291  0.00  0.00    -0.084 Cl
ATOM      5  C3  <0> d   1      15.974   6.122  16.338  0.00  0.00     0.024 A 
ATOM      6  C4  <0> d   1      15.042   6.378  15.348  0.00  0.00     0.002 A 
ATOM      7  C5  <0> d   1      15.235   5.882  14.072  0.00  0.00     0.001 A 
ATOM      8  C6  <0> d   1      16.361   5.132  13.784  0.00  0.00     0.012 A 
ENDBRANCH   1   2
BRANCH   1   9
ATOM      9  C9  <0> d   1      18.457   2.754  15.199  0.00  0.00    -0.020 A 
ATOM     10  C14 <0> d   1      17.604   1.756  14.766  0.00  0.00     0.010 A 
ATOM     11  C13 <0> d   1      17.548   0.553  15.444  0.00  0.00     0.001 A 
ATOM     12  C12 <0> d   1      18.339   0.351  16.561  0.00  0.00     0.000 A 
ATOM     13  C11 <0> d   1      19.188   1.350  16.995  0.00  0.00     0.001 A 
ATOM     14  C10 <0> d   1      19.247   2.552  16.316  0.00  0.00     0.010 A 
ENDBRANCH   1   9
BRANCH   1  15
ATOM     15  C15 <0> d   1      18.582   3.799  12.974  0.00  0.00    -0.020 A 
ATOM     16  C20 <0> d   1      17.926   4.639  12.094  0.00  0.00     0.010 A 
ATOM     17  C19 <0> d   1      17.987   4.397  10.734  0.00  0.00     0.001 A 
ATOM     18  C18 <0> d   1      18.695   3.311  10.255  0.00  0.00     0.000 A 
ATOM     19  C17 <0> d   1      19.346   2.468  11.136  0.00  0.00     0.001 A 
ATOM     20  C16 <0> d   1      19.290   2.711  12.496  0.00  0.00     0.010 A 
ENDBRANCH   1  15
BRANCH   1  21
ATOM     21  N21 <0> d   1      19.720   4.800  14.871  0.00  0.00    -0.329 N 
ATOM     22  C26 <0> d   1      20.612   4.417  15.808  0.00  0.00     0.184 A 
ATOM     23  N24 <0> d   1      21.542   5.327  15.897  0.00  0.00    -0.361 N 
ATOM     24  C23 <0> d   1      21.276   6.317  15.034  0.00  0.00     0.106 A 
ATOM     25  H25 <0> d   1      22.304   5.293  16.497  0.00  0.00     0.166 HD
ATOM     26  C22 <0> d   1      20.140   6.007  14.381  0.00  0.00     0.110 A 
ENDBRANCH   1  21
TORSDOF 4
ENDMDL
MODEL 6
REMARK VINA RESULT:      -5.4      1.488      3.777
REMARK  4 active torsions:
REMARK  status: ('A' for Active; 'I' for Inactive)
REMARK    1  A    between atoms: C7_7  and  C8_8 
REMARK    2  A    between atoms: C8_8  and  C9_9 
REMARK    3  A    between atoms: C8_8  and  C15_15 
REMARK    4  A    between atoms: C8_8  and  N21_21 
ROOT
ATOM      1  C8  <0> d   1      18.483   4.710  15.212  0.00  0.00     0.121 C 
ENDROOT
BRANCH   1   2
ATOM      2  C7  <0> d   1      17.686   5.459  16.247  0.00  0.00     0.002 A 
ATOM      3  C2  <0> d   1      17.560   6.834  16.162  0.00  0.00     0.043 A 
ATOM      4 Cl1  <0> d   1      18.315   7.696  14.857  0.00  0.00    -0.084 Cl
ATOM      5  C3  <0> d   1      16.828   7.522  17.113  0.00  0.00     0.024 A 
ATOM      6  C4  <0> d   1      16.227   6.836  18.152  0.00  0.00     0.002 A 
ATOM      7  C5  <0> d   1      16.359   5.462  18.240  0.00  0.00     0.001 A 
ATOM      8  C6  <0> d   1      17.090   4.775  17.289  0.00  0.00     0.012 A 
ENDBRANCH   1   2
BRANCH   1   9
ATOM      9  C9  <0> d   1      18.536   3.249  15.578  0.00  0.00    -0.020 A 
ATOM     10  C14 <0> d   1      19.202   2.847  16.721  0.00  0.00     0.010 A 
ATOM     11  C13 <0> d   1      19.246   1.508  17.060  0.00  0.00     0.001 A 
ATOM     12  C12 <0> d   1      18.632   0.569  16.250  0.00  0.00     0.000 A 
ATOM     13  C11 <0> d   1      17.971   0.971  15.106  0.00  0.00     0.001 A 
ATOM     14  C10 <0> d   1      17.923   2.310  14.769  0.00  0.00     0.010 A 
ENDBRANCH   1   9
BRANCH   1  15
ATOM     15  C15 <0> d   1      17.827   4.866  13.864  0.00  0.00    -0.020 A 
ATOM     16  C20 <0> d   1      16.533   5.342  13.775  0.00  0.00     0.010 A 
ATOM     17  C19 <0> d   1      15.934   5.489  12.538  0.00  0.00     0.001 A 
ATOM     18  C18 <0> d   1      16.626   5.152  11.390  0.00  0.00     0.000 A 
ATOM     19  C17 <0> d   1      17.918   4.669  11.479  0.00  0.00     0.001 A 
ATOM     20  C16 <0> d   1      18.520   4.527  12.716  0.00  0.00     0.010 A 
ENDBRANCH   1  15
BRANCH   1  21
ATOM     21  N21 <0> d   1      19.845   5.249  15.158  0.00  0.00    -0.329 N 
ATOM     22  C26 <0> d   1      20.779   5.165  16.129  0.00  0.00     0.184 A 
ATOM     23  N24 <0> d   1      21.866   5.758  15.716  0.00  0.00    -0.361 N 
ATOM     24  C23 <0> d   1      21.664   6.242  14.482  0.00  0.00     0.106 A 
ATOM     25  H25 <0> d   1      22.688   5.838  16.224  0.00  0.00     0.166 HD
ATOM     26  C22 <0> d   1      20.406   5.934  14.114  0.00  0.00     0.110 A 
ENDBRANCH   1  21
TORSDOF 4
ENDMDL
MODEL 7
REMARK VINA RESULT:      -5.3     12.358     14.905
REMARK  4 active torsions:
REMARK  status: ('A' for Active; 'I' for Inactive)
REMARK    1  A    between atoms: C7_7  and  C8_8 
REMARK    2  A    between atoms: C8_8  and  C9_9 
REMARK    3  A    between atoms: C8_8  and  C15_15 
REMARK    4  A    between atoms: C8_8  and  N21_21 
ROOT
ATOM      1  C8  <0> d   1      15.645  -6.995   6.672  0.00  0.00     0.121 C 
ENDROOT
BRANCH   1   2
ATOM      2  C7  <0> d   1      16.482  -6.197   7.636  0.00  0.00     0.002 A 
ATOM      3  C2  <0> d   1      17.808  -5.930   7.344  0.00  0.00     0.043 A 
ATOM      4 Cl1  <0> d   1      18.504  -6.509   5.863  0.00  0.00    -0.084 Cl
ATOM      5  C3  <0> d   1      18.577  -5.197   8.230  0.00  0.00     0.024 A 
ATOM      6  C4  <0> d   1      18.022  -4.736   9.410  0.00  0.00     0.002 A 
ATOM      7  C5  <0> d   1      16.699  -5.009   9.704  0.00  0.00     0.001 A 
ATOM      8  C6  <0> d   1      15.930  -5.741   8.818  0.00  0.00     0.012 A 
ENDBRANCH   1   2
BRANCH   1   9
ATOM      9  C9  <0> d   1      14.275  -7.219   7.261  0.00  0.00    -0.020 A 
ATOM     10  C14 <0> d   1      13.820  -8.505   7.483  0.00  0.00     0.010 A 
ATOM     11  C13 <0> d   1      12.566  -8.709   8.028  0.00  0.00     0.001 A 
ATOM     12  C12 <0> d   1      11.764  -7.628   8.342  0.00  0.00     0.000 A 
ATOM     13  C11 <0> d   1      12.218  -6.343   8.116  0.00  0.00     0.001 A 
ATOM     14  C10 <0> d   1      13.473  -6.137   7.575  0.00  0.00     0.010 A 
ENDBRANCH   1   9
BRANCH   1  15
ATOM     15  C15 <0> d   1      15.515  -6.240   5.374  0.00  0.00    -0.020 A 
ATOM     16  C20 <0> d   1      16.260  -5.094   5.164  0.00  0.00     0.010 A 
ATOM     17  C19 <0> d   1      16.144  -4.404   3.972  0.00  0.00     0.001 A 
ATOM     18  C18 <0> d   1      15.278  -4.855   2.993  0.00  0.00     0.000 A 
ATOM     19  C17 <0> d   1      14.530  -5.997   3.206  0.00  0.00     0.001 A 
ATOM     20  C16 <0> d   1      14.648  -6.691   4.396  0.00  0.00     0.010 A 
ENDBRANCH   1  15
BRANCH   1  21
ATOM     21  N21 <0> d   1      16.285  -8.290   6.422  0.00  0.00    -0.329 N 
ATOM     22  C26 <0> d   1      16.401  -8.910   5.229  0.00  0.00     0.184 A 
ATOM     23  N24 <0> d   1      17.031 -10.038   5.403  0.00  0.00    -0.361 N 
ATOM     24  C23 <0> d   1      17.331 -10.181   6.703  0.00  0.00     0.106 A 
ATOM     25  H25 <0> d   1      17.247 -10.675   4.704  0.00  0.00     0.166 HD
ATOM     26  C22 <0> d   1      16.872  -9.098   7.358  0.00  0.00     0.110 A 
ENDBRANCH   1  21
TORSDOF 4
ENDMDL
MODEL 8
REMARK VINA RESULT:      -5.1      9.497     12.050
REMARK  4 active torsions:
REMARK  status: ('A' for Active; 'I' for Inactive)
REMARK    1  A    between atoms: C7_7  and  C8_8 
REMARK    2  A    between atoms: C8_8  and  C9_9 
REMARK    3  A    between atoms: C8_8  and  C15_15 
REMARK    4  A    between atoms: C8_8  and  N21_21 
ROOT
ATOM      1  C8  <0> d   1      18.554  -4.431   7.743  0.00  0.00     0.121 C 
ENDROOT
BRANCH   1   2
ATOM      2  C7  <0> d   1      17.770  -5.154   6.680  0.00  0.00     0.002 A 
ATOM      3  C2  <0> d   1      17.561  -6.518   6.781  0.00  0.00     0.043 A 
ATOM      4 Cl1  <0> d   1      18.197  -7.395   8.138  0.00  0.00    -0.084 Cl
ATOM      5  C3  <0> d   1      16.842  -7.182   5.804  0.00  0.00     0.024 A 
ATOM      6  C4  <0> d   1      16.335  -6.484   4.723  0.00  0.00     0.002 A 
ATOM      7  C5  <0> d   1      16.550  -5.121   4.619  0.00  0.00     0.001 A 
ATOM      8  C6  <0> d   1      17.269  -4.458   5.596  0.00  0.00     0.012 A 
ENDBRANCH   1   2
BRANCH   1   9
ATOM      9  C9  <0> d   1      18.594  -2.959   7.424  0.00  0.00    -0.020 A 
ATOM     10  C14 <0> d   1      17.979  -2.052   8.267  0.00  0.00     0.010 A 
ATOM     11  C13 <0> d   1      18.020  -0.701   7.977  0.00  0.00     0.001 A 
ATOM     12  C12 <0> d   1      18.670  -0.257   6.839  0.00  0.00     0.000 A 
ATOM     13  C11 <0> d   1      19.281  -1.165   5.995  0.00  0.00     0.001 A 
ATOM     14  C10 <0> d   1      19.244  -2.515   6.287  0.00  0.00     0.010 A 
ENDBRANCH   1   9
BRANCH   1  15
ATOM     15  C15 <0> d   1      17.893  -4.637   9.082  0.00  0.00    -0.020 A 
ATOM     16  C20 <0> d   1      16.560  -4.998   9.146  0.00  0.00     0.010 A 
ATOM     17  C19 <0> d   1      15.956  -5.192  10.375  0.00  0.00     0.001 A 
ATOM     18  C18 <0> d   1      16.681  -5.014  11.538  0.00  0.00     0.000 A 
ATOM     19  C17 <0> d   1      18.012  -4.647  11.473  0.00  0.00     0.001 A 
ATOM     20  C16 <0> d   1      18.619  -4.458  10.245  0.00  0.00     0.010 A 
ENDBRANCH   1  15
BRANCH   1  21
ATOM     21  N21 <0> d   1      19.921  -4.958   7.787  0.00  0.00    -0.329 N 
ATOM     22  C26 <0> d   1      20.870  -4.806   6.840  0.00  0.00     0.184 A 
ATOM     23  N24 <0> d   1      21.956  -5.411   7.234  0.00  0.00    -0.361 N 
ATOM     24  C23 <0> d   1      21.740  -5.972   8.432  0.00  0.00     0.106 A 
ATOM     25  H25 <0> d   1      22.788  -5.451   6.736  0.00  0.00     0.166 HD
ATOM     26  C22 <0> d   1      20.472  -5.700   8.797  0.00  0.00     0.110 A 
ENDBRANCH   1  21
TORSDOF 4
ENDMDL
MODEL 9
REMARK VINA RESULT:      -5.1     12.826     15.219
REMARK  4 active torsions:
REMARK  status: ('A' for Active; 'I' for Inactive)
REMARK    1  A    between atoms: C7_7  and  C8_8 
REMARK    2  A    between atoms: C8_8  and  C9_9 
REMARK    3  A    between atoms: C8_8  and  C15_15 
REMARK    4  A    between atoms: C8_8  and  N21_21 
ROOT
ATOM      1  C8  <0> d   1      15.583  -6.918   5.719  0.00  0.00     0.121 C 
ENDROOT
BRANCH   1   2
ATOM      2  C7  <0> d   1      16.236  -8.229   5.367  0.00  0.00     0.002 A 
ATOM      3  C2  <0> d   1      16.739  -9.041   6.367  0.00  0.00     0.043 A 
ATOM      4 Cl1  <0> d   1      16.614  -8.553   8.029  0.00  0.00    -0.084 Cl
ATOM      5  C3  <0> d   1      17.339 -10.246   6.044  0.00  0.00     0.024 A 
ATOM      6  C4  <0> d   1      17.439 -10.635   4.721  0.00  0.00     0.002 A 
ATOM      7  C5  <0> d   1      16.940  -9.819   3.721  0.00  0.00     0.001 A 
ATOM      8  C6  <0> d   1      16.341  -8.616   4.045  0.00  0.00     0.012 A 
ENDBRANCH   1   2
BRANCH   1   9
ATOM      9  C9  <0> d   1      15.190  -6.196   4.455  0.00  0.00    -0.020 A 
ATOM     10  C14 <0> d   1      13.975  -6.467   3.854  0.00  0.00     0.010 A 
ATOM     11  C13 <0> d   1      13.613  -5.802   2.698  0.00  0.00     0.001 A 
ATOM     12  C12 <0> d   1      14.470  -4.872   2.138  0.00  0.00     0.000 A 
ATOM     13  C11 <0> d   1      15.686  -4.605   2.737  0.00  0.00     0.001 A 
ATOM     14  C10 <0> d   1      16.047  -5.267   3.895  0.00  0.00     0.010 A 
ENDBRANCH   1   9
BRANCH   1  15
ATOM     15  C15 <0> d   1      14.354  -7.176   6.552  0.00  0.00    -0.020 A 
ATOM     16  C20 <0> d   1      13.727  -8.406   6.496  0.00  0.00     0.010 A 
ATOM     17  C19 <0> d   1      12.602  -8.643   7.265  0.00  0.00     0.001 A 
ATOM     18  C18 <0> d   1      12.100  -7.648   8.082  0.00  0.00     0.000 A 
ATOM     19  C17 <0> d   1      12.724  -6.416   8.133  0.00  0.00     0.001 A 
ATOM     20  C16 <0> d   1      13.852  -6.179   7.369  0.00  0.00     0.010 A 
ENDBRANCH   1  15
BRANCH   1  21
ATOM     21  N21 <0> d   1      16.525  -6.091   6.480  0.00  0.00    -0.329 N 
ATOM     22  C26 <0> d   1      16.241  -5.355   7.575  0.00  0.00     0.184 A 
ATOM     23  N24 <0> d   1      17.332  -4.760   7.973  0.00  0.00    -0.361 N 
ATOM     24  C23 <0> d   1      18.339  -5.086   7.149  0.00  0.00     0.106 A 
ATOM     25  H25 <0> d   1      17.402  -4.172   8.741  0.00  0.00     0.166 HD
ATOM     26  C22 <0> d   1      17.855  -5.918   6.208  0.00  0.00     0.110 A 
ENDBRANCH   1  21
TORSDOF 4
ENDMDL
