MODEL 1
REMARK VINA RESULT:      -9.5      0.000      0.000
REMARK  3 active torsions:
REMARK  status: ('A' for Active; 'I' for Inactive)
REMARK    1  A    between atoms: C2_2  and  O4_4 
REMARK    2  A    between atoms: O4_4  and  C5_5 
REMARK    3  A    between atoms: C5_5  and  C6_6 
ROOT
ATOM      1  C5  <0> d   1      18.345   2.813  11.202  0.00  0.00     0.138 C 
ATOM      2  C9  <0> d   1      18.842   3.185   9.783  0.00  0.00     0.048 C 
ATOM      3  C10 <0> d   1      19.116   1.843   9.050  0.00  0.00     0.009 C 
ATOM      4  C11 <0> d   1      18.219   0.853   9.800  0.00  0.00     0.002 C 
ATOM      5  C13 <0> d   1      18.613  -0.609   9.689  0.00  0.00    -0.004 C 
ATOM      6  C15 <0> d   1      18.485  -1.070   8.234  0.00  0.00     0.014 C 
ATOM      7  C16 <0> d   1      18.953  -2.524   8.125  0.00  0.00     0.012 C 
ATOM      8  C18 <0> d   1      18.719  -3.032   6.701  0.00  0.00     0.015 C 
ATOM      9  C19 <0> d   1      18.159  -3.366   9.107  0.00  0.00    -0.064 C 
ATOM     10  C20 <0> d   1      17.615  -4.496   8.654  0.00  0.00     0.054 C 
ATOM     11  C21 <0> d   1      16.851  -5.358   9.562  0.00  0.00     0.149 C 
ATOM     12  O22 <0> d   1      16.042  -6.162   9.148  0.00  0.00    -0.293 OA
ATOM     13  C23 <0> d   1      17.126  -5.193  11.043  0.00  0.00     0.084 C 
ATOM     14  C24 <0> d   1      17.052  -3.699  11.358  0.00  0.00     0.022 C 
ATOM     15  C25 <0> d   1      18.038  -2.899  10.525  0.00  0.00    -0.016 C 
ATOM     16  C26 <0> d   1      19.416  -3.016  11.180  0.00  0.00     0.020 C 
ATOM     17  C27 <0> d   1      17.651  -1.417  10.570  0.00  0.00     0.002 C 
ATOM     18  C29 <0> d   1      17.659  -0.944  12.021  0.00  0.00     0.007 C 
ATOM     19  C30 <0> d   1      17.397   0.567  12.129  0.00  0.00     0.013 C 
ATOM     20  C31 <0> d   1      18.431   1.292  11.274  0.00  0.00    -0.001 C 
ATOM     21  C32 <0> d   1      19.840   0.862  11.688  0.00  0.00     0.019 C 
ENDROOT
BRANCH   1  22
ATOM     22  O4  <0> d   1      16.972   3.248  11.385  0.00  0.00    -0.302 OA
BRANCH  22  23
ATOM     23  C2  <0> d   1      16.726   4.562  11.253  0.00  0.00     0.256 C 
ATOM     24  C1  <0> d   1      16.320   5.378  12.454  0.00  0.00     0.126 C 
ATOM     25  O3  <0> d   1      16.831   5.090  10.171  0.00  0.00    -0.266 OA
ENDBRANCH  22  23
ENDBRANCH   1  22
BRANCH   1  26
ATOM     26  C6  <0> d   1      19.233   3.436  12.249  0.00  0.00     0.158 C 
ATOM     27  C7  <0> d   1      18.900   3.279  13.710  0.00  0.00     0.094 C 
ATOM     28  O8  <0> d   1      20.210   4.062  11.915  0.00  0.00    -0.295 OA
ENDBRANCH   1  26
TORSDOF 3
ENDMDL
MODEL 2
REMARK VINA RESULT:      -8.9      1.500      7.765
REMARK  3 active torsions:
REMARK  status: ('A' for Active; 'I' for Inactive)
REMARK    1  A    between atoms: C2_2  and  O4_4 
REMARK    2  A    between atoms: O4_4  and  C5_5 
REMARK    3  A    between atoms: C5_5  and  C6_6 
ROOT
ATOM      1  C5  <0> d   1      17.834  -5.194   8.779  0.00  0.00     0.138 C 
ATOM      2  C9  <0> d   1      17.512  -5.760  10.185  0.00  0.00     0.048 C 
ATOM      3  C10 <0> d   1      17.707  -4.586  11.184  0.00  0.00     0.009 C 
ATOM      4  C11 <0> d   1      17.516  -3.348  10.301  0.00  0.00     0.002 C 
ATOM      5  C13 <0> d   1      18.132  -2.063  10.824  0.00  0.00    -0.004 C 
ATOM      6  C15 <0> d   1      17.447  -1.656  12.132  0.00  0.00     0.014 C 
ATOM      7  C16 <0> d   1      18.125  -0.399  12.684  0.00  0.00     0.012 C 
ATOM      8  C18 <0> d   1      17.376   0.083  13.927  0.00  0.00     0.015 C 
ATOM      9  C19 <0> d   1      18.096   0.679  11.616  0.00  0.00    -0.064 C 
ATOM     10  C20 <0> d   1      17.675   1.892  11.974  0.00  0.00     0.054 C 
ATOM     11  C21 <0> d   1      17.641   2.978  10.988  0.00  0.00     0.149 C 
ATOM     12  O22 <0> d   1      16.938   3.955  11.139  0.00  0.00    -0.293 OA
ATOM     13  C23 <0> d   1      18.531   2.814   9.771  0.00  0.00     0.084 C 
ATOM     14  C24 <0> d   1      18.276   1.419   9.203  0.00  0.00     0.022 C 
ATOM     15  C25 <0> d   1      18.549   0.334  10.230  0.00  0.00    -0.016 C 
ATOM     16  C26 <0> d   1      20.059   0.092  10.273  0.00  0.00     0.020 C 
ATOM     17  C27 <0> d   1      17.904  -0.975   9.765  0.00  0.00     0.002 C 
ATOM     18  C29 <0> d   1      18.481  -1.360   8.406  0.00  0.00     0.007 C 
ATOM     19  C30 <0> d   1      17.965  -2.730   7.936  0.00  0.00     0.013 C 
ATOM     20  C31 <0> d   1      18.286  -3.756   9.016  0.00  0.00    -0.001 C 
ATOM     21  C32 <0> d   1      19.781  -3.719   9.340  0.00  0.00     0.019 C 
ENDROOT
BRANCH   1  22
ATOM     22  O4  <0> d   1      16.648  -5.217   7.943  0.00  0.00    -0.302 OA
BRANCH  22  23
ATOM     23  C2  <0> d   1      15.686  -6.095   8.273  0.00  0.00     0.256 C 
ATOM     24  C1  <0> d   1      15.850  -7.555   7.937  0.00  0.00     0.126 C 
ATOM     25  O3  <0> d   1      14.689  -5.713   8.839  0.00  0.00    -0.266 OA
ENDBRANCH  22  23
ENDBRANCH   1  22
BRANCH   1  26
ATOM     26  C6  <0> d   1      18.941  -5.989   8.135  0.00  0.00     0.158 C 
ATOM     27  C7  <0> d   1      19.216  -5.841   6.661  0.00  0.00     0.094 C 
ATOM     28  O8  <0> d   1      19.606  -6.746   8.801  0.00  0.00    -0.295 OA
ENDBRANCH   1  26
TORSDOF 3
ENDMDL
MODEL 3
REMARK VINA RESULT:      -8.7      1.793      2.829
REMARK  3 active torsions:
REMARK  status: ('A' for Active; 'I' for Inactive)
REMARK    1  A    between atoms: C2_2  and  O4_4 
REMARK    2  A    between atoms: O4_4  and  C5_5 
REMARK    3  A    between atoms: C5_5  and  C6_6 
ROOT
ATOM      1  C5  <0> d   1      18.910  -0.061  12.012  0.00  0.00     0.138 C 
ATOM      2  C9  <0> d   1      19.785   0.697  10.983  0.00  0.00     0.048 C 
ATOM      3  C10 <0> d   1      19.972  -0.263   9.777  0.00  0.00     0.009 C 
ATOM      4  C11 <0> d   1      18.760  -1.194   9.887  0.00  0.00     0.002 C 
ATOM      5  C13 <0> d   1      18.895  -2.539   9.196  0.00  0.00    -0.004 C 
ATOM      6  C15 <0> d   1      19.028  -2.332   7.684  0.00  0.00     0.014 C 
ATOM      7  C16 <0> d   1      19.235  -3.691   7.009  0.00  0.00     0.012 C 
ATOM      8  C18 <0> d   1      19.252  -3.510   5.490  0.00  0.00     0.015 C 
ATOM      9  C19 <0> d   1      18.093  -4.610   7.403  0.00  0.00    -0.064 C 
ATOM     10  C20 <0> d   1      17.473  -5.278   6.431  0.00  0.00     0.054 C 
ATOM     11  C21 <0> d   1      16.374  -6.194   6.754  0.00  0.00     0.149 C 
ATOM     12  O22 <0> d   1      15.551  -6.521   5.925  0.00  0.00    -0.293 OA
ATOM     13  C23 <0> d   1      16.320  -6.709   8.179  0.00  0.00     0.084 C 
ATOM     14  C24 <0> d   1      16.449  -5.502   9.107  0.00  0.00     0.022 C 
ATOM     15  C25 <0> d   1      17.732  -4.730   8.851  0.00  0.00    -0.016 C 
ATOM     16  C26 <0> d   1      18.873  -5.458   9.565  0.00  0.00     0.020 C 
ATOM     17  C27 <0> d   1      17.622  -3.343   9.494  0.00  0.00     0.002 C 
ATOM     18  C29 <0> d   1      17.377  -3.505  10.991  0.00  0.00     0.007 C 
ATOM     19  C30 <0> d   1      17.378  -2.151  11.718  0.00  0.00     0.013 C 
ATOM     20  C31 <0> d   1      18.697  -1.449  11.417  0.00  0.00    -0.001 C 
ATOM     21  C32 <0> d   1      19.867  -2.365  11.782  0.00  0.00     0.019 C 
ENDROOT
BRANCH   1  22
ATOM     22  O4  <0> d   1      17.636   0.613  12.185  0.00  0.00    -0.302 OA
BRANCH  22  23
ATOM     23  C2  <0> d   1      17.610   1.936  11.954  0.00  0.00     0.256 C 
ATOM     24  C1  <0> d   1      18.101   2.894  13.009  0.00  0.00     0.126 C 
ATOM     25  O3  <0> d   1      17.193   2.358  10.902  0.00  0.00    -0.266 OA
ENDBRANCH  22  23
ENDBRANCH   1  22
BRANCH   1  26
ATOM     26  C6  <0> d   1      19.627  -0.164  13.334  0.00  0.00     0.158 C 
ATOM     27  C7  <0> d   1      18.930  -0.771  14.524  0.00  0.00     0.094 C 
ATOM     28  O8  <0> d   1      20.760   0.240  13.439  0.00  0.00    -0.295 OA
ENDBRANCH   1  26
TORSDOF 3
ENDMDL
MODEL 4
REMARK VINA RESULT:      -8.6      1.911      7.600
REMARK  3 active torsions:
REMARK  status: ('A' for Active; 'I' for Inactive)
REMARK    1  A    between atoms: C2_2  and  O4_4 
REMARK    2  A    between atoms: O4_4  and  C5_5 
REMARK    3  A    between atoms: C5_5  and  C6_6 
ROOT
ATOM      1  C5  <0> d   1      18.295  -2.871  11.101  0.00  0.00     0.138 C 
ATOM      2  C9  <0> d   1      18.773  -3.248  12.525  0.00  0.00     0.048 C 
ATOM      3  C10 <0> d   1      19.074  -1.910  13.254  0.00  0.00     0.009 C 
ATOM      4  C11 <0> d   1      18.208  -0.901  12.493  0.00  0.00     0.002 C 
ATOM      5  C13 <0> d   1      18.638   0.551  12.600  0.00  0.00    -0.004 C 
ATOM      6  C15 <0> d   1      18.509   1.022  14.052  0.00  0.00     0.014 C 
ATOM      7  C16 <0> d   1      19.013   2.464  14.157  0.00  0.00     0.012 C 
ATOM      8  C18 <0> d   1      18.781   2.985  15.577  0.00  0.00     0.015 C 
ATOM      9  C19 <0> d   1      18.247   3.321  13.165  0.00  0.00    -0.064 C 
ATOM     10  C20 <0> d   1      17.728   4.466  13.609  0.00  0.00     0.054 C 
ATOM     11  C21 <0> d   1      16.993   5.343  12.691  0.00  0.00     0.149 C 
ATOM     12  O22 <0> d   1      16.200   6.168  13.095  0.00  0.00    -0.293 OA
ATOM     13  C23 <0> d   1      17.274   5.163  11.213  0.00  0.00     0.084 C 
ATOM     14  C24 <0> d   1      17.166   3.670  10.905  0.00  0.00     0.022 C 
ATOM     15  C25 <0> d   1      18.126   2.850  11.749  0.00  0.00    -0.016 C 
ATOM     16  C26 <0> d   1      19.511   2.930  11.103  0.00  0.00     0.020 C 
ATOM     17  C27 <0> d   1      17.702   1.378  11.707  0.00  0.00     0.002 C 
ATOM     18  C29 <0> d   1      17.709   0.898  10.259  0.00  0.00     0.007 C 
ATOM     19  C30 <0> d   1      17.411  -0.607  10.156  0.00  0.00     0.013 C 
ATOM     20  C31 <0> d   1      18.420  -1.353  11.022  0.00  0.00    -0.001 C 
ATOM     21  C32 <0> d   1      19.842  -0.960  10.617  0.00  0.00     0.019 C 
ENDROOT
BRANCH   1  22
ATOM     22  O4  <0> d   1      16.914  -3.273  10.909  0.00  0.00    -0.302 OA
BRANCH  22  23
ATOM     23  C2  <0> d   1      16.655  -4.591  10.920  0.00  0.00     0.256 C 
ATOM     24  C1  <0> d   1      16.235  -5.287   9.650  0.00  0.00     0.126 C 
ATOM     25  O3  <0> d   1      16.760  -5.219  11.947  0.00  0.00    -0.266 OA
ENDBRANCH  22  23
ENDBRANCH   1  22
BRANCH   1  26
ATOM     26  C6  <0> d   1      19.175  -3.521  10.064  0.00  0.00     0.158 C 
ATOM     27  C7  <0> d   1      20.168  -4.579  10.473  0.00  0.00     0.094 C 
ATOM     28  O8  <0> d   1      19.084  -3.194   8.905  0.00  0.00    -0.295 OA
ENDBRANCH   1  26
TORSDOF 3
ENDMDL
MODEL 5
REMARK VINA RESULT:      -8.3      2.599      4.220
REMARK  3 active torsions:
REMARK  status: ('A' for Active; 'I' for Inactive)
REMARK    1  A    between atoms: C2_2  and  O4_4 
REMARK    2  A    between atoms: O4_4  and  C5_5 
REMARK    3  A    between atoms: C5_5  and  C6_6 
ROOT
ATOM      1  C5  <0> d   1      17.455   5.594  14.405  0.00  0.00     0.138 C 
ATOM      2  C9  <0> d   1      17.045   6.202  13.040  0.00  0.00     0.048 C 
ATOM      3  C10 <0> d   1      17.396   5.138  11.965  0.00  0.00     0.009 C 
ATOM      4  C11 <0> d   1      17.389   3.829  12.761  0.00  0.00     0.002 C 
ATOM      5  C13 <0> d   1      18.176   2.682  12.154  0.00  0.00    -0.004 C 
ATOM      6  C15 <0> d   1      17.545   2.271  10.820  0.00  0.00     0.014 C 
ATOM      7  C16 <0> d   1      18.390   1.163  10.186  0.00  0.00     0.012 C 
ATOM      8  C18 <0> d   1      17.706   0.663   8.911  0.00  0.00     0.015 C 
ATOM      9  C19 <0> d   1      18.522   0.022  11.178  0.00  0.00    -0.064 C 
ATOM     10  C20 <0> d   1      18.274  -1.212  10.738  0.00  0.00     0.054 C 
ATOM     11  C21 <0> d   1      18.402  -2.355  11.648  0.00  0.00     0.149 C 
ATOM     12  O22 <0> d   1      17.842  -3.410  11.430  0.00  0.00    -0.293 OA
ATOM     13  C23 <0> d   1      19.269  -2.150  12.874  0.00  0.00     0.084 C 
ATOM     14  C24 <0> d   1      18.824  -0.845  13.535  0.00  0.00     0.022 C 
ATOM     15  C25 <0> d   1      18.933   0.333  12.584  0.00  0.00    -0.016 C 
ATOM     16  C26 <0> d   1      20.393   0.790  12.560  0.00  0.00     0.020 C 
ATOM     17  C27 <0> d   1      18.112   1.504  13.136  0.00  0.00     0.002 C 
ATOM     18  C29 <0> d   1      18.640   1.874  14.519  0.00  0.00     0.007 C 
ATOM     19  C30 <0> d   1      17.940   3.122  15.080  0.00  0.00     0.013 C 
ATOM     20  C31 <0> d   1      18.103   4.254  14.072  0.00  0.00    -0.001 C 
ATOM     21  C32 <0> d   1      19.586   4.451  13.749  0.00  0.00     0.019 C 
ENDROOT
BRANCH   1  22
ATOM     22  O4  <0> d   1      16.284   5.393  15.239  0.00  0.00    -0.302 OA
BRANCH  22  23
ATOM     23  C2  <0> d   1      15.221   6.179  14.999  0.00  0.00     0.256 C 
ATOM     24  C1  <0> d   1      15.199   7.595  15.515  0.00  0.00     0.126 C 
ATOM     25  O3  <0> d   1      14.284   5.750  14.368  0.00  0.00    -0.266 OA
ENDBRANCH  22  23
ENDBRANCH   1  22
BRANCH   1  26
ATOM     26  C6  <0> d   1      18.443   6.493  15.103  0.00  0.00     0.158 C 
ATOM     27  C7  <0> d   1      18.809   6.237  16.542  0.00  0.00     0.094 C 
ATOM     28  O8  <0> d   1      18.940   7.419  14.509  0.00  0.00    -0.295 OA
ENDBRANCH   1  26
TORSDOF 3
ENDMDL
MODEL 6
REMARK VINA RESULT:      -8.2      2.777      8.044
REMARK  3 active torsions:
REMARK  status: ('A' for Active; 'I' for Inactive)
REMARK    1  A    between atoms: C2_2  and  O4_4 
REMARK    2  A    between atoms: O4_4  and  C5_5 
REMARK    3  A    between atoms: C5_5  and  C6_6 
ROOT
ATOM      1  C5  <0> d   1      18.879   0.247  10.940  0.00  0.00     0.138 C 
ATOM      2  C9  <0> d   1      19.643  -0.643  11.951  0.00  0.00     0.048 C 
ATOM      3  C10 <0> d   1      19.850   0.221  13.225  0.00  0.00     0.009 C 
ATOM      4  C11 <0> d   1      18.721   1.252  13.128  0.00  0.00     0.002 C 
ATOM      5  C13 <0> d   1      18.929   2.536  13.911  0.00  0.00    -0.004 C 
ATOM      6  C15 <0> d   1      18.976   2.224  15.410  0.00  0.00     0.014 C 
ATOM      7  C16 <0> d   1      19.257   3.516  16.182  0.00  0.00     0.012 C 
ATOM      8  C18 <0> d   1      19.190   3.239  17.685  0.00  0.00     0.015 C 
ATOM      9  C19 <0> d   1      18.211   4.548  15.803  0.00  0.00    -0.064 C 
ATOM     10  C20 <0> d   1      17.601   5.202  16.792  0.00  0.00     0.054 C 
ATOM     11  C21 <0> d   1      16.593   6.222  16.486  0.00  0.00     0.149 C 
ATOM     12  O22 <0> d   1      15.761   6.562  17.301  0.00  0.00    -0.293 OA
ATOM     13  C23 <0> d   1      16.646   6.829  15.098  0.00  0.00     0.084 C 
ATOM     14  C24 <0> d   1      16.722   5.676  14.097  0.00  0.00     0.022 C 
ATOM     15  C25 <0> d   1      17.927   4.788  14.353  0.00  0.00    -0.016 C 
ATOM     16  C26 <0> d   1      19.153   5.465  13.736  0.00  0.00     0.020 C 
ATOM     17  C27 <0> d   1      17.738   3.458  13.616  0.00  0.00     0.002 C 
ATOM     18  C29 <0> d   1      17.575   3.733  12.124  0.00  0.00     0.007 C 
ATOM     19  C30 <0> d   1      17.504   2.432  11.309  0.00  0.00     0.013 C 
ATOM     20  C31 <0> d   1      18.748   1.607  11.617  0.00  0.00    -0.001 C 
ATOM     21  C32 <0> d   1      20.002   2.446  11.361  0.00  0.00     0.019 C 
ENDROOT
BRANCH   1  22
ATOM     22  O4  <0> d   1      17.565  -0.309  10.671  0.00  0.00    -0.302 OA
BRANCH  22  23
ATOM     23  C2  <0> d   1      17.423  -1.637  10.819  0.00  0.00     0.256 C 
ATOM     24  C1  <0> d   1      17.787  -2.564   9.688  0.00  0.00     0.126 C 
ATOM     25  O3  <0> d   1      17.002  -2.087  11.858  0.00  0.00    -0.266 OA
ENDBRANCH  22  23
ENDBRANCH   1  22
BRANCH   1  26
ATOM     26  C6  <0> d   1      19.662   0.374   9.658  0.00  0.00     0.158 C 
ATOM     27  C7  <0> d   1      19.083   1.137   8.494  0.00  0.00     0.094 C 
ATOM     28  O8  <0> d   1      20.752  -0.135   9.564  0.00  0.00    -0.295 OA
ENDBRANCH   1  26
TORSDOF 3
ENDMDL
MODEL 7
REMARK VINA RESULT:      -8.0      1.556      2.247
REMARK  3 active torsions:
REMARK  status: ('A' for Active; 'I' for Inactive)
REMARK    1  A    between atoms: C2_2  and  O4_4 
REMARK    2  A    between atoms: O4_4  and  C5_5 
REMARK    3  A    between atoms: C5_5  and  C6_6 
ROOT
ATOM      1  C5  <0> d   1      18.256   4.216  12.929  0.00  0.00     0.138 C 
ATOM      2  C9  <0> d   1      17.974   4.923  11.581  0.00  0.00     0.048 C 
ATOM      3  C10 <0> d   1      18.129   3.840  10.478  0.00  0.00     0.009 C 
ATOM      4  C11 <0> d   1      17.875   2.535  11.240  0.00  0.00     0.002 C 
ATOM      5  C13 <0> d   1      18.441   1.278  10.604  0.00  0.00    -0.004 C 
ATOM      6  C15 <0> d   1      17.752   1.025   9.259  0.00  0.00     0.014 C 
ATOM      7  C16 <0> d   1      18.382  -0.204   8.598  0.00  0.00     0.012 C 
ATOM      8  C18 <0> d   1      17.625  -0.536   7.310  0.00  0.00     0.015 C 
ATOM      9  C19 <0> d   1      18.295  -1.374   9.560  0.00  0.00    -0.064 C 
ATOM     10  C20 <0> d   1      17.826  -2.529   9.088  0.00  0.00     0.054 C 
ATOM     11  C21 <0> d   1      17.735  -3.699   9.968  0.00  0.00     0.149 C 
ATOM     12  O22 <0> d   1      16.992  -4.626   9.723  0.00  0.00    -0.293 OA
ATOM     13  C23 <0> d   1      18.617  -3.688  11.201  0.00  0.00     0.084 C 
ATOM     14  C24 <0> d   1      18.418  -2.341  11.895  0.00  0.00     0.022 C 
ATOM     15  C25 <0> d   1      18.748  -1.180  10.974  0.00  0.00    -0.016 C 
ATOM     16  C26 <0> d   1      20.267  -1.001  10.964  0.00  0.00     0.020 C 
ATOM     17  C27 <0> d   1      18.154   0.108  11.555  0.00  0.00     0.002 C 
ATOM     18  C29 <0> d   1      18.733   0.339  12.948  0.00  0.00     0.007 C 
ATOM     19  C30 <0> d   1      18.273   1.681  13.541  0.00  0.00     0.013 C 
ATOM     20  C31 <0> d   1      18.648   2.788  12.563  0.00  0.00    -0.001 C 
ATOM     21  C32 <0> d   1      20.143   2.716  12.247  0.00  0.00     0.019 C 
ENDROOT
BRANCH   1  22
ATOM     22  O4  <0> d   1      17.063   4.214  13.757  0.00  0.00    -0.302 OA
BRANCH  22  23
ATOM     23  C2  <0> d   1      16.308   5.324  13.740  0.00  0.00     0.256 C 
ATOM     24  C1  <0> d   1      16.472   6.363  14.820  0.00  0.00     0.126 C 
ATOM     25  O3  <0> d   1      15.497   5.490  12.860  0.00  0.00    -0.266 OA
ENDBRANCH  22  23
ENDBRANCH   1  22
BRANCH   1  26
ATOM     26  C6  <0> d   1      19.390   4.899  13.652  0.00  0.00     0.158 C 
ATOM     27  C7  <0> d   1      19.619   4.632  15.117  0.00  0.00     0.094 C 
ATOM     28  O8  <0> d   1      20.113   5.661  13.056  0.00  0.00    -0.295 OA
ENDBRANCH   1  26
TORSDOF 3
ENDMDL
MODEL 8
REMARK VINA RESULT:      -7.9      1.628      7.396
REMARK  3 active torsions:
REMARK  status: ('A' for Active; 'I' for Inactive)
REMARK    1  A    between atoms: C2_2  and  O4_4 
REMARK    2  A    between atoms: O4_4  and  C5_5 
REMARK    3  A    between atoms: C5_5  and  C6_6 
ROOT
ATOM      1  C5  <0> d   1      18.508  -2.946   9.332  0.00  0.00     0.138 C 
ATOM      2  C9  <0> d   1      19.092  -3.651  10.581  0.00  0.00     0.048 C 
ATOM      3  C10 <0> d   1      19.424  -2.527  11.602  0.00  0.00     0.009 C 
ATOM      4  C11 <0> d   1      18.490  -1.390  11.176  0.00  0.00     0.002 C 
ATOM      5  C13 <0> d   1      18.903   0.004  11.616  0.00  0.00    -0.004 C 
ATOM      6  C15 <0> d   1      18.872   0.093  13.145  0.00  0.00     0.014 C 
ATOM      7  C16 <0> d   1      19.359   1.479  13.576  0.00  0.00     0.012 C 
ATOM      8  C18 <0> d   1      19.221   1.621  15.093  0.00  0.00     0.015 C 
ATOM      9  C19 <0> d   1      18.511   2.531  12.883  0.00  0.00    -0.064 C 
ATOM     10  C20 <0> d   1      18.008   3.511  13.633  0.00  0.00     0.054 C 
ATOM     11  C21 <0> d   1      17.195   4.564  13.015  0.00  0.00     0.149 C 
ATOM     12  O22 <0> d   1      16.420   5.236  13.664  0.00  0.00    -0.293 OA
ATOM     13  C23 <0> d   1      17.373   4.768  11.524  0.00  0.00     0.084 C 
ATOM     14  C24 <0> d   1      17.266   3.396  10.859  0.00  0.00     0.022 C 
ATOM     15  C25 <0> d   1      18.296   2.424  11.405  0.00  0.00    -0.016 C 
ATOM     16  C26 <0> d   1      19.630   2.708  10.711  0.00  0.00     0.020 C 
ATOM     17  C27 <0> d   1      17.893   0.995  11.023  0.00  0.00     0.002 C 
ATOM     18  C29 <0> d   1      17.804   0.892   9.503  0.00  0.00     0.007 C 
ATOM     19  C30 <0> d   1      17.523  -0.548   9.046  0.00  0.00     0.013 C 
ATOM     20  C31 <0> d   1      18.603  -1.453   9.629  0.00  0.00    -0.001 C 
ATOM     21  C32 <0> d   1      19.986  -0.924   9.243  0.00  0.00     0.019 C 
ENDROOT
BRANCH   1  22
ATOM     22  O4  <0> d   1      17.123  -3.333   9.136  0.00  0.00    -0.302 OA
BRANCH  22  23
ATOM     23  C2  <0> d   1      16.824  -4.633   9.295  0.00  0.00     0.256 C 
ATOM     24  C1  <0> d   1      16.448  -5.158  10.657  0.00  0.00     0.126 C 
ATOM     25  O3  <0> d   1      16.858  -5.380   8.347  0.00  0.00    -0.266 OA
ENDBRANCH  22  23
ENDBRANCH   1  22
BRANCH   1  26
ATOM     26  C6  <0> d   1      19.322  -3.288   8.110  0.00  0.00     0.158 C 
ATOM     27  C7  <0> d   1      19.073  -2.563   6.812  0.00  0.00     0.094 C 
ATOM     28  O8  <0> d   1      20.173  -4.142   8.171  0.00  0.00    -0.295 OA
ENDBRANCH   1  26
TORSDOF 3
ENDMDL
MODEL 9
REMARK VINA RESULT:      -7.4      1.816      7.519
REMARK  3 active torsions:
REMARK  status: ('A' for Active; 'I' for Inactive)
REMARK    1  A    between atoms: C2_2  and  O4_4 
REMARK    2  A    between atoms: O4_4  and  C5_5 
REMARK    3  A    between atoms: C5_5  and  C6_6 
ROOT
ATOM      1  C5  <0> d   1      18.748  -4.531   9.517  0.00  0.00     0.138 C 
ATOM      2  C9  <0> d   1      18.526  -4.189   8.023  0.00  0.00     0.048 C 
ATOM      3  C10 <0> d   1      18.238  -2.664   7.963  0.00  0.00     0.009 C 
ATOM      4  C11 <0> d   1      18.895  -2.138   9.243  0.00  0.00     0.002 C 
ATOM      5  C13 <0> d   1      18.375  -0.806   9.753  0.00  0.00    -0.004 C 
ATOM      6  C15 <0> d   1      18.688   0.294   8.734  0.00  0.00     0.014 C 
ATOM      7  C16 <0> d   1      18.096   1.617   9.229  0.00  0.00     0.012 C 
ATOM      8  C18 <0> d   1      18.502   2.746   8.279  0.00  0.00     0.015 C 
ATOM      9  C19 <0> d   1      18.631   1.901  10.621  0.00  0.00    -0.064 C 
ATOM     10  C20 <0> d   1      19.121   3.118  10.859  0.00  0.00     0.054 C 
ATOM     11  C21 <0> d   1      19.637   3.454  12.190  0.00  0.00     0.149 C 
ATOM     12  O22 <0> d   1      20.415   4.369  12.361  0.00  0.00    -0.293 OA
ATOM     13  C23 <0> d   1      19.146   2.598  13.341  0.00  0.00     0.084 C 
ATOM     14  C24 <0> d   1      19.322   1.136  12.931  0.00  0.00     0.022 C 
ATOM     15  C25 <0> d   1      18.570   0.816  11.651  0.00  0.00    -0.016 C 
ATOM     16  C26 <0> d   1      17.100   0.587  12.010  0.00  0.00     0.020 C 
ATOM     17  C27 <0> d   1      19.096  -0.503  11.074  0.00  0.00     0.002 C 
ATOM     18  C29 <0> d   1      18.903  -1.610  12.106  0.00  0.00     0.007 C 
ATOM     19  C30 <0> d   1      19.299  -2.986  11.545  0.00  0.00     0.013 C 
ATOM     20  C31 <0> d   1      18.496  -3.230  10.272  0.00  0.00    -0.001 C 
ATOM     21  C32 <0> d   1      17.002  -3.070  10.562  0.00  0.00     0.019 C 
ENDROOT
BRANCH   1  22
ATOM     22  O4  <0> d   1      20.111  -4.982   9.734  0.00  0.00    -0.302 OA
BRANCH  22  23
ATOM     23  C2  <0> d   1      20.610  -5.862   8.851  0.00  0.00     0.256 C 
ATOM     24  C1  <0> d   1      21.502  -5.385   7.733  0.00  0.00     0.126 C 
ATOM     25  O3  <0> d   1      20.344  -7.036   8.953  0.00  0.00    -0.266 OA
ENDBRANCH  22  23
ENDBRANCH   1  22
BRANCH   1  26
ATOM     26  C6  <0> d   1      17.773  -5.591   9.963  0.00  0.00     0.158 C 
ATOM     27  C7  <0> d   1      16.799  -6.181   8.976  0.00  0.00     0.094 C 
ATOM     28  O8  <0> d   1      17.772  -5.966  11.110  0.00  0.00    -0.295 OA
ENDBRANCH   1  26
TORSDOF 3
ENDMDL
