MODEL 1
REMARK VINA RESULT:      -8.6      0.000      0.000
REMARK  6 active torsions:
REMARK  status: ('A' for Active; 'I' for Inactive)
REMARK    1  A    between atoms: O2_2  and  N3_3 
REMARK    2  A    between atoms: N6_6  and  C7_7 
REMARK    3  A    between atoms: C16_16  and  C17_17 
REMARK    4  A    between atoms: N21_21  and  C22_22 
REMARK    5  A    between atoms: C26_26  and  C28_27 
REMARK    6  A    between atoms: C28_27  and  N29_28 
ROOT
ATOM      1  C7  <0> d   1      19.019   1.611  11.160  0.00  0.00     0.167 A 
ATOM      2  N8  <0> d   1      19.056   0.343  10.792  0.00  0.00    -0.209 NA
ATOM      3  C9  <0> d   1      19.031  -0.012   9.513  0.00  0.00     0.146 A 
ATOM      4  C10 <0> d   1      18.966   0.979   8.519  0.00  0.00     0.064 A 
ATOM      5  C11 <0> d   1      18.926   2.330   8.883  0.00  0.00     0.065 A 
ATOM      6  C12 <0> d   1      18.948   2.642  10.217  0.00  0.00     0.163 A 
ATOM      7  F13 <0> d   1      18.911   3.932  10.617  0.00  0.00    -0.202 F 
ATOM      8  C14 <0> d   1      18.939   0.569   7.107  0.00  0.00     0.204 A 
ATOM      9  O15 <0> d   1      18.882   1.389   6.207  0.00  0.00    -0.286 OA
ATOM     10  C16 <0> d   1      18.985  -0.877   6.826  0.00  0.00     0.107 A 
ATOM     11  C20 <0> d   1      19.050  -1.759   7.889  0.00  0.00     0.115 A 
ATOM     12  N21 <0> d   1      19.071  -1.341   9.161  0.00  0.00    -0.335 N 
ENDROOT
BRANCH   1  13
ATOM     13  N6  <0> d   1      19.047   1.928  12.509  0.00  0.00    -0.357 N 
ATOM     14  C5  <0> d   1      19.490   1.060  13.612  0.00  0.00     0.182 C 
ATOM     15  C4  <0> d   1      18.679   1.458  14.828  0.00  0.00     0.064 C 
ATOM     16  N3  <0> d   1      18.495   0.768  15.889  0.00  0.00    -0.141 NA
ATOM     17  C26 <0> d   1      18.123   2.837  14.530  0.00  0.00     0.081 C 
ATOM     18  C25 <0> d   1      18.641   3.202  13.128  0.00  0.00     0.137 C 
BRANCH  16  19
ATOM     19  O2  <0> d   1      19.088  -0.511  16.014  0.00  0.00    -0.262 OA
ATOM     20  C1  <0> d   1      18.161  -1.554  16.319  0.00  0.00     0.240 C 
ENDBRANCH  16  19
BRANCH  17  21
ATOM     21  C28 <0> d   1      18.638   3.842  15.562  0.00  0.00     0.241 C 
BRANCH  21  22
ATOM     22  N29 <0> d   1      19.967   3.426  16.031  0.00  0.00    -0.079 N 
ATOM     23  H30 <0> d   1      20.650   4.116  15.758  0.00  0.00     0.274 HD
ATOM     24  H31 <0> d   1      19.957   3.342  17.037  0.00  0.00     0.274 HD
ATOM     25  H32 <0> d   1      20.205   2.536  15.621  0.00  0.00     0.274 HD
ENDBRANCH  21  22
ENDBRANCH  17  21
ENDBRANCH   1  13
BRANCH  12  26
ATOM     26  C22 <0> d   1      19.141  -2.346  10.225  0.00  0.00     0.091 A 
ATOM     27  C24 <0> d   1      18.981  -3.814   9.822  0.00  0.00     0.028 A 
ATOM     28  C23 <0> d   1      17.854  -3.098  10.572  0.00  0.00     0.028 A 
ENDBRANCH  12  26
BRANCH  10  29
ATOM     29  C17 <0> d   1      18.963  -1.372   5.446  0.00  0.00     0.214 C 
ATOM     30  O18 <0> d   1      19.956  -1.258   4.738  0.00  0.00    -0.644 OA
ATOM     31  O19 <0> d   1      17.952  -1.899   5.000  0.00  0.00    -0.644 OA
ENDBRANCH  10  29
TORSDOF 6
ENDMDL
MODEL 2
REMARK VINA RESULT:      -8.5      1.426      2.337
REMARK  6 active torsions:
REMARK  status: ('A' for Active; 'I' for Inactive)
REMARK    1  A    between atoms: O2_2  and  N3_3 
REMARK    2  A    between atoms: N6_6  and  C7_7 
REMARK    3  A    between atoms: C16_16  and  C17_17 
REMARK    4  A    between atoms: N21_21  and  C22_22 
REMARK    5  A    between atoms: C26_26  and  C28_27 
REMARK    6  A    between atoms: C28_27  and  N29_28 
ROOT
ATOM      1  C7  <0> d   1      18.623   1.075  10.953  0.00  0.00     0.167 A 
ATOM      2  N8  <0> d   1      18.436  -0.121  10.424  0.00  0.00    -0.209 NA
ATOM      3  C9  <0> d   1      18.541  -0.328   9.116  0.00  0.00     0.146 A 
ATOM      4  C10 <0> d   1      18.860   0.745   8.267  0.00  0.00     0.064 A 
ATOM      5  C11 <0> d   1      19.063   2.022   8.803  0.00  0.00     0.065 A 
ATOM      6  C12 <0> d   1      18.937   2.183  10.158  0.00  0.00     0.163 A 
ATOM      7  F13 <0> d   1      19.124   3.397  10.721  0.00  0.00    -0.202 F 
ATOM      8  C14 <0> d   1      18.972   0.498   6.821  0.00  0.00     0.204 A 
ATOM      9  O15 <0> d   1      19.246   1.395   6.042  0.00  0.00    -0.286 OA
ATOM     10  C16 <0> d   1      18.740  -0.880   6.355  0.00  0.00     0.107 A 
ATOM     11  C20 <0> d   1      18.433  -1.854   7.287  0.00  0.00     0.115 A 
ATOM     12  N21 <0> d   1      18.341  -1.586   8.595  0.00  0.00    -0.335 N 
ENDROOT
BRANCH   1  13
ATOM     13  N6  <0> d   1      18.502   1.238  12.323  0.00  0.00    -0.357 N 
ATOM     14  C5  <0> d   1      17.776   2.309  13.027  0.00  0.00     0.182 C 
ATOM     15  C4  <0> d   1      18.504   2.537  14.335  0.00  0.00     0.064 C 
ATOM     16  N3  <0> d   1      18.429   3.568  15.088  0.00  0.00    -0.141 NA
ATOM     17  C26 <0> d   1      19.347   1.298  14.570  0.00  0.00     0.081 C 
ATOM     18  C25 <0> d   1      19.073   0.374  13.372  0.00  0.00     0.137 C 
BRANCH  16  19
ATOM     19  O2  <0> d   1      17.590   4.649  14.725  0.00  0.00    -0.262 OA
ATOM     20  C1  <0> d   1      18.295   5.821  14.313  0.00  0.00     0.240 C 
ENDBRANCH  16  19
BRANCH  17  21
ATOM     21  C28 <0> d   1      18.920   0.616  15.872  0.00  0.00     0.241 C 
BRANCH  21  22
ATOM     22  N29 <0> d   1      17.459   0.675  16.001  0.00  0.00    -0.079 N 
ATOM     23  H30 <0> d   1      17.033   0.211  15.213  0.00  0.00     0.274 HD
ATOM     24  H31 <0> d   1      17.177   0.214  16.854  0.00  0.00     0.274 HD
ATOM     25  H32 <0> d   1      17.161   1.638  16.025  0.00  0.00     0.274 HD
ENDBRANCH  21  22
ENDBRANCH  17  21
ENDBRANCH   1  13
BRANCH  12  26
ATOM     26  C22 <0> d   1      18.012  -2.680   9.512  0.00  0.00     0.091 A 
ATOM     27  C24 <0> d   1      18.936  -3.900   9.516  0.00  0.00     0.028 A 
ATOM     28  C23 <0> d   1      17.539  -3.999   8.896  0.00  0.00     0.028 A 
ENDBRANCH  12  26
BRANCH  10  29
ATOM     29  C17 <0> d   1      18.833  -1.213   4.930  0.00  0.00     0.214 C 
ATOM     30  O18 <0> d   1      19.926  -1.411   4.417  0.00  0.00    -0.644 OA
ATOM     31  O19 <0> d   1      17.816  -1.293   4.252  0.00  0.00    -0.644 OA
ENDBRANCH  10  29
TORSDOF 6
ENDMDL
MODEL 3
REMARK VINA RESULT:      -8.4      2.792      8.515
REMARK  6 active torsions:
REMARK  status: ('A' for Active; 'I' for Inactive)
REMARK    1  A    between atoms: O2_2  and  N3_3 
REMARK    2  A    between atoms: N6_6  and  C7_7 
REMARK    3  A    between atoms: C16_16  and  C17_17 
REMARK    4  A    between atoms: N21_21  and  C22_22 
REMARK    5  A    between atoms: C26_26  and  C28_27 
REMARK    6  A    between atoms: C28_27  and  N29_28 
ROOT
ATOM      1  C7  <0> d   1      19.099  -2.691   9.701  0.00  0.00     0.167 A 
ATOM      2  N8  <0> d   1      18.713  -1.443   9.903  0.00  0.00    -0.209 NA
ATOM      3  C9  <0> d   1      18.687  -0.910  11.119  0.00  0.00     0.146 A 
ATOM      4  C10 <0> d   1      19.078  -1.685  12.225  0.00  0.00     0.064 A 
ATOM      5  C11 <0> d   1      19.491  -3.009  12.037  0.00  0.00     0.065 A 
ATOM      6  C12 <0> d   1      19.494  -3.512  10.763  0.00  0.00     0.163 A 
ATOM      7  F13 <0> d   1      19.885  -4.785  10.532  0.00  0.00    -0.202 F 
ATOM      8  C14 <0> d   1      19.044  -1.079  13.565  0.00  0.00     0.204 A 
ATOM      9  O15 <0> d   1      19.373  -1.708  14.556  0.00  0.00    -0.286 OA
ATOM     10  C16 <0> d   1      18.594   0.321  13.658  0.00  0.00     0.107 A 
ATOM     11  C20 <0> d   1      18.234   0.982  12.499  0.00  0.00     0.115 A 
ATOM     12  N21 <0> d   1      18.281   0.392  11.298  0.00  0.00    -0.335 N 
ENDROOT
BRANCH   1  13
ATOM     13  N6  <0> d   1      19.108  -3.198   8.412  0.00  0.00    -0.357 N 
ATOM     14  C5  <0> d   1      19.799  -2.630   7.243  0.00  0.00     0.182 C 
ATOM     15  C4  <0> d   1      18.970  -2.997   6.030  0.00  0.00     0.064 C 
ATOM     16  N3  <0> d   1      19.008  -2.446   4.876  0.00  0.00    -0.141 NA
ATOM     17  C26 <0> d   1      18.078  -4.146   6.461  0.00  0.00     0.081 C 
ATOM     18  C25 <0> d   1      18.428  -4.415   7.934  0.00  0.00     0.137 C 
BRANCH  16  19
ATOM     19  O2  <0> d   1      19.903  -1.376   4.633  0.00  0.00    -0.262 OA
ATOM     20  C1  <0> d   1      19.293  -0.085   4.682  0.00  0.00     0.240 C 
ENDBRANCH  16  19
BRANCH  17  21
ATOM     21  C28 <0> d   1      18.376  -5.384   5.613  0.00  0.00     0.241 C 
BRANCH  21  22
ATOM     22  N29 <0> d   1      18.056  -5.104   4.207  0.00  0.00    -0.079 N 
ATOM     23  H30 <0> d   1      17.799  -5.963   3.744  0.00  0.00     0.274 HD
ATOM     24  H31 <0> d   1      17.285  -4.453   4.160  0.00  0.00     0.274 HD
ATOM     25  H32 <0> d   1      18.862  -4.704   3.751  0.00  0.00     0.274 HD
ENDBRANCH  21  22
ENDBRANCH  17  21
ENDBRANCH   1  13
BRANCH  12  26
ATOM     26  C22 <0> d   1      17.882   1.169  10.121  0.00  0.00     0.091 A 
ATOM     27  C24 <0> d   1      18.940   2.067   9.475  0.00  0.00     0.028 A 
ATOM     28  C23 <0> d   1      17.792   2.689  10.276  0.00  0.00     0.028 A 
ENDBRANCH  12  26
BRANCH  10  29
ATOM     29  C17 <0> d   1      18.530   1.001  14.956  0.00  0.00     0.214 C 
ATOM     30  O18 <0> d   1      19.384   1.824  15.259  0.00  0.00    -0.644 OA
ATOM     31  O19 <0> d   1      17.622   0.746  15.737  0.00  0.00    -0.644 OA
ENDBRANCH  10  29
TORSDOF 6
ENDMDL
MODEL 4
REMARK VINA RESULT:      -8.2      2.451      8.374
REMARK  6 active torsions:
REMARK  status: ('A' for Active; 'I' for Inactive)
REMARK    1  A    between atoms: O2_2  and  N3_3 
REMARK    2  A    between atoms: N6_6  and  C7_7 
REMARK    3  A    between atoms: C16_16  and  C17_17 
REMARK    4  A    between atoms: N21_21  and  C22_22 
REMARK    5  A    between atoms: C26_26  and  C28_27 
REMARK    6  A    between atoms: C28_27  and  N29_28 
ROOT
ATOM      1  C7  <0> d   1      18.586  -0.717  11.825  0.00  0.00     0.167 A 
ATOM      2  N8  <0> d   1      18.403   0.424  12.465  0.00  0.00    -0.209 NA
ATOM      3  C9  <0> d   1      18.517   0.508  13.786  0.00  0.00     0.146 A 
ATOM      4  C10 <0> d   1      18.842  -0.640  14.528  0.00  0.00     0.064 A 
ATOM      5  C11 <0> d   1      19.042  -1.861  13.873  0.00  0.00     0.065 A 
ATOM      6  C12 <0> d   1      18.906  -1.894  12.511  0.00  0.00     0.163 A 
ATOM      7  F13 <0> d   1      19.089  -3.049  11.834  0.00  0.00    -0.202 F 
ATOM      8  C14 <0> d   1      18.965  -0.530  15.990  0.00  0.00     0.204 A 
ATOM      9  O15 <0> d   1      19.245  -1.495  16.679  0.00  0.00    -0.286 OA
ATOM     10  C16 <0> d   1      18.737   0.799  16.585  0.00  0.00     0.107 A 
ATOM     11  C20 <0> d   1      18.423   1.855  15.751  0.00  0.00     0.115 A 
ATOM     12  N21 <0> d   1      18.321   1.711  14.424  0.00  0.00    -0.335 N 
ENDROOT
BRANCH   1  13
ATOM     13  N6  <0> d   1      18.455  -0.750  10.446  0.00  0.00    -0.357 N 
ATOM     14  C5  <0> d   1      18.268  -1.943   9.604  0.00  0.00     0.182 C 
ATOM     15  C4  <0> d   1      18.919  -1.637   8.271  0.00  0.00     0.064 C 
ATOM     16  N3  <0> d   1      19.282  -2.481   7.381  0.00  0.00    -0.141 NA
ATOM     17  C26 <0> d   1      19.061  -0.128   8.207  0.00  0.00     0.081 C 
ATOM     18  C25 <0> d   1      18.474   0.401   9.527  0.00  0.00     0.137 C 
BRANCH  16  19
ATOM     19  O2  <0> d   1      19.079  -3.866   7.593  0.00  0.00    -0.262 OA
ATOM     20  C1  <0> d   1      20.067  -4.699   6.985  0.00  0.00     0.240 C 
ENDBRANCH  16  19
BRANCH  17  21
ATOM     21  C28 <0> d   1      18.269   0.420   7.019  0.00  0.00     0.241 C 
BRANCH  21  22
ATOM     22  N29 <0> d   1      17.025  -0.345   6.862  0.00  0.00    -0.079 N 
ATOM     23  H30 <0> d   1      17.014  -1.106   7.524  0.00  0.00     0.274 HD
ATOM     24  H31 <0> d   1      16.234   0.259   7.031  0.00  0.00     0.274 HD
ATOM     25  H32 <0> d   1      16.972  -0.713   5.924  0.00  0.00     0.274 HD
ENDBRANCH  21  22
ENDBRANCH  17  21
ENDBRANCH   1  13
BRANCH  12  26
ATOM     26  C22 <0> d   1      17.985   2.886  13.617  0.00  0.00     0.091 A 
ATOM     27  C24 <0> d   1      19.022   4.009  13.537  0.00  0.00     0.028 A 
ATOM     28  C23 <0> d   1      17.743   4.204  14.355  0.00  0.00     0.028 A 
ENDBRANCH  12  26
BRANCH  10  29
ATOM     29  C17 <0> d   1      18.840   0.996  18.035  0.00  0.00     0.214 C 
ATOM     30  O18 <0> d   1      17.861   0.819  18.748  0.00  0.00    -0.644 OA
ATOM     31  O19 <0> d   1      19.904   1.339  18.532  0.00  0.00    -0.644 OA
ENDBRANCH  10  29
TORSDOF 6
ENDMDL
MODEL 5
REMARK VINA RESULT:      -8.2      2.329      7.469
REMARK  6 active torsions:
REMARK  status: ('A' for Active; 'I' for Inactive)
REMARK    1  A    between atoms: O2_2  and  N3_3 
REMARK    2  A    between atoms: N6_6  and  C7_7 
REMARK    3  A    between atoms: C16_16  and  C17_17 
REMARK    4  A    between atoms: N21_21  and  C22_22 
REMARK    5  A    between atoms: C26_26  and  C28_27 
REMARK    6  A    between atoms: C28_27  and  N29_28 
ROOT
ATOM      1  C7  <0> d   1      18.379   1.484  10.458  0.00  0.00     0.167 A 
ATOM      2  N8  <0> d   1      18.368   0.905  11.646  0.00  0.00    -0.209 NA
ATOM      3  C9  <0> d   1      18.534   1.604  12.763  0.00  0.00     0.146 A 
ATOM      4  C10 <0> d   1      18.725   2.994  12.689  0.00  0.00     0.064 A 
ATOM      5  C11 <0> d   1      18.740   3.631  11.443  0.00  0.00     0.065 A 
ATOM      6  C12 <0> d   1      18.570   2.863  10.322  0.00  0.00     0.163 A 
ATOM      7  F13 <0> d   1      18.577   3.433   9.096  0.00  0.00    -0.202 F 
ATOM      8  C14 <0> d   1      18.907   3.753  13.936  0.00  0.00     0.204 A 
ATOM      9  O15 <0> d   1      19.076   4.960  13.927  0.00  0.00    -0.286 OA
ATOM     10  C16 <0> d   1      18.875   2.992  15.197  0.00  0.00     0.107 A 
ATOM     11  C20 <0> d   1      18.679   1.625  15.143  0.00  0.00     0.115 A 
ATOM     12  N21 <0> d   1      18.517   0.973  13.985  0.00  0.00    -0.335 N 
ENDROOT
BRANCH   1  13
ATOM     13  N6  <0> d   1      18.201   0.709   9.324  0.00  0.00    -0.357 N 
ATOM     14  C5  <0> d   1      17.581  -0.625   9.252  0.00  0.00     0.182 C 
ATOM     15  C4  <0> d   1      18.256  -1.354   8.109  0.00  0.00     0.064 C 
ATOM     16  N3  <0> d   1      18.271  -2.617   7.904  0.00  0.00    -0.141 NA
ATOM     17  C26 <0> d   1      18.916  -0.286   7.258  0.00  0.00     0.081 C 
ATOM     18  C25 <0> d   1      18.595   1.052   7.946  0.00  0.00     0.137 C 
BRANCH  16  19
ATOM     19  O2  <0> d   1      17.601  -3.487   8.798  0.00  0.00    -0.262 OA
ATOM     20  C1  <0> d   1      18.475  -4.280   9.603  0.00  0.00     0.240 C 
ENDBRANCH  16  19
BRANCH  17  21
ATOM     21  C28 <0> d   1      18.330  -0.308   5.845  0.00  0.00     0.241 C 
BRANCH  21  22
ATOM     22  N29 <0> d   1      16.900  -0.633   5.911  0.00  0.00    -0.079 N 
ATOM     23  H30 <0> d   1      16.550  -0.800   4.980  0.00  0.00     0.274 HD
ATOM     24  H31 <0> d   1      16.768  -1.462   6.474  0.00  0.00     0.274 HD
ATOM     25  H32 <0> d   1      16.398   0.137   6.327  0.00  0.00     0.274 HD
ENDBRANCH  21  22
ENDBRANCH  17  21
ENDBRANCH   1  13
BRANCH  12  26
ATOM     26  C22 <0> d   1      18.314  -0.478  14.022  0.00  0.00     0.091 A 
ATOM     27  C24 <0> d   1      18.378  -1.166  15.388  0.00  0.00     0.028 A 
ATOM     28  C23 <0> d   1      19.518  -1.351  14.382  0.00  0.00     0.028 A 
ENDBRANCH  12  26
BRANCH  10  29
ATOM     29  C17 <0> d   1      19.048   3.671  16.485  0.00  0.00     0.214 C 
ATOM     30  O18 <0> d   1      18.124   4.313  16.968  0.00  0.00    -0.644 OA
ATOM     31  O19 <0> d   1      20.116   3.597  17.078  0.00  0.00    -0.644 OA
ENDBRANCH  10  29
TORSDOF 6
ENDMDL
MODEL 6
REMARK VINA RESULT:      -8.1      3.443      8.350
REMARK  6 active torsions:
REMARK  status: ('A' for Active; 'I' for Inactive)
REMARK    1  A    between atoms: O2_2  and  N3_3 
REMARK    2  A    between atoms: N6_6  and  C7_7 
REMARK    3  A    between atoms: C16_16  and  C17_17 
REMARK    4  A    between atoms: N21_21  and  C22_22 
REMARK    5  A    between atoms: C26_26  and  C28_27 
REMARK    6  A    between atoms: C28_27  and  N29_28 
ROOT
ATOM      1  C7  <0> d   1      18.923  -2.511  10.089  0.00  0.00     0.167 A 
ATOM      2  N8  <0> d   1      18.523  -1.270  10.309  0.00  0.00    -0.209 NA
ATOM      3  C9  <0> d   1      18.588  -0.722  11.517  0.00  0.00     0.146 A 
ATOM      4  C10 <0> d   1      19.096  -1.471  12.592  0.00  0.00     0.064 A 
ATOM      5  C11 <0> d   1      19.527  -2.787  12.384  0.00  0.00     0.065 A 
ATOM      6  C12 <0> d   1      19.432  -3.306  11.121  0.00  0.00     0.163 A 
ATOM      7  F13 <0> d   1      19.835  -4.572  10.871  0.00  0.00    -0.202 F 
ATOM      8  C14 <0> d   1      19.162  -0.848  13.923  0.00  0.00     0.204 A 
ATOM      9  O15 <0> d   1      19.593  -1.455  14.889  0.00  0.00    -0.286 OA
ATOM     10  C16 <0> d   1      18.684   0.541  14.039  0.00  0.00     0.107 A 
ATOM     11  C20 <0> d   1      18.206   1.176  12.909  0.00  0.00     0.115 A 
ATOM     12  N21 <0> d   1      18.164   0.571  11.715  0.00  0.00    -0.335 N 
ENDROOT
BRANCH   1  13
ATOM     13  N6  <0> d   1      18.833  -3.035   8.810  0.00  0.00    -0.357 N 
ATOM     14  C5  <0> d   1      18.343  -4.372   8.434  0.00  0.00     0.182 C 
ATOM     15  C4  <0> d   1      19.097  -4.774   7.184  0.00  0.00     0.064 C 
ATOM     16  N3  <0> d   1      19.235  -5.955   6.715  0.00  0.00    -0.141 NA
ATOM     17  C26 <0> d   1      19.664  -3.492   6.603  0.00  0.00     0.081 C 
ATOM     18  C25 <0> d   1      19.209  -2.368   7.550  0.00  0.00     0.137 C 
BRANCH  16  19
ATOM     19  O2  <0> d   1      18.639  -7.055   7.379  0.00  0.00    -0.262 OA
ATOM     20  C1  <0> d   1      17.509  -7.602   6.700  0.00  0.00     0.240 C 
ENDBRANCH  16  19
BRANCH  17  21
ATOM     21  C28 <0> d   1      19.100  -3.261   5.200  0.00  0.00     0.241 C 
BRANCH  21  22
ATOM     22  N29 <0> d   1      17.686  -3.654   5.168  0.00  0.00    -0.079 N 
ATOM     23  H30 <0> d   1      17.160  -3.066   5.797  0.00  0.00     0.274 HD
ATOM     24  H31 <0> d   1      17.327  -3.546   4.230  0.00  0.00     0.274 HD
ATOM     25  H32 <0> d   1      17.597  -4.617   5.453  0.00  0.00     0.274 HD
ENDBRANCH  21  22
ENDBRANCH  17  21
ENDBRANCH   1  13
BRANCH  12  26
ATOM     26  C22 <0> d   1      17.642   1.321  10.570  0.00  0.00     0.091 A 
ATOM     27  C24 <0> d   1      18.631   2.181   9.778  0.00  0.00     0.028 A 
ATOM     28  C23 <0> d   1      17.593   2.846  10.687  0.00  0.00     0.028 A 
ENDBRANCH  12  26
BRANCH  10  29
ATOM     29  C17 <0> d   1      18.715   1.236  15.330  0.00  0.00     0.214 C 
ATOM     30  O18 <0> d   1      19.505   2.154  15.513  0.00  0.00    -0.644 OA
ATOM     31  O19 <0> d   1      17.951   0.900  16.226  0.00  0.00    -0.644 OA
ENDBRANCH  10  29
TORSDOF 6
ENDMDL
MODEL 7
REMARK VINA RESULT:      -8.1      2.771      4.410
REMARK  6 active torsions:
REMARK  status: ('A' for Active; 'I' for Inactive)
REMARK    1  A    between atoms: O2_2  and  N3_3 
REMARK    2  A    between atoms: N6_6  and  C7_7 
REMARK    3  A    between atoms: C16_16  and  C17_17 
REMARK    4  A    between atoms: N21_21  and  C22_22 
REMARK    5  A    between atoms: C26_26  and  C28_27 
REMARK    6  A    between atoms: C28_27  and  N29_28 
ROOT
ATOM      1  C7  <0> d   1      18.839   0.157  13.963  0.00  0.00     0.167 A 
ATOM      2  N8  <0> d   1      18.595   0.611  12.746  0.00  0.00    -0.209 NA
ATOM      3  C9  <0> d   1      18.673  -0.179  11.681  0.00  0.00     0.146 A 
ATOM      4  C10 <0> d   1      19.020  -1.531  11.843  0.00  0.00     0.064 A 
ATOM      5  C11 <0> d   1      19.282  -2.035  13.122  0.00  0.00     0.065 A 
ATOM      6  C12 <0> d   1      19.194  -1.177  14.186  0.00  0.00     0.163 A 
ATOM      7  F13 <0> d   1      19.437  -1.619  15.440  0.00  0.00    -0.202 F 
ATOM      8  C14 <0> d   1      19.101  -2.391  10.652  0.00  0.00     0.204 A 
ATOM      9  O15 <0> d   1      19.398  -3.570  10.738  0.00  0.00    -0.286 OA
ATOM     10  C16 <0> d   1      18.807  -1.766   9.350  0.00  0.00     0.107 A 
ATOM     11  C20 <0> d   1      18.476  -0.424   9.317  0.00  0.00     0.115 A 
ATOM     12  N21 <0> d   1      18.414   0.323  10.426  0.00  0.00    -0.335 N 
ENDROOT
BRANCH   1  13
ATOM     13  N6  <0> d   1      18.744   1.022  15.041  0.00  0.00    -0.357 N 
ATOM     14  C5  <0> d   1      18.945   2.481  15.025  0.00  0.00     0.182 C 
ATOM     15  C4  <0> d   1      19.489   2.857  16.388  0.00  0.00     0.064 C 
ATOM     16  N3  <0> d   1      20.107   3.933  16.699  0.00  0.00    -0.141 NA
ATOM     17  C26 <0> d   1      19.161   1.697  17.308  0.00  0.00     0.081 C 
ATOM     18  C25 <0> d   1      18.421   0.669  16.435  0.00  0.00     0.137 C 
BRANCH  16  19
ATOM     19  O2  <0> d   1      20.336   4.927  15.717  0.00  0.00    -0.262 OA
ATOM     20  C1  <0> d   1      19.617   6.140  15.938  0.00  0.00     0.240 C 
ENDBRANCH  16  19
BRANCH  17  21
ATOM     21  C28 <0> d   1      18.256   2.173  18.446  0.00  0.00     0.241 C 
BRANCH  21  22
ATOM     22  N29 <0> d   1      19.004   3.086  19.319  0.00  0.00    -0.079 N 
ATOM     23  H30 <0> d   1      18.835   4.039  19.033  0.00  0.00     0.274 HD
ATOM     24  H31 <0> d   1      18.700   2.963  20.274  0.00  0.00     0.274 HD
ATOM     25  H32 <0> d   1      19.991   2.885  19.252  0.00  0.00     0.274 HD
ENDBRANCH  21  22
ENDBRANCH  17  21
ENDBRANCH   1  13
BRANCH  12  26
ATOM     26  C22 <0> d   1      18.054   1.737  10.297  0.00  0.00     0.091 A 
ATOM     27  C24 <0> d   1      18.631   2.508   9.107  0.00  0.00     0.028 A 
ATOM     28  C23 <0> d   1      19.160   2.771  10.519  0.00  0.00     0.028 A 
ENDBRANCH  12  26
BRANCH  10  29
ATOM     29  C17 <0> d   1      18.865  -2.552   8.114  0.00  0.00     0.214 C 
ATOM     30  O18 <0> d   1      18.076  -3.471   7.935  0.00  0.00    -0.644 OA
ATOM     31  O19 <0> d   1      19.702  -2.290   7.260  0.00  0.00    -0.644 OA
ENDBRANCH  10  29
TORSDOF 6
ENDMDL
MODEL 8
REMARK VINA RESULT:      -7.9      2.921      4.412
REMARK  6 active torsions:
REMARK  status: ('A' for Active; 'I' for Inactive)
REMARK    1  A    between atoms: O2_2  and  N3_3 
REMARK    2  A    between atoms: N6_6  and  C7_7 
REMARK    3  A    between atoms: C16_16  and  C17_17 
REMARK    4  A    between atoms: N21_21  and  C22_22 
REMARK    5  A    between atoms: C26_26  and  C28_27 
REMARK    6  A    between atoms: C28_27  and  N29_28 
ROOT
ATOM      1  C7  <0> d   1      18.622  -0.959  11.843  0.00  0.00     0.167 A 
ATOM      2  N8  <0> d   1      18.737  -0.838  10.532  0.00  0.00    -0.209 NA
ATOM      3  C9  <0> d   1      18.898  -1.897   9.747  0.00  0.00     0.146 A 
ATOM      4  C10 <0> d   1      18.948  -3.181  10.316  0.00  0.00     0.064 A 
ATOM      5  C11 <0> d   1      18.827  -3.336  11.702  0.00  0.00     0.065 A 
ATOM      6  C12 <0> d   1      18.669  -2.210  12.466  0.00  0.00     0.163 A 
ATOM      7  F13 <0> d   1      18.548  -2.309  13.809  0.00  0.00    -0.202 F 
ATOM      8  C14 <0> d   1      19.127  -4.343   9.431  0.00  0.00     0.204 A 
ATOM      9  O15 <0> d   1      19.176  -5.478   9.874  0.00  0.00    -0.286 OA
ATOM     10  C16 <0> d   1      19.243  -4.077   7.987  0.00  0.00     0.107 A 
ATOM     11  C20 <0> d   1      19.179  -2.769   7.545  0.00  0.00     0.115 A 
ATOM     12  N21 <0> d   1      19.015  -1.740   8.385  0.00  0.00    -0.335 N 
ENDROOT
BRANCH   1  13
ATOM     13  N6  <0> d   1      18.455   0.178  12.617  0.00  0.00    -0.357 N 
ATOM     14  C5  <0> d   1      17.536   1.299  12.357  0.00  0.00     0.182 C 
ATOM     15  C4  <0> d   1      18.192   2.538  12.929  0.00  0.00     0.064 C 
ATOM     16  N3  <0> d   1      17.919   3.754  12.643  0.00  0.00    -0.141 NA
ATOM     17  C26 <0> d   1      19.244   2.045  13.904  0.00  0.00     0.081 C 
ATOM     18  C25 <0> d   1      19.161   0.510  13.867  0.00  0.00     0.137 C 
BRANCH  16  19
ATOM     19  O2  <0> d   1      16.900   4.050  11.705  0.00  0.00    -0.262 OA
ATOM     20  C1  <0> d   1      17.357   4.767  10.558  0.00  0.00     0.240 C 
ENDBRANCH  16  19
BRANCH  17  21
ATOM     21  C28 <0> d   1      18.933   2.558  15.311  0.00  0.00     0.241 C 
BRANCH  21  22
ATOM     22  N29 <0> d   1      19.577   3.863  15.512  0.00  0.00    -0.079 N 
ATOM     23  H30 <0> d   1      19.131   4.342  16.279  0.00  0.00     0.274 HD
ATOM     24  H31 <0> d   1      20.555   3.726  15.724  0.00  0.00     0.274 HD
ATOM     25  H32 <0> d   1      19.490   4.415  14.673  0.00  0.00     0.274 HD
ENDBRANCH  21  22
ENDBRANCH  17  21
ENDBRANCH   1  13
BRANCH  12  26
ATOM     26  C22 <0> d   1      18.958  -0.385   7.829  0.00  0.00     0.091 A 
ATOM     27  C24 <0> d   1      17.648   0.052   7.168  0.00  0.00     0.028 A 
ATOM     28  C23 <0> d   1      18.878  -0.250   6.307  0.00  0.00     0.028 A 
ENDBRANCH  12  26
BRANCH  10  29
ATOM     29  C17 <0> d   1      19.424  -5.178   7.036  0.00  0.00     0.214 C 
ATOM     30  O18 <0> d   1      18.501  -5.515   6.305  0.00  0.00    -0.644 OA
ATOM     31  O19 <0> d   1      20.498  -5.763   6.972  0.00  0.00    -0.644 OA
ENDBRANCH  10  29
TORSDOF 6
ENDMDL
MODEL 9
REMARK VINA RESULT:      -7.9      2.778      7.986
REMARK  6 active torsions:
REMARK  status: ('A' for Active; 'I' for Inactive)
REMARK    1  A    between atoms: O2_2  and  N3_3 
REMARK    2  A    between atoms: N6_6  and  C7_7 
REMARK    3  A    between atoms: C16_16  and  C17_17 
REMARK    4  A    between atoms: N21_21  and  C22_22 
REMARK    5  A    between atoms: C26_26  and  C28_27 
REMARK    6  A    between atoms: C28_27  and  N29_28 
ROOT
ATOM      1  C7  <0> d   1      18.833  -0.294  12.718  0.00  0.00     0.167 A 
ATOM      2  N8  <0> d   1      18.364   0.874  12.315  0.00  0.00    -0.209 NA
ATOM      3  C9  <0> d   1      18.371   1.939  13.110  0.00  0.00     0.146 A 
ATOM      4  C10 <0> d   1      18.889   1.830  14.411  0.00  0.00     0.064 A 
ATOM      5  C11 <0> d   1      19.392   0.603  14.861  0.00  0.00     0.065 A 
ATOM      6  C12 <0> d   1      19.356  -0.464  14.004  0.00  0.00     0.163 A 
ATOM      7  F13 <0> d   1      19.831  -1.668  14.394  0.00  0.00    -0.202 F 
ATOM      8  C14 <0> d   1      18.889   3.018  15.278  0.00  0.00     0.204 A 
ATOM      9  O15 <0> d   1      19.327   2.977  16.414  0.00  0.00    -0.286 OA
ATOM     10  C16 <0> d   1      18.338   4.262  14.712  0.00  0.00     0.107 A 
ATOM     11  C20 <0> d   1      17.856   4.247  13.416  0.00  0.00     0.115 A 
ATOM     12  N21 <0> d   1      17.875   3.141  12.662  0.00  0.00    -0.335 N 
ENDROOT
BRANCH   1  13
ATOM     13  N6  <0> d   1      18.803  -1.373  11.850  0.00  0.00    -0.357 N 
ATOM     14  C5  <0> d   1      19.471  -1.475  10.541  0.00  0.00     0.182 C 
ATOM     15  C4  <0> d   1      18.606  -2.375   9.684  0.00  0.00     0.064 C 
ATOM     16  N3  <0> d   1      18.622  -2.469   8.408  0.00  0.00    -0.141 NA
ATOM     17  C26 <0> d   1      17.712  -3.139  10.642  0.00  0.00     0.081 C 
ATOM     18  C25 <0> d   1      18.096  -2.651  12.049  0.00  0.00     0.137 C 
BRANCH  16  19
ATOM     19  O2  <0> d   1      19.522  -1.681   7.652  0.00  0.00    -0.262 OA
ATOM     20  C1  <0> d   1      18.893  -0.660   6.877  0.00  0.00     0.240 C 
ENDBRANCH  16  19
BRANCH  17  21
ATOM     21  C28 <0> d   1      17.973  -4.641  10.514  0.00  0.00     0.241 C 
BRANCH  21  22
ATOM     22  N29 <0> d   1      19.404  -4.873  10.281  0.00  0.00    -0.079 N 
ATOM     23  H30 <0> d   1      19.937  -4.463  11.033  0.00  0.00     0.274 HD
ATOM     24  H31 <0> d   1      19.583  -5.866  10.245  0.00  0.00     0.274 HD
ATOM     25  H32 <0> d   1      19.676  -4.451   9.406  0.00  0.00     0.274 HD
ENDBRANCH  21  22
ENDBRANCH  17  21
ENDBRANCH   1  13
BRANCH  12  26
ATOM     26  C22 <0> d   1      17.345   3.216  11.298  0.00  0.00     0.091 A 
ATOM     27  C24 <0> d   1      18.248   3.821  10.220  0.00  0.00     0.028 A 
ATOM     28  C23 <0> d   1      17.039   4.606  10.735  0.00  0.00     0.028 A 
ENDBRANCH  12  26
BRANCH  10  29
ATOM     29  C17 <0> d   1      18.300   5.493  15.508  0.00  0.00     0.214 C 
ATOM     30  O18 <0> d   1      19.237   6.279  15.465  0.00  0.00    -0.644 OA
ATOM     31  O19 <0> d   1      17.331   5.735  16.216  0.00  0.00    -0.644 OA
ENDBRANCH  10  29
TORSDOF 6
ENDMDL
