MODEL 1
REMARK VINA RESULT:      -7.5      0.000      0.000
REMARK  4 active torsions:
REMARK  status: ('A' for Active; 'I' for Inactive)
REMARK    1  A    between atoms: C2_2  and  C3_3 
REMARK    2  A    between atoms: C3_3  and  N4_4 
REMARK    3  A    between atoms: C10_10  and  C12_11 
REMARK       I    between atoms: C12_11  and  N14_13 
REMARK    4  A    between atoms: N14_13  and  C15_14 
ROOT
ATOM      1  C12 ZIN A   1      18.960   1.615  12.642  0.00  0.00     0.253 C 
ATOM      2  O13 ZIN A   1      17.754   1.522  12.741  0.00  0.00    -0.271 OA
ATOM      3  N14 ZIN A   1      19.754   1.174  13.638  0.00  0.00    -0.324 N 
ATOM      4  H38 ZIN A   1      20.715   1.288  13.578  0.00  0.00     0.169 HD
ENDROOT
BRANCH   1   5
ATOM      5  C10 ZIN A   1      19.568   2.223  11.405  0.00  0.00     0.279 C 
ATOM      6  N4  ZIN A   1      18.515   2.483  10.416  0.00  0.00    -0.058 N 
ATOM      7  H5  ZIN A   1      18.918   2.936   9.609  0.00  0.00     0.280 HD
ATOM      8  C6  ZIN A   1      17.488   3.352  11.003  0.00  0.00     0.236 C 
ATOM      9  C7  ZIN A   1      18.102   4.708  11.355  0.00  0.00     0.028 C 
ATOM     10  C8  ZIN A   1      19.236   4.501  12.366  0.00  0.00     0.004 C 
ATOM     11  C9  ZIN A   1      20.265   3.535  11.773  0.00  0.00     0.043 C 
BRANCH   6  12
ATOM     12  C3  ZIN A   1      17.905   1.211  10.007  0.00  0.00     0.235 C 
BRANCH  12  13
ATOM     13  C2  ZIN A   1      18.751   0.570   8.906  0.00  0.00     0.023 C 
ATOM     14  C1  ZIN A   1      19.109   1.626   7.858  0.00  0.00     0.007 C 
ENDBRANCH  12  13
ENDBRANCH   6  12
ENDBRANCH   1   5
BRANCH   3  15
ATOM     15  C15 ZIN A   1      19.191   0.550  14.757  0.00  0.00     0.046 A 
ATOM     16  C21 ZIN A   1      18.888   1.294  15.890  0.00  0.00    -0.035 A 
ATOM     17  C20 ZIN A   1      18.327   0.676  16.990  0.00  0.00     0.009 A 
ATOM     18  C22 ZIN A   1      19.157   2.777  15.913  0.00  0.00     0.050 C 
ATOM     19  C19 ZIN A   1      18.080  -0.683  16.970  0.00  0.00     0.001 A 
ATOM     20  C18 ZIN A   1      18.386  -1.429  15.846  0.00  0.00     0.009 A 
ATOM     21  C16 ZIN A   1      18.942  -0.816  14.739  0.00  0.00    -0.035 A 
ATOM     22  C17 ZIN A   1      19.276  -1.628  13.515  0.00  0.00     0.050 C 
ENDBRANCH   3  15
TORSDOF 4
ENDMDL
MODEL 2
REMARK VINA RESULT:      -7.5      0.055      1.916
REMARK  4 active torsions:
REMARK  status: ('A' for Active; 'I' for Inactive)
REMARK    1  A    between atoms: C2_2  and  C3_3 
REMARK    2  A    between atoms: C3_3  and  N4_4 
REMARK    3  A    between atoms: C10_10  and  C12_11 
REMARK       I    between atoms: C12_11  and  N14_13 
REMARK    4  A    between atoms: N14_13  and  C15_14 
ROOT
ATOM      1  C12 ZIN A   1      18.993   1.641  12.637  0.00  0.00     0.253 C 
ATOM      2  O13 ZIN A   1      17.787   1.558  12.738  0.00  0.00    -0.271 OA
ATOM      3  N14 ZIN A   1      19.785   1.180  13.626  0.00  0.00    -0.324 N 
ATOM      4  H38 ZIN A   1      20.747   1.286  13.565  0.00  0.00     0.169 HD
ENDROOT
BRANCH   1   5
ATOM      5  C10 ZIN A   1      19.605   2.258  11.407  0.00  0.00     0.279 C 
ATOM      6  N4  ZIN A   1      18.561   2.483  10.400  0.00  0.00    -0.058 N 
ATOM      7  H5  ZIN A   1      18.965   2.943   9.597  0.00  0.00     0.280 HD
ATOM      8  C6  ZIN A   1      17.501   3.327  10.964  0.00  0.00     0.236 C 
ATOM      9  C7  ZIN A   1      18.072   4.702  11.318  0.00  0.00     0.028 C 
ATOM     10  C8  ZIN A   1      19.194   4.532  12.348  0.00  0.00     0.004 C 
ATOM     11  C9  ZIN A   1      20.259   3.592  11.778  0.00  0.00     0.043 C 
BRANCH   6  12
ATOM     12  C3  ZIN A   1      17.993   1.193   9.989  0.00  0.00     0.235 C 
BRANCH  12  13
ATOM     13  C2  ZIN A   1      18.874   0.570   8.904  0.00  0.00     0.023 C 
ATOM     14  C1  ZIN A   1      19.130   1.599   7.802  0.00  0.00     0.007 C 
ENDBRANCH  12  13
ENDBRANCH   6  12
ENDBRANCH   1   5
BRANCH   3  15
ATOM     15  C15 ZIN A   1      19.219   0.548  14.739  0.00  0.00     0.046 A 
ATOM     16  C21 ZIN A   1      18.951  -0.814  14.705  0.00  0.00    -0.035 A 
ATOM     17  C20 ZIN A   1      18.398  -1.435  15.808  0.00  0.00     0.009 A 
ATOM     18  C22 ZIN A   1      19.277  -1.617  13.471  0.00  0.00     0.050 C 
ATOM     19  C19 ZIN A   1      18.099  -0.700  16.939  0.00  0.00     0.001 A 
ATOM     20  C18 ZIN A   1      18.358   0.658  16.974  0.00  0.00     0.009 A 
ATOM     21  C16 ZIN A   1      18.917   1.284  15.877  0.00  0.00    -0.035 A 
ATOM     22  C17 ZIN A   1      19.199   2.764  15.916  0.00  0.00     0.050 C 
ENDBRANCH   3  15
TORSDOF 4
ENDMDL
MODEL 3
REMARK VINA RESULT:      -7.4      3.009      7.399
REMARK  4 active torsions:
REMARK  status: ('A' for Active; 'I' for Inactive)
REMARK    1  A    between atoms: C2_2  and  C3_3 
REMARK    2  A    between atoms: C3_3  and  N4_4 
REMARK    3  A    between atoms: C10_10  and  C12_11 
REMARK       I    between atoms: C12_11  and  N14_13 
REMARK    4  A    between atoms: N14_13  and  C15_14 
ROOT
ATOM      1  C12 ZIN A   1      18.969  -1.758  10.079  0.00  0.00     0.253 C 
ATOM      2  O13 ZIN A   1      17.783  -1.765   9.823  0.00  0.00    -0.271 OA
ATOM      3  N14 ZIN A   1      19.854  -1.321   9.161  0.00  0.00    -0.324 N 
ATOM      4  H38 ZIN A   1      20.805  -1.356   9.349  0.00  0.00     0.169 HD
ENDROOT
BRANCH   1   5
ATOM      5  C10 ZIN A   1      19.452  -2.238  11.423  0.00  0.00     0.279 C 
ATOM      6  N4  ZIN A   1      18.300  -2.494  12.295  0.00  0.00    -0.058 N 
ATOM      7  H5  ZIN A   1      18.624  -2.864  13.178  0.00  0.00     0.280 HD
ATOM      8  C6  ZIN A   1      17.402  -3.466  11.659  0.00  0.00     0.236 C 
ATOM      9  C7  ZIN A   1      18.129  -4.802  11.489  0.00  0.00     0.028 C 
ATOM     10  C8  ZIN A   1      19.366  -4.595  10.608  0.00  0.00     0.004 C 
ATOM     11  C9  ZIN A   1      20.259  -3.526  11.244  0.00  0.00     0.043 C 
BRANCH   6  12
ATOM     12  C3  ZIN A   1      17.575  -1.239  12.529  0.00  0.00     0.235 C 
BRANCH  12  13
ATOM     13  C2  ZIN A   1      18.310  -0.415  13.589  0.00  0.00     0.023 C 
ATOM     14  C1  ZIN A   1      18.505  -1.262  14.848  0.00  0.00     0.007 C 
ENDBRANCH  12  13
ENDBRANCH   6  12
ENDBRANCH   1   5
BRANCH   3  15
ATOM     15  C15 ZIN A   1      19.400  -0.814   7.937  0.00  0.00     0.046 A 
ATOM     16  C21 ZIN A   1      19.111   0.537   7.808  0.00  0.00    -0.035 A 
ATOM     17  C20 ZIN A   1      18.670   1.034   6.597  0.00  0.00     0.009 A 
ATOM     18  C22 ZIN A   1      19.292   1.464   8.982  0.00  0.00     0.050 C 
ATOM     19  C19 ZIN A   1      18.503   0.185   5.519  0.00  0.00     0.001 A 
ATOM     20  C18 ZIN A   1      18.785  -1.163   5.647  0.00  0.00     0.009 A 
ATOM     21  C16 ZIN A   1      19.233  -1.666   6.853  0.00  0.00    -0.035 A 
ATOM     22  C17 ZIN A   1      19.539  -3.134   6.991  0.00  0.00     0.050 C 
ENDBRANCH   3  15
TORSDOF 4
ENDMDL
MODEL 4
REMARK VINA RESULT:      -7.4      3.008      7.641
REMARK  4 active torsions:
REMARK  status: ('A' for Active; 'I' for Inactive)
REMARK    1  A    between atoms: C2_2  and  C3_3 
REMARK    2  A    between atoms: C3_3  and  N4_4 
REMARK    3  A    between atoms: C10_10  and  C12_11 
REMARK       I    between atoms: C12_11  and  N14_13 
REMARK    4  A    between atoms: N14_13  and  C15_14 
ROOT
ATOM      1  C12 ZIN A   1      18.969  -1.754  10.082  0.00  0.00     0.253 C 
ATOM      2  O13 ZIN A   1      17.782  -1.759   9.828  0.00  0.00    -0.271 OA
ATOM      3  N14 ZIN A   1      19.853  -1.319   9.162  0.00  0.00    -0.324 N 
ATOM      4  H38 ZIN A   1      20.804  -1.356   9.348  0.00  0.00     0.169 HD
ENDROOT
BRANCH   1   5
ATOM      5  C10 ZIN A   1      19.453  -2.234  11.425  0.00  0.00     0.279 C 
ATOM      6  N4  ZIN A   1      18.302  -2.502  12.295  0.00  0.00    -0.058 N 
ATOM      7  H5  ZIN A   1      18.628  -2.871  13.177  0.00  0.00     0.280 HD
ATOM      8  C6  ZIN A   1      17.413  -3.478  11.655  0.00  0.00     0.236 C 
ATOM      9  C7  ZIN A   1      18.149  -4.808  11.481  0.00  0.00     0.028 C 
ATOM     10  C8  ZIN A   1      19.386  -4.589  10.603  0.00  0.00     0.004 C 
ATOM     11  C9  ZIN A   1      20.271  -3.516  11.243  0.00  0.00     0.043 C 
BRANCH   6  12
ATOM     12  C3  ZIN A   1      17.568  -1.252  12.532  0.00  0.00     0.235 C 
BRANCH  12  13
ATOM     13  C2  ZIN A   1      18.304  -0.419  13.583  0.00  0.00     0.023 C 
ATOM     14  C1  ZIN A   1      18.507  -1.257  14.847  0.00  0.00     0.007 C 
ENDBRANCH  12  13
ENDBRANCH   6  12
ENDBRANCH   1   5
BRANCH   3  15
ATOM     15  C15 ZIN A   1      19.397  -0.812   7.939  0.00  0.00     0.046 A 
ATOM     16  C21 ZIN A   1      19.235  -1.659   6.851  0.00  0.00    -0.035 A 
ATOM     17  C20 ZIN A   1      18.779  -1.157   5.648  0.00  0.00     0.009 A 
ATOM     18  C22 ZIN A   1      19.542  -3.129   6.987  0.00  0.00     0.050 C 
ATOM     19  C19 ZIN A   1      18.498   0.191   5.523  0.00  0.00     0.001 A 
ATOM     20  C18 ZIN A   1      18.665   1.039   6.603  0.00  0.00     0.009 A 
ATOM     21  C16 ZIN A   1      19.114   0.541   7.811  0.00  0.00    -0.035 A 
ATOM     22  C17 ZIN A   1      19.295   1.466   8.987  0.00  0.00     0.050 C 
ENDBRANCH   3  15
TORSDOF 4
ENDMDL
MODEL 5
REMARK VINA RESULT:      -7.0      3.905      7.983
REMARK  4 active torsions:
REMARK  status: ('A' for Active; 'I' for Inactive)
REMARK    1  A    between atoms: C2_2  and  C3_3 
REMARK    2  A    between atoms: C3_3  and  N4_4 
REMARK    3  A    between atoms: C10_10  and  C12_11 
REMARK       I    between atoms: C12_11  and  N14_13 
REMARK    4  A    between atoms: N14_13  and  C15_14 
ROOT
ATOM      1  C12 ZIN A   1      18.849  -3.223   9.124  0.00  0.00     0.253 C 
ATOM      2  O13 ZIN A   1      17.680  -2.904   9.169  0.00  0.00    -0.271 OA
ATOM      3  N14 ZIN A   1      19.698  -2.558   8.315  0.00  0.00    -0.324 N 
ATOM      4  H38 ZIN A   1      20.623  -2.842   8.246  0.00  0.00     0.169 HD
ENDROOT
BRANCH   1   5
ATOM      5  C10 ZIN A   1      19.352  -4.362   9.973  0.00  0.00     0.279 C 
ATOM      6  N4  ZIN A   1      18.973  -4.136  11.372  0.00  0.00    -0.058 N 
ATOM      7  H5  ZIN A   1      19.267  -4.924  11.930  0.00  0.00     0.280 HD
ATOM      8  C6  ZIN A   1      17.516  -3.982  11.473  0.00  0.00     0.236 C 
ATOM      9  C7  ZIN A   1      16.831  -5.278  11.037  0.00  0.00     0.028 C 
ATOM     10  C8  ZIN A   1      17.214  -5.589   9.586  0.00  0.00     0.004 C 
ATOM     11  C9  ZIN A   1      18.739  -5.674   9.479  0.00  0.00     0.043 C 
BRANCH   6  12
ATOM     12  C3  ZIN A   1      19.628  -2.917  11.865  0.00  0.00     0.235 C 
BRANCH  12  13
ATOM     13  C2  ZIN A   1      18.620  -2.079  12.654  0.00  0.00     0.023 C 
ATOM     14  C1  ZIN A   1      19.301  -1.496  13.894  0.00  0.00     0.007 C 
ENDBRANCH  12  13
ENDBRANCH   6  12
ENDBRANCH   1   5
BRANCH   3  15
ATOM     15  C15 ZIN A   1      19.245  -1.460   7.576  0.00  0.00     0.046 A 
ATOM     16  C21 ZIN A   1      19.250  -0.191   8.140  0.00  0.00    -0.035 A 
ATOM     17  C20 ZIN A   1      18.808   0.892   7.405  0.00  0.00     0.009 A 
ATOM     18  C22 ZIN A   1      19.752   0.007   9.548  0.00  0.00     0.050 C 
ATOM     19  C19 ZIN A   1      18.348   0.711   6.115  0.00  0.00     0.001 A 
ATOM     20  C18 ZIN A   1      18.335  -0.552   5.552  0.00  0.00     0.009 A 
ATOM     21  C16 ZIN A   1      18.782  -1.639   6.279  0.00  0.00    -0.035 A 
ATOM     22  C17 ZIN A   1      18.768  -3.014   5.665  0.00  0.00     0.050 C 
ENDBRANCH   3  15
TORSDOF 4
ENDMDL
MODEL 6
REMARK VINA RESULT:      -7.0      1.722      3.308
REMARK  4 active torsions:
REMARK  status: ('A' for Active; 'I' for Inactive)
REMARK    1  A    between atoms: C2_2  and  C3_3 
REMARK    2  A    between atoms: C3_3  and  N4_4 
REMARK    3  A    between atoms: C10_10  and  C12_11 
REMARK       I    between atoms: C12_11  and  N14_13 
REMARK    4  A    between atoms: N14_13  and  C15_14 
ROOT
ATOM      1  C12 ZIN A   1      18.582   0.409  13.510  0.00  0.00     0.253 C 
ATOM      2  O13 ZIN A   1      19.784   0.399  13.674  0.00  0.00    -0.271 OA
ATOM      3  N14 ZIN A   1      17.760   0.580  14.565  0.00  0.00    -0.324 N 
ATOM      4  H38 ZIN A   1      16.798   0.545  14.441  0.00  0.00     0.169 HD
ENDROOT
BRANCH   1   5
ATOM      5  C10 ZIN A   1      18.008   0.231  12.128  0.00  0.00     0.279 C 
ATOM      6  N4  ZIN A   1      19.077   0.372  11.132  0.00  0.00    -0.058 N 
ATOM      7  H5  ZIN A   1      18.700   0.203  10.211  0.00  0.00     0.280 HD
ATOM      8  C6  ZIN A   1      20.145  -0.596  11.409  0.00  0.00     0.236 C 
ATOM      9  C7  ZIN A   1      19.598  -2.018  11.267  0.00  0.00     0.028 C 
ATOM     10  C8  ZIN A   1      18.452  -2.220  12.264  0.00  0.00     0.004 C 
ATOM     11  C9  ZIN A   1      17.378  -1.159  12.014  0.00  0.00     0.043 C 
BRANCH   6  12
ATOM     12  C3  ZIN A   1      19.624   1.734  11.192  0.00  0.00     0.235 C 
BRANCH  12  13
ATOM     13  C2  ZIN A   1      18.966   2.596  10.112  0.00  0.00     0.023 C 
ATOM     14  C1  ZIN A   1      19.178   1.947   8.743  0.00  0.00     0.007 C 
ENDBRANCH  12  13
ENDBRANCH   6  12
ENDBRANCH   1   5
BRANCH   3  15
ATOM     15  C15 ZIN A   1      18.293   0.811  15.838  0.00  0.00     0.046 A 
ATOM     16  C21 ZIN A   1      18.627   2.100  16.230  0.00  0.00    -0.035 A 
ATOM     17  C20 ZIN A   1      19.148   2.324  17.490  0.00  0.00     0.009 A 
ATOM     18  C22 ZIN A   1      18.408   3.256  15.288  0.00  0.00     0.050 C 
ATOM     19  C19 ZIN A   1      19.349   1.265  18.355  0.00  0.00     0.001 A 
ATOM     20  C18 ZIN A   1      19.023  -0.022  17.965  0.00  0.00     0.009 A 
ATOM     21  C16 ZIN A   1      18.496  -0.252  16.709  0.00  0.00    -0.035 A 
ATOM     22  C17 ZIN A   1      18.141  -1.654  16.285  0.00  0.00     0.050 C 
ENDBRANCH   3  15
TORSDOF 4
ENDMDL
MODEL 7
REMARK VINA RESULT:      -7.0      1.725      3.707
REMARK  4 active torsions:
REMARK  status: ('A' for Active; 'I' for Inactive)
REMARK    1  A    between atoms: C2_2  and  C3_3 
REMARK    2  A    between atoms: C3_3  and  N4_4 
REMARK    3  A    between atoms: C10_10  and  C12_11 
REMARK       I    between atoms: C12_11  and  N14_13 
REMARK    4  A    between atoms: N14_13  and  C15_14 
ROOT
ATOM      1  C12 ZIN A   1      18.599   0.386  13.490  0.00  0.00     0.253 C 
ATOM      2  O13 ZIN A   1      19.801   0.387  13.653  0.00  0.00    -0.271 OA
ATOM      3  N14 ZIN A   1      17.776   0.553  14.545  0.00  0.00    -0.324 N 
ATOM      4  H38 ZIN A   1      16.815   0.509  14.422  0.00  0.00     0.169 HD
ENDROOT
BRANCH   1   5
ATOM      5  C10 ZIN A   1      18.026   0.198  12.110  0.00  0.00     0.279 C 
ATOM      6  N4  ZIN A   1      19.088   0.361  11.111  0.00  0.00    -0.058 N 
ATOM      7  H5  ZIN A   1      18.712   0.185  10.190  0.00  0.00     0.280 HD
ATOM      8  C6  ZIN A   1      20.176  -0.586  11.384  0.00  0.00     0.236 C 
ATOM      9  C7  ZIN A   1      19.657  -2.018  11.242  0.00  0.00     0.028 C 
ATOM     10  C8  ZIN A   1      18.518  -2.244  12.242  0.00  0.00     0.004 C 
ATOM     11  C9  ZIN A   1      17.422  -1.204  11.995  0.00  0.00     0.043 C 
BRANCH   6  12
ATOM     12  C3  ZIN A   1      19.608   1.734  11.171  0.00  0.00     0.235 C 
BRANCH  12  13
ATOM     13  C2  ZIN A   1      18.941   2.580  10.085  0.00  0.00     0.023 C 
ATOM     14  C1  ZIN A   1      19.181   1.937   8.718  0.00  0.00     0.007 C 
ENDBRANCH  12  13
ENDBRANCH   6  12
ENDBRANCH   1   5
BRANCH   3  15
ATOM     15  C15 ZIN A   1      18.309   0.793  15.817  0.00  0.00     0.046 A 
ATOM     16  C21 ZIN A   1      18.515  -0.262  16.696  0.00  0.00    -0.035 A 
ATOM     17  C20 ZIN A   1      19.048  -0.023  17.947  0.00  0.00     0.009 A 
ATOM     18  C22 ZIN A   1      18.173  -1.670  16.279  0.00  0.00     0.050 C 
ATOM     19  C19 ZIN A   1      19.362   1.267  18.331  0.00  0.00     0.001 A 
ATOM     20  C18 ZIN A   1      19.152   2.322  17.460  0.00  0.00     0.009 A 
ATOM     21  C16 ZIN A   1      18.626   2.088  16.204  0.00  0.00    -0.035 A 
ATOM     22  C17 ZIN A   1      18.397   3.237  15.257  0.00  0.00     0.050 C 
ENDBRANCH   3  15
TORSDOF 4
ENDMDL
MODEL 8
REMARK VINA RESULT:      -6.9      3.246      7.007
REMARK  4 active torsions:
REMARK  status: ('A' for Active; 'I' for Inactive)
REMARK    1  A    between atoms: C2_2  and  C3_3 
REMARK    2  A    between atoms: C3_3  and  N4_4 
REMARK    3  A    between atoms: C10_10  and  C12_11 
REMARK       I    between atoms: C12_11  and  N14_13 
REMARK    4  A    between atoms: N14_13  and  C15_14 
ROOT
ATOM      1  C12 ZIN A   1      17.862  -0.807   9.671  0.00  0.00     0.253 C 
ATOM      2  O13 ZIN A   1      16.842  -0.613   9.044  0.00  0.00    -0.271 OA
ATOM      3  N14 ZIN A   1      19.052  -0.807   9.039  0.00  0.00    -0.324 N 
ATOM      4  H38 ZIN A   1      19.863  -1.005   9.533  0.00  0.00     0.169 HD
ENDROOT
BRANCH   1   5
ATOM      5  C10 ZIN A   1      17.797  -1.046  11.157  0.00  0.00     0.279 C 
ATOM      6  N4  ZIN A   1      19.149  -0.976  11.725  0.00  0.00    -0.058 N 
ATOM      7  H5  ZIN A   1      19.097  -1.086  12.727  0.00  0.00     0.280 HD
ATOM      8  C6  ZIN A   1      19.753   0.324  11.407  0.00  0.00     0.236 C 
ATOM      9  C7  ZIN A   1      18.943   1.442  12.065  0.00  0.00     0.028 C 
ATOM     10  C8  ZIN A   1      17.506   1.403  11.535  0.00  0.00     0.004 C 
ATOM     11  C9  ZIN A   1      16.910   0.019  11.806  0.00  0.00     0.043 C 
BRANCH   6  12
ATOM     12  C3  ZIN A   1      19.973  -2.051  11.158  0.00  0.00     0.235 C 
BRANCH  12  13
ATOM     13  C2  ZIN A   1      19.635  -3.372  11.851  0.00  0.00     0.023 C 
ATOM     14  C1  ZIN A   1      19.540  -4.486  10.807  0.00  0.00     0.007 C 
ENDBRANCH  12  13
ENDBRANCH   6  12
ENDBRANCH   1   5
BRANCH   3  15
ATOM     15  C15 ZIN A   1      19.118  -0.520   7.671  0.00  0.00     0.046 A 
ATOM     16  C21 ZIN A   1      19.166  -1.554   6.744  0.00  0.00    -0.035 A 
ATOM     17  C20 ZIN A   1      19.223  -1.266   5.394  0.00  0.00     0.009 A 
ATOM     18  C22 ZIN A   1      19.139  -2.987   7.210  0.00  0.00     0.050 C 
ATOM     19  C19 ZIN A   1      19.248   0.047   4.966  0.00  0.00     0.001 A 
ATOM     20  C18 ZIN A   1      19.207   1.079   5.887  0.00  0.00     0.009 A 
ATOM     21  C16 ZIN A   1      19.142   0.799   7.238  0.00  0.00    -0.035 A 
ATOM     22  C17 ZIN A   1      19.098   1.923   8.240  0.00  0.00     0.050 C 
ENDBRANCH   3  15
TORSDOF 4
ENDMDL
MODEL 9
REMARK VINA RESULT:      -6.9      1.605      2.765
REMARK  4 active torsions:
REMARK  status: ('A' for Active; 'I' for Inactive)
REMARK    1  A    between atoms: C2_2  and  C3_3 
REMARK    2  A    between atoms: C3_3  and  N4_4 
REMARK    3  A    between atoms: C10_10  and  C12_11 
REMARK       I    between atoms: C12_11  and  N14_13 
REMARK    4  A    between atoms: N14_13  and  C15_14 
ROOT
ATOM      1  C12 ZIN A   1      18.718   2.980  13.643  0.00  0.00     0.253 C 
ATOM      2  O13 ZIN A   1      17.547   2.666  13.685  0.00  0.00    -0.271 OA
ATOM      3  N14 ZIN A   1      19.637   2.245  14.300  0.00  0.00    -0.324 N 
ATOM      4  H38 ZIN A   1      20.566   2.521  14.303  0.00  0.00     0.169 HD
ENDROOT
BRANCH   1   5
ATOM      5  C10 ZIN A   1      19.145   4.192  12.855  0.00  0.00     0.279 C 
ATOM      6  N4  ZIN A   1      17.970   4.809  12.228  0.00  0.00    -0.058 N 
ATOM      7  H5  ZIN A   1      18.251   5.648  11.743  0.00  0.00     0.280 HD
ATOM      8  C6  ZIN A   1      16.979   5.147  13.257  0.00  0.00     0.236 C 
ATOM      9  C7  ZIN A   1      17.564   6.190  14.211  0.00  0.00     0.028 C 
ATOM     10  C8  ZIN A   1      18.819   5.616  14.878  0.00  0.00     0.004 C 
ATOM     11  C9  ZIN A   1      19.816   5.198  13.793  0.00  0.00     0.043 C 
BRANCH   6  12
ATOM     12  C3  ZIN A   1      17.377   3.867  11.269  0.00  0.00     0.235 C 
BRANCH  12  13
ATOM     13  C2  ZIN A   1      18.178   3.895   9.966  0.00  0.00     0.023 C 
ATOM     14  C1  ZIN A   1      18.638   2.478   9.619  0.00  0.00     0.007 C 
ENDBRANCH  12  13
ENDBRANCH   6  12
ENDBRANCH   1   5
BRANCH   3  15
ATOM     15  C15 ZIN A   1      19.249   1.083  14.977  0.00  0.00     0.046 A 
ATOM     16  C21 ZIN A   1      19.230  -0.136  14.313  0.00  0.00    -0.035 A 
ATOM     17  C20 ZIN A   1      18.853  -1.282  14.987  0.00  0.00     0.009 A 
ATOM     18  C22 ZIN A   1      19.635  -0.213  12.864  0.00  0.00     0.050 C 
ATOM     19  C19 ZIN A   1      18.481  -1.213  16.316  0.00  0.00     0.001 A 
ATOM     20  C18 ZIN A   1      18.493   0.002  16.979  0.00  0.00     0.009 A 
ATOM     21  C16 ZIN A   1      18.875   1.150  16.313  0.00  0.00    -0.035 A 
ATOM     22  C17 ZIN A   1      18.887   2.472  17.035  0.00  0.00     0.050 C 
ENDBRANCH   3  15
TORSDOF 4
ENDMDL
