MODEL 1
REMARK VINA RESULT:      -7.9      0.000      0.000
REMARK  2 active torsions:
REMARK  status: ('A' for Active; 'I' for Inactive)
REMARK    1  A    between atoms: C3_3  and  C4_4 
REMARK    2  A    between atoms: C4_4  and  N5_5 
ROOT
ATOM      1  N5  ZIN A   1      17.980  -0.010  14.673  0.00  0.00    -0.342 N 
ATOM      2  C6  ZIN A   1      18.744  -1.242  14.531  0.00  0.00     0.132 C 
ATOM      3  C7  ZIN A   1      18.539  -1.908  13.170  0.00  0.00     0.078 C 
ATOM      4  C8  ZIN A   1      18.659  -0.862  12.091  0.00  0.00     0.029 A 
ATOM      5  C9  ZIN A   1      18.318   0.451  12.336  0.00  0.00     0.067 A 
ATOM      6  C10 ZIN A   1      18.551   1.183  11.108  0.00  0.00     0.008 A 
ATOM      7  C11 ZIN A   1      18.391   2.521  10.749  0.00  0.00     0.015 A 
ATOM      8  C12 ZIN A   1      18.724   2.866   9.451  0.00  0.00     0.001 A 
ATOM      9  C13 ZIN A   1      19.193   1.932   8.543  0.00  0.00     0.002 A 
ATOM     10  C14 ZIN A   1      19.358   0.599   8.877  0.00  0.00     0.030 A 
ATOM     11  C15 ZIN A   1      19.031   0.225  10.178  0.00  0.00     0.045 A 
ATOM     12  N16 ZIN A   1      19.078  -0.988  10.814  0.00  0.00    -0.353 N 
ATOM     13  C17 ZIN A   1      19.520  -2.241  10.198  0.00  0.00     0.156 C 
ATOM     14  C18 ZIN A   1      17.819   0.865  13.653  0.00  0.00     0.257 C 
ATOM     15  O19 ZIN A   1      17.292   1.950  13.823  0.00  0.00    -0.267 OA
ENDROOT
BRANCH   1  16
ATOM     16  C4  ZIN A   1      17.357   0.289  15.965  0.00  0.00     0.185 C 
BRANCH  16  17
ATOM     17  C3  ZIN A   1      18.257   1.200  16.758  0.00  0.00     0.052 A 
ATOM     18  C2  ZIN A   1      19.133   0.833  17.713  0.00  0.00     0.056 A 
ATOM     19  C1  ZIN A   1      19.389  -0.576  18.184  0.00  0.00     0.072 C 
ATOM     20  N22 ZIN A   1      19.732   1.940  18.176  0.00  0.00    -0.247 NA
ATOM     21  C21 ZIN A   1      19.267   2.979  17.537  0.00  0.00     0.207 A 
ATOM     22  N20 ZIN A   1      18.342   2.563  16.646  0.00  0.00    -0.351 N 
ATOM     23  H39 ZIN A   1      17.833   3.124  16.041  0.00  0.00     0.166 HD
ENDBRANCH  16  17
ENDBRANCH   1  16
TORSDOF 2
ENDMDL
MODEL 2
REMARK VINA RESULT:      -7.9      2.828      7.815
REMARK  2 active torsions:
REMARK  status: ('A' for Active; 'I' for Inactive)
REMARK    1  A    between atoms: C3_3  and  C4_4 
REMARK    2  A    between atoms: C4_4  and  N5_5 
ROOT
ATOM      1  N5  ZIN A   1      18.035   0.397   8.395  0.00  0.00    -0.342 N 
ATOM      2  C6  ZIN A   1      18.917   1.544   8.223  0.00  0.00     0.132 C 
ATOM      3  C7  ZIN A   1      18.785   2.564   9.355  0.00  0.00     0.078 C 
ATOM      4  C8  ZIN A   1      18.807   1.834  10.674  0.00  0.00     0.029 A 
ATOM      5  C9  ZIN A   1      18.337   0.542  10.777  0.00  0.00     0.067 A 
ATOM      6  C10 ZIN A   1      18.503   0.143  12.159  0.00  0.00     0.008 A 
ATOM      7  C11 ZIN A   1      18.215  -1.030  12.856  0.00  0.00     0.015 A 
ATOM      8  C12 ZIN A   1      18.518  -1.049  14.206  0.00  0.00     0.001 A 
ATOM      9  C13 ZIN A   1      19.081   0.043  14.845  0.00  0.00     0.002 A 
ATOM     10  C14 ZIN A   1      19.374   1.217  14.174  0.00  0.00     0.030 A 
ATOM     11  C15 ZIN A   1      19.080   1.263  12.814  0.00  0.00     0.045 A 
ATOM     12  N16 ZIN A   1      19.243   2.254  11.881  0.00  0.00    -0.353 N 
ATOM     13  C17 ZIN A   1      19.809   3.577  12.154  0.00  0.00     0.156 C 
ATOM     14  C18 ZIN A   1      17.794  -0.156   9.606  0.00  0.00     0.257 C 
ATOM     15  O19 ZIN A   1      17.163  -1.191   9.718  0.00  0.00    -0.267 OA
ENDROOT
BRANCH   1  16
ATOM     16  C4  ZIN A   1      17.379  -0.172   7.215  0.00  0.00     0.185 C 
BRANCH  16  17
ATOM     17  C3  ZIN A   1      18.240  -1.267   6.641  0.00  0.00     0.052 A 
ATOM     18  C2  ZIN A   1      19.089  -1.160   5.602  0.00  0.00     0.056 A 
ATOM     19  C1  ZIN A   1      19.350   0.087   4.796  0.00  0.00     0.072 C 
ATOM     20  N22 ZIN A   1      19.657  -2.359   5.404  0.00  0.00    -0.247 NA
ATOM     21  C21 ZIN A   1      19.199  -3.203   6.289  0.00  0.00     0.207 A 
ATOM     22  N20 ZIN A   1      18.310  -2.563   7.078  0.00  0.00    -0.351 N 
ATOM     23  H39 ZIN A   1      17.813  -2.950   7.816  0.00  0.00     0.166 HD
ENDBRANCH  16  17
ENDBRANCH   1  16
TORSDOF 2
ENDMDL
MODEL 3
REMARK VINA RESULT:      -7.8      1.603      6.954
REMARK  2 active torsions:
REMARK  status: ('A' for Active; 'I' for Inactive)
REMARK    1  A    between atoms: C3_3  and  C4_4 
REMARK    2  A    between atoms: C4_4  and  N5_5 
ROOT
ATOM      1  N5  ZIN A   1      18.122   1.695  12.061  0.00  0.00    -0.342 N 
ATOM      2  C6  ZIN A   1      19.078   2.793  12.119  0.00  0.00     0.132 C 
ATOM      3  C7  ZIN A   1      18.936   3.631  13.390  0.00  0.00     0.078 C 
ATOM      4  C8  ZIN A   1      18.836   2.706  14.576  0.00  0.00     0.029 A 
ATOM      5  C9  ZIN A   1      18.287   1.448  14.448  0.00  0.00     0.067 A 
ATOM      6  C10 ZIN A   1      18.345   0.828  15.756  0.00  0.00     0.008 A 
ATOM      7  C11 ZIN A   1      17.948  -0.418  16.242  0.00  0.00     0.015 A 
ATOM      8  C12 ZIN A   1      18.166  -0.666  17.586  0.00  0.00     0.001 A 
ATOM      9  C13 ZIN A   1      18.752   0.273  18.417  0.00  0.00     0.002 A 
ATOM     10  C14 ZIN A   1      19.153   1.516  17.958  0.00  0.00     0.030 A 
ATOM     11  C15 ZIN A   1      18.944   1.792  16.609  0.00  0.00     0.045 A 
ATOM     12  N16 ZIN A   1      19.221   2.903  15.855  0.00  0.00    -0.353 N 
ATOM     13  C17 ZIN A   1      19.845   4.127  16.363  0.00  0.00     0.156 C 
ATOM     14  C18 ZIN A   1      17.776   0.977  13.155  0.00  0.00     0.257 C 
ATOM     15  O19 ZIN A   1      17.081  -0.018  13.068  0.00  0.00    -0.267 OA
ENDROOT
BRANCH   1  16
ATOM     16  C4  ZIN A   1      17.508   1.361  10.774  0.00  0.00     0.185 C 
BRANCH  16  17
ATOM     17  C3  ZIN A   1      18.336   0.310  10.080  0.00  0.00     0.052 A 
ATOM     18  C2  ZIN A   1      19.152   0.497   9.025  0.00  0.00     0.056 A 
ATOM     19  C1  ZIN A   1      19.402   1.806   8.321  0.00  0.00     0.072 C 
ATOM     20  N22 ZIN A   1      19.697  -0.686   8.707  0.00  0.00    -0.247 NA
ATOM     21  C21 ZIN A   1      19.257  -1.598   9.531  0.00  0.00     0.207 A 
ATOM     22  N20 ZIN A   1      18.402  -1.019  10.402  0.00  0.00    -0.351 N 
ATOM     23  H39 ZIN A   1      17.924  -1.463  11.119  0.00  0.00     0.166 HD
ENDBRANCH  16  17
ENDBRANCH   1  16
TORSDOF 2
ENDMDL
MODEL 4
REMARK VINA RESULT:      -7.7      2.838      4.938
REMARK  2 active torsions:
REMARK  status: ('A' for Active; 'I' for Inactive)
REMARK    1  A    between atoms: C3_3  and  C4_4 
REMARK    2  A    between atoms: C4_4  and  N5_5 
ROOT
ATOM      1  N5  ZIN A   1      19.549   2.076  10.732  0.00  0.00    -0.342 N 
ATOM      2  C6  ZIN A   1      18.789   2.264   9.503  0.00  0.00     0.132 C 
ATOM      3  C7  ZIN A   1      19.164   1.255   8.418  0.00  0.00     0.078 C 
ATOM      4  C8  ZIN A   1      19.209  -0.123   9.028  0.00  0.00     0.029 A 
ATOM      5  C9  ZIN A   1      19.538  -0.300  10.355  0.00  0.00     0.067 A 
ATOM      6  C10 ZIN A   1      19.486  -1.724  10.616  0.00  0.00     0.008 A 
ATOM      7  C11 ZIN A   1      19.717  -2.495  11.755  0.00  0.00     0.015 A 
ATOM      8  C12 ZIN A   1      19.569  -3.865  11.624  0.00  0.00     0.001 A 
ATOM      9  C13 ZIN A   1      19.210  -4.451  10.423  0.00  0.00     0.002 A 
ATOM     10  C14 ZIN A   1      18.978  -3.706   9.280  0.00  0.00     0.030 A 
ATOM     11  C15 ZIN A   1      19.119  -2.324   9.384  0.00  0.00     0.045 A 
ATOM     12  N16 ZIN A   1      18.965  -1.323   8.460  0.00  0.00    -0.353 N 
ATOM     13  C17 ZIN A   1      18.588  -1.526   7.059  0.00  0.00     0.156 C 
ATOM     14  C18 ZIN A   1      19.862   0.849  11.210  0.00  0.00     0.257 C 
ATOM     15  O19 ZIN A   1      20.379   0.705  12.302  0.00  0.00    -0.267 OA
ENDROOT
BRANCH   1  16
ATOM     16  C4  ZIN A   1      19.996   3.258  11.474  0.00  0.00     0.185 C 
BRANCH  16  17
ATOM     17  C3  ZIN A   1      19.052   3.521  12.617  0.00  0.00     0.052 A 
ATOM     18  C2  ZIN A   1      17.915   4.240  12.571  0.00  0.00     0.056 A 
ATOM     19  C1  ZIN A   1      17.354   4.933  11.355  0.00  0.00     0.072 C 
ATOM     20  N22 ZIN A   1      17.372   4.238  13.798  0.00  0.00    -0.247 NA
ATOM     21  C21 ZIN A   1      18.125   3.536  14.600  0.00  0.00     0.207 A 
ATOM     22  N20 ZIN A   1      19.186   3.074  13.905  0.00  0.00    -0.351 N 
ATOM     23  H39 ZIN A   1      19.908   2.528  14.253  0.00  0.00     0.166 HD
ENDBRANCH  16  17
ENDBRANCH   1  16
TORSDOF 2
ENDMDL
MODEL 5
REMARK VINA RESULT:      -7.6      2.772      4.173
REMARK  2 active torsions:
REMARK  status: ('A' for Active; 'I' for Inactive)
REMARK    1  A    between atoms: C3_3  and  C4_4 
REMARK    2  A    between atoms: C4_4  and  N5_5 
ROOT
ATOM      1  N5  ZIN A   1      18.031  -1.592  10.977  0.00  0.00    -0.342 N 
ATOM      2  C6  ZIN A   1      18.981  -2.697  10.981  0.00  0.00     0.132 C 
ATOM      3  C7  ZIN A   1      18.876  -3.569   9.730  0.00  0.00     0.078 C 
ATOM      4  C8  ZIN A   1      18.821  -2.676   8.516  0.00  0.00     0.029 A 
ATOM      5  C9  ZIN A   1      18.278  -1.412   8.590  0.00  0.00     0.067 A 
ATOM      6  C10 ZIN A   1      18.383  -0.829   7.269  0.00  0.00     0.008 A 
ATOM      7  C11 ZIN A   1      18.011   0.405   6.736  0.00  0.00     0.015 A 
ATOM      8  C12 ZIN A   1      18.276   0.614   5.394  0.00  0.00     0.001 A 
ATOM      9  C13 ZIN A   1      18.882  -0.351   4.609  0.00  0.00     0.002 A 
ATOM     10  C14 ZIN A   1      19.259  -1.582   5.115  0.00  0.00     0.030 A 
ATOM     11  C15 ZIN A   1      19.004  -1.820   6.463  0.00  0.00     0.045 A 
ATOM     12  N16 ZIN A   1      19.247  -2.911   7.257  0.00  0.00    -0.353 N 
ATOM     13  C17 ZIN A   1      19.879  -4.153   6.803  0.00  0.00     0.156 C 
ATOM     14  C18 ZIN A   1      17.727  -0.902   9.853  0.00  0.00     0.257 C 
ATOM     15  O19 ZIN A   1      17.036   0.099   9.888  0.00  0.00    -0.267 OA
ENDROOT
BRANCH   1  16
ATOM     16  C4  ZIN A   1      17.377  -1.218  12.233  0.00  0.00     0.185 C 
BRANCH  16  17
ATOM     17  C3  ZIN A   1      18.151  -0.105  12.891  0.00  0.00     0.052 A 
ATOM     18  C2  ZIN A   1      19.078  -0.234  13.859  0.00  0.00     0.056 A 
ATOM     19  C1  ZIN A   1      19.530  -1.529  14.484  0.00  0.00     0.072 C 
ATOM     20  N22 ZIN A   1      19.523   0.991  14.174  0.00  0.00    -0.247 NA
ATOM     21  C21 ZIN A   1      18.913   1.874  13.431  0.00  0.00     0.207 A 
ATOM     22  N20 ZIN A   1      18.046   1.233  12.618  0.00  0.00    -0.351 N 
ATOM     23  H39 ZIN A   1      17.459   1.643  11.965  0.00  0.00     0.166 HD
ENDBRANCH  16  17
ENDBRANCH   1  16
TORSDOF 2
ENDMDL
MODEL 6
REMARK VINA RESULT:      -7.6      2.553      6.512
REMARK  2 active torsions:
REMARK  status: ('A' for Active; 'I' for Inactive)
REMARK    1  A    between atoms: C3_3  and  C4_4 
REMARK    2  A    between atoms: C4_4  and  N5_5 
ROOT
ATOM      1  N5  ZIN A   1      19.563   0.386  10.599  0.00  0.00    -0.342 N 
ATOM      2  C6  ZIN A   1      19.592  -0.314  11.876  0.00  0.00     0.132 C 
ATOM      3  C7  ZIN A   1      19.933   0.609  13.046  0.00  0.00     0.078 C 
ATOM      4  C8  ZIN A   1      19.105   1.864  12.936  0.00  0.00     0.029 A 
ATOM      5  C9  ZIN A   1      18.698   2.338  11.707  0.00  0.00     0.067 A 
ATOM      6  C10 ZIN A   1      17.929   3.540  11.954  0.00  0.00     0.008 A 
ATOM      7  C11 ZIN A   1      17.272   4.442  11.117  0.00  0.00     0.015 A 
ATOM      8  C12 ZIN A   1      16.623   5.503  11.725  0.00  0.00     0.001 A 
ATOM      9  C13 ZIN A   1      16.621   5.670  13.099  0.00  0.00     0.002 A 
ATOM     10  C14 ZIN A   1      17.267   4.788  13.948  0.00  0.00     0.030 A 
ATOM     11  C15 ZIN A   1      17.927   3.711  13.363  0.00  0.00     0.045 A 
ATOM     12  N16 ZIN A   1      18.647   2.680  13.909  0.00  0.00    -0.353 N 
ATOM     13  C17 ZIN A   1      18.885   2.491  15.342  0.00  0.00     0.156 C 
ATOM     14  C18 ZIN A   1      19.068   1.639  10.471  0.00  0.00     0.257 C 
ATOM     15  O19 ZIN A   1      18.929   2.159   9.379  0.00  0.00    -0.267 OA
ENDROOT
BRANCH   1  16
ATOM     16  C4  ZIN A   1      20.095  -0.288   9.412  0.00  0.00     0.185 C 
BRANCH  16  17
ATOM     17  C3  ZIN A   1      19.312  -1.549   9.157  0.00  0.00     0.052 A 
ATOM     18  C2  ZIN A   1      18.135  -1.647   8.510  0.00  0.00     0.056 A 
ATOM     19  C1  ZIN A   1      17.359  -0.504   7.907  0.00  0.00     0.072 C 
ATOM     20  N22 ZIN A   1      17.772  -2.938   8.502  0.00  0.00    -0.247 NA
ATOM     21  C21 ZIN A   1      18.684  -3.646   9.112  0.00  0.00     0.207 A 
ATOM     22  N20 ZIN A   1      19.661  -2.817   9.539  0.00  0.00    -0.351 N 
ATOM     23  H39 ZIN A   1      20.460  -3.073  10.026  0.00  0.00     0.166 HD
ENDBRANCH  16  17
ENDBRANCH   1  16
TORSDOF 2
ENDMDL
MODEL 7
REMARK VINA RESULT:      -7.4      2.933      5.172
REMARK  2 active torsions:
REMARK  status: ('A' for Active; 'I' for Inactive)
REMARK    1  A    between atoms: C3_3  and  C4_4 
REMARK    2  A    between atoms: C4_4  and  N5_5 
ROOT
ATOM      1  N5  ZIN A   1      19.772  -0.302  11.388  0.00  0.00    -0.342 N 
ATOM      2  C6  ZIN A   1      19.487   0.243  10.067  0.00  0.00     0.132 C 
ATOM      3  C7  ZIN A   1      19.719  -0.774   8.949  0.00  0.00     0.078 C 
ATOM      4  C8  ZIN A   1      19.079  -2.082   9.337  0.00  0.00     0.029 A 
ATOM      5  C9  ZIN A   1      18.959  -2.446  10.661  0.00  0.00     0.067 A 
ATOM      6  C10 ZIN A   1      18.305  -3.739  10.685  0.00  0.00     0.008 A 
ATOM      7  C11 ZIN A   1      17.921  -4.596  11.716  0.00  0.00     0.015 A 
ATOM      8  C12 ZIN A   1      17.305  -5.780  11.350  0.00  0.00     0.001 A 
ATOM      9  C13 ZIN A   1      17.075  -6.106  10.024  0.00  0.00     0.002 A 
ATOM     10  C14 ZIN A   1      17.448  -5.271   8.985  0.00  0.00     0.030 A 
ATOM     11  C15 ZIN A   1      18.071  -4.073   9.325  0.00  0.00     0.045 A 
ATOM     12  N16 ZIN A   1      18.553  -3.047   8.554  0.00  0.00    -0.353 N 
ATOM     13  C17 ZIN A   1      18.506  -3.006   7.090  0.00  0.00     0.156 C 
ATOM     14  C18 ZIN A   1      19.460  -1.574  11.730  0.00  0.00     0.257 C 
ATOM     15  O19 ZIN A   1      19.582  -1.973  12.874  0.00  0.00    -0.267 OA
ENDROOT
BRANCH   1  16
ATOM     16  C4  ZIN A   1      20.425   0.556  12.380  0.00  0.00     0.185 C 
BRANCH  16  17
ATOM     17  C3  ZIN A   1      19.637   1.830  12.539  0.00  0.00     0.052 A 
ATOM     18  C2  ZIN A   1      18.469   1.975  13.193  0.00  0.00     0.056 A 
ATOM     19  C1  ZIN A   1      17.709   0.883  13.902  0.00  0.00     0.072 C 
ATOM     20  N22 ZIN A   1      18.097   3.261  13.098  0.00  0.00    -0.247 NA
ATOM     21  C21 ZIN A   1      18.996   3.919  12.417  0.00  0.00     0.207 A 
ATOM     22  N20 ZIN A   1      19.972   3.063  12.047  0.00  0.00    -0.351 N 
ATOM     23  H39 ZIN A   1      20.762   3.281  11.528  0.00  0.00     0.166 HD
ENDBRANCH  16  17
ENDBRANCH   1  16
TORSDOF 2
ENDMDL
MODEL 8
REMARK VINA RESULT:      -7.3      5.853      8.310
REMARK  2 active torsions:
REMARK  status: ('A' for Active; 'I' for Inactive)
REMARK    1  A    between atoms: C3_3  and  C4_4 
REMARK    2  A    between atoms: C4_4  and  N5_5 
ROOT
ATOM      1  N5  ZIN A   1      18.900  -4.120   7.851  0.00  0.00    -0.342 N 
ATOM      2  C6  ZIN A   1      19.542  -4.022   6.546  0.00  0.00     0.132 C 
ATOM      3  C7  ZIN A   1      19.001  -2.861   5.710  0.00  0.00     0.078 C 
ATOM      4  C8  ZIN A   1      18.938  -1.626   6.572  0.00  0.00     0.029 A 
ATOM      5  C9  ZIN A   1      18.736  -1.721   7.932  0.00  0.00     0.067 A 
ATOM      6  C10 ZIN A   1      18.730  -0.370   8.453  0.00  0.00     0.008 A 
ATOM      7  C11 ZIN A   1      18.572   0.160   9.734  0.00  0.00     0.015 A 
ATOM      8  C12 ZIN A   1      18.626   1.538   9.853  0.00  0.00     0.001 A 
ATOM      9  C13 ZIN A   1      18.828   2.360   8.758  0.00  0.00     0.002 A 
ATOM     10  C14 ZIN A   1      18.986   1.856   7.479  0.00  0.00     0.030 A 
ATOM     11  C15 ZIN A   1      18.936   0.473   7.330  0.00  0.00     0.045 A 
ATOM     12  N16 ZIN A   1      19.054  -0.328   6.223  0.00  0.00    -0.353 N 
ATOM     13  C17 ZIN A   1      19.276   0.157   4.858  0.00  0.00     0.156 C 
ATOM     14  C18 ZIN A   1      18.567  -3.029   8.578  0.00  0.00     0.257 C 
ATOM     15  O19 ZIN A   1      18.154  -3.127   9.719  0.00  0.00    -0.267 OA
ENDROOT
BRANCH   1  16
ATOM     16  C4  ZIN A   1      18.599  -5.448   8.391  0.00  0.00     0.185 C 
BRANCH  16  17
ATOM     17  C3  ZIN A   1      17.144  -5.765   8.163  0.00  0.00     0.052 A 
ATOM     18  C2  ZIN A   1      16.621  -6.429   7.114  0.00  0.00     0.056 A 
ATOM     19  C1  ZIN A   1      17.393  -6.992   5.949  0.00  0.00     0.072 C 
ATOM     20  N22 ZIN A   1      15.292  -6.496   7.286  0.00  0.00    -0.247 NA
ATOM     21  C21 ZIN A   1      14.973  -5.906   8.406  0.00  0.00     0.207 A 
ATOM     22  N20 ZIN A   1      16.099  -5.433   8.983  0.00  0.00    -0.351 N 
ATOM     23  H39 ZIN A   1      16.156  -4.948   9.821  0.00  0.00     0.166 HD
ENDBRANCH  16  17
ENDBRANCH   1  16
TORSDOF 2
ENDMDL
MODEL 9
REMARK VINA RESULT:      -7.3      2.183      3.442
REMARK  2 active torsions:
REMARK  status: ('A' for Active; 'I' for Inactive)
REMARK    1  A    between atoms: C3_3  and  C4_4 
REMARK    2  A    between atoms: C4_4  and  N5_5 
ROOT
ATOM      1  N5  ZIN A   1      18.920   2.207  14.463  0.00  0.00    -0.342 N 
ATOM      2  C6  ZIN A   1      17.931   3.269  14.325  0.00  0.00     0.132 C 
ATOM      3  C7  ZIN A   1      18.207   4.178  13.128  0.00  0.00     0.078 C 
ATOM      4  C8  ZIN A   1      18.512   3.323  11.924  0.00  0.00     0.029 A 
ATOM      5  C9  ZIN A   1      19.096   2.082  12.067  0.00  0.00     0.067 A 
ATOM      6  C10 ZIN A   1      19.247   1.533  10.736  0.00  0.00     0.008 A 
ATOM      7  C11 ZIN A   1      19.764   0.331  10.251  0.00  0.00     0.015 A 
ATOM      8  C12 ZIN A   1      19.744   0.148   8.879  0.00  0.00     0.001 A 
ATOM      9  C13 ZIN A   1      19.236   1.106   8.020  0.00  0.00     0.002 A 
ATOM     10  C14 ZIN A   1      18.719   2.305   8.479  0.00  0.00     0.030 A 
ATOM     11  C15 ZIN A   1      18.727   2.516   9.855  0.00  0.00     0.045 A 
ATOM     12  N16 ZIN A   1      18.298   3.573  10.616  0.00  0.00    -0.353 N 
ATOM     13  C17 ZIN A   1      17.694   4.798  10.084  0.00  0.00     0.156 C 
ATOM     14  C18 ZIN A   1      19.446   1.563  13.395  0.00  0.00     0.257 C 
ATOM     15  O19 ZIN A   1      20.168   0.593  13.530  0.00  0.00    -0.267 OA
ENDROOT
BRANCH   1  16
ATOM     16  C4  ZIN A   1      19.366   1.828  15.806  0.00  0.00     0.185 C 
BRANCH  16  17
ATOM     17  C3  ZIN A   1      18.498   0.713  16.328  0.00  0.00     0.052 A 
ATOM     18  C2  ZIN A   1      17.822   0.699  17.492  0.00  0.00     0.056 A 
ATOM     19  C1  ZIN A   1      17.798   1.805  18.515  0.00  0.00     0.072 C 
ATOM     20  N22 ZIN A   1      17.178  -0.474  17.584  0.00  0.00    -0.247 NA
ATOM     21  C21 ZIN A   1      17.423  -1.185  16.517  0.00  0.00     0.207 A 
ATOM     22  N20 ZIN A   1      18.245  -0.482  15.708  0.00  0.00    -0.351 N 
ATOM     23  H39 ZIN A   1      18.592  -0.771  14.850  0.00  0.00     0.166 HD
ENDBRANCH  16  17
ENDBRANCH   1  16
TORSDOF 2
ENDMDL
