MODEL 1
REMARK VINA RESULT:      -7.9      0.000      0.000
REMARK  6 active torsions:
REMARK  status: ('A' for Active; 'I' for Inactive)
REMARK    1  A    between atoms: C3_3  and  C4_4 
REMARK    2  A    between atoms: C4_4  and  C19_18 
REMARK    3  A    between atoms: C5_5  and  C6_6 
REMARK    4  A    between atoms: C6_6  and  C7_7 
REMARK    5  A    between atoms: C7_7  and  N8_8 
REMARK    6  A    between atoms: C13_13  and  C15_14 
ROOT
ATOM      1  C4  ZIN A   1      17.903  -0.374  10.482  0.00  0.00    -0.005 C 
ATOM      2  C5  ZIN A   1      17.106   0.283  11.341  0.00  0.00    -0.011 C 
ENDROOT
BRANCH   1   3
ATOM      3  C3  ZIN A   1      18.477  -1.682  10.859  0.00  0.00     0.022 A 
ATOM      4  C2  ZIN A   1      19.771  -1.907  11.162  0.00  0.00    -0.044 A 
ATOM      5  C1  ZIN A   1      20.810  -0.815  11.150  0.00  0.00     0.049 C 
ATOM      6  C27 ZIN A   1      20.071  -3.215  11.478  0.00  0.00     0.015 A 
ATOM      7  C26 ZIN A   1      19.033  -4.057  11.447  0.00  0.00     0.051 A 
ATOM      8  S25 ZIN A   1      17.576  -3.187  10.983  0.00  0.00    -0.101 SA
ENDBRANCH   1   3
BRANCH   1   9
ATOM      9  C19 ZIN A   1      18.205   0.213   9.159  0.00  0.00     0.022 A 
ATOM     10  S24 ZIN A   1      17.850  -0.539   7.609  0.00  0.00    -0.101 SA
ATOM     11  C23 ZIN A   1      18.533   0.835   6.750  0.00  0.00     0.051 A 
ATOM     12  C22 ZIN A   1      18.979   1.740   7.627  0.00  0.00     0.015 A 
ATOM     13  C20 ZIN A   1      18.801   1.405   8.953  0.00  0.00    -0.044 A 
ATOM     14  C21 ZIN A   1      19.241   2.300  10.084  0.00  0.00     0.049 C 
ENDBRANCH   1   9
BRANCH   2  15
ATOM     15  C6  ZIN A   1      16.890  -0.256  12.732  0.00  0.00     0.056 C 
BRANCH  15  16
ATOM     16  C7  ZIN A   1      17.571   0.664  13.747  0.00  0.00     0.238 C 
BRANCH  16  17
ATOM     17  N8  ZIN A   1      18.925   0.167  14.027  0.00  0.00    -0.070 N 
ATOM     18  H9  ZIN A   1      19.460   0.152  13.172  0.00  0.00     0.279 HD
ATOM     19  C18 ZIN A   1      19.580   1.055  14.995  0.00  0.00     0.250 C 
ATOM     20  C13 ZIN A   1      18.732   1.146  16.264  0.00  0.00     0.112 C 
ATOM     21  C12 ZIN A   1      18.582  -0.250  16.873  0.00  0.00     0.019 C 
ATOM     22  C11 ZIN A   1      17.966  -1.187  15.830  0.00  0.00     0.029 C 
ATOM     23  C10 ZIN A   1      18.843  -1.192  14.575  0.00  0.00     0.235 C 
BRANCH  20  24
ATOM     24  C15 ZIN A   1      19.407   2.058  17.257  0.00  0.00     0.178 C 
ATOM     25  O16 ZIN A   1      19.728   3.188  16.926  0.00  0.00    -0.648 OA
ATOM     26  O17 ZIN A   1      19.630   1.669  18.390  0.00  0.00    -0.648 OA
ENDBRANCH  20  24
ENDBRANCH  16  17
ENDBRANCH  15  16
ENDBRANCH   2  15
TORSDOF 6
ENDMDL
MODEL 2
REMARK VINA RESULT:      -7.8      4.423      7.654
REMARK  6 active torsions:
REMARK  status: ('A' for Active; 'I' for Inactive)
REMARK    1  A    between atoms: C3_3  and  C4_4 
REMARK    2  A    between atoms: C4_4  and  C19_18 
REMARK    3  A    between atoms: C5_5  and  C6_6 
REMARK    4  A    between atoms: C6_6  and  C7_7 
REMARK    5  A    between atoms: C7_7  and  N8_8 
REMARK    6  A    between atoms: C13_13  and  C15_14 
ROOT
ATOM      1  C4  ZIN A   1      17.857   0.517  12.462  0.00  0.00    -0.005 C 
ATOM      2  C5  ZIN A   1      17.137  -0.088  11.502  0.00  0.00    -0.011 C 
ENDROOT
BRANCH   1   3
ATOM      3  C3  ZIN A   1      18.479   1.831  12.202  0.00  0.00     0.022 A 
ATOM      4  C2  ZIN A   1      19.789   2.041  11.965  0.00  0.00    -0.044 A 
ATOM      5  C1  ZIN A   1      20.799   0.921  11.938  0.00  0.00     0.049 C 
ATOM      6  C27 ZIN A   1      20.134   3.359  11.755  0.00  0.00     0.015 A 
ATOM      7  C26 ZIN A   1      19.118   4.226  11.807  0.00  0.00     0.051 A 
ATOM      8  S25 ZIN A   1      17.622   3.366  12.153  0.00  0.00    -0.101 SA
ENDBRANCH   1   3
BRANCH   1   9
ATOM      9  C19 ZIN A   1      18.026  -0.134  13.778  0.00  0.00     0.022 A 
ATOM     10  S24 ZIN A   1      17.509   0.540  15.319  0.00  0.00    -0.101 SA
ATOM     11  C23 ZIN A   1      18.110  -0.874  16.175  0.00  0.00     0.051 A 
ATOM     12  C22 ZIN A   1      18.649  -1.734  15.305  0.00  0.00     0.015 A 
ATOM     13  C20 ZIN A   1      18.606  -1.334  13.986  0.00  0.00    -0.044 A 
ATOM     14  C21 ZIN A   1      19.165  -2.171  12.864  0.00  0.00     0.049 C 
ENDBRANCH   1   9
BRANCH   2  15
ATOM     15  C6  ZIN A   1      17.060   0.517  10.124  0.00  0.00     0.056 C 
BRANCH  15  16
ATOM     16  C7  ZIN A   1      17.614  -0.474   9.100  0.00  0.00     0.238 C 
BRANCH  16  17
ATOM     17  N8  ZIN A   1      19.065  -0.282   8.969  0.00  0.00    -0.070 N 
ATOM     18  H9  ZIN A   1      19.509  -0.461   9.857  0.00  0.00     0.279 HD
ATOM     19  C18 ZIN A   1      19.592  -1.216   7.965  0.00  0.00     0.250 C 
ATOM     20  C13 ZIN A   1      18.867  -1.005   6.636  0.00  0.00     0.112 C 
ATOM     21  C12 ZIN A   1      19.089   0.433   6.161  0.00  0.00     0.019 C 
ATOM     22  C11 ZIN A   1      18.604   1.399   7.247  0.00  0.00     0.029 C 
ATOM     23  C10 ZIN A   1      19.340   1.098   8.555  0.00  0.00     0.235 C 
BRANCH  20  24
ATOM     24  C15 ZIN A   1      19.409  -1.964   5.607  0.00  0.00     0.178 C 
ATOM     25  O16 ZIN A   1      19.615  -3.128   5.909  0.00  0.00    -0.648 OA
ATOM     26  O17 ZIN A   1      19.642  -1.578   4.475  0.00  0.00    -0.648 OA
ENDBRANCH  20  24
ENDBRANCH  16  17
ENDBRANCH  15  16
ENDBRANCH   2  15
TORSDOF 6
ENDMDL
MODEL 3
REMARK VINA RESULT:      -7.7      1.248      3.508
REMARK  6 active torsions:
REMARK  status: ('A' for Active; 'I' for Inactive)
REMARK    1  A    between atoms: C3_3  and  C4_4 
REMARK    2  A    between atoms: C4_4  and  C19_18 
REMARK    3  A    between atoms: C5_5  and  C6_6 
REMARK    4  A    between atoms: C6_6  and  C7_7 
REMARK    5  A    between atoms: C7_7  and  N8_8 
REMARK    6  A    between atoms: C13_13  and  C15_14 
ROOT
ATOM      1  C4  ZIN A   1      18.115  -2.022  10.502  0.00  0.00    -0.005 C 
ATOM      2  C5  ZIN A   1      17.556  -1.825  11.708  0.00  0.00    -0.011 C 
ENDROOT
BRANCH   1   3
ATOM      3  C3  ZIN A   1      18.446  -0.866   9.643  0.00  0.00     0.022 A 
ATOM      4  C2  ZIN A   1      19.581  -0.142   9.713  0.00  0.00    -0.044 A 
ATOM      5  C1  ZIN A   1      20.675  -0.441  10.707  0.00  0.00     0.049 C 
ATOM      6  C27 ZIN A   1      19.662   0.895   8.809  0.00  0.00     0.015 A 
ATOM      7  C26 ZIN A   1      18.609   1.019   7.995  0.00  0.00     0.051 A 
ATOM      8  S25 ZIN A   1      17.419  -0.221   8.370  0.00  0.00    -0.101 SA
ENDBRANCH   1   3
BRANCH   1   9
ATOM      9  C19 ZIN A   1      18.401  -3.395  10.035  0.00  0.00     0.022 A 
ATOM     10  S24 ZIN A   1      17.524  -4.241   8.767  0.00  0.00    -0.101 SA
ATOM     11  C23 ZIN A   1      18.547  -5.658   8.960  0.00  0.00     0.051 A 
ATOM     12  C22 ZIN A   1      19.445  -5.438   9.924  0.00  0.00     0.015 A 
ATOM     13  C20 ZIN A   1      19.372  -4.196  10.520  0.00  0.00    -0.044 A 
ATOM     14  C21 ZIN A   1      20.301  -3.769  11.627  0.00  0.00     0.049 C 
ENDBRANCH   1   9
BRANCH   2  15
ATOM     15  C6  ZIN A   1      17.157  -0.437  12.136  0.00  0.00     0.056 C 
BRANCH  15  16
ATOM     16  C7  ZIN A   1      17.495  -0.242  13.615  0.00  0.00     0.238 C 
BRANCH  16  17
ATOM     17  N8  ZIN A   1      18.951  -0.322  13.800  0.00  0.00    -0.070 N 
ATOM     18  H9  ZIN A   1      19.396  -0.442  12.903  0.00  0.00     0.279 HD
ATOM     19  C18 ZIN A   1      19.432   0.918  14.421  0.00  0.00     0.250 C 
ATOM     20  C13 ZIN A   1      18.702   1.149  15.744  0.00  0.00     0.112 C 
ATOM     21  C12 ZIN A   1      18.972  -0.030  16.682  0.00  0.00     0.019 C 
ATOM     22  C11 ZIN A   1      18.534  -1.327  15.995  0.00  0.00     0.029 C 
ATOM     23  C10 ZIN A   1      19.272  -1.466  14.661  0.00  0.00     0.235 C 
BRANCH  20  24
ATOM     24  C15 ZIN A   1      19.198   2.422  16.379  0.00  0.00     0.178 C 
ATOM     25  O16 ZIN A   1      19.154   3.471  15.757  0.00  0.00    -0.648 OA
ATOM     26  O17 ZIN A   1      19.643   2.405  17.513  0.00  0.00    -0.648 OA
ENDBRANCH  20  24
ENDBRANCH  16  17
ENDBRANCH  15  16
ENDBRANCH   2  15
TORSDOF 6
ENDMDL
MODEL 4
REMARK VINA RESULT:      -7.4      4.482      6.863
REMARK  6 active torsions:
REMARK  status: ('A' for Active; 'I' for Inactive)
REMARK    1  A    between atoms: C3_3  and  C4_4 
REMARK    2  A    between atoms: C4_4  and  C19_18 
REMARK    3  A    between atoms: C5_5  and  C6_6 
REMARK    4  A    between atoms: C6_6  and  C7_7 
REMARK    5  A    between atoms: C7_7  and  N8_8 
REMARK    6  A    between atoms: C13_13  and  C15_14 
ROOT
ATOM      1  C4  ZIN A   1      18.241   2.071  12.614  0.00  0.00    -0.005 C 
ATOM      2  C5  ZIN A   1      17.698   1.963  11.389  0.00  0.00    -0.011 C 
ENDROOT
BRANCH   1   3
ATOM      3  C3  ZIN A   1      18.525   0.857  13.406  0.00  0.00     0.022 A 
ATOM      4  C2  ZIN A   1      19.635   0.098  13.298  0.00  0.00    -0.044 A 
ATOM      5  C1  ZIN A   1      20.744   0.415  12.327  0.00  0.00     0.049 C 
ATOM      6  C27 ZIN A   1      19.673  -0.991  14.142  0.00  0.00     0.015 A 
ATOM      7  C26 ZIN A   1      18.612  -1.124  14.943  0.00  0.00     0.051 A 
ATOM      8  S25 ZIN A   1      17.469   0.177  14.637  0.00  0.00    -0.101 SA
ENDBRANCH   1   3
BRANCH   1   9
ATOM      9  C19 ZIN A   1      18.554   3.405  13.168  0.00  0.00     0.022 A 
ATOM     10  S24 ZIN A   1      17.658   4.209  14.450  0.00  0.00    -0.101 SA
ATOM     11  C23 ZIN A   1      18.734   5.598  14.375  0.00  0.00     0.051 A 
ATOM     12  C22 ZIN A   1      19.660   5.401  13.432  0.00  0.00     0.015 A 
ATOM     13  C20 ZIN A   1      19.567   4.198  12.764  0.00  0.00    -0.044 A 
ATOM     14  C21 ZIN A   1      20.524   3.801  11.669  0.00  0.00     0.049 C 
ENDBRANCH   1   9
BRANCH   2  15
ATOM     15  C6  ZIN A   1      17.271   0.614  10.871  0.00  0.00     0.056 C 
BRANCH  15  16
ATOM     16  C7  ZIN A   1      17.593   0.516   9.379  0.00  0.00     0.238 C 
BRANCH  16  17
ATOM     17  N8  ZIN A   1      19.050   0.560   9.188  0.00  0.00    -0.070 N 
ATOM     18  H9  ZIN A   1      19.491   0.852  10.047  0.00  0.00     0.279 HD
ATOM     19  C18 ZIN A   1      19.535  -0.776   8.822  0.00  0.00     0.250 C 
ATOM     20  C13 ZIN A   1      18.810  -1.260   7.565  0.00  0.00     0.112 C 
ATOM     21  C12 ZIN A   1      19.085  -0.285   6.417  0.00  0.00     0.019 C 
ATOM     22  C11 ZIN A   1      18.642   1.120   6.838  0.00  0.00     0.029 C 
ATOM     23  C10 ZIN A   1      19.374   1.516   8.123  0.00  0.00     0.235 C 
BRANCH  20  24
ATOM     24  C15 ZIN A   1      19.311  -2.631   7.191  0.00  0.00     0.178 C 
ATOM     25  O16 ZIN A   1      19.888  -2.801   6.130  0.00  0.00    -0.648 OA
ATOM     26  O17 ZIN A   1      19.140  -3.571   7.948  0.00  0.00    -0.648 OA
ENDBRANCH  20  24
ENDBRANCH  16  17
ENDBRANCH  15  16
ENDBRANCH   2  15
TORSDOF 6
ENDMDL
MODEL 5
REMARK VINA RESULT:      -7.3      3.127      3.802
REMARK  6 active torsions:
REMARK  status: ('A' for Active; 'I' for Inactive)
REMARK    1  A    between atoms: C3_3  and  C4_4 
REMARK    2  A    between atoms: C4_4  and  C19_18 
REMARK    3  A    between atoms: C5_5  and  C6_6 
REMARK    4  A    between atoms: C6_6  and  C7_7 
REMARK    5  A    between atoms: C7_7  and  N8_8 
REMARK    6  A    between atoms: C13_13  and  C15_14 
ROOT
ATOM      1  C4  ZIN A   1      18.071  -0.947   9.034  0.00  0.00    -0.005 C 
ATOM      2  C5  ZIN A   1      17.262   0.062   9.397  0.00  0.00    -0.011 C 
ENDROOT
BRANCH   1   3
ATOM      3  C3  ZIN A   1      18.523  -1.930  10.040  0.00  0.00     0.022 A 
ATOM      4  C2  ZIN A   1      19.660  -1.843  10.760  0.00  0.00    -0.044 A 
ATOM      5  C1  ZIN A   1      20.627  -0.696  10.614  0.00  0.00     0.049 C 
ATOM      6  C27 ZIN A   1      19.871  -2.887  11.635  0.00  0.00     0.015 A 
ATOM      7  C26 ZIN A   1      18.913  -3.820  11.645  0.00  0.00     0.051 A 
ATOM      8  S25 ZIN A   1      17.660  -3.396  10.485  0.00  0.00    -0.101 SA
ENDBRANCH   1   3
BRANCH   1   9
ATOM      9  C19 ZIN A   1      18.508  -1.074   7.628  0.00  0.00     0.022 A 
ATOM     10  S24 ZIN A   1      18.576  -2.577   6.716  0.00  0.00    -0.101 SA
ATOM     11  C23 ZIN A   1      19.163  -1.725   5.294  0.00  0.00     0.051 A 
ATOM     12  C22 ZIN A   1      19.281  -0.422   5.565  0.00  0.00     0.015 A 
ATOM     13  C20 ZIN A   1      18.922  -0.056   6.846  0.00  0.00    -0.044 A 
ATOM     14  C21 ZIN A   1      18.989   1.369   7.334  0.00  0.00     0.049 C 
ENDBRANCH   1   9
BRANCH   2  15
ATOM     15  C6  ZIN A   1      16.909   0.261  10.849  0.00  0.00     0.056 C 
BRANCH  15  16
ATOM     16  C7  ZIN A   1      17.808   1.344  11.449  0.00  0.00     0.238 C 
BRANCH  16  17
ATOM     17  N8  ZIN A   1      17.914   2.468  10.508  0.00  0.00    -0.070 N 
ATOM     18  H9  ZIN A   1      17.495   2.209   9.628  0.00  0.00     0.279 HD
ATOM     19  C18 ZIN A   1      17.209   3.632  11.059  0.00  0.00     0.250 C 
ATOM     20  C13 ZIN A   1      17.785   3.981  12.432  0.00  0.00     0.112 C 
ATOM     21  C12 ZIN A   1      19.274   4.307  12.286  0.00  0.00     0.019 C 
ATOM     22  C11 ZIN A   1      19.987   3.114  11.644  0.00  0.00     0.029 C 
ATOM     23  C10 ZIN A   1      19.328   2.797  10.299  0.00  0.00     0.235 C 
BRANCH  20  24
ATOM     24  C15 ZIN A   1      17.061   5.177  12.994  0.00  0.00     0.178 C 
ATOM     25  O16 ZIN A   1      15.935   5.444  12.608  0.00  0.00    -0.648 OA
ATOM     26  O17 ZIN A   1      17.598   5.876  13.836  0.00  0.00    -0.648 OA
ENDBRANCH  20  24
ENDBRANCH  16  17
ENDBRANCH  15  16
ENDBRANCH   2  15
TORSDOF 6
ENDMDL
MODEL 6
REMARK VINA RESULT:      -7.2      1.674      3.225
REMARK  6 active torsions:
REMARK  status: ('A' for Active; 'I' for Inactive)
REMARK    1  A    between atoms: C3_3  and  C4_4 
REMARK    2  A    between atoms: C4_4  and  C19_18 
REMARK    3  A    between atoms: C5_5  and  C6_6 
REMARK    4  A    between atoms: C6_6  and  C7_7 
REMARK    5  A    between atoms: C7_7  and  N8_8 
REMARK    6  A    between atoms: C13_13  and  C15_14 
ROOT
ATOM      1  C4  ZIN A   1      17.989  -0.116  11.246  0.00  0.00    -0.005 C 
ATOM      2  C5  ZIN A   1      17.295  -0.534  12.319  0.00  0.00    -0.011 C 
ENDROOT
BRANCH   1   3
ATOM      3  C3  ZIN A   1      18.535   1.256  11.208  0.00  0.00     0.022 A 
ATOM      4  C2  ZIN A   1      19.781   1.610  11.584  0.00  0.00    -0.044 A 
ATOM      5  C1  ZIN A   1      20.787   0.613  12.101  0.00  0.00     0.049 C 
ATOM      6  C27 ZIN A   1      20.061   2.954  11.463  0.00  0.00     0.015 A 
ATOM      7  C26 ZIN A   1      19.060   3.700  10.983  0.00  0.00     0.051 A 
ATOM      8  S25 ZIN A   1      17.661   2.682  10.664  0.00  0.00    -0.101 SA
ENDBRANCH   1   3
BRANCH   1   9
ATOM      9  C19 ZIN A   1      18.206  -1.030  10.105  0.00  0.00     0.022 A 
ATOM     10  S24 ZIN A   1      17.649  -0.752   8.460  0.00  0.00    -0.101 SA
ATOM     11  C23 ZIN A   1      18.352  -2.275   7.931  0.00  0.00     0.051 A 
ATOM     12  C22 ZIN A   1      18.932  -2.888   8.966  0.00  0.00     0.015 A 
ATOM     13  C20 ZIN A   1      18.857  -2.210  10.165  0.00  0.00    -0.044 A 
ATOM     14  C21 ZIN A   1      19.453  -2.746  11.441  0.00  0.00     0.049 C 
ENDBRANCH   1   9
BRANCH   2  15
ATOM     15  C6  ZIN A   1      16.974   0.431  13.430  0.00  0.00     0.056 C 
BRANCH  15  16
ATOM     16  C7  ZIN A   1      17.460  -0.144  14.761  0.00  0.00     0.238 C 
BRANCH  16  17
ATOM     17  N8  ZIN A   1      18.894   0.138  14.922  0.00  0.00    -0.070 N 
ATOM     18  H9  ZIN A   1      19.269   0.472  14.047  0.00  0.00     0.279 HD
ATOM     19  C18 ZIN A   1      19.077   1.164  15.955  0.00  0.00     0.250 C 
ATOM     20  C13 ZIN A   1      18.438   0.697  17.263  0.00  0.00     0.112 C 
ATOM     21  C12 ZIN A   1      19.105  -0.605  17.714  0.00  0.00     0.019 C 
ATOM     22  C11 ZIN A   1      18.972  -1.647  16.599  0.00  0.00     0.029 C 
ATOM     23  C10 ZIN A   1      19.592  -1.092  15.314  0.00  0.00     0.235 C 
BRANCH  20  24
ATOM     24  C15 ZIN A   1      18.628   1.752  18.322  0.00  0.00     0.178 C 
ATOM     25  O16 ZIN A   1      17.656   2.254  18.864  0.00  0.00    -0.648 OA
ATOM     26  O17 ZIN A   1      19.751   2.104  18.639  0.00  0.00    -0.648 OA
ENDBRANCH  20  24
ENDBRANCH  16  17
ENDBRANCH  15  16
ENDBRANCH   2  15
TORSDOF 6
ENDMDL
MODEL 7
REMARK VINA RESULT:      -7.1      2.050      2.819
REMARK  6 active torsions:
REMARK  status: ('A' for Active; 'I' for Inactive)
REMARK    1  A    between atoms: C3_3  and  C4_4 
REMARK    2  A    between atoms: C4_4  and  C19_18 
REMARK    3  A    between atoms: C5_5  and  C6_6 
REMARK    4  A    between atoms: C6_6  and  C7_7 
REMARK    5  A    between atoms: C7_7  and  N8_8 
REMARK    6  A    between atoms: C13_13  and  C15_14 
ROOT
ATOM      1  C4  ZIN A   1      18.004   0.013  10.070  0.00  0.00    -0.005 C 
ATOM      2  C5  ZIN A   1      17.432   0.989  10.796  0.00  0.00    -0.011 C 
ENDROOT
BRANCH   1   3
ATOM      3  C3  ZIN A   1      18.493  -1.212  10.734  0.00  0.00     0.022 A 
ATOM      4  C2  ZIN A   1      19.764  -1.430  11.129  0.00  0.00    -0.044 A 
ATOM      5  C1  ZIN A   1      20.862  -0.416  10.930  0.00  0.00     0.049 C 
ATOM      6  C27 ZIN A   1      19.981  -2.655  11.724  0.00  0.00     0.015 A 
ATOM      7  C26 ZIN A   1      18.900  -3.434  11.828  0.00  0.00     0.051 A 
ATOM      8  S25 ZIN A   1      17.508  -2.612  11.135  0.00  0.00    -0.101 SA
ENDBRANCH   1   3
BRANCH   1   9
ATOM      9  C19 ZIN A   1      18.143   0.166   8.606  0.00  0.00     0.022 A 
ATOM     10  S24 ZIN A   1      17.545  -0.970   7.404  0.00  0.00    -0.101 SA
ATOM     11  C23 ZIN A   1      18.157   0.038   6.100  0.00  0.00     0.051 A 
ATOM     12  C22 ZIN A   1      18.757   1.119   6.608  0.00  0.00     0.015 A 
ATOM     13  C20 ZIN A   1      18.753   1.196   7.985  0.00  0.00    -0.044 A 
ATOM     14  C21 ZIN A   1      19.382   2.342   8.737  0.00  0.00     0.049 C 
ENDBRANCH   1   9
BRANCH   2  15
ATOM     15  C6  ZIN A   1      17.394   0.887  12.299  0.00  0.00     0.056 C 
BRANCH  15  16
ATOM     16  C7  ZIN A   1      18.283   1.972  12.906  0.00  0.00     0.238 C 
BRANCH  16  17
ATOM     17  N8  ZIN A   1      17.471   3.160  13.204  0.00  0.00    -0.070 N 
ATOM     18  H9  ZIN A   1      16.494   2.912  13.182  0.00  0.00     0.279 HD
ATOM     19  C18 ZIN A   1      17.816   3.664  14.540  0.00  0.00     0.250 C 
ATOM     20  C13 ZIN A   1      19.313   3.966  14.606  0.00  0.00     0.112 C 
ATOM     21  C12 ZIN A   1      19.661   5.024  13.556  0.00  0.00     0.019 C 
ATOM     22  C11 ZIN A   1      19.231   4.519  12.175  0.00  0.00     0.029 C 
ATOM     23  C10 ZIN A   1      17.735   4.197  12.200  0.00  0.00     0.235 C 
BRANCH  20  24
ATOM     24  C15 ZIN A   1      19.664   4.483  15.977  0.00  0.00     0.178 C 
ATOM     25  O16 ZIN A   1      20.250   3.762  16.768  0.00  0.00    -0.648 OA
ATOM     26  O17 ZIN A   1      19.364   5.620  16.296  0.00  0.00    -0.648 OA
ENDBRANCH  20  24
ENDBRANCH  16  17
ENDBRANCH  15  16
ENDBRANCH   2  15
TORSDOF 6
ENDMDL
MODEL 8
REMARK VINA RESULT:      -6.9      2.477      3.511
REMARK  6 active torsions:
REMARK  status: ('A' for Active; 'I' for Inactive)
REMARK    1  A    between atoms: C3_3  and  C4_4 
REMARK    2  A    between atoms: C4_4  and  C19_18 
REMARK    3  A    between atoms: C5_5  and  C6_6 
REMARK    4  A    between atoms: C6_6  and  C7_7 
REMARK    5  A    between atoms: C7_7  and  N8_8 
REMARK    6  A    between atoms: C13_13  and  C15_14 
ROOT
ATOM      1  C4  ZIN A   1      18.846  -2.719   9.232  0.00  0.00    -0.005 C 
ATOM      2  C5  ZIN A   1      19.530  -2.104  10.212  0.00  0.00    -0.011 C 
ENDROOT
BRANCH   1   3
ATOM      3  C3  ZIN A   1      18.331  -4.088   9.437  0.00  0.00     0.022 A 
ATOM      4  C2  ZIN A   1      18.958  -5.221   9.064  0.00  0.00    -0.044 A 
ATOM      5  C1  ZIN A   1      20.299  -5.218   8.375  0.00  0.00     0.049 C 
ATOM      6  C27 ZIN A   1      18.276  -6.383   9.357  0.00  0.00     0.015 A 
ATOM      7  C26 ZIN A   1      17.103  -6.210   9.975  0.00  0.00     0.051 A 
ATOM      8  S25 ZIN A   1      16.802  -4.492  10.206  0.00  0.00    -0.101 SA
ENDBRANCH   1   3
BRANCH   1   9
ATOM      9  C19 ZIN A   1      18.610  -2.024   7.949  0.00  0.00     0.022 A 
ATOM     10  S24 ZIN A   1      19.230  -2.539   6.385  0.00  0.00    -0.101 SA
ATOM     11  C23 ZIN A   1      18.456  -1.173   5.593  0.00  0.00     0.051 A 
ATOM     12  C22 ZIN A   1      17.811  -0.432   6.499  0.00  0.00     0.015 A 
ATOM     13  C20 ZIN A   1      17.891  -0.894   7.796  0.00  0.00    -0.044 A 
ATOM     14  C21 ZIN A   1      17.227  -0.189   8.952  0.00  0.00     0.049 C 
ENDBRANCH   1   9
BRANCH   2  15
ATOM     15  C6  ZIN A   1      19.872  -2.852  11.475  0.00  0.00     0.056 C 
BRANCH  15  16
ATOM     16  C7  ZIN A   1      19.077  -2.268  12.644  0.00  0.00     0.238 C 
BRANCH  16  17
ATOM     17  N8  ZIN A   1      19.926  -1.333  13.396  0.00  0.00    -0.070 N 
ATOM     18  H9  ZIN A   1      20.888  -1.629  13.331  0.00  0.00     0.279 HD
ATOM     19  C18 ZIN A   1      19.790   0.013  12.827  0.00  0.00     0.250 C 
ATOM     20  C13 ZIN A   1      18.320   0.435  12.847  0.00  0.00     0.112 C 
ATOM     21  C12 ZIN A   1      17.816   0.439  14.293  0.00  0.00     0.019 C 
ATOM     22  C11 ZIN A   1      18.029  -0.951  14.900  0.00  0.00     0.029 C 
ATOM     23  C10 ZIN A   1      19.512  -1.321  14.804  0.00  0.00     0.235 C 
BRANCH  20  24
ATOM     24  C15 ZIN A   1      18.185   1.818  12.263  0.00  0.00     0.178 C 
ATOM     25  O16 ZIN A   1      17.173   2.126  11.655  0.00  0.00    -0.648 OA
ATOM     26  O17 ZIN A   1      19.084   2.629  12.400  0.00  0.00    -0.648 OA
ENDBRANCH  20  24
ENDBRANCH  16  17
ENDBRANCH  15  16
ENDBRANCH   2  15
TORSDOF 6
ENDMDL
MODEL 9
REMARK VINA RESULT:      -6.7      4.105      6.438
REMARK  6 active torsions:
REMARK  status: ('A' for Active; 'I' for Inactive)
REMARK    1  A    between atoms: C3_3  and  C4_4 
REMARK    2  A    between atoms: C4_4  and  C19_18 
REMARK    3  A    between atoms: C5_5  and  C6_6 
REMARK    4  A    between atoms: C6_6  and  C7_7 
REMARK    5  A    between atoms: C7_7  and  N8_8 
REMARK    6  A    between atoms: C13_13  and  C15_14 
ROOT
ATOM      1  C4  ZIN A   1      18.482   2.897  12.517  0.00  0.00    -0.005 C 
ATOM      2  C5  ZIN A   1      19.164   3.175  11.392  0.00  0.00    -0.011 C 
ENDROOT
BRANCH   1   3
ATOM      3  C3  ZIN A   1      18.475   1.522  13.056  0.00  0.00     0.022 A 
ATOM      4  C2  ZIN A   1      17.628   0.542  12.680  0.00  0.00    -0.044 A 
ATOM      5  C1  ZIN A   1      16.561   0.747  11.635  0.00  0.00     0.049 C 
ATOM      6  C27 ZIN A   1      17.812  -0.660  13.330  0.00  0.00     0.015 A 
ATOM      7  C26 ZIN A   1      18.805  -0.675  14.224  0.00  0.00     0.051 A 
ATOM      8  S25 ZIN A   1      19.571   0.908  14.286  0.00  0.00    -0.101 SA
ENDBRANCH   1   3
BRANCH   1   9
ATOM      9  C19 ZIN A   1      17.741   3.969  13.215  0.00  0.00     0.022 A 
ATOM     10  S24 ZIN A   1      17.823   4.303  14.940  0.00  0.00    -0.101 SA
ATOM     11  C23 ZIN A   1      16.688   5.636  14.767  0.00  0.00     0.051 A 
ATOM     12  C22 ZIN A   1      16.318   5.751  13.488  0.00  0.00     0.015 A 
ATOM     13  C20 ZIN A   1      16.893   4.838  12.629  0.00  0.00    -0.044 A 
ATOM     14  C21 ZIN A   1      16.595   4.813  11.151  0.00  0.00     0.049 C 
ENDBRANCH   1   9
BRANCH   2  15
ATOM     15  C6  ZIN A   1      19.823   2.064  10.617  0.00  0.00     0.056 C 
BRANCH  15  16
ATOM     16  C7  ZIN A   1      19.011   1.771   9.355  0.00  0.00     0.238 C 
BRANCH  16  17
ATOM     17  N8  ZIN A   1      19.799   0.921   8.451  0.00  0.00    -0.070 N 
ATOM     18  H9  ZIN A   1      20.662   1.389   8.219  0.00  0.00     0.279 HD
ATOM     19  C18 ZIN A   1      20.098  -0.353   9.117  0.00  0.00     0.250 C 
ATOM     20  C13 ZIN A   1      18.795  -1.029   9.544  0.00  0.00     0.112 C 
ATOM     21  C12 ZIN A   1      17.933  -1.291   8.306  0.00  0.00     0.019 C 
ATOM     22  C11 ZIN A   1      17.688   0.034   7.579  0.00  0.00     0.029 C 
ATOM     23  C10 ZIN A   1      19.033   0.672   7.224  0.00  0.00     0.235 C 
BRANCH  20  24
ATOM     24  C15 ZIN A   1      19.106  -2.336  10.227  0.00  0.00     0.178 C 
ATOM     25  O16 ZIN A   1      18.544  -3.359   9.869  0.00  0.00    -0.648 OA
ATOM     26  O17 ZIN A   1      19.918  -2.373  11.134  0.00  0.00    -0.648 OA
ENDBRANCH  20  24
ENDBRANCH  16  17
ENDBRANCH  15  16
ENDBRANCH   2  15
TORSDOF 6
ENDMDL
