MODEL 1
REMARK VINA RESULT:      -7.4      0.000      0.000
REMARK  11 active torsions:
REMARK  status: ('A' for Active; 'I' for Inactive)
REMARK    1  A    between atoms: C2_2  and  N3_3 
REMARK    2  A    between atoms: N3_3  and  C5_5 
REMARK    3  A    between atoms: N3_3  and  C7_7 
REMARK    4  A    between atoms: C7_7  and  C8_8 
REMARK    5  A    between atoms: C9_9  and  C10_10 
REMARK    6  A    between atoms: C10_10  and  O11_11 
REMARK    7  A    between atoms: O11_11  and  C12_12 
REMARK    8  A    between atoms: C12_12  and  C14_14 
REMARK    9  A    between atoms: C14_14  and  O15_15 
REMARK   10  A    between atoms: C14_14  and  C16_16 
REMARK   11  A    between atoms: C14_14  and  C22_22 
ROOT
ATOM      1  C14 ZIN A   1      19.183   2.050  11.009  0.00  0.00     0.176 C 
ENDROOT
BRANCH   1   2
ATOM      2  C12 ZIN A   1      19.509   0.970  12.007  0.00  0.00     0.299 C 
ATOM      3  O13 ZIN A   1      20.645   0.572  12.117  0.00  0.00    -0.261 OA
BRANCH   2   4
ATOM      4  O11 ZIN A   1      18.538   0.448  12.774  0.00  0.00    -0.307 OA
BRANCH   4   5
ATOM      5  C10 ZIN A   1      18.795  -0.851  13.370  0.00  0.00     0.272 C 
BRANCH   5   6
ATOM      6  C9  ZIN A   1      18.254  -1.907  12.499  0.00  0.00    -0.078 C 
ATOM      7  C8  ZIN A   1      17.821  -2.749  11.805  0.00  0.00    -0.077 C 
BRANCH   7   8
ATOM      8  C7  ZIN A   1      17.279  -3.805  10.935  0.00  0.00     0.328 C 
BRANCH   8   9
ATOM      9  N3  ZIN A   1      18.196  -4.029   9.809  0.00  0.00    -0.062 N 
ATOM     10  H4  ZIN A   1      18.491  -3.140   9.433  0.00  0.00     0.280 HD
BRANCH   9  11
ATOM     11  C2  ZIN A   1      19.372  -4.777  10.276  0.00  0.00     0.231 C 
ATOM     12  C1  ZIN A   1      19.914  -5.639   9.134  0.00  0.00     0.034 C 
ENDBRANCH   9  11
BRANCH   9  13
ATOM     13  C5  ZIN A   1      17.510  -4.800   8.764  0.00  0.00     0.231 C 
ATOM     14  C6  ZIN A   1      16.206  -5.371   9.324  0.00  0.00     0.034 C 
ENDBRANCH   9  13
ENDBRANCH   8   9
ENDBRANCH   7   8
ENDBRANCH   5   6
ENDBRANCH   4   5
ENDBRANCH   2   4
ENDBRANCH   1   2
BRANCH   1  15
ATOM     15  O15 ZIN A   1      20.341   2.858  10.787  0.00  0.00    -0.374 OA
ATOM     16  H42 ZIN A   1      21.076   2.663  11.382  0.00  0.00     0.211 HD
ENDBRANCH   1  15
BRANCH   1  17
ATOM     17  C16 ZIN A   1      18.754   1.421   9.709  0.00  0.00    -0.014 A 
ATOM     18  C21 ZIN A   1      17.713   0.511   9.690  0.00  0.00     0.011 A 
ATOM     19  C20 ZIN A   1      17.316  -0.061   8.495  0.00  0.00     0.001 A 
ATOM     20  C19 ZIN A   1      17.967   0.269   7.322  0.00  0.00     0.000 A 
ATOM     21  C18 ZIN A   1      19.011   1.175   7.340  0.00  0.00     0.001 A 
ATOM     22  C17 ZIN A   1      19.405   1.751   8.534  0.00  0.00     0.011 A 
ENDBRANCH   1  17
BRANCH   1  23
ATOM     23  C22 ZIN A   1      18.049   2.922  11.553  0.00  0.00     0.035 C 
ATOM     24  C27 ZIN A   1      17.688   3.992  10.521  0.00  0.00     0.008 C 
ATOM     25  C26 ZIN A   1      16.555   4.864  11.065  0.00  0.00     0.001 C 
ATOM     26  C25 ZIN A   1      17.007   5.537  12.362  0.00  0.00     0.000 C 
ATOM     27  C24 ZIN A   1      17.366   4.466  13.394  0.00  0.00     0.001 C 
ATOM     28  C23 ZIN A   1      18.501   3.595  12.850  0.00  0.00     0.008 C 
ENDBRANCH   1  23
TORSDOF 11
ENDMDL
MODEL 2
REMARK VINA RESULT:      -7.3      3.126      6.065
REMARK  11 active torsions:
REMARK  status: ('A' for Active; 'I' for Inactive)
REMARK    1  A    between atoms: C2_2  and  N3_3 
REMARK    2  A    between atoms: N3_3  and  C5_5 
REMARK    3  A    between atoms: N3_3  and  C7_7 
REMARK    4  A    between atoms: C7_7  and  C8_8 
REMARK    5  A    between atoms: C9_9  and  C10_10 
REMARK    6  A    between atoms: C10_10  and  O11_11 
REMARK    7  A    between atoms: O11_11  and  C12_12 
REMARK    8  A    between atoms: C12_12  and  C14_14 
REMARK    9  A    between atoms: C14_14  and  O15_15 
REMARK   10  A    between atoms: C14_14  and  C16_16 
REMARK   11  A    between atoms: C14_14  and  C22_22 
ROOT
ATOM      1  C14 ZIN A   1      17.626   0.834  10.753  0.00  0.00     0.176 C 
ENDROOT
BRANCH   1   2
ATOM      2  C12 ZIN A   1      17.849   2.235  11.259  0.00  0.00     0.299 C 
ATOM      3  O13 ZIN A   1      16.996   3.077  11.104  0.00  0.00    -0.261 OA
BRANCH   2   4
ATOM      4  O11 ZIN A   1      18.997   2.549  11.881  0.00  0.00    -0.307 OA
BRANCH   4   5
ATOM      5  C10 ZIN A   1      18.892   3.321  13.107  0.00  0.00     0.272 C 
BRANCH   5   6
ATOM      6  C9  ZIN A   1      18.603   2.418  14.233  0.00  0.00    -0.078 C 
ATOM      7  C8  ZIN A   1      18.373   1.698  15.131  0.00  0.00    -0.077 C 
BRANCH   7   8
ATOM      8  C7  ZIN A   1      18.084   0.796  16.257  0.00  0.00     0.328 C 
BRANCH   8   9
ATOM      9  N3  ZIN A   1      19.134   0.934  17.275  0.00  0.00    -0.062 N 
ATOM     10  H4  ZIN A   1      20.002   1.195  16.831  0.00  0.00     0.280 HD
BRANCH   9  11
ATOM     11  C2  ZIN A   1      18.747   1.973  18.240  0.00  0.00     0.231 C 
ATOM     12  C1  ZIN A   1      17.404   1.604  18.874  0.00  0.00     0.034 C 
ENDBRANCH   9  11
BRANCH   9  13
ATOM     13  C5  ZIN A   1      19.308  -0.345  17.977  0.00  0.00     0.231 C 
ATOM     14  C6  ZIN A   1      19.272  -1.491  16.965  0.00  0.00     0.034 C 
ENDBRANCH   9  13
ENDBRANCH   8   9
ENDBRANCH   7   8
ENDBRANCH   5   6
ENDBRANCH   4   5
ENDBRANCH   2   4
ENDBRANCH   1   2
BRANCH   1  15
ATOM     15  O15 ZIN A   1      16.270   0.452  10.994  0.00  0.00    -0.374 OA
ATOM     16  H42 ZIN A   1      15.666   1.197  11.111  0.00  0.00     0.211 HD
ENDBRANCH   1  15
BRANCH   1  17
ATOM     17  C16 ZIN A   1      17.905   0.782   9.274  0.00  0.00    -0.014 A 
ATOM     18  C21 ZIN A   1      17.180  -0.070   8.462  0.00  0.00     0.011 A 
ATOM     19  C20 ZIN A   1      17.433  -0.113   7.103  0.00  0.00     0.001 A 
ATOM     20  C19 ZIN A   1      18.419   0.688   6.558  0.00  0.00     0.000 A 
ATOM     21  C18 ZIN A   1      19.147   1.537   7.370  0.00  0.00     0.001 A 
ATOM     22  C17 ZIN A   1      18.891   1.583   8.728  0.00  0.00     0.011 A 
ENDBRANCH   1  17
BRANCH   1  23
ATOM     23  C22 ZIN A   1      18.564  -0.128  11.484  0.00  0.00     0.035 C 
ATOM     24  C27 ZIN A   1      19.145  -1.131  10.485  0.00  0.00     0.008 C 
ATOM     25  C26 ZIN A   1      20.084  -2.094  11.217  0.00  0.00     0.001 C 
ATOM     26  C25 ZIN A   1      19.305  -2.843  12.298  0.00  0.00     0.000 C 
ATOM     27  C24 ZIN A   1      18.725  -1.839  13.298  0.00  0.00     0.001 C 
ATOM     28  C23 ZIN A   1      17.785  -0.878  12.566  0.00  0.00     0.008 C 
ENDBRANCH   1  23
TORSDOF 11
ENDMDL
MODEL 3
REMARK VINA RESULT:      -7.2      2.861      4.962
REMARK  11 active torsions:
REMARK  status: ('A' for Active; 'I' for Inactive)
REMARK    1  A    between atoms: C2_2  and  N3_3 
REMARK    2  A    between atoms: N3_3  and  C5_5 
REMARK    3  A    between atoms: N3_3  and  C7_7 
REMARK    4  A    between atoms: C7_7  and  C8_8 
REMARK    5  A    between atoms: C9_9  and  C10_10 
REMARK    6  A    between atoms: C10_10  and  O11_11 
REMARK    7  A    between atoms: O11_11  and  C12_12 
REMARK    8  A    between atoms: C12_12  and  C14_14 
REMARK    9  A    between atoms: C14_14  and  O15_15 
REMARK   10  A    between atoms: C14_14  and  C16_16 
REMARK   11  A    between atoms: C14_14  and  C22_22 
ROOT
ATOM      1  C14 ZIN A   1      19.113   1.845  10.704  0.00  0.00     0.176 C 
ENDROOT
BRANCH   1   2
ATOM      2  C12 ZIN A   1      19.389   0.693  11.634  0.00  0.00     0.299 C 
ATOM      3  O13 ZIN A   1      20.505   0.520  12.066  0.00  0.00    -0.261 OA
BRANCH   2   4
ATOM      4  O11 ZIN A   1      18.398  -0.142  11.984  0.00  0.00    -0.307 OA
BRANCH   4   5
ATOM      5  C10 ZIN A   1      18.714  -1.169  12.960  0.00  0.00     0.272 C 
BRANCH   5   6
ATOM      6  C9  ZIN A   1      18.195  -0.770  14.279  0.00  0.00    -0.078 C 
ATOM      7  C8  ZIN A   1      17.781  -0.451  15.330  0.00  0.00    -0.077 C 
BRANCH   7   8
ATOM      8  C7  ZIN A   1      17.262  -0.051  16.648  0.00  0.00     0.328 C 
BRANCH   8   9
ATOM      9  N3  ZIN A   1      17.713   1.313  16.957  0.00  0.00    -0.062 N 
ATOM     10  H4  ZIN A   1      16.978   1.968  16.735  0.00  0.00     0.280 HD
BRANCH   9  11
ATOM     11  C2  ZIN A   1      18.040   1.409  18.386  0.00  0.00     0.231 C 
ATOM     12  C1  ZIN A   1      18.618   0.076  18.867  0.00  0.00     0.034 C 
ENDBRANCH   9  11
BRANCH   9  13
ATOM     13  C5  ZIN A   1      18.907   1.627  16.160  0.00  0.00     0.231 C 
ATOM     14  C6  ZIN A   1      19.388   3.039  16.498  0.00  0.00     0.034 C 
ENDBRANCH   9  13
ENDBRANCH   8   9
ENDBRANCH   7   8
ENDBRANCH   5   6
ENDBRANCH   4   5
ENDBRANCH   2   4
ENDBRANCH   1   2
BRANCH   1  15
ATOM     15  O15 ZIN A   1      20.296   2.633  10.557  0.00  0.00    -0.374 OA
ATOM     16  H42 ZIN A   1      21.114   2.119  10.561  0.00  0.00     0.211 HD
ENDBRANCH   1  15
BRANCH   1  17
ATOM     17  C16 ZIN A   1      18.693   1.315   9.358  0.00  0.00    -0.014 A 
ATOM     18  C21 ZIN A   1      19.358   1.721   8.216  0.00  0.00     0.011 A 
ATOM     19  C20 ZIN A   1      18.976   1.230   6.981  0.00  0.00     0.001 A 
ATOM     20  C19 ZIN A   1      17.922   0.342   6.887  0.00  0.00     0.000 A 
ATOM     21  C18 ZIN A   1      17.253  -0.061   8.027  0.00  0.00     0.001 A 
ATOM     22  C17 ZIN A   1      17.638   0.426   9.263  0.00  0.00     0.011 A 
ENDBRANCH   1  17
BRANCH   1  23
ATOM     23  C22 ZIN A   1      17.992   2.711  11.284  0.00  0.00     0.035 C 
ATOM     24  C27 ZIN A   1      17.773   3.931  10.386  0.00  0.00     0.008 C 
ATOM     25  C26 ZIN A   1      16.653   4.797  10.966  0.00  0.00     0.001 C 
ATOM     26  C25 ZIN A   1      17.042   5.260  12.371  0.00  0.00     0.000 C 
ATOM     27  C24 ZIN A   1      17.259   4.039  13.269  0.00  0.00     0.001 C 
ATOM     28  C23 ZIN A   1      18.380   3.175  12.689  0.00  0.00     0.008 C 
ENDBRANCH   1  23
TORSDOF 11
ENDMDL
MODEL 4
REMARK VINA RESULT:      -7.2      3.299      6.972
REMARK  11 active torsions:
REMARK  status: ('A' for Active; 'I' for Inactive)
REMARK    1  A    between atoms: C2_2  and  N3_3 
REMARK    2  A    between atoms: N3_3  and  C5_5 
REMARK    3  A    between atoms: N3_3  and  C7_7 
REMARK    4  A    between atoms: C7_7  and  C8_8 
REMARK    5  A    between atoms: C9_9  and  C10_10 
REMARK    6  A    between atoms: C10_10  and  O11_11 
REMARK    7  A    between atoms: O11_11  and  C12_12 
REMARK    8  A    between atoms: C12_12  and  C14_14 
REMARK    9  A    between atoms: C14_14  and  O15_15 
REMARK   10  A    between atoms: C14_14  and  C16_16 
REMARK   11  A    between atoms: C14_14  and  C22_22 
ROOT
ATOM      1  C14 ZIN A   1      18.956   2.121  11.173  0.00  0.00     0.176 C 
ENDROOT
BRANCH   1   2
ATOM      2  C12 ZIN A   1      18.106   3.330  11.461  0.00  0.00     0.299 C 
ATOM      3  O13 ZIN A   1      17.026   3.449  10.932  0.00  0.00    -0.261 OA
BRANCH   2   4
ATOM      4  O11 ZIN A   1      18.547   4.276  12.306  0.00  0.00    -0.307 OA
BRANCH   4   5
ATOM      5  C10 ZIN A   1      17.714   4.573  13.457  0.00  0.00     0.272 C 
BRANCH   5   6
ATOM      6  C9  ZIN A   1      18.151   3.758  14.603  0.00  0.00    -0.078 C 
ATOM      7  C8  ZIN A   1      18.499   3.108  15.516  0.00  0.00    -0.077 C 
BRANCH   7   8
ATOM      8  C7  ZIN A   1      18.936   2.294  16.662  0.00  0.00     0.328 C 
BRANCH   8   9
ATOM      9  N3  ZIN A   1      17.848   2.209  17.645  0.00  0.00    -0.062 N 
ATOM     10  H4  ZIN A   1      16.962   2.169  17.164  0.00  0.00     0.280 HD
BRANCH   9  11
ATOM     11  C2  ZIN A   1      18.018   0.998  18.460  0.00  0.00     0.231 C 
ATOM     12  C1  ZIN A   1      19.364   0.349  18.133  0.00  0.00     0.034 C 
ENDBRANCH   9  11
BRANCH   9  13
ATOM     13  C5  ZIN A   1      17.880   3.393  18.515  0.00  0.00     0.231 C 
ATOM     14  C6  ZIN A   1      16.714   3.331  19.503  0.00  0.00     0.034 C 
ENDBRANCH   9  13
ENDBRANCH   8   9
ENDBRANCH   7   8
ENDBRANCH   5   6
ENDBRANCH   4   5
ENDBRANCH   2   4
ENDBRANCH   1   2
BRANCH   1  15
ATOM     15  O15 ZIN A   1      20.322   2.520  11.036  0.00  0.00    -0.374 OA
ATOM     16  H42 ZIN A   1      20.956   1.876  11.378  0.00  0.00     0.211 HD
ENDBRANCH   1  15
BRANCH   1  17
ATOM     17  C16 ZIN A   1      18.833   1.137  12.308  0.00  0.00    -0.014 A 
ATOM     18  C21 ZIN A   1      19.967   0.685  12.957  0.00  0.00     0.011 A 
ATOM     19  C20 ZIN A   1      19.852  -0.214  14.002  0.00  0.00     0.001 A 
ATOM     20  C19 ZIN A   1      18.606  -0.668  14.390  0.00  0.00     0.000 A 
ATOM     21  C18 ZIN A   1      17.473  -0.220  13.738  0.00  0.00     0.001 A 
ATOM     22  C17 ZIN A   1      17.586   0.683  12.696  0.00  0.00     0.011 A 
ENDBRANCH   1  17
BRANCH   1  23
ATOM     23  C22 ZIN A   1      18.485   1.464   9.874  0.00  0.00     0.035 C 
ATOM     24  C27 ZIN A   1      18.708  -0.048   9.957  0.00  0.00     0.008 C 
ATOM     25  C26 ZIN A   1      18.237  -0.705   8.658  0.00  0.00     0.001 C 
ATOM     26  C25 ZIN A   1      19.031  -0.136   7.481  0.00  0.00     0.000 C 
ATOM     27  C24 ZIN A   1      18.806   1.376   7.398  0.00  0.00     0.001 C 
ATOM     28  C23 ZIN A   1      19.278   2.033   8.697  0.00  0.00     0.008 C 
ENDBRANCH   1  23
TORSDOF 11
ENDMDL
MODEL 5
REMARK VINA RESULT:      -7.2      2.280      4.569
REMARK  11 active torsions:
REMARK  status: ('A' for Active; 'I' for Inactive)
REMARK    1  A    between atoms: C2_2  and  N3_3 
REMARK    2  A    between atoms: N3_3  and  C5_5 
REMARK    3  A    between atoms: N3_3  and  C7_7 
REMARK    4  A    between atoms: C7_7  and  C8_8 
REMARK    5  A    between atoms: C9_9  and  C10_10 
REMARK    6  A    between atoms: C10_10  and  O11_11 
REMARK    7  A    between atoms: O11_11  and  C12_12 
REMARK    8  A    between atoms: C12_12  and  C14_14 
REMARK    9  A    between atoms: C14_14  and  O15_15 
REMARK   10  A    between atoms: C14_14  and  C16_16 
REMARK   11  A    between atoms: C14_14  and  C22_22 
ROOT
ATOM      1  C14 ZIN A   1      18.737  -0.423  12.610  0.00  0.00     0.176 C 
ENDROOT
BRANCH   1   2
ATOM      2  C12 ZIN A   1      17.808  -1.526  12.174  0.00  0.00     0.299 C 
ATOM      3  O13 ZIN A   1      16.640  -1.288  11.976  0.00  0.00    -0.261 OA
BRANCH   2   4
ATOM      4  O11 ZIN A   1      18.278  -2.772  12.005  0.00  0.00    -0.307 OA
BRANCH   4   5
ATOM      5  C10 ZIN A   1      17.820  -3.496  10.833  0.00  0.00     0.272 C 
BRANCH   5   6
ATOM      6  C9  ZIN A   1      18.263  -2.793   9.618  0.00  0.00    -0.078 C 
ATOM      7  C8  ZIN A   1      18.616  -2.232   8.649  0.00  0.00    -0.077 C 
BRANCH   7   8
ATOM      8  C7  ZIN A   1      19.059  -1.529   7.433  0.00  0.00     0.328 C 
BRANCH   8   9
ATOM      9  N3  ZIN A   1      17.950  -1.471   6.471  0.00  0.00    -0.062 N 
ATOM     10  H4  ZIN A   1      17.202  -2.071   6.783  0.00  0.00     0.280 HD
BRANCH   9  11
ATOM     11  C2  ZIN A   1      17.461  -0.089   6.371  0.00  0.00     0.231 C 
ATOM     12  C1  ZIN A   1      18.650   0.863   6.230  0.00  0.00     0.034 C 
ENDBRANCH   9  11
BRANCH   9  13
ATOM     13  C5  ZIN A   1      18.421  -1.920   5.154  0.00  0.00     0.231 C 
ATOM     14  C6  ZIN A   1      17.256  -1.901   4.162  0.00  0.00     0.034 C 
ENDBRANCH   9  13
ENDBRANCH   8   9
ENDBRANCH   7   8
ENDBRANCH   5   6
ENDBRANCH   4   5
ENDBRANCH   2   4
ENDBRANCH   1   2
BRANCH   1  15
ATOM     15  O15 ZIN A   1      20.083  -0.905  12.608  0.00  0.00    -0.374 OA
ATOM     16  H42 ZIN A   1      20.673  -0.421  12.016  0.00  0.00     0.211 HD
ENDBRANCH   1  15
BRANCH   1  17
ATOM     17  C16 ZIN A   1      18.620   0.739  11.659  0.00  0.00    -0.014 A 
ATOM     18  C21 ZIN A   1      17.660   1.712  11.870  0.00  0.00     0.011 A 
ATOM     19  C20 ZIN A   1      17.557   2.781  11.000  0.00  0.00     0.001 A 
ATOM     20  C19 ZIN A   1      18.407   2.873   9.913  0.00  0.00     0.000 A 
ATOM     21  C18 ZIN A   1      19.363   1.899   9.699  0.00  0.00     0.001 A 
ATOM     22  C17 ZIN A   1      19.470   0.832  10.572  0.00  0.00     0.011 A 
ENDBRANCH   1  17
BRANCH   1  23
ATOM     23  C22 ZIN A   1      18.362   0.032  14.022  0.00  0.00     0.035 C 
ATOM     24  C27 ZIN A   1      19.404   1.031  14.530  0.00  0.00     0.008 C 
ATOM     25  C26 ZIN A   1      19.029   1.486  15.942  0.00  0.00     0.001 C 
ATOM     26  C25 ZIN A   1      18.985   0.274  16.874  0.00  0.00     0.000 C 
ATOM     27  C24 ZIN A   1      17.942  -0.723  16.366  0.00  0.00     0.001 C 
ATOM     28  C23 ZIN A   1      18.318  -1.179  14.955  0.00  0.00     0.008 C 
ENDBRANCH   1  23
TORSDOF 11
ENDMDL
MODEL 6
REMARK VINA RESULT:      -7.1      1.313      1.983
REMARK  11 active torsions:
REMARK  status: ('A' for Active; 'I' for Inactive)
REMARK    1  A    between atoms: C2_2  and  N3_3 
REMARK    2  A    between atoms: N3_3  and  C5_5 
REMARK    3  A    between atoms: N3_3  and  C7_7 
REMARK    4  A    between atoms: C7_7  and  C8_8 
REMARK    5  A    between atoms: C9_9  and  C10_10 
REMARK    6  A    between atoms: C10_10  and  O11_11 
REMARK    7  A    between atoms: O11_11  and  C12_12 
REMARK    8  A    between atoms: C12_12  and  C14_14 
REMARK    9  A    between atoms: C14_14  and  O15_15 
REMARK   10  A    between atoms: C14_14  and  C16_16 
REMARK   11  A    between atoms: C14_14  and  C22_22 
ROOT
ATOM      1  C14 ZIN A   1      18.774   1.619  10.888  0.00  0.00     0.176 C 
ENDROOT
BRANCH   1   2
ATOM      2  C12 ZIN A   1      18.611   0.446  11.818  0.00  0.00     0.299 C 
ATOM      3  O13 ZIN A   1      17.544   0.239  12.348  0.00  0.00    -0.261 OA
BRANCH   2   4
ATOM      4  O11 ZIN A   1      19.649  -0.370  12.059  0.00  0.00    -0.307 OA
BRANCH   4   5
ATOM      5  C10 ZIN A   1      19.344  -1.766  12.321  0.00  0.00     0.272 C 
BRANCH   5   6
ATOM      6  C9  ZIN A   1      19.120  -2.467  11.046  0.00  0.00    -0.078 C 
ATOM      7  C8  ZIN A   1      18.941  -3.026  10.030  0.00  0.00    -0.077 C 
BRANCH   7   8
ATOM      8  C7  ZIN A   1      18.716  -3.727   8.755  0.00  0.00     0.328 C 
BRANCH   8   9
ATOM      9  N3  ZIN A   1      19.983  -4.300   8.282  0.00  0.00    -0.062 N 
ATOM     10  H4  ZIN A   1      20.749  -3.718   8.586  0.00  0.00     0.280 HD
BRANCH   9  11
ATOM     11  C2  ZIN A   1      20.146  -5.652   8.836  0.00  0.00     0.231 C 
ATOM     12  C1  ZIN A   1      18.815  -6.402   8.750  0.00  0.00     0.034 C 
ENDBRANCH   9  11
BRANCH   9  13
ATOM     13  C5  ZIN A   1      19.972  -4.371   6.815  0.00  0.00     0.231 C 
ATOM     14  C6  ZIN A   1      19.433  -3.057   6.246  0.00  0.00     0.034 C 
ENDBRANCH   9  13
ENDBRANCH   8   9
ENDBRANCH   7   8
ENDBRANCH   5   6
ENDBRANCH   4   5
ENDBRANCH   2   4
ENDBRANCH   1   2
BRANCH   1  15
ATOM     15  O15 ZIN A   1      20.110   2.119  10.982  0.00  0.00    -0.374 OA
ATOM     16  H42 ZIN A   1      20.759   1.601  10.487  0.00  0.00     0.211 HD
ENDBRANCH   1  15
BRANCH   1  17
ATOM     17  C16 ZIN A   1      18.501   1.181   9.473  0.00  0.00    -0.014 A 
ATOM     18  C21 ZIN A   1      19.263   1.683   8.434  0.00  0.00     0.011 A 
ATOM     19  C20 ZIN A   1      19.015   1.276   7.136  0.00  0.00     0.001 A 
ATOM     20  C19 ZIN A   1      18.000   0.376   6.875  0.00  0.00     0.000 A 
ATOM     21  C18 ZIN A   1      17.235  -0.123   7.913  0.00  0.00     0.001 A 
ATOM     22  C17 ZIN A   1      17.485   0.280   9.212  0.00  0.00     0.011 A 
ENDBRANCH   1  17
BRANCH   1  23
ATOM     23  C22 ZIN A   1      17.789   2.722  11.280  0.00  0.00     0.035 C 
ATOM     24  C27 ZIN A   1      17.852   3.853  10.251  0.00  0.00     0.008 C 
ATOM     25  C26 ZIN A   1      16.867   4.956  10.643  0.00  0.00     0.001 C 
ATOM     26  C25 ZIN A   1      17.235   5.501  12.023  0.00  0.00     0.000 C 
ATOM     27  C24 ZIN A   1      17.170   4.370  13.053  0.00  0.00     0.001 C 
ATOM     28  C23 ZIN A   1      18.156   3.268  12.661  0.00  0.00     0.008 C 
ENDBRANCH   1  23
TORSDOF 11
ENDMDL
MODEL 7
REMARK VINA RESULT:      -7.0      2.674      4.786
REMARK  11 active torsions:
REMARK  status: ('A' for Active; 'I' for Inactive)
REMARK    1  A    between atoms: C2_2  and  N3_3 
REMARK    2  A    between atoms: N3_3  and  C5_5 
REMARK    3  A    between atoms: N3_3  and  C7_7 
REMARK    4  A    between atoms: C7_7  and  C8_8 
REMARK    5  A    between atoms: C9_9  and  C10_10 
REMARK    6  A    between atoms: C10_10  and  O11_11 
REMARK    7  A    between atoms: O11_11  and  C12_12 
REMARK    8  A    between atoms: C12_12  and  C14_14 
REMARK    9  A    between atoms: C14_14  and  O15_15 
REMARK   10  A    between atoms: C14_14  and  C16_16 
REMARK   11  A    between atoms: C14_14  and  C22_22 
ROOT
ATOM      1  C14 ZIN A   1      18.927   0.705   9.884  0.00  0.00     0.176 C 
ENDROOT
BRANCH   1   2
ATOM      2  C12 ZIN A   1      18.703  -0.623  10.558  0.00  0.00     0.299 C 
ATOM      3  O13 ZIN A   1      19.556  -1.478  10.506  0.00  0.00    -0.261 OA
BRANCH   2   4
ATOM      4  O11 ZIN A   1      17.558  -0.857  11.217  0.00  0.00    -0.307 OA
BRANCH   4   5
ATOM      5  C10 ZIN A   1      17.564  -1.938  12.187  0.00  0.00     0.272 C 
BRANCH   5   6
ATOM      6  C9  ZIN A   1      18.071  -1.438  13.476  0.00  0.00    -0.078 C 
ATOM      7  C8  ZIN A   1      18.475  -1.041  14.504  0.00  0.00    -0.077 C 
BRANCH   7   8
ATOM      8  C7  ZIN A   1      18.981  -0.541  15.793  0.00  0.00     0.328 C 
BRANCH   8   9
ATOM      9  N3  ZIN A   1      18.327   0.735  16.113  0.00  0.00    -0.062 N 
ATOM     10  H4  ZIN A   1      17.471   0.816  15.585  0.00  0.00     0.280 HD
BRANCH   9  11
ATOM     11  C2  ZIN A   1      18.022   0.781  17.550  0.00  0.00     0.231 C 
ATOM     12  C1  ZIN A   1      19.071  -0.025  18.320  0.00  0.00     0.034 C 
ENDBRANCH   9  11
BRANCH   9  13
ATOM     13  C5  ZIN A   1      19.224   1.845  15.767  0.00  0.00     0.231 C 
ATOM     14  C6  ZIN A   1      18.699   3.139  16.393  0.00  0.00     0.034 C 
ENDBRANCH   9  13
ENDBRANCH   8   9
ENDBRANCH   7   8
ENDBRANCH   5   6
ENDBRANCH   4   5
ENDBRANCH   2   4
ENDBRANCH   1   2
BRANCH   1  15
ATOM     15  O15 ZIN A   1      20.309   1.060   9.977  0.00  0.00    -0.374 OA
ATOM     16  H42 ZIN A   1      20.797   0.958   9.149  0.00  0.00     0.211 HD
ENDBRANCH   1  15
BRANCH   1  17
ATOM     17  C16 ZIN A   1      18.531   0.607   8.434  0.00  0.00    -0.014 A 
ATOM     18  C21 ZIN A   1      17.356  -0.028   8.079  0.00  0.00     0.011 A 
ATOM     19  C20 ZIN A   1      16.990  -0.113   6.748  0.00  0.00     0.001 A 
ATOM     20  C19 ZIN A   1      17.805   0.428   5.772  0.00  0.00     0.000 A 
ATOM     21  C18 ZIN A   1      18.983   1.059   6.126  0.00  0.00     0.001 A 
ATOM     22  C17 ZIN A   1      19.346   1.148   7.456  0.00  0.00     0.011 A 
ENDBRANCH   1  17
BRANCH   1  23
ATOM     23  C22 ZIN A   1      18.079   1.777  10.573  0.00  0.00     0.035 C 
ATOM     24  C27 ZIN A   1      18.230   3.105   9.828  0.00  0.00     0.008 C 
ATOM     25  C26 ZIN A   1      17.382   4.176  10.518  0.00  0.00     0.001 C 
ATOM     26  C25 ZIN A   1      17.852   4.345  11.963  0.00  0.00     0.000 C 
ATOM     27  C24 ZIN A   1      17.700   3.017  12.708  0.00  0.00     0.001 C 
ATOM     28  C23 ZIN A   1      18.548   1.947  12.019  0.00  0.00     0.008 C 
ENDBRANCH   1  23
TORSDOF 11
ENDMDL
MODEL 8
REMARK VINA RESULT:      -7.0      2.473      6.448
REMARK  11 active torsions:
REMARK  status: ('A' for Active; 'I' for Inactive)
REMARK    1  A    between atoms: C2_2  and  N3_3 
REMARK    2  A    between atoms: N3_3  and  C5_5 
REMARK    3  A    between atoms: N3_3  and  C7_7 
REMARK    4  A    between atoms: C7_7  and  C8_8 
REMARK    5  A    between atoms: C9_9  and  C10_10 
REMARK    6  A    between atoms: C10_10  and  O11_11 
REMARK    7  A    between atoms: O11_11  and  C12_12 
REMARK    8  A    between atoms: C12_12  and  C14_14 
REMARK    9  A    between atoms: C14_14  and  O15_15 
REMARK   10  A    between atoms: C14_14  and  C16_16 
REMARK   11  A    between atoms: C14_14  and  C22_22 
ROOT
ATOM      1  C14 ZIN A   1      19.827  -0.836  11.328  0.00  0.00     0.176 C 
ENDROOT
BRANCH   1   2
ATOM      2  C12 ZIN A   1      19.638  -0.173  12.667  0.00  0.00     0.299 C 
ATOM      3  O13 ZIN A   1      20.599   0.215  13.290  0.00  0.00    -0.261 OA
BRANCH   2   4
ATOM      4  O11 ZIN A   1      18.404  -0.013  13.169  0.00  0.00    -0.307 OA
BRANCH   4   5
ATOM      5  C10 ZIN A   1      18.305   0.459  14.539  0.00  0.00     0.272 C 
BRANCH   5   6
ATOM      6  C9  ZIN A   1      18.118   1.920  14.543  0.00  0.00    -0.078 C 
ATOM      7  C8  ZIN A   1      17.970   3.084  14.545  0.00  0.00    -0.077 C 
BRANCH   7   8
ATOM      8  C7  ZIN A   1      17.784   4.544  14.549  0.00  0.00     0.328 C 
BRANCH   8   9
ATOM      9  N3  ZIN A   1      18.221   5.096  13.260  0.00  0.00    -0.062 N 
ATOM     10  H4  ZIN A   1      17.872   6.037  13.160  0.00  0.00     0.280 HD
BRANCH   9  11
ATOM     11  C2  ZIN A   1      19.690   5.111  13.207  0.00  0.00     0.231 C 
ATOM     12  C1  ZIN A   1      20.231   5.989  14.337  0.00  0.00     0.034 C 
ENDBRANCH   9  11
BRANCH   9  13
ATOM     13  C5  ZIN A   1      17.702   4.262  12.168  0.00  0.00     0.231 C 
ATOM     14  C6  ZIN A   1      16.690   5.066  11.349  0.00  0.00     0.034 C 
ENDBRANCH   9  13
ENDBRANCH   8   9
ENDBRANCH   7   8
ENDBRANCH   5   6
ENDBRANCH   4   5
ENDBRANCH   2   4
ENDBRANCH   1   2
BRANCH   1  15
ATOM     15  O15 ZIN A   1      21.222  -0.905  11.023  0.00  0.00    -0.374 OA
ATOM     16  H42 ZIN A   1      21.736  -1.432  11.649  0.00  0.00     0.211 HD
ENDBRANCH   1  15
BRANCH   1  17
ATOM     17  C16 ZIN A   1      19.255  -2.229  11.370  0.00  0.00    -0.014 A 
ATOM     18  C21 ZIN A   1      20.098  -3.324  11.391  0.00  0.00     0.011 A 
ATOM     19  C20 ZIN A   1      19.572  -4.601  11.436  0.00  0.00     0.001 A 
ATOM     20  C19 ZIN A   1      18.202  -4.784  11.449  0.00  0.00     0.000 A 
ATOM     21  C18 ZIN A   1      17.358  -3.690  11.423  0.00  0.00     0.001 A 
ATOM     22  C17 ZIN A   1      17.884  -2.412  11.383  0.00  0.00     0.011 A 
ENDBRANCH   1  17
BRANCH   1  23
ATOM     23  C22 ZIN A   1      19.110  -0.021  10.250  0.00  0.00     0.035 C 
ATOM     24  C27 ZIN A   1      19.531  -0.523   8.866  0.00  0.00     0.008 C 
ATOM     25  C26 ZIN A   1      18.813   0.292   7.788  0.00  0.00     0.001 C 
ATOM     26  C25 ZIN A   1      19.186   1.768   7.931  0.00  0.00     0.000 C 
ATOM     27  C24 ZIN A   1      18.764   2.269   9.314  0.00  0.00     0.001 C 
ATOM     28  C23 ZIN A   1      19.482   1.455  10.392  0.00  0.00     0.008 C 
ENDBRANCH   1  23
TORSDOF 11
ENDMDL
MODEL 9
REMARK VINA RESULT:      -6.9      2.404      4.863
REMARK  11 active torsions:
REMARK  status: ('A' for Active; 'I' for Inactive)
REMARK    1  A    between atoms: C2_2  and  N3_3 
REMARK    2  A    between atoms: N3_3  and  C5_5 
REMARK    3  A    between atoms: N3_3  and  C7_7 
REMARK    4  A    between atoms: C7_7  and  C8_8 
REMARK    5  A    between atoms: C9_9  and  C10_10 
REMARK    6  A    between atoms: C10_10  and  O11_11 
REMARK    7  A    between atoms: O11_11  and  C12_12 
REMARK    8  A    between atoms: C12_12  and  C14_14 
REMARK    9  A    between atoms: C14_14  and  O15_15 
REMARK   10  A    between atoms: C14_14  and  C16_16 
REMARK   11  A    between atoms: C14_14  and  C22_22 
ROOT
ATOM      1  C14 ZIN A   1      17.978  -0.600  12.376  0.00  0.00     0.176 C 
ENDROOT
BRANCH   1   2
ATOM      2  C12 ZIN A   1      18.459   0.420  11.377  0.00  0.00     0.299 C 
ATOM      3  O13 ZIN A   1      19.581   0.862  11.458  0.00  0.00    -0.261 OA
BRANCH   2   4
ATOM      4  O11 ZIN A   1      17.642   0.838  10.397  0.00  0.00    -0.307 OA
BRANCH   4   5
ATOM      5  C10 ZIN A   1      18.194   0.890   9.055  0.00  0.00     0.272 C 
BRANCH   5   6
ATOM      6  C9  ZIN A   1      18.439  -0.478   8.572  0.00  0.00    -0.078 C 
ATOM      7  C8  ZIN A   1      18.633  -1.569   8.185  0.00  0.00    -0.077 C 
BRANCH   7   8
ATOM      8  C7  ZIN A   1      18.877  -2.938   7.701  0.00  0.00     0.328 C 
BRANCH   8   9
ATOM      9  N3  ZIN A   1      18.264  -3.104   6.377  0.00  0.00    -0.062 N 
ATOM     10  H4  ZIN A   1      17.282  -2.877   6.429  0.00  0.00     0.280 HD
BRANCH   9  11
ATOM     11  C2  ZIN A   1      18.923  -2.209   5.416  0.00  0.00     0.231 C 
ATOM     12  C1  ZIN A   1      17.864  -1.514   4.557  0.00  0.00     0.034 C 
ENDBRANCH   9  11
BRANCH   9  13
ATOM     13  C5  ZIN A   1      18.421  -4.497   5.935  0.00  0.00     0.231 C 
ATOM     14  C6  ZIN A   1      19.417  -5.212   6.849  0.00  0.00     0.034 C 
ENDBRANCH   9  13
ENDBRANCH   8   9
ENDBRANCH   7   8
ENDBRANCH   5   6
ENDBRANCH   4   5
ENDBRANCH   2   4
ENDBRANCH   1   2
BRANCH   1  15
ATOM     15  O15 ZIN A   1      16.552  -0.549  12.459  0.00  0.00    -0.374 OA
ATOM     16  H42 ZIN A   1      16.131  -1.417  12.524  0.00  0.00     0.211 HD
ENDBRANCH   1  15
BRANCH   1  17
ATOM     17  C16 ZIN A   1      18.406  -1.976  11.936  0.00  0.00    -0.014 A 
ATOM     18  C21 ZIN A   1      19.747  -2.311  11.919  0.00  0.00     0.011 A 
ATOM     19  C20 ZIN A   1      20.138  -3.576  11.521  0.00  0.00     0.001 A 
ATOM     20  C19 ZIN A   1      19.190  -4.501  11.129  0.00  0.00     0.000 A 
ATOM     21  C18 ZIN A   1      17.849  -4.165  11.140  0.00  0.00     0.001 A 
ATOM     22  C17 ZIN A   1      17.457  -2.902  11.543  0.00  0.00     0.011 A 
ENDBRANCH   1  17
BRANCH   1  23
ATOM     23  C22 ZIN A   1      18.580  -0.293  13.749  0.00  0.00     0.035 C 
ATOM     24  C27 ZIN A   1      18.329  -1.472  14.691  0.00  0.00     0.008 C 
ATOM     25  C26 ZIN A   1      18.931  -1.165  16.064  0.00  0.00     0.001 C 
ATOM     26  C25 ZIN A   1      18.278   0.094  16.637  0.00  0.00     0.000 C 
ATOM     27  C24 ZIN A   1      18.530   1.274  15.695  0.00  0.00     0.001 C 
ATOM     28  C23 ZIN A   1      17.928   0.966  14.322  0.00  0.00     0.008 C 
ENDBRANCH   1  23
TORSDOF 11
ENDMDL
