MODEL 1
REMARK VINA RESULT:      -9.6      0.000      0.000
REMARK  5 active torsions:
REMARK  status: ('A' for Active; 'I' for Inactive)
REMARK    1  A    between atoms: N4_4  and  N5_5 
REMARK    2  A    between atoms: N5_5  and  C6_6 
REMARK    3  A    between atoms: C10_10  and  C11_11 
REMARK    4  A    between atoms: C15_15  and  C16_16 
REMARK    5  A    between atoms: N24_24  and  C25_25 
ROOT
ATOM      1  N5  ZIN A   1      19.683  -0.219  10.730  0.00  0.00    -0.147 NA
ENDROOT
BRANCH   1   2
ATOM      2  N4  ZIN A   1      19.612  -1.134   9.824  0.00  0.00    -0.142 NA
ATOM      3  C3  ZIN A   1      18.763  -2.186   9.983  0.00  0.00     0.174 A 
ATOM      4  C2  ZIN A   1      17.922  -2.411  11.054  0.00  0.00     0.087 A 
ATOM      5  C22 ZIN A   1      18.565  -3.305   9.050  0.00  0.00     0.301 A 
ATOM      6  C1  ZIN A   1      17.778  -1.525  12.265  0.00  0.00     0.075 C 
ATOM      7  N33 ZIN A   1      17.249  -3.569  10.833  0.00  0.00    -0.167 NA
ATOM      8  N24 ZIN A   1      17.638  -4.113   9.606  0.00  0.00    -0.195 N 
ATOM      9  O23 ZIN A   1      19.127  -3.472   7.984  0.00  0.00    -0.263 OA
BRANCH   8  10
ATOM     10  C25 ZIN A   1      17.151  -5.301   9.049  0.00  0.00     0.062 A 
ATOM     11  C32 ZIN A   1      15.808  -5.412   8.710  0.00  0.00     0.039 A 
ATOM     12  C30 ZIN A   1      15.332  -6.583   8.157  0.00  0.00    -0.054 A 
ATOM     13  C28 ZIN A   1      16.188  -7.650   7.949  0.00  0.00    -0.056 A 
ATOM     14  C31 ZIN A   1      13.877  -6.703   7.784  0.00  0.00     0.049 C 
ATOM     15  C27 ZIN A   1      17.524  -7.544   8.290  0.00  0.00     0.009 A 
ATOM     16  C29 ZIN A   1      15.664  -8.929   7.349  0.00  0.00     0.049 C 
ATOM     17  C26 ZIN A   1      18.008  -6.373   8.839  0.00  0.00     0.032 A 
ENDBRANCH   8  10
ENDBRANCH   1   2
BRANCH   1  18
ATOM     18  C6  ZIN A   1      19.278   1.055  10.448  0.00  0.00     0.116 A 
ATOM     19  C20 ZIN A   1      19.022   1.958  11.488  0.00  0.00     0.148 A 
ATOM     20  C10 ZIN A   1      18.614   3.259  11.187  0.00  0.00     0.013 A 
ATOM     21  O21 ZIN A   1      19.180   1.574  12.780  0.00  0.00    -0.189 OA
ATOM     22  C9  ZIN A   1      18.452   3.645   9.858  0.00  0.00     0.015 A 
ATOM     23  C8  ZIN A   1      18.701   2.748   8.837  0.00  0.00     0.003 A 
ATOM     24  C7  ZIN A   1      19.112   1.461   9.122  0.00  0.00     0.036 A 
BRANCH  20  25
ATOM     25  C11 ZIN A   1      18.345   4.226  12.280  0.00  0.00    -0.022 A 
ATOM     26  C19 ZIN A   1      19.391   4.694  13.068  0.00  0.00     0.030 A 
ATOM     27  C15 ZIN A   1      19.131   5.607  14.090  0.00  0.00     0.041 A 
ATOM     28  C14 ZIN A   1      17.821   6.037  14.322  0.00  0.00     0.018 A 
ATOM     29  C13 ZIN A   1      16.789   5.563  13.538  0.00  0.00     0.002 A 
ATOM     30  C12 ZIN A   1      17.043   4.662  12.521  0.00  0.00     0.012 A 
BRANCH  27  31
ATOM     31  C16 ZIN A   1      20.235   6.113  14.928  0.00  0.00     0.209 C 
ATOM     32  O17 ZIN A   1      20.406   5.662  16.053  0.00  0.00    -0.644 OA
ATOM     33  O18 ZIN A   1      20.979   6.982  14.499  0.00  0.00    -0.644 OA
ENDBRANCH  27  31
ENDBRANCH  20  25
ENDBRANCH   1  18
TORSDOF 5
ENDMDL
MODEL 2
REMARK VINA RESULT:      -9.4      3.612      9.427
REMARK  5 active torsions:
REMARK  status: ('A' for Active; 'I' for Inactive)
REMARK    1  A    between atoms: N4_4  and  N5_5 
REMARK    2  A    between atoms: N5_5  and  C6_6 
REMARK    3  A    between atoms: C10_10  and  C11_11 
REMARK    4  A    between atoms: C15_15  and  C16_16 
REMARK    5  A    between atoms: N24_24  and  C25_25 
ROOT
ATOM      1  N5  ZIN A   1      19.238   1.304   8.659  0.00  0.00    -0.147 NA
ENDROOT
BRANCH   1   2
ATOM      2  N4  ZIN A   1      19.457   0.682   9.767  0.00  0.00    -0.142 NA
ATOM      3  C3  ZIN A   1      19.006   1.201  10.941  0.00  0.00     0.174 A 
ATOM      4  C2  ZIN A   1      18.305   2.379  11.105  0.00  0.00     0.087 A 
ATOM      5  C22 ZIN A   1      19.171   0.619  12.281  0.00  0.00     0.301 A 
ATOM      6  C1  ZIN A   1      17.899   3.325  10.005  0.00  0.00     0.075 C 
ATOM      7  N33 ZIN A   1      18.048   2.542  12.428  0.00  0.00    -0.167 NA
ATOM      8  N24 ZIN A   1      18.573   1.464  13.147  0.00  0.00    -0.195 N 
ATOM      9  O23 ZIN A   1      19.737  -0.422  12.558  0.00  0.00    -0.263 OA
BRANCH   8  10
ATOM     10  C25 ZIN A   1      18.495   1.293  14.533  0.00  0.00     0.062 A 
ATOM     11  C32 ZIN A   1      17.746   0.251  15.065  0.00  0.00     0.039 A 
ATOM     12  C30 ZIN A   1      17.676   0.083  16.433  0.00  0.00    -0.054 A 
ATOM     13  C28 ZIN A   1      18.341   0.956  17.275  0.00  0.00    -0.056 A 
ATOM     14  C31 ZIN A   1      16.868  -1.051  17.012  0.00  0.00     0.049 C 
ATOM     15  C27 ZIN A   1      19.083   1.997  16.749  0.00  0.00     0.009 A 
ATOM     16  C29 ZIN A   1      18.258   0.771  18.769  0.00  0.00     0.049 C 
ATOM     17  C26 ZIN A   1      19.162   2.168  15.380  0.00  0.00     0.032 A 
ENDBRANCH   8  10
ENDBRANCH   1   2
BRANCH   1  18
ATOM     18  C6  ZIN A   1      19.191   0.610   7.482  0.00  0.00     0.116 A 
ATOM     19  C20 ZIN A   1      19.157  -0.789   7.492  0.00  0.00     0.148 A 
ATOM     20  C10 ZIN A   1      19.103  -1.487   6.284  0.00  0.00     0.013 A 
ATOM     21  O21 ZIN A   1      19.165  -1.465   8.670  0.00  0.00    -0.189 OA
ATOM     22  C9  ZIN A   1      19.096  -0.786   5.079  0.00  0.00     0.015 A 
ATOM     23  C8  ZIN A   1      19.136   0.595   5.076  0.00  0.00     0.003 A 
ATOM     24  C7  ZIN A   1      19.182   1.295   6.264  0.00  0.00     0.036 A 
BRANCH  20  25
ATOM     25  C11 ZIN A   1      19.060  -2.970   6.282  0.00  0.00    -0.022 A 
ATOM     26  C19 ZIN A   1      19.926  -3.693   7.094  0.00  0.00     0.030 A 
ATOM     27  C15 ZIN A   1      19.875  -5.087   7.090  0.00  0.00     0.041 A 
ATOM     28  C14 ZIN A   1      18.963  -5.747   6.262  0.00  0.00     0.018 A 
ATOM     29  C13 ZIN A   1      18.110  -5.021   5.455  0.00  0.00     0.002 A 
ATOM     30  C12 ZIN A   1      18.154  -3.640   5.460  0.00  0.00     0.012 A 
BRANCH  27  31
ATOM     31  C16 ZIN A   1      20.787  -5.863   7.954  0.00  0.00     0.209 C 
ATOM     32  O17 ZIN A   1      20.342  -6.491   8.904  0.00  0.00    -0.644 OA
ATOM     33  O18 ZIN A   1      21.986  -5.878   7.719  0.00  0.00    -0.644 OA
ENDBRANCH  27  31
ENDBRANCH  20  25
ENDBRANCH   1  18
TORSDOF 5
ENDMDL
MODEL 3
REMARK VINA RESULT:      -9.4      2.022      2.614
REMARK  5 active torsions:
REMARK  status: ('A' for Active; 'I' for Inactive)
REMARK    1  A    between atoms: N4_4  and  N5_5 
REMARK    2  A    between atoms: N5_5  and  C6_6 
REMARK    3  A    between atoms: C10_10  and  C11_11 
REMARK    4  A    between atoms: C15_15  and  C16_16 
REMARK    5  A    between atoms: N24_24  and  C25_25 
ROOT
ATOM      1  N5  ZIN A   1      19.315   1.089  11.479  0.00  0.00    -0.147 NA
ENDROOT
BRANCH   1   2
ATOM      2  N4  ZIN A   1      19.340   0.242  10.506  0.00  0.00    -0.142 NA
ATOM      3  C3  ZIN A   1      18.795  -0.994  10.664  0.00  0.00     0.174 A 
ATOM      4  C2  ZIN A   1      18.185  -1.487  11.800  0.00  0.00     0.087 A 
ATOM      5  C22 ZIN A   1      18.742  -2.068   9.660  0.00  0.00     0.301 A 
ATOM      6  C1  ZIN A   1      18.003  -0.741  13.097  0.00  0.00     0.075 C 
ATOM      7  N33 ZIN A   1      17.783  -2.759  11.552  0.00  0.00    -0.167 NA
ATOM      8  N24 ZIN A   1      18.118  -3.113  10.242  0.00  0.00    -0.195 N 
ATOM      9  O23 ZIN A   1      19.176  -2.023   8.524  0.00  0.00    -0.263 OA
BRANCH   8  10
ATOM     10  C25 ZIN A   1      17.855  -4.347   9.638  0.00  0.00     0.062 A 
ATOM     11  C32 ZIN A   1      16.571  -4.650   9.205  0.00  0.00     0.039 A 
ATOM     12  C30 ZIN A   1      16.316  -5.867   8.605  0.00  0.00    -0.054 A 
ATOM     13  C28 ZIN A   1      17.336  -6.788   8.444  0.00  0.00    -0.056 A 
ATOM     14  C31 ZIN A   1      14.924  -6.195   8.129  0.00  0.00     0.049 C 
ATOM     15  C27 ZIN A   1      18.614  -6.491   8.879  0.00  0.00     0.009 A 
ATOM     16  C29 ZIN A   1      17.053  -8.117   7.792  0.00  0.00     0.049 C 
ATOM     17  C26 ZIN A   1      18.877  -5.273   9.475  0.00  0.00     0.032 A 
ENDBRANCH   8  10
ENDBRANCH   1   2
BRANCH   1  18
ATOM     18  C6  ZIN A   1      18.778   2.331  11.291  0.00  0.00     0.116 A 
ATOM     19  C20 ZIN A   1      18.432   3.121  12.395  0.00  0.00     0.148 A 
ATOM     20  C10 ZIN A   1      17.888   4.391  12.190  0.00  0.00     0.013 A 
ATOM     21  O21 ZIN A   1      18.634   2.660  13.655  0.00  0.00    -0.189 OA
ATOM     22  C9  ZIN A   1      17.683   4.857  10.893  0.00  0.00     0.015 A 
ATOM     23  C8  ZIN A   1      18.021   4.070   9.809  0.00  0.00     0.003 A 
ATOM     24  C7  ZIN A   1      18.566   2.815   9.998  0.00  0.00     0.036 A 
BRANCH  20  25
ATOM     25  C11 ZIN A   1      17.524   5.240  13.351  0.00  0.00    -0.022 A 
ATOM     26  C19 ZIN A   1      16.188   5.409  13.698  0.00  0.00     0.030 A 
ATOM     27  C15 ZIN A   1      15.855   6.205  14.794  0.00  0.00     0.041 A 
ATOM     28  C14 ZIN A   1      16.864   6.835  15.529  0.00  0.00     0.018 A 
ATOM     29  C13 ZIN A   1      18.186   6.665  15.174  0.00  0.00     0.002 A 
ATOM     30  C12 ZIN A   1      18.522   5.873  14.092  0.00  0.00     0.012 A 
BRANCH  27  31
ATOM     31  C16 ZIN A   1      14.440   6.386  15.173  0.00  0.00     0.209 C 
ATOM     32  O17 ZIN A   1      13.560   5.815  14.544  0.00  0.00    -0.644 OA
ATOM     33  O18 ZIN A   1      14.147   7.107  16.116  0.00  0.00    -0.644 OA
ENDBRANCH  27  31
ENDBRANCH  20  25
ENDBRANCH   1  18
TORSDOF 5
ENDMDL
MODEL 4
REMARK VINA RESULT:      -9.4      1.224      1.642
REMARK  5 active torsions:
REMARK  status: ('A' for Active; 'I' for Inactive)
REMARK    1  A    between atoms: N4_4  and  N5_5 
REMARK    2  A    between atoms: N5_5  and  C6_6 
REMARK    3  A    between atoms: C10_10  and  C11_11 
REMARK    4  A    between atoms: C15_15  and  C16_16 
REMARK    5  A    between atoms: N24_24  and  C25_25 
ROOT
ATOM      1  N5  ZIN A   1      19.350   1.076  11.337  0.00  0.00    -0.147 NA
ENDROOT
BRANCH   1   2
ATOM      2  N4  ZIN A   1      19.363   0.234  10.360  0.00  0.00    -0.142 NA
ATOM      3  C3  ZIN A   1      18.833  -1.008  10.523  0.00  0.00     0.174 A 
ATOM      4  C2  ZIN A   1      18.250  -1.511  11.669  0.00  0.00     0.087 A 
ATOM      5  C22 ZIN A   1      18.769  -2.077   9.516  0.00  0.00     0.301 A 
ATOM      6  C1  ZIN A   1      18.087  -0.772  12.973  0.00  0.00     0.075 C 
ATOM      7  N33 ZIN A   1      17.855  -2.785  11.424  0.00  0.00    -0.167 NA
ATOM      8  N24 ZIN A   1      18.167  -3.131  10.106  0.00  0.00    -0.195 N 
ATOM      9  O23 ZIN A   1      19.181  -2.024   8.372  0.00  0.00    -0.263 OA
BRANCH   8  10
ATOM     10  C25 ZIN A   1      17.903  -4.365   9.502  0.00  0.00     0.062 A 
ATOM     11  C32 ZIN A   1      16.603  -4.705   9.151  0.00  0.00     0.039 A 
ATOM     12  C30 ZIN A   1      16.348  -5.921   8.551  0.00  0.00    -0.054 A 
ATOM     13  C28 ZIN A   1      17.383  -6.805   8.307  0.00  0.00    -0.056 A 
ATOM     14  C31 ZIN A   1      14.938  -6.289   8.165  0.00  0.00     0.049 C 
ATOM     15  C27 ZIN A   1      18.678  -6.472   8.660  0.00  0.00     0.009 A 
ATOM     16  C29 ZIN A   1      17.099  -8.135   7.656  0.00  0.00     0.049 C 
ATOM     17  C26 ZIN A   1      18.941  -5.255   9.256  0.00  0.00     0.032 A 
ENDBRANCH   8  10
ENDBRANCH   1   2
BRANCH   1  18
ATOM     18  C6  ZIN A   1      18.782   2.308  11.171  0.00  0.00     0.116 A 
ATOM     19  C20 ZIN A   1      18.352   3.040  12.284  0.00  0.00     0.148 A 
ATOM     20  C10 ZIN A   1      17.777   4.299  12.102  0.00  0.00     0.013 A 
ATOM     21  O21 ZIN A   1      18.502   2.533  13.535  0.00  0.00    -0.189 OA
ATOM     22  C9  ZIN A   1      17.625   4.813  10.815  0.00  0.00     0.015 A 
ATOM     23  C8  ZIN A   1      18.047   4.083   9.721  0.00  0.00     0.003 A 
ATOM     24  C7  ZIN A   1      18.622   2.840   9.888  0.00  0.00     0.036 A 
BRANCH  20  25
ATOM     25  C11 ZIN A   1      17.323   5.086  13.275  0.00  0.00    -0.022 A 
ATOM     26  C19 ZIN A   1      18.234   5.463  14.256  0.00  0.00     0.030 A 
ATOM     27  C15 ZIN A   1      17.800   6.207  15.353  0.00  0.00     0.041 A 
ATOM     28  C14 ZIN A   1      16.452   6.561  15.464  0.00  0.00     0.018 A 
ATOM     29  C13 ZIN A   1      15.554   6.178  14.488  0.00  0.00     0.002 A 
ATOM     30  C12 ZIN A   1      15.980   5.445  13.397  0.00  0.00     0.012 A 
BRANCH  27  31
ATOM     31  C16 ZIN A   1      18.760   6.616  16.396  0.00  0.00     0.209 C 
ATOM     32  O17 ZIN A   1      19.962   6.511  16.196  0.00  0.00    -0.644 OA
ATOM     33  O18 ZIN A   1      18.355   7.060  17.460  0.00  0.00    -0.644 OA
ENDBRANCH  27  31
ENDBRANCH  20  25
ENDBRANCH   1  18
TORSDOF 5
ENDMDL
MODEL 5
REMARK VINA RESULT:      -9.3      2.889     10.472
REMARK  5 active torsions:
REMARK  status: ('A' for Active; 'I' for Inactive)
REMARK    1  A    between atoms: N4_4  and  N5_5 
REMARK    2  A    between atoms: N5_5  and  C6_6 
REMARK    3  A    between atoms: C10_10  and  C11_11 
REMARK    4  A    between atoms: C15_15  and  C16_16 
REMARK    5  A    between atoms: N24_24  and  C25_25 
ROOT
ATOM      1  N5  ZIN A   1      19.620   1.525   9.340  0.00  0.00    -0.147 NA
ENDROOT
BRANCH   1   2
ATOM      2  N4  ZIN A   1      18.958   2.602   9.597  0.00  0.00    -0.142 NA
ATOM      3  C3  ZIN A   1      18.807   3.019  10.883  0.00  0.00     0.174 A 
ATOM      4  C2  ZIN A   1      19.300   2.399  12.014  0.00  0.00     0.087 A 
ATOM      5  C22 ZIN A   1      18.086   4.216  11.342  0.00  0.00     0.301 A 
ATOM      6  C1  ZIN A   1      20.110   1.128  12.041  0.00  0.00     0.075 C 
ATOM      7  N33 ZIN A   1      18.927   3.125  13.097  0.00  0.00    -0.167 NA
ATOM      8  N24 ZIN A   1      18.189   4.239  12.687  0.00  0.00    -0.195 N 
ATOM      9  O23 ZIN A   1      17.508   5.028  10.644  0.00  0.00    -0.263 OA
BRANCH   8  10
ATOM     10  C25 ZIN A   1      17.644   5.213  13.531  0.00  0.00     0.062 A 
ATOM     11  C32 ZIN A   1      16.275   5.245  13.763  0.00  0.00     0.039 A 
ATOM     12  C30 ZIN A   1      15.741   6.204  14.600  0.00  0.00    -0.054 A 
ATOM     13  C28 ZIN A   1      16.567   7.139  15.200  0.00  0.00    -0.056 A 
ATOM     14  C31 ZIN A   1      14.257   6.237  14.858  0.00  0.00     0.049 C 
ATOM     15  C27 ZIN A   1      17.929   7.112  14.967  0.00  0.00     0.009 A 
ATOM     16  C29 ZIN A   1      15.980   8.187  16.110  0.00  0.00     0.049 C 
ATOM     17  C26 ZIN A   1      18.470   6.152  14.134  0.00  0.00     0.032 A 
ENDBRANCH   8  10
ENDBRANCH   1   2
BRANCH   1  18
ATOM     18  C6  ZIN A   1      19.245   0.724   8.299  0.00  0.00     0.116 A 
ATOM     19  C20 ZIN A   1      19.248  -0.669   8.447  0.00  0.00     0.148 A 
ATOM     20  C10 ZIN A   1      18.857  -1.477   7.378  0.00  0.00     0.013 A 
ATOM     21  O21 ZIN A   1      19.618  -1.230   9.626  0.00  0.00    -0.189 OA
ATOM     22  C9  ZIN A   1      18.479  -0.894   6.169  0.00  0.00     0.015 A 
ATOM     23  C8  ZIN A   1      18.484   0.480   6.028  0.00  0.00     0.003 A 
ATOM     24  C7  ZIN A   1      18.861   1.290   7.081  0.00  0.00     0.036 A 
BRANCH  20  25
ATOM     25  C11 ZIN A   1      18.851  -2.953   7.524  0.00  0.00    -0.022 A 
ATOM     26  C19 ZIN A   1      17.900  -3.569   8.331  0.00  0.00     0.030 A 
ATOM     27  C15 ZIN A   1      17.897  -4.958   8.459  0.00  0.00     0.041 A 
ATOM     28  C14 ZIN A   1      18.857  -5.720   7.786  0.00  0.00     0.018 A 
ATOM     29  C13 ZIN A   1      19.800  -5.100   6.992  0.00  0.00     0.002 A 
ATOM     30  C12 ZIN A   1      19.803  -3.725   6.858  0.00  0.00     0.012 A 
BRANCH  27  31
ATOM     31  C16 ZIN A   1      16.888  -5.621   9.308  0.00  0.00     0.209 C 
ATOM     32  O17 ZIN A   1      17.202  -6.048  10.411  0.00  0.00    -0.644 OA
ATOM     33  O18 ZIN A   1      15.739  -5.742   8.910  0.00  0.00    -0.644 OA
ENDBRANCH  27  31
ENDBRANCH  20  25
ENDBRANCH   1  18
TORSDOF 5
ENDMDL
MODEL 6
REMARK VINA RESULT:      -9.1      2.067     10.938
REMARK  5 active torsions:
REMARK  status: ('A' for Active; 'I' for Inactive)
REMARK    1  A    between atoms: N4_4  and  N5_5 
REMARK    2  A    between atoms: N5_5  and  C6_6 
REMARK    3  A    between atoms: C10_10  and  C11_11 
REMARK    4  A    between atoms: C15_15  and  C16_16 
REMARK    5  A    between atoms: N24_24  and  C25_25 
ROOT
ATOM      1  N5  ZIN A   1      19.431  -0.863  10.535  0.00  0.00    -0.147 NA
ENDROOT
BRANCH   1   2
ATOM      2  N4  ZIN A   1      19.365  -0.209  11.645  0.00  0.00    -0.142 NA
ATOM      3  C3  ZIN A   1      19.082   1.121  11.636  0.00  0.00     0.174 A 
ATOM      4  C2  ZIN A   1      18.845   1.906  10.526  0.00  0.00     0.087 A 
ATOM      5  C22 ZIN A   1      18.972   2.005  12.807  0.00  0.00     0.301 A 
ATOM      6  C1  ZIN A   1      18.852   1.435   9.095  0.00  0.00     0.075 C 
ATOM      7  N33 ZIN A   1      18.609   3.176  10.943  0.00  0.00    -0.167 NA
ATOM      8  N24 ZIN A   1      18.681   3.236  12.337  0.00  0.00    -0.195 N 
ATOM      9  O23 ZIN A   1      19.115   1.688  13.973  0.00  0.00    -0.263 OA
BRANCH   8  10
ATOM     10  C25 ZIN A   1      18.490   4.383  13.116  0.00  0.00     0.062 A 
ATOM     11  C32 ZIN A   1      17.204   4.828  13.394  0.00  0.00     0.039 A 
ATOM     12  C30 ZIN A   1      17.019   5.957  14.167  0.00  0.00    -0.054 A 
ATOM     13  C28 ZIN A   1      18.112   6.651  14.654  0.00  0.00    -0.056 A 
ATOM     14  C31 ZIN A   1      15.624   6.438  14.475  0.00  0.00     0.049 C 
ATOM     15  C27 ZIN A   1      19.393   6.213  14.374  0.00  0.00     0.009 A 
ATOM     16  C29 ZIN A   1      17.905   7.886  15.493  0.00  0.00     0.049 C 
ATOM     17  C26 ZIN A   1      19.585   5.081  13.607  0.00  0.00     0.032 A 
ENDBRANCH   8  10
ENDBRANCH   1   2
BRANCH   1  18
ATOM     18  C6  ZIN A   1      19.327  -2.226  10.536  0.00  0.00     0.116 A 
ATOM     19  C20 ZIN A   1      18.484  -2.867   9.621  0.00  0.00     0.148 A 
ATOM     20  C10 ZIN A   1      18.390  -4.260   9.628  0.00  0.00     0.013 A 
ATOM     21  O21 ZIN A   1      17.770  -2.140   8.723  0.00  0.00    -0.189 OA
ATOM     22  C9  ZIN A   1      19.125  -5.000  10.553  0.00  0.00     0.015 A 
ATOM     23  C8  ZIN A   1      19.950  -4.360  11.458  0.00  0.00     0.003 A 
ATOM     24  C7  ZIN A   1      20.057  -2.984  11.455  0.00  0.00     0.036 A 
BRANCH  20  25
ATOM     25  C11 ZIN A   1      17.505  -4.952   8.659  0.00  0.00    -0.022 A 
ATOM     26  C19 ZIN A   1      17.960  -5.229   7.375  0.00  0.00     0.030 A 
ATOM     27  C15 ZIN A   1      17.124  -5.885   6.472  0.00  0.00     0.041 A 
ATOM     28  C14 ZIN A   1      15.830  -6.247   6.859  0.00  0.00     0.018 A 
ATOM     29  C13 ZIN A   1      15.385  -5.963   8.133  0.00  0.00     0.002 A 
ATOM     30  C12 ZIN A   1      16.212  -5.319   9.034  0.00  0.00     0.012 A 
BRANCH  27  31
ATOM     31  C16 ZIN A   1      17.601  -6.188   5.108  0.00  0.00     0.209 C 
ATOM     32  O17 ZIN A   1      17.959  -7.323   4.825  0.00  0.00    -0.644 OA
ATOM     33  O18 ZIN A   1      17.638  -5.307   4.263  0.00  0.00    -0.644 OA
ENDBRANCH  27  31
ENDBRANCH  20  25
ENDBRANCH   1  18
TORSDOF 5
ENDMDL
MODEL 7
REMARK VINA RESULT:      -9.1      2.573      3.566
REMARK  5 active torsions:
REMARK  status: ('A' for Active; 'I' for Inactive)
REMARK    1  A    between atoms: N4_4  and  N5_5 
REMARK    2  A    between atoms: N5_5  and  C6_6 
REMARK    3  A    between atoms: C10_10  and  C11_11 
REMARK    4  A    between atoms: C15_15  and  C16_16 
REMARK    5  A    between atoms: N24_24  and  C25_25 
ROOT
ATOM      1  N5  ZIN A   1      19.458  -1.216  13.435  0.00  0.00    -0.147 NA
ENDROOT
BRANCH   1   2
ATOM      2  N4  ZIN A   1      18.815  -2.316  13.233  0.00  0.00    -0.142 NA
ATOM      3  C3  ZIN A   1      18.661  -2.793  11.969  0.00  0.00     0.174 A 
ATOM      4  C2  ZIN A   1      19.130  -2.215  10.807  0.00  0.00     0.087 A 
ATOM      5  C22 ZIN A   1      17.960  -4.024  11.572  0.00  0.00     0.301 A 
ATOM      6  C1  ZIN A   1      19.914  -0.931  10.714  0.00  0.00     0.075 C 
ATOM      7  N33 ZIN A   1      18.761  -2.997   9.761  0.00  0.00    -0.167 NA
ATOM      8  N24 ZIN A   1      18.050  -4.106  10.229  0.00  0.00    -0.195 N 
ATOM      9  O23 ZIN A   1      17.405  -4.815  12.312  0.00  0.00    -0.263 OA
BRANCH   8  10
ATOM     10  C25 ZIN A   1      17.517  -5.127   9.435  0.00  0.00     0.062 A 
ATOM     11  C32 ZIN A   1      16.156  -5.154   9.157  0.00  0.00     0.039 A 
ATOM     12  C30 ZIN A   1      15.634  -6.161   8.369  0.00  0.00    -0.054 A 
ATOM     13  C28 ZIN A   1      16.463  -7.147   7.865  0.00  0.00    -0.056 A 
ATOM     14  C31 ZIN A   1      14.159  -6.189   8.063  0.00  0.00     0.049 C 
ATOM     15  C27 ZIN A   1      17.817  -7.126   8.144  0.00  0.00     0.009 A 
ATOM     16  C29 ZIN A   1      15.889  -8.247   7.009  0.00  0.00     0.049 C 
ATOM     17  C26 ZIN A   1      18.346  -6.118   8.927  0.00  0.00     0.032 A 
ENDBRANCH   8  10
ENDBRANCH   1   2
BRANCH   1  18
ATOM     18  C6  ZIN A   1      19.183  -0.455  14.536  0.00  0.00     0.116 A 
ATOM     19  C20 ZIN A   1      19.209   0.942  14.450  0.00  0.00     0.148 A 
ATOM     20  C10 ZIN A   1      18.921   1.709  15.581  0.00  0.00     0.013 A 
ATOM     21  O21 ZIN A   1      19.502   1.549  13.271  0.00  0.00    -0.189 OA
ATOM     22  C9  ZIN A   1      18.622   1.079  16.788  0.00  0.00     0.015 A 
ATOM     23  C8  ZIN A   1      18.604  -0.300  16.867  0.00  0.00     0.003 A 
ATOM     24  C7  ZIN A   1      18.880  -1.069  15.754  0.00  0.00     0.036 A 
BRANCH  20  25
ATOM     25  C11 ZIN A   1      18.939   3.190  15.500  0.00  0.00    -0.022 A 
ATOM     26  C19 ZIN A   1      18.006   3.857  14.714  0.00  0.00     0.030 A 
ATOM     27  C15 ZIN A   1      18.027   5.250  14.648  0.00  0.00     0.041 A 
ATOM     28  C14 ZIN A   1      18.992   5.965  15.363  0.00  0.00     0.018 A 
ATOM     29  C13 ZIN A   1      19.918   5.295  16.136  0.00  0.00     0.002 A 
ATOM     30  C12 ZIN A   1      19.897   3.915  16.209  0.00  0.00     0.012 A 
BRANCH  27  31
ATOM     31  C16 ZIN A   1      17.036   5.966  13.821  0.00  0.00     0.209 C 
ATOM     32  O17 ZIN A   1      16.821   7.154  14.016  0.00  0.00    -0.644 OA
ATOM     33  O18 ZIN A   1      16.431   5.372  12.941  0.00  0.00    -0.644 OA
ENDBRANCH  27  31
ENDBRANCH  20  25
ENDBRANCH   1  18
TORSDOF 5
ENDMDL
MODEL 8
REMARK VINA RESULT:      -9.1      3.138     10.820
REMARK  5 active torsions:
REMARK  status: ('A' for Active; 'I' for Inactive)
REMARK    1  A    between atoms: N4_4  and  N5_5 
REMARK    2  A    between atoms: N5_5  and  C6_6 
REMARK    3  A    between atoms: C10_10  and  C11_11 
REMARK    4  A    between atoms: C15_15  and  C16_16 
REMARK    5  A    between atoms: N24_24  and  C25_25 
ROOT
ATOM      1  N5  ZIN A   1      18.280   0.520   9.430  0.00  0.00    -0.147 NA
ENDROOT
BRANCH   1   2
ATOM      2  N4  ZIN A   1      17.754   1.629   9.824  0.00  0.00    -0.142 NA
ATOM      3  C3  ZIN A   1      18.171   2.207  10.983  0.00  0.00     0.174 A 
ATOM      4  C2  ZIN A   1      19.141   1.728  11.841  0.00  0.00     0.087 A 
ATOM      5  C22 ZIN A   1      17.677   3.462  11.568  0.00  0.00     0.301 A 
ATOM      6  C1  ZIN A   1      19.934   0.459  11.656  0.00  0.00     0.075 C 
ATOM      7  N33 ZIN A   1      19.255   2.590  12.882  0.00  0.00    -0.167 NA
ATOM      8  N24 ZIN A   1      18.364   3.654  12.713  0.00  0.00    -0.195 N 
ATOM      9  O23 ZIN A   1      16.814   4.188  11.110  0.00  0.00    -0.263 OA
BRANCH   8  10
ATOM     10  C25 ZIN A   1      18.208   4.734  13.589  0.00  0.00     0.062 A 
ATOM     11  C32 ZIN A   1      16.948   5.062  14.072  0.00  0.00     0.039 A 
ATOM     12  C30 ZIN A   1      16.798   6.125  14.940  0.00  0.00    -0.054 A 
ATOM     13  C28 ZIN A   1      17.900   6.869  15.321  0.00  0.00    -0.056 A 
ATOM     14  C31 ZIN A   1      15.432   6.478  15.469  0.00  0.00     0.049 C 
ATOM     15  C27 ZIN A   1      19.155   6.548  14.838  0.00  0.00     0.009 A 
ATOM     16  C29 ZIN A   1      17.732   8.032  16.265  0.00  0.00     0.049 C 
ATOM     17  C26 ZIN A   1      19.312   5.483  13.973  0.00  0.00     0.032 A 
ENDBRANCH   8  10
ENDBRANCH   1   2
BRANCH   1  18
ATOM     18  C6  ZIN A   1      18.511   0.307   8.100  0.00  0.00     0.116 A 
ATOM     19  C20 ZIN A   1      18.248  -0.946   7.532  0.00  0.00     0.148 A 
ATOM     20  C10 ZIN A   1      18.484  -1.149   6.171  0.00  0.00     0.013 A 
ATOM     21  O21 ZIN A   1      17.756  -1.953   8.297  0.00  0.00    -0.189 OA
ATOM     22  C9  ZIN A   1      18.990  -0.110   5.391  0.00  0.00     0.015 A 
ATOM     23  C8  ZIN A   1      19.253   1.122   5.960  0.00  0.00     0.003 A 
ATOM     24  C7  ZIN A   1      19.018   1.337   7.303  0.00  0.00     0.036 A 
BRANCH  20  25
ATOM     25  C11 ZIN A   1      18.202  -2.469   5.556  0.00  0.00    -0.022 A 
ATOM     26  C19 ZIN A   1      18.652  -3.633   6.169  0.00  0.00     0.030 A 
ATOM     27  C15 ZIN A   1      18.379  -4.871   5.587  0.00  0.00     0.041 A 
ATOM     28  C14 ZIN A   1      17.664  -4.933   4.387  0.00  0.00     0.018 A 
ATOM     29  C13 ZIN A   1      17.225  -3.772   3.783  0.00  0.00     0.002 A 
ATOM     30  C12 ZIN A   1      17.490  -2.544   4.359  0.00  0.00     0.012 A 
BRANCH  27  31
ATOM     31  C16 ZIN A   1      18.848  -6.112   6.233  0.00  0.00     0.209 C 
ATOM     32  O17 ZIN A   1      19.717  -6.063   7.093  0.00  0.00    -0.644 OA
ATOM     33  O18 ZIN A   1      18.369  -7.189   5.910  0.00  0.00    -0.644 OA
ENDBRANCH  27  31
ENDBRANCH  20  25
ENDBRANCH   1  18
TORSDOF 5
ENDMDL
MODEL 9
REMARK VINA RESULT:      -9.0      2.030      3.100
REMARK  5 active torsions:
REMARK  status: ('A' for Active; 'I' for Inactive)
REMARK    1  A    between atoms: N4_4  and  N5_5 
REMARK    2  A    between atoms: N5_5  and  C6_6 
REMARK    3  A    between atoms: C10_10  and  C11_11 
REMARK    4  A    between atoms: C15_15  and  C16_16 
REMARK    5  A    between atoms: N24_24  and  C25_25 
ROOT
ATOM      1  N5  ZIN A   1      19.343   2.031   9.520  0.00  0.00    -0.147 NA
ENDROOT
BRANCH   1   2
ATOM      2  N4  ZIN A   1      19.246   0.798   9.888  0.00  0.00    -0.142 NA
ATOM      3  C3  ZIN A   1      18.995  -0.171   8.966  0.00  0.00     0.174 A 
ATOM      4  C2  ZIN A   1      18.821   0.009   7.608  0.00  0.00     0.087 A 
ATOM      5  C22 ZIN A   1      18.856  -1.612   9.220  0.00  0.00     0.301 A 
ATOM      6  C1  ZIN A   1      18.877   1.326   6.878  0.00  0.00     0.075 C 
ATOM      7  N33 ZIN A   1      18.586  -1.202   7.044  0.00  0.00    -0.167 NA
ATOM      8  N24 ZIN A   1      18.612  -2.194   8.028  0.00  0.00    -0.195 N 
ATOM      9  O23 ZIN A   1      18.942  -2.172  10.297  0.00  0.00    -0.263 OA
BRANCH   8  10
ATOM     10  C25 ZIN A   1      18.414  -3.563   7.812  0.00  0.00     0.062 A 
ATOM     11  C32 ZIN A   1      17.295  -4.195   8.338  0.00  0.00     0.039 A 
ATOM     12  C30 ZIN A   1      17.100  -5.544   8.119  0.00  0.00    -0.054 A 
ATOM     13  C28 ZIN A   1      18.023  -6.268   7.385  0.00  0.00    -0.056 A 
ATOM     14  C31 ZIN A   1      15.883  -6.230   8.685  0.00  0.00     0.049 C 
ATOM     15  C27 ZIN A   1      19.140  -5.642   6.865  0.00  0.00     0.009 A 
ATOM     16  C29 ZIN A   1      17.809  -7.742   7.152  0.00  0.00     0.049 C 
ATOM     17  C26 ZIN A   1      19.338  -4.292   7.076  0.00  0.00     0.032 A 
ENDBRANCH   8  10
ENDBRANCH   1   2
BRANCH   1  18
ATOM     18  C6  ZIN A   1      18.804   3.020  10.293  0.00  0.00     0.116 A 
ATOM     19  C20 ZIN A   1      19.260   3.216  11.602  0.00  0.00     0.148 A 
ATOM     20  C10 ZIN A   1      18.705   4.234  12.381  0.00  0.00     0.013 A 
ATOM     21  O21 ZIN A   1      20.244   2.430  12.109  0.00  0.00    -0.189 OA
ATOM     22  C9  ZIN A   1      17.694   5.037  11.855  0.00  0.00     0.015 A 
ATOM     23  C8  ZIN A   1      17.245   4.834  10.564  0.00  0.00     0.003 A 
ATOM     24  C7  ZIN A   1      17.791   3.836   9.782  0.00  0.00     0.036 A 
BRANCH  20  25
ATOM     25  C11 ZIN A   1      19.184   4.456  13.767  0.00  0.00    -0.022 A 
ATOM     26  C19 ZIN A   1      18.934   3.506  14.752  0.00  0.00     0.030 A 
ATOM     27  C15 ZIN A   1      19.393   3.720  16.051  0.00  0.00     0.041 A 
ATOM     28  C14 ZIN A   1      20.091   4.892  16.358  0.00  0.00     0.018 A 
ATOM     29  C13 ZIN A   1      20.331   5.832  15.376  0.00  0.00     0.002 A 
ATOM     30  C12 ZIN A   1      19.882   5.621  14.086  0.00  0.00     0.012 A 
BRANCH  27  31
ATOM     31  C16 ZIN A   1      19.137   2.716  17.101  0.00  0.00     0.209 C 
ATOM     32  O17 ZIN A   1      19.625   2.856  18.214  0.00  0.00    -0.644 OA
ATOM     33  O18 ZIN A   1      18.437   1.743  16.859  0.00  0.00    -0.644 OA
ENDBRANCH  27  31
ENDBRANCH  20  25
ENDBRANCH   1  18
TORSDOF 5
ENDMDL
