MODEL 1
REMARK VINA RESULT:      -9.5      0.000      0.000
REMARK  7 active torsions:
REMARK  status: ('A' for Active; 'I' for Inactive)
REMARK       I    between atoms: C2_2  and  N4_4 
REMARK    1  A    between atoms: N7_7  and  C8_8 
REMARK    2  A    between atoms: C11_11  and  O12_12 
REMARK    3  A    between atoms: O12_12  and  C13_13 
REMARK    4  A    between atoms: C13_13  and  C14_14 
REMARK    5  A    between atoms: C18_17  and  C19_18 
REMARK    6  A    between atoms: C18_17  and  C26_25 
REMARK    7  A    between atoms: C19_18  and  N20_19 
ROOT
ATOM      1  C14 <0> d   1      18.444   0.519   8.392  0.00  0.00     0.173 C 
ATOM      2  C16 <0> d   1      17.746   0.002   7.110  0.00  0.00     0.206 C 
ATOM      3  O17 <0> d   1      17.596  -1.407   7.404  0.00  0.00    -0.347 OA
ATOM      4  C18 <0> d   1      18.781  -1.758   8.137  0.00  0.00     0.212 C 
ATOM      5  O34 <0> d   1      19.306  -0.577   8.763  0.00  0.00    -0.340 OA
ENDROOT
BRANCH   1   6
ATOM      6  C13 <0> d   1      19.265   1.775   8.093  0.00  0.00     0.209 C 
BRANCH   6   7
ATOM      7  O12 <0> d   1      18.736   2.878   8.832  0.00  0.00    -0.349 OA
BRANCH   7   8
ATOM      8  C11 <0> d   1      18.634   2.726  10.180  0.00  0.00     0.069 A 
ATOM      9  C10 <0> d   1      17.529   3.224  10.853  0.00  0.00     0.039 A 
ATOM     10  C9  <0> d   1      17.424   3.070  12.221  0.00  0.00     0.032 A 
ATOM     11  C8  <0> d   1      18.428   2.417  12.924  0.00  0.00     0.030 A 
ATOM     12  C36 <0> d   1      19.539   1.923  12.251  0.00  0.00     0.032 A 
ATOM     13  C35 <0> d   1      19.638   2.074  10.882  0.00  0.00     0.039 A 
BRANCH  11  14
ATOM     14  N7  <0> d   1      18.324   2.262  14.311  0.00  0.00    -0.378 N 
ATOM     15  C6  <0> d   1      17.913   0.975  14.891  0.00  0.00     0.143 C 
ATOM     16  C5  <0> d   1      18.984   0.525  15.892  0.00  0.00     0.145 C 
ATOM     17  N4  <0> d   1      19.283   1.646  16.795  0.00  0.00    -0.349 N 
ATOM     18  C2  <0> d   1      19.183   1.496  18.130  0.00  0.00     0.215 C 
ATOM     19  C38 <0> d   1      19.689   2.934  16.215  0.00  0.00     0.145 C 
ATOM     20  C1  <0> d   1      18.766   0.170  18.711  0.00  0.00     0.117 C 
ATOM     21  O3  <0> d   1      19.427   2.430  18.866  0.00  0.00    -0.274 OA
ATOM     22  C37 <0> d   1      18.624   3.382  15.213  0.00  0.00     0.143 C 
ENDBRANCH  11  14
ENDBRANCH   7   8
ENDBRANCH   6   7
ENDBRANCH   1   6
BRANCH   4  23
ATOM     23  C19 <0> d   1      19.822  -2.343   7.181  0.00  0.00     0.203 C 
BRANCH  23  24
ATOM     24  N20 <0> d   1      19.181  -2.679   5.908  0.00  0.00    -0.346 N 
ATOM     25  C25 <0> d   1      19.174  -1.922   4.789  0.00  0.00     0.182 A 
ATOM     26  N23 <0> d   1      18.506  -2.553   3.862  0.00  0.00    -0.361 N 
ATOM     27  C22 <0> d   1      18.062  -3.720   4.352  0.00  0.00     0.106 A 
ATOM     28  H24 <0> d   1      18.353  -2.228   2.961  0.00  0.00     0.166 HD
ATOM     29  C21 <0> d   1      18.473  -3.818   5.631  0.00  0.00     0.109 A 
ENDBRANCH  23  24
ENDBRANCH   4  23
BRANCH   4  30
ATOM     30  C26 <0> d   1      18.439  -2.775   9.196  0.00  0.00     0.027 A 
ATOM     31  C32 <0> d   1      19.080  -2.740  10.421  0.00  0.00     0.047 A 
ATOM     32  C31 <0> d   1      18.762  -3.669  11.395  0.00  0.00     0.048 A 
ATOM     33 Cl33 <0> d   1      20.273  -1.521  10.743  0.00  0.00    -0.084 Cl
ATOM     34  C29 <0> d   1      17.811  -4.642  11.138  0.00  0.00     0.035 A 
ATOM     35  C28 <0> d   1      17.175  -4.679   9.910  0.00  0.00     0.024 A 
ATOM     36 Cl30 <0> d   1      17.416  -5.814  12.356  0.00  0.00    -0.084 Cl
ATOM     37  C27 <0> d   1      17.489  -3.746   8.940  0.00  0.00     0.016 A 
ENDBRANCH   4  30
TORSDOF 7
ENDMDL
MODEL 2
REMARK VINA RESULT:      -9.4      3.788      9.502
REMARK  7 active torsions:
REMARK  status: ('A' for Active; 'I' for Inactive)
REMARK       I    between atoms: C2_2  and  N4_4 
REMARK    1  A    between atoms: N7_7  and  C8_8 
REMARK    2  A    between atoms: C11_11  and  O12_12 
REMARK    3  A    between atoms: O12_12  and  C13_13 
REMARK    4  A    between atoms: C13_13  and  C14_14 
REMARK    5  A    between atoms: C18_17  and  C19_18 
REMARK    6  A    between atoms: C18_17  and  C26_25 
REMARK    7  A    between atoms: C19_18  and  N20_19 
ROOT
ATOM      1  C14 <0> d   1      18.409   2.170  15.430  0.00  0.00     0.173 C 
ATOM      2  C16 <0> d   1      19.580   2.915  16.119  0.00  0.00     0.206 C 
ATOM      3  O17 <0> d   1      19.143   4.293  16.031  0.00  0.00    -0.347 OA
ATOM      4  C18 <0> d   1      18.474   4.387  14.763  0.00  0.00     0.212 C 
ATOM      5  O34 <0> d   1      18.005   3.082  14.389  0.00  0.00    -0.340 OA
ENDROOT
BRANCH   1   6
ATOM      6  C13 <0> d   1      18.888   0.845  14.833  0.00  0.00     0.209 C 
BRANCH   6   7
ATOM      7  O12 <0> d   1      17.769   0.124  14.315  0.00  0.00    -0.349 OA
BRANCH   7   8
ATOM      8  C11 <0> d   1      17.788  -0.176  12.989  0.00  0.00     0.069 A 
ATOM      9  C10 <0> d   1      16.886   0.430  12.127  0.00  0.00     0.039 A 
ATOM     10  C9  <0> d   1      16.904   0.126  10.780  0.00  0.00     0.032 A 
ATOM     11  C8  <0> d   1      17.826  -0.789  10.289  0.00  0.00     0.030 A 
ATOM     12  C36 <0> d   1      18.726  -1.401  11.152  0.00  0.00     0.032 A 
ATOM     13  C35 <0> d   1      18.708  -1.091  12.498  0.00  0.00     0.039 A 
BRANCH  11  14
ATOM     14  N7  <0> d   1      17.846  -1.099   8.924  0.00  0.00    -0.378 N 
ATOM     15  C6  <0> d   1      17.323  -0.148   7.932  0.00  0.00     0.143 C 
ATOM     16  C5  <0> d   1      18.419   0.132   6.897  0.00  0.00     0.145 C 
ATOM     17  N4  <0> d   1      18.962  -1.153   6.430  0.00  0.00    -0.349 N 
ATOM     18  C2  <0> d   1      18.980  -1.451   5.116  0.00  0.00     0.215 C 
ATOM     19  C38 <0> d   1      19.479  -2.106   7.422  0.00  0.00     0.145 C 
ATOM     20  C1  <0> d   1      18.447  -0.464   4.111  0.00  0.00     0.117 C 
ATOM     21  O3  <0> d   1      19.425  -2.516   4.742  0.00  0.00    -0.274 OA
ATOM     22  C37 <0> d   1      18.388  -2.382   8.457  0.00  0.00     0.143 C 
ENDBRANCH  11  14
ENDBRANCH   7   8
ENDBRANCH   6   7
ENDBRANCH   1   6
BRANCH   4  23
ATOM     23  C19 <0> d   1      19.448   4.909  13.705  0.00  0.00     0.203 C 
BRANCH  23  24
ATOM     24  N20 <0> d   1      19.289   4.135  12.471  0.00  0.00    -0.346 N 
ATOM     25  C25 <0> d   1      20.029   3.071  12.092  0.00  0.00     0.182 A 
ATOM     26  N23 <0> d   1      19.591   2.647  10.938  0.00  0.00    -0.361 N 
ATOM     27  C22 <0> d   1      18.571   3.423  10.540  0.00  0.00     0.106 A 
ATOM     28  H24 <0> d   1      19.948   1.893  10.444  0.00  0.00     0.166 HD
ATOM     29  C21 <0> d   1      18.367   4.360  11.485  0.00  0.00     0.109 A 
ENDBRANCH  23  24
ENDBRANCH   4  23
BRANCH   4  30
ATOM     30  C26 <0> d   1      17.301   5.326  14.878  0.00  0.00     0.027 A 
ATOM     31  C32 <0> d   1      17.356   6.397  15.752  0.00  0.00     0.047 A 
ATOM     32  C31 <0> d   1      16.282   7.263  15.854  0.00  0.00     0.048 A 
ATOM     33 Cl33 <0> d   1      18.779   6.665  16.711  0.00  0.00    -0.084 Cl
ATOM     34  C29 <0> d   1      15.148   7.050  15.090  0.00  0.00     0.035 A 
ATOM     35  C28 <0> d   1      15.092   5.975  14.221  0.00  0.00     0.024 A 
ATOM     36 Cl30 <0> d   1      13.796   8.131  15.222  0.00  0.00    -0.084 Cl
ATOM     37  C27 <0> d   1      16.168   5.114  14.116  0.00  0.00     0.016 A 
ENDBRANCH   4  30
TORSDOF 7
ENDMDL
MODEL 3
REMARK VINA RESULT:      -9.4      3.408      5.363
REMARK  7 active torsions:
REMARK  status: ('A' for Active; 'I' for Inactive)
REMARK       I    between atoms: C2_2  and  N4_4 
REMARK    1  A    between atoms: N7_7  and  C8_8 
REMARK    2  A    between atoms: C11_11  and  O12_12 
REMARK    3  A    between atoms: O12_12  and  C13_13 
REMARK    4  A    between atoms: C13_13  and  C14_14 
REMARK    5  A    between atoms: C18_17  and  C19_18 
REMARK    6  A    between atoms: C18_17  and  C26_25 
REMARK    7  A    between atoms: C19_18  and  N20_19 
ROOT
ATOM      1  C14 <0> d   1      18.351  -3.911   6.907  0.00  0.00     0.173 C 
ATOM      2  C16 <0> d   1      19.344  -5.087   6.733  0.00  0.00     0.206 C 
ATOM      3  O17 <0> d   1      18.516  -6.225   7.075  0.00  0.00    -0.347 OA
ATOM      4  C18 <0> d   1      17.661  -5.753   8.130  0.00  0.00     0.212 C 
ATOM      5  O34 <0> d   1      17.542  -4.326   8.027  0.00  0.00    -0.340 OA
ENDROOT
BRANCH   1   6
ATOM      6  C13 <0> d   1      19.098  -2.616   7.229  0.00  0.00     0.209 C 
BRANCH   6   7
ATOM      7  O12 <0> d   1      18.243  -1.498   6.981  0.00  0.00    -0.349 OA
BRANCH   7   8
ATOM      8  C11 <0> d   1      18.343  -0.443   7.833  0.00  0.00     0.069 A 
ATOM      9  C10 <0> d   1      18.990   0.715   7.430  0.00  0.00     0.039 A 
ATOM     10  C9  <0> d   1      19.093   1.788   8.295  0.00  0.00     0.032 A 
ATOM     11  C8  <0> d   1      18.547   1.705   9.569  0.00  0.00     0.030 A 
ATOM     12  C36 <0> d   1      17.903   0.543   9.975  0.00  0.00     0.032 A 
ATOM     13  C35 <0> d   1      17.798  -0.526   9.107  0.00  0.00     0.039 A 
BRANCH  11  14
ATOM     14  N7  <0> d   1      18.650   2.791  10.447  0.00  0.00    -0.378 N 
ATOM     15  C6  <0> d   1      17.701   3.910  10.367  0.00  0.00     0.143 C 
ATOM     16  C5  <0> d   1      17.053   4.101  11.743  0.00  0.00     0.145 C 
ATOM     17  N4  <0> d   1      18.113   4.142  12.760  0.00  0.00    -0.349 N 
ATOM     18  C2  <0> d   1      18.213   5.187  13.605  0.00  0.00     0.215 C 
ATOM     19  C38 <0> d   1      19.066   3.025  12.836  0.00  0.00     0.145 C 
ATOM     20  C1  <0> d   1      17.230   6.325  13.516  0.00  0.00     0.117 C 
ATOM     21  O3  <0> d   1      19.096   5.213  14.437  0.00  0.00    -0.274 OA
ATOM     22  C37 <0> d   1      19.710   2.832  11.463  0.00  0.00     0.143 C 
ENDBRANCH  11  14
ENDBRANCH   7   8
ENDBRANCH   6   7
ENDBRANCH   1   6
BRANCH   4  23
ATOM     23  C19 <0> d   1      18.265  -6.125   9.485  0.00  0.00     0.203 C 
BRANCH  23  24
ATOM     24  N20 <0> d   1      18.319  -4.935  10.338  0.00  0.00    -0.346 N 
ATOM     25  C25 <0> d   1      17.288  -4.386  11.016  0.00  0.00     0.182 A 
ATOM     26  N23 <0> d   1      17.722  -3.340  11.664  0.00  0.00    -0.361 N 
ATOM     27  C22 <0> d   1      19.032  -3.181  11.420  0.00  0.00     0.106 A 
ATOM     28  H24 <0> d   1      17.183  -2.767  12.231  0.00  0.00     0.166 HD
ATOM     29  C21 <0> d   1      19.425  -4.168  10.593  0.00  0.00     0.109 A 
ENDBRANCH  23  24
ENDBRANCH   4  23
BRANCH   4  30
ATOM     30  C26 <0> d   1      16.297  -6.380   7.994  0.00  0.00     0.027 A 
ATOM     31  C32 <0> d   1      16.178  -7.693   7.575  0.00  0.00     0.047 A 
ATOM     32  C31 <0> d   1      14.928  -8.270   7.456  0.00  0.00     0.048 A 
ATOM     33 Cl33 <0> d   1      17.600  -8.622   7.212  0.00  0.00    -0.084 Cl
ATOM     34  C29 <0> d   1      13.794  -7.530   7.745  0.00  0.00     0.035 A 
ATOM     35  C28 <0> d   1      13.914  -6.216   8.158  0.00  0.00     0.024 A 
ATOM     36 Cl30 <0> d   1      12.223  -8.251   7.588  0.00  0.00    -0.084 Cl
ATOM     37  C27 <0> d   1      15.165  -5.641   8.282  0.00  0.00     0.016 A 
ENDBRANCH   4  30
TORSDOF 7
ENDMDL
MODEL 4
REMARK VINA RESULT:      -9.3      3.216      4.898
REMARK  7 active torsions:
REMARK  status: ('A' for Active; 'I' for Inactive)
REMARK       I    between atoms: C2_2  and  N4_4 
REMARK    1  A    between atoms: N7_7  and  C8_8 
REMARK    2  A    between atoms: C11_11  and  O12_12 
REMARK    3  A    between atoms: O12_12  and  C13_13 
REMARK    4  A    between atoms: C13_13  and  C14_14 
REMARK    5  A    between atoms: C18_17  and  C19_18 
REMARK    6  A    between atoms: C18_17  and  C26_25 
REMARK    7  A    between atoms: C19_18  and  N20_19 
ROOT
ATOM      1  C14 <0> d   1      18.196  -3.673   7.034  0.00  0.00     0.173 C 
ATOM      2  C16 <0> d   1      19.132  -4.734   6.403  0.00  0.00     0.206 C 
ATOM      3  O17 <0> d   1      18.360  -5.947   6.575  0.00  0.00    -0.347 OA
ATOM      4  C18 <0> d   1      17.701  -5.786   7.842  0.00  0.00     0.212 C 
ATOM      5  O34 <0> d   1      17.583  -4.384   8.129  0.00  0.00    -0.340 OA
ENDROOT
BRANCH   1   6
ATOM      6  C13 <0> d   1      19.001  -2.478   7.547  0.00  0.00     0.209 C 
BRANCH   6   7
ATOM      7  O12 <0> d   1      18.128  -1.568   8.219  0.00  0.00    -0.349 OA
BRANCH   7   8
ATOM      8  C11 <0> d   1      18.432  -1.256   9.507  0.00  0.00     0.069 A 
ATOM      9  C10 <0> d   1      19.743  -0.980   9.863  0.00  0.00     0.039 A 
ATOM     10  C9  <0> d   1      20.053  -0.663  11.171  0.00  0.00     0.032 A 
ATOM     11  C8  <0> d   1      19.051  -0.622  12.130  0.00  0.00     0.030 A 
ATOM     12  C36 <0> d   1      17.738  -0.905  11.775  0.00  0.00     0.032 A 
ATOM     13  C35 <0> d   1      17.430  -1.217  10.466  0.00  0.00     0.039 A 
BRANCH  11  14
ATOM     14  N7  <0> d   1      19.363  -0.303  13.457  0.00  0.00    -0.378 N 
ATOM     15  C6  <0> d   1      19.435   1.099  13.892  0.00  0.00     0.143 C 
ATOM     16  C5  <0> d   1      18.490   1.291  15.084  0.00  0.00     0.145 C 
ATOM     17  N4  <0> d   1      18.753   0.230  16.067  0.00  0.00    -0.349 N 
ATOM     18  C2  <0> d   1      19.055   0.538  17.344  0.00  0.00     0.215 C 
ATOM     19  C38 <0> d   1      18.687  -1.171  15.631  0.00  0.00     0.145 C 
ATOM     20  C1  <0> d   1      19.119   1.980  17.777  0.00  0.00     0.117 C 
ATOM     21  O3  <0> d   1      19.275  -0.345  18.145  0.00  0.00    -0.274 OA
ATOM     22  C37 <0> d   1      19.626  -1.363  14.439  0.00  0.00     0.143 C 
ENDBRANCH  11  14
ENDBRANCH   7   8
ENDBRANCH   6   7
ENDBRANCH   1   6
BRANCH   4  23
ATOM     23  C19 <0> d   1      18.521  -6.470   8.938  0.00  0.00     0.203 C 
BRANCH  23  24
ATOM     24  N20 <0> d   1      18.558  -5.613  10.126  0.00  0.00    -0.346 N 
ATOM     25  C25 <0> d   1      19.564  -4.787  10.488  0.00  0.00     0.182 A 
ATOM     26  N23 <0> d   1      19.234  -4.189  11.600  0.00  0.00    -0.361 N 
ATOM     27  C22 <0> d   1      18.022  -4.613  11.989  0.00  0.00     0.106 A 
ATOM     28  H24 <0> d   1      19.781  -3.542  12.073  0.00  0.00     0.166 HD
ATOM     29  C21 <0> d   1      17.582  -5.504  11.080  0.00  0.00     0.109 A 
ENDBRANCH  23  24
ENDBRANCH   4  23
BRANCH   4  30
ATOM     30  C26 <0> d   1      16.327  -6.402   7.780  0.00  0.00     0.027 A 
ATOM     31  C32 <0> d   1      16.165  -7.682   7.282  0.00  0.00     0.047 A 
ATOM     32  C31 <0> d   1      14.905  -8.250   7.230  0.00  0.00     0.048 A 
ATOM     33 Cl33 <0> d   1      17.546  -8.584   6.738  0.00  0.00    -0.084 Cl
ATOM     34  C29 <0> d   1      13.805  -7.531   7.664  0.00  0.00     0.035 A 
ATOM     35  C28 <0> d   1      13.967  -6.248   8.155  0.00  0.00     0.024 A 
ATOM     36 Cl30 <0> d   1      12.222  -8.239   7.591  0.00  0.00    -0.084 Cl
ATOM     37  C27 <0> d   1      15.228  -5.684   8.213  0.00  0.00     0.016 A 
ENDBRANCH   4  30
TORSDOF 7
ENDMDL
MODEL 5
REMARK VINA RESULT:      -9.2      3.297      8.689
REMARK  7 active torsions:
REMARK  status: ('A' for Active; 'I' for Inactive)
REMARK       I    between atoms: C2_2  and  N4_4 
REMARK    1  A    between atoms: N7_7  and  C8_8 
REMARK    2  A    between atoms: C11_11  and  O12_12 
REMARK    3  A    between atoms: O12_12  and  C13_13 
REMARK    4  A    between atoms: C13_13  and  C14_14 
REMARK    5  A    between atoms: C18_17  and  C19_18 
REMARK    6  A    between atoms: C18_17  and  C26_25 
REMARK    7  A    between atoms: C19_18  and  N20_19 
ROOT
ATOM      1  C14 <0> d   1      18.550  -0.129  12.029  0.00  0.00     0.173 C 
ATOM      2  C16 <0> d   1      17.506   0.992  12.259  0.00  0.00     0.206 C 
ATOM      3  O17 <0> d   1      17.348   1.525  10.922  0.00  0.00    -0.347 OA
ATOM      4  C18 <0> d   1      18.659   1.451  10.339  0.00  0.00     0.212 C 
ATOM      5  O34 <0> d   1      19.406   0.422  11.007  0.00  0.00    -0.340 OA
ENDROOT
BRANCH   1   6
ATOM      6  C13 <0> d   1      19.342  -0.401  13.309  0.00  0.00     0.209 C 
BRANCH   6   7
ATOM      7  O12 <0> d   1      19.160  -1.763  13.702  0.00  0.00    -0.349 OA
BRANCH   7   8
ATOM      8  C11 <0> d   1      18.981  -2.674  12.708  0.00  0.00     0.069 A 
ATOM      9  C10 <0> d   1      20.074  -3.160  12.007  0.00  0.00     0.039 A 
ATOM     10  C9  <0> d   1      19.893  -4.085  10.997  0.00  0.00     0.032 A 
ATOM     11  C8  <0> d   1      18.615  -4.528  10.684  0.00  0.00     0.030 A 
ATOM     12  C36 <0> d   1      17.519  -4.036  11.382  0.00  0.00     0.032 A 
ATOM     13  C35 <0> d   1      17.703  -3.115  12.394  0.00  0.00     0.039 A 
BRANCH  11  14
ATOM     14  N7  <0> d   1      18.430  -5.465   9.660  0.00  0.00    -0.378 N 
ATOM     15  C6  <0> d   1      17.224  -6.303   9.622  0.00  0.00     0.143 C 
ATOM     16  C5  <0> d   1      16.543  -6.120   8.261  0.00  0.00     0.145 C 
ATOM     17  N4  <0> d   1      17.553  -6.283   7.205  0.00  0.00    -0.349 N 
ATOM     18  C2  <0> d   1      17.374  -7.186   6.220  0.00  0.00     0.215 C 
ATOM     19  C38 <0> d   1      18.762  -5.449   7.246  0.00  0.00     0.145 C 
ATOM     20  C1  <0> d   1      16.130  -8.034   6.191  0.00  0.00     0.117 C 
ATOM     21  O3  <0> d   1      18.217  -7.316   5.357  0.00  0.00    -0.274 OA
ATOM     22  C37 <0> d   1      19.439  -5.628   8.605  0.00  0.00     0.143 C 
ENDBRANCH  11  14
ENDBRANCH   7   8
ENDBRANCH   6   7
ENDBRANCH   1   6
BRANCH   4  23
ATOM     23  C19 <0> d   1      19.372   2.795  10.501  0.00  0.00     0.203 C 
BRANCH  23  24
ATOM     24  N20 <0> d   1      18.406   3.811  10.926  0.00  0.00    -0.346 N 
ATOM     25  C25 <0> d   1      17.515   4.450  10.136  0.00  0.00     0.182 A 
ATOM     26  N23 <0> d   1      16.826   5.280  10.870  0.00  0.00    -0.361 N 
ATOM     27  C22 <0> d   1      17.252   5.208  12.140  0.00  0.00     0.106 A 
ATOM     28  H24 <0> d   1      16.119   5.861  10.547  0.00  0.00     0.166 HD
ATOM     29  C21 <0> d   1      18.240   4.294  12.196  0.00  0.00     0.109 A 
ENDBRANCH  23  24
ENDBRANCH   4  23
BRANCH   4  30
ATOM     30  C26 <0> d   1      18.543   1.113   8.874  0.00  0.00     0.027 A 
ATOM     31  C32 <0> d   1      17.748   0.057   8.469  0.00  0.00     0.047 A 
ATOM     32  C31 <0> d   1      17.636  -0.249   7.125  0.00  0.00     0.048 A 
ATOM     33 Cl33 <0> d   1      16.876  -0.876   9.646  0.00  0.00    -0.084 Cl
ATOM     34  C29 <0> d   1      18.332   0.495   6.187  0.00  0.00     0.035 A 
ATOM     35  C28 <0> d   1      19.132   1.546   6.594  0.00  0.00     0.024 A 
ATOM     36 Cl30 <0> d   1      18.199   0.107   4.500  0.00  0.00    -0.084 Cl
ATOM     37  C27 <0> d   1      19.238   1.855   7.937  0.00  0.00     0.016 A 
ENDBRANCH   4  30
TORSDOF 7
ENDMDL
MODEL 6
REMARK VINA RESULT:      -9.1      3.390      4.926
REMARK  7 active torsions:
REMARK  status: ('A' for Active; 'I' for Inactive)
REMARK       I    between atoms: C2_2  and  N4_4 
REMARK    1  A    between atoms: N7_7  and  C8_8 
REMARK    2  A    between atoms: C11_11  and  O12_12 
REMARK    3  A    between atoms: O12_12  and  C13_13 
REMARK    4  A    between atoms: C13_13  and  C14_14 
REMARK    5  A    between atoms: C18_17  and  C19_18 
REMARK    6  A    between atoms: C18_17  and  C26_25 
REMARK    7  A    between atoms: C19_18  and  N20_19 
ROOT
ATOM      1  C14 <0> d   1      18.564   0.315  10.664  0.00  0.00     0.173 C 
ATOM      2  C16 <0> d   1      17.666  -0.915  10.382  0.00  0.00     0.206 C 
ATOM      3  O17 <0> d   1      17.544  -1.498  11.702  0.00  0.00    -0.347 OA
ATOM      4  C18 <0> d   1      18.824  -1.285  12.319  0.00  0.00     0.212 C 
ATOM      5  O34 <0> d   1      19.458  -0.158  11.693  0.00  0.00    -0.340 OA
ENDROOT
BRANCH   1   6
ATOM      6  C13 <0> d   1      19.346   0.712   9.410  0.00  0.00     0.209 C 
BRANCH   6   7
ATOM      7  O12 <0> d   1      19.112   2.092   9.120  0.00  0.00    -0.349 OA
BRANCH   7   8
ATOM      8  C11 <0> d   1      18.897   2.918  10.178  0.00  0.00     0.069 A 
ATOM      9  C10 <0> d   1      19.904   3.132  11.107  0.00  0.00     0.039 A 
ATOM     10  C9  <0> d   1      19.687   3.971  12.182  0.00  0.00     0.032 A 
ATOM     11  C8  <0> d   1      18.458   4.600  12.334  0.00  0.00     0.030 A 
ATOM     12  C36 <0> d   1      17.447   4.380  11.407  0.00  0.00     0.032 A 
ATOM     13  C35 <0> d   1      17.669   3.545  10.330  0.00  0.00     0.039 A 
BRANCH  11  14
ATOM     14  N7  <0> d   1      18.236   5.450  13.424  0.00  0.00    -0.378 N 
ATOM     15  C6  <0> d   1      16.912   6.048  13.648  0.00  0.00     0.143 C 
ATOM     16  C5  <0> d   1      16.449   5.694  15.066  0.00  0.00     0.145 C 
ATOM     17  N4  <0> d   1      17.536   6.005  16.006  0.00  0.00    -0.349 N 
ATOM     18  C2  <0> d   1      17.322   6.824  17.055  0.00  0.00     0.215 C 
ATOM     19  C38 <0> d   1      18.861   5.412  15.778  0.00  0.00     0.145 C 
ATOM     20  C1  <0> d   1      15.959   7.425  17.276  0.00  0.00     0.117 C 
ATOM     21  O3  <0> d   1      18.228   7.078  17.821  0.00  0.00    -0.274 OA
ATOM     22  C37 <0> d   1      19.322   5.760  14.363  0.00  0.00     0.143 C 
ENDBRANCH  11  14
ENDBRANCH   7   8
ENDBRANCH   6   7
ENDBRANCH   1   6
BRANCH   4  23
ATOM     23  C19 <0> d   1      19.694  -2.531  12.142  0.00  0.00     0.203 C 
BRANCH  23  24
ATOM     24  N20 <0> d   1      18.903  -3.593  11.514  0.00  0.00    -0.346 N 
ATOM     25  C25 <0> d   1      17.871  -4.261  12.073  0.00  0.00     0.182 A 
ATOM     26  N23 <0> d   1      17.418  -5.128  11.209  0.00  0.00    -0.361 N 
ATOM     27  C22 <0> d   1      18.142  -5.051  10.082  0.00  0.00     0.106 A 
ATOM     28  H24 <0> d   1      16.677  -5.736  11.360  0.00  0.00     0.166 HD
ATOM     29  C21 <0> d   1      19.077  -4.097  10.253  0.00  0.00     0.109 A 
ENDBRANCH  23  24
ENDBRANCH   4  23
BRANCH   4  30
ATOM     30  C26 <0> d   1      18.638  -1.002  13.787  0.00  0.00     0.027 A 
ATOM     31  C32 <0> d   1      17.815   0.033  14.193  0.00  0.00     0.047 A 
ATOM     32  C31 <0> d   1      17.639   0.289  15.541  0.00  0.00     0.048 A 
ATOM     33 Cl33 <0> d   1      16.991   1.003  13.012  0.00  0.00    -0.084 Cl
ATOM     34  C29 <0> d   1      18.297  -0.483  16.483  0.00  0.00     0.035 A 
ATOM     35  C28 <0> d   1      19.123  -1.514  16.075  0.00  0.00     0.024 A 
ATOM     36 Cl30 <0> d   1      18.083  -0.158  18.174  0.00  0.00    -0.084 Cl
ATOM     37  C27 <0> d   1      19.294  -1.773  14.728  0.00  0.00     0.016 A 
ENDBRANCH   4  30
TORSDOF 7
ENDMDL
MODEL 7
REMARK VINA RESULT:      -9.1      3.506      9.572
REMARK  7 active torsions:
REMARK  status: ('A' for Active; 'I' for Inactive)
REMARK       I    between atoms: C2_2  and  N4_4 
REMARK    1  A    between atoms: N7_7  and  C8_8 
REMARK    2  A    between atoms: C11_11  and  O12_12 
REMARK    3  A    between atoms: O12_12  and  C13_13 
REMARK    4  A    between atoms: C13_13  and  C14_14 
REMARK    5  A    between atoms: C18_17  and  C19_18 
REMARK    6  A    between atoms: C18_17  and  C26_25 
REMARK    7  A    between atoms: C19_18  and  N20_19 
ROOT
ATOM      1  C14 <0> d   1      18.656   2.558   9.789  0.00  0.00     0.173 C 
ATOM      2  C16 <0> d   1      17.411   1.718  10.168  0.00  0.00     0.206 C 
ATOM      3  O17 <0> d   1      17.076   2.260  11.468  0.00  0.00    -0.347 OA
ATOM      4  C18 <0> d   1      18.342   2.550  12.083  0.00  0.00     0.212 C 
ATOM      5  O34 <0> d   1      19.323   2.749  11.053  0.00  0.00    -0.340 OA
ENDROOT
BRANCH   1   6
ATOM      6  C13 <0> d   1      19.551   1.790   8.815  0.00  0.00     0.209 C 
BRANCH   6   7
ATOM      7  O12 <0> d   1      18.935   1.755   7.526  0.00  0.00    -0.349 OA
BRANCH   7   8
ATOM      8  C11 <0> d   1      18.749   0.531   6.964  0.00  0.00     0.069 A 
ATOM      9  C10 <0> d   1      18.120   0.422   5.733  0.00  0.00     0.039 A 
ATOM     10  C9  <0> d   1      17.930  -0.821   5.160  0.00  0.00     0.032 A 
ATOM     11  C8  <0> d   1      18.368  -1.962   5.820  0.00  0.00     0.030 A 
ATOM     12  C36 <0> d   1      18.992  -1.853   7.056  0.00  0.00     0.032 A 
ATOM     13  C35 <0> d   1      19.186  -0.609   7.624  0.00  0.00     0.039 A 
BRANCH  11  14
ATOM     14  N7  <0> d   1      18.176  -3.222   5.241  0.00  0.00    -0.378 N 
ATOM     15  C6  <0> d   1      18.582  -4.442   5.953  0.00  0.00     0.143 C 
ATOM     16  C5  <0> d   1      17.369  -5.375   6.058  0.00  0.00     0.145 C 
ATOM     17  N4  <0> d   1      16.758  -5.501   4.727  0.00  0.00    -0.349 N 
ATOM     18  C2  <0> d   1      16.574  -6.714   4.171  0.00  0.00     0.215 C 
ATOM     19  C38 <0> d   1      16.357  -4.281   4.013  0.00  0.00     0.145 C 
ATOM     20  C1  <0> d   1      16.989  -7.957   4.915  0.00  0.00     0.117 C 
ATOM     21  O3  <0> d   1      16.073  -6.807   3.069  0.00  0.00    -0.274 OA
ATOM     22  C37 <0> d   1      17.565  -3.349   3.911  0.00  0.00     0.143 C 
ENDBRANCH  11  14
ENDBRANCH   7   8
ENDBRANCH   6   7
ENDBRANCH   1   6
BRANCH   4  23
ATOM     23  C19 <0> d   1      18.760   1.380  12.975  0.00  0.00     0.203 C 
BRANCH  23  24
ATOM     24  N20 <0> d   1      19.661   0.496  12.231  0.00  0.00    -0.346 N 
ATOM     25  C25 <0> d   1      20.990   0.667  12.059  0.00  0.00     0.182 A 
ATOM     26  N23 <0> d   1      21.449  -0.323  11.343  0.00  0.00    -0.361 N 
ATOM     27  C22 <0> d   1      20.439  -1.149  11.029  0.00  0.00     0.106 A 
ATOM     28  H24 <0> d   1      22.374  -0.442  11.077  0.00  0.00     0.166 HD
ATOM     29  C21 <0> d   1      19.312  -0.654  11.575  0.00  0.00     0.109 A 
ENDBRANCH  23  24
ENDBRANCH   4  23
BRANCH   4  30
ATOM     30  C26 <0> d   1      18.226   3.803  12.913  0.00  0.00     0.027 A 
ATOM     31  C32 <0> d   1      17.443   4.854  12.472  0.00  0.00     0.047 A 
ATOM     32  C31 <0> d   1      17.332   6.002  13.236  0.00  0.00     0.048 A 
ATOM     33 Cl33 <0> d   1      16.588   4.729  10.966  0.00  0.00    -0.084 Cl
ATOM     34  C29 <0> d   1      18.014   6.102  14.436  0.00  0.00     0.035 A 
ATOM     35  C28 <0> d   1      18.801   5.052  14.873  0.00  0.00     0.024 A 
ATOM     36 Cl30 <0> d   1      17.882   7.545  15.392  0.00  0.00    -0.084 Cl
ATOM     37  C27 <0> d   1      18.907   3.903  14.111  0.00  0.00     0.016 A 
ENDBRANCH   4  30
TORSDOF 7
ENDMDL
MODEL 8
REMARK VINA RESULT:      -8.9      4.010      9.544
REMARK  7 active torsions:
REMARK  status: ('A' for Active; 'I' for Inactive)
REMARK       I    between atoms: C2_2  and  N4_4 
REMARK    1  A    between atoms: N7_7  and  C8_8 
REMARK    2  A    between atoms: C11_11  and  O12_12 
REMARK    3  A    between atoms: O12_12  and  C13_13 
REMARK    4  A    between atoms: C13_13  and  C14_14 
REMARK    5  A    between atoms: C18_17  and  C19_18 
REMARK    6  A    between atoms: C18_17  and  C26_25 
REMARK    7  A    between atoms: C19_18  and  N20_19 
ROOT
ATOM      1  C14 <0> d   1      17.668   1.903  14.204  0.00  0.00     0.173 C 
ATOM      2  C16 <0> d   1      19.116   1.911  14.754  0.00  0.00     0.206 C 
ATOM      3  O17 <0> d   1      19.335   3.323  14.986  0.00  0.00    -0.347 OA
ATOM      4  C18 <0> d   1      18.643   3.984  13.914  0.00  0.00     0.212 C 
ATOM      5  O34 <0> d   1      17.602   3.120  13.432  0.00  0.00    -0.340 OA
ENDROOT
BRANCH   1   6
ATOM      6  C13 <0> d   1      17.435   0.683  13.311  0.00  0.00     0.209 C 
BRANCH   6   7
ATOM      7  O12 <0> d   1      18.600  -0.144  13.319  0.00  0.00    -0.349 OA
BRANCH   7   8
ATOM      8  C11 <0> d   1      18.554  -1.285  12.581  0.00  0.00     0.069 A 
ATOM      9  C10 <0> d   1      17.433  -1.570  11.815  0.00  0.00     0.039 A 
ATOM     10  C9  <0> d   1      17.385  -2.728  11.064  0.00  0.00     0.032 A 
ATOM     11  C8  <0> d   1      18.459  -3.608  11.077  0.00  0.00     0.030 A 
ATOM     12  C36 <0> d   1      19.579  -3.325  11.848  0.00  0.00     0.032 A 
ATOM     13  C35 <0> d   1      19.627  -2.164  12.594  0.00  0.00     0.039 A 
BRANCH  11  14
ATOM     14  N7  <0> d   1      18.411  -4.783  10.317  0.00  0.00    -0.378 N 
ATOM     15  C6  <0> d   1      17.383  -5.800  10.576  0.00  0.00     0.143 C 
ATOM     16  C5  <0> d   1      16.625  -6.074   9.272  0.00  0.00     0.145 C 
ATOM     17  N4  <0> d   1      17.604  -6.312   8.201  0.00  0.00    -0.349 N 
ATOM     18  C2  <0> d   1      17.558  -7.443   7.470  0.00  0.00     0.215 C 
ATOM     19  C38 <0> d   1      18.635  -5.296   7.946  0.00  0.00     0.145 C 
ATOM     20  C1  <0> d   1      16.495  -8.475   7.743  0.00  0.00     0.117 C 
ATOM     21  O3  <0> d   1      18.374  -7.631   6.593  0.00  0.00    -0.274 OA
ATOM     22  C37 <0> d   1      19.389  -5.020   9.247  0.00  0.00     0.143 C 
ENDBRANCH  11  14
ENDBRANCH   7   8
ENDBRANCH   6   7
ENDBRANCH   1   6
BRANCH   4  23
ATOM     23  C19 <0> d   1      19.624   4.292  12.782  0.00  0.00     0.203 C 
BRANCH  23  24
ATOM     24  N20 <0> d   1      19.188   3.613  11.559  0.00  0.00    -0.346 N 
ATOM     25  C25 <0> d   1      18.230   4.036  10.706  0.00  0.00     0.182 A 
ATOM     26  N23 <0> d   1      18.123   3.170   9.735  0.00  0.00    -0.361 N 
ATOM     27  C22 <0> d   1      18.996   2.170   9.935  0.00  0.00     0.106 A 
ATOM     28  H24 <0> d   1      17.509   3.238   8.988  0.00  0.00     0.166 HD
ATOM     29  C21 <0> d   1      19.671   2.428  11.071  0.00  0.00     0.109 A 
ENDBRANCH  23  24
ENDBRANCH   4  23
BRANCH   4  30
ATOM     30  C26 <0> d   1      18.034   5.267  14.420  0.00  0.00     0.027 A 
ATOM     31  C32 <0> d   1      18.817   6.183  15.099  0.00  0.00     0.047 A 
ATOM     32  C31 <0> d   1      18.261   7.363  15.558  0.00  0.00     0.048 A 
ATOM     33 Cl33 <0> d   1      20.503   5.859  15.363  0.00  0.00    -0.084 Cl
ATOM     34  C29 <0> d   1      16.917   7.621  15.348  0.00  0.00     0.035 A 
ATOM     35  C28 <0> d   1      16.134   6.701  14.674  0.00  0.00     0.024 A 
ATOM     36 Cl30 <0> d   1      16.215   9.098  15.930  0.00  0.00    -0.084 Cl
ATOM     37  C27 <0> d   1      16.693   5.525  14.210  0.00  0.00     0.016 A 
ENDBRANCH   4  30
TORSDOF 7
ENDMDL
MODEL 9
REMARK VINA RESULT:      -8.9      3.220     10.231
REMARK  7 active torsions:
REMARK  status: ('A' for Active; 'I' for Inactive)
REMARK       I    between atoms: C2_2  and  N4_4 
REMARK    1  A    between atoms: N7_7  and  C8_8 
REMARK    2  A    between atoms: C11_11  and  O12_12 
REMARK    3  A    between atoms: O12_12  and  C13_13 
REMARK    4  A    between atoms: C13_13  and  C14_14 
REMARK    5  A    between atoms: C18_17  and  C19_18 
REMARK    6  A    between atoms: C18_17  and  C26_25 
REMARK    7  A    between atoms: C19_18  and  N20_19 
ROOT
ATOM      1  C14 <0> d   1      19.321  -2.219  11.457  0.00  0.00     0.173 C 
ATOM      2  C16 <0> d   1      18.277  -2.394  12.588  0.00  0.00     0.206 C 
ATOM      3  O17 <0> d   1      17.901  -1.022  12.856  0.00  0.00    -0.347 OA
ATOM      4  C18 <0> d   1      19.113  -0.269  12.689  0.00  0.00     0.212 C 
ATOM      5  O34 <0> d   1      19.992  -0.993  11.815  0.00  0.00    -0.340 OA
ENDROOT
BRANCH   1   6
ATOM      6  C13 <0> d   1      20.305  -3.390  11.441  0.00  0.00     0.209 C 
BRANCH   6   7
ATOM      7  O12 <0> d   1      19.581  -4.622  11.487  0.00  0.00    -0.349 OA
BRANCH   7   8
ATOM      8  C11 <0> d   1      18.961  -5.016  10.343  0.00  0.00     0.069 A 
ATOM      9  C10 <0> d   1      17.627  -5.396  10.372  0.00  0.00     0.039 A 
ATOM     10  C9  <0> d   1      16.997  -5.797   9.210  0.00  0.00     0.032 A 
ATOM     11  C8  <0> d   1      17.699  -5.821   8.013  0.00  0.00     0.030 A 
ATOM     12  C36 <0> d   1      19.037  -5.446   7.984  0.00  0.00     0.032 A 
ATOM     13  C35 <0> d   1      19.664  -5.041   9.146  0.00  0.00     0.039 A 
BRANCH  11  14
ATOM     14  N7  <0> d   1      17.062  -6.228   6.835  0.00  0.00    -0.378 N 
ATOM     15  C6  <0> d   1      15.763  -6.913   6.885  0.00  0.00     0.143 C 
ATOM     16  C5  <0> d   1      14.768  -6.139   6.011  0.00  0.00     0.145 C 
ATOM     17  N4  <0> d   1      15.387  -5.890   4.702  0.00  0.00    -0.349 N 
ATOM     18  C2  <0> d   1      14.774  -6.283   3.568  0.00  0.00     0.215 C 
ATOM     19  C38 <0> d   1      16.689  -5.211   4.652  0.00  0.00     0.145 C 
ATOM     20  C1  <0> d   1      13.439  -6.978   3.634  0.00  0.00     0.117 C 
ATOM     21  O3  <0> d   1      15.297  -6.077   2.493  0.00  0.00    -0.274 OA
ATOM     22  C37 <0> d   1      17.681  -5.979   5.526  0.00  0.00     0.143 C 
ENDBRANCH  11  14
ENDBRANCH   7   8
ENDBRANCH   6   7
ENDBRANCH   1   6
BRANCH   4  23
ATOM     23  C19 <0> d   1      19.785  -0.069  14.048  0.00  0.00     0.203 C 
BRANCH  23  24
ATOM     24  N20 <0> d   1      18.777  -0.150  15.108  0.00  0.00    -0.346 N 
ATOM     25  C25 <0> d   1      17.840   0.780  15.396  0.00  0.00     0.182 A 
ATOM     26  N23 <0> d   1      17.124   0.354  16.401  0.00  0.00    -0.361 N 
ATOM     27  C22 <0> d   1      17.578  -0.847  16.791  0.00  0.00     0.106 A 
ATOM     28  H24 <0> d   1      16.382   0.832  16.804  0.00  0.00     0.166 HD
ATOM     29  C21 <0> d   1      18.612  -1.180  15.995  0.00  0.00     0.109 A 
ENDBRANCH  23  24
ENDBRANCH   4  23
BRANCH   4  30
ATOM     30  C26 <0> d   1      18.795   1.072  12.079  0.00  0.00     0.027 A 
ATOM     31  C32 <0> d   1      17.673   1.221  11.283  0.00  0.00     0.047 A 
ATOM     32  C31 <0> d   1      17.378   2.453  10.728  0.00  0.00     0.048 A 
ATOM     33 Cl33 <0> d   1      16.627  -0.134  10.992  0.00  0.00    -0.084 Cl
ATOM     34  C29 <0> d   1      18.212   3.534  10.959  0.00  0.00     0.035 A 
ATOM     35  C28 <0> d   1      19.336   3.381  11.750  0.00  0.00     0.024 A 
ATOM     36 Cl30 <0> d   1      17.847   5.079  10.257  0.00  0.00    -0.084 Cl
ATOM     37  C27 <0> d   1      19.627   2.151  12.310  0.00  0.00     0.016 A 
ENDBRANCH   4  30
TORSDOF 7
ENDMDL
