MODEL 1
REMARK VINA RESULT:      -6.2      0.000      0.000
REMARK  1 active torsions:
REMARK  status: ('A' for Active; 'I' for Inactive)
REMARK    1  A    between atoms: C6_6  and  N7_7 
ROOT
ATOM      1  C1  ZIN A   1      18.876   3.521  11.241  0.00  0.00     0.015 C 
ATOM      2  C2  ZIN A   1      18.782   2.136  10.597  0.00  0.00    -0.041 C 
ATOM      3  C3  ZIN A   1      17.436   1.501  10.947  0.00  0.00     0.014 C 
ATOM      4  C4  ZIN A   1      17.341   0.117  10.303  0.00  0.00    -0.011 C 
ATOM      5  C5  ZIN A   1      18.474  -0.768  10.827  0.00  0.00     0.043 C 
ATOM      6  C6  ZIN A   1      19.822  -0.133  10.476  0.00  0.00     0.125 C 
ATOM      7  C11 ZIN A   1      19.916   1.251  11.121  0.00  0.00     0.048 C 
ATOM      8  C12 ZIN A   1      19.941   0.003   8.956  0.00  0.00     0.048 C 
ATOM      9  C13 ZIN A   1      18.808   0.888   8.433  0.00  0.00    -0.041 C 
ATOM     10  C14 ZIN A   1      18.928   1.023   6.913  0.00  0.00     0.015 C 
ATOM     11  C15 ZIN A   1      17.462   0.252   8.784  0.00  0.00     0.014 C 
ATOM     12  C16 ZIN A   1      18.902   2.272   9.077  0.00  0.00     0.018 C 
ENDROOT
BRANCH   6  13
ATOM     13  N7  ZIN A   1      20.909  -0.982  10.979  0.00  0.00    -0.070 N 
ATOM     14  H8  ZIN A   1      21.128  -0.721  11.929  0.00  0.00     0.275 HD
ATOM     15  H9  ZIN A   1      20.621  -1.948  10.954  0.00  0.00     0.275 HD
ATOM     16  H10 ZIN A   1      21.727  -0.860  10.401  0.00  0.00     0.275 HD
ENDBRANCH   6  13
TORSDOF 1
ENDMDL
MODEL 2
REMARK VINA RESULT:      -6.1      2.646      4.727
REMARK  1 active torsions:
REMARK  status: ('A' for Active; 'I' for Inactive)
REMARK    1  A    between atoms: C6_6  and  N7_7 
ROOT
ATOM      1  C1  ZIN A   1      17.864  -2.614  10.971  0.00  0.00     0.015 C 
ATOM      2  C2  ZIN A   1      18.259  -1.448  11.880  0.00  0.00    -0.041 C 
ATOM      3  C3  ZIN A   1      17.286  -0.286  11.671  0.00  0.00     0.014 C 
ATOM      4  C4  ZIN A   1      17.680   0.880  12.579  0.00  0.00    -0.011 C 
ATOM      5  C5  ZIN A   1      19.100   1.336  12.235  0.00  0.00     0.043 C 
ATOM      6  C6  ZIN A   1      20.074   0.175  12.444  0.00  0.00     0.125 C 
ATOM      7  C11 ZIN A   1      19.679  -0.991  11.535  0.00  0.00     0.048 C 
ATOM      8  C12 ZIN A   1      20.023  -0.277  13.905  0.00  0.00     0.048 C 
ATOM      9  C13 ZIN A   1      18.604  -0.734  14.248  0.00  0.00    -0.041 C 
ATOM     10  C14 ZIN A   1      18.553  -1.185  15.710  0.00  0.00     0.015 C 
ATOM     11  C15 ZIN A   1      17.631   0.428  14.040  0.00  0.00     0.014 C 
ATOM     12  C16 ZIN A   1      18.208  -1.900  13.340  0.00  0.00     0.018 C 
ENDROOT
BRANCH   6  13
ATOM     13  N7  ZIN A   1      21.436   0.612  12.113  0.00  0.00    -0.070 N 
ATOM     14  H8  ZIN A   1      22.100   0.099  12.674  0.00  0.00     0.275 HD
ATOM     15  H9  ZIN A   1      21.617   0.439  11.136  0.00  0.00     0.275 HD
ATOM     16  H10 ZIN A   1      21.528   1.599  12.303  0.00  0.00     0.275 HD
ENDBRANCH   6  13
TORSDOF 1
ENDMDL
MODEL 3
REMARK VINA RESULT:      -6.0      1.652      2.758
REMARK  1 active torsions:
REMARK  status: ('A' for Active; 'I' for Inactive)
REMARK    1  A    between atoms: C6_6  and  N7_7 
ROOT
ATOM      1  C1  ZIN A   1      17.895  -0.306  14.425  0.00  0.00     0.015 C 
ATOM      2  C2  ZIN A   1      18.208  -0.191  12.931  0.00  0.00    -0.041 C 
ATOM      3  C3  ZIN A   1      17.412  -1.246  12.161  0.00  0.00     0.014 C 
ATOM      4  C4  ZIN A   1      17.723  -1.131  10.668  0.00  0.00    -0.011 C 
ATOM      5  C5  ZIN A   1      19.220  -1.356  10.441  0.00  0.00     0.043 C 
ATOM      6  C6  ZIN A   1      20.017  -0.301  11.211  0.00  0.00     0.125 C 
ATOM      7  C11 ZIN A   1      19.705  -0.416  12.704  0.00  0.00     0.048 C 
ATOM      8  C12 ZIN A   1      19.630   1.094  10.715  0.00  0.00     0.048 C 
ATOM      9  C13 ZIN A   1      18.134   1.318  10.942  0.00  0.00    -0.041 C 
ATOM     10  C14 ZIN A   1      17.746   2.712  10.445  0.00  0.00     0.015 C 
ATOM     11  C15 ZIN A   1      17.337   0.263  10.171  0.00  0.00     0.014 C 
ATOM     12  C16 ZIN A   1      17.821   1.203  12.435  0.00  0.00     0.018 C 
ENDROOT
BRANCH   6  13
ATOM     13  N7  ZIN A   1      21.453  -0.517  10.994  0.00  0.00    -0.070 N 
ATOM     14  H8  ZIN A   1      21.767  -1.289  11.562  0.00  0.00     0.275 HD
ATOM     15  H9  ZIN A   1      21.619  -0.728  10.021  0.00  0.00     0.275 HD
ATOM     16  H10 ZIN A   1      21.962   0.316  11.249  0.00  0.00     0.275 HD
ENDBRANCH   6  13
TORSDOF 1
ENDMDL
MODEL 4
REMARK VINA RESULT:      -5.9      1.421      3.242
REMARK  1 active torsions:
REMARK  status: ('A' for Active; 'I' for Inactive)
REMARK    1  A    between atoms: C6_6  and  N7_7 
ROOT
ATOM      1  C1  ZIN A   1      18.245  -0.079   7.351  0.00  0.00     0.015 C 
ATOM      2  C2  ZIN A   1      18.442  -0.303   8.852  0.00  0.00    -0.041 C 
ATOM      3  C3  ZIN A   1      17.755   0.819   9.631  0.00  0.00     0.014 C 
ATOM      4  C4  ZIN A   1      17.951   0.595  11.130  0.00  0.00    -0.011 C 
ATOM      5  C5  ZIN A   1      19.447   0.592  11.454  0.00  0.00     0.043 C 
ATOM      6  C6  ZIN A   1      20.135  -0.532  10.676  0.00  0.00     0.125 C 
ATOM      7  C11 ZIN A   1      19.938  -0.306   9.175  0.00  0.00     0.048 C 
ATOM      8  C12 ZIN A   1      19.524  -1.877  11.074  0.00  0.00     0.048 C 
ATOM      9  C13 ZIN A   1      18.029  -1.873  10.751  0.00  0.00    -0.041 C 
ATOM     10  C14 ZIN A   1      17.418  -3.218  11.150  0.00  0.00     0.015 C 
ATOM     11  C15 ZIN A   1      17.341  -0.750  11.530  0.00  0.00     0.014 C 
ATOM     12  C16 ZIN A   1      17.831  -1.648   9.250  0.00  0.00     0.018 C 
ENDROOT
BRANCH   6  13
ATOM     13  N7  ZIN A   1      21.570  -0.534  10.986  0.00  0.00    -0.070 N 
ATOM     14  H8  ZIN A   1      22.071  -0.037  10.264  0.00  0.00     0.275 HD
ATOM     15  H9  ZIN A   1      21.724  -0.081  11.874  0.00  0.00     0.275 HD
ATOM     16  H10 ZIN A   1      21.903  -1.485  11.031  0.00  0.00     0.275 HD
ENDBRANCH   6  13
TORSDOF 1
ENDMDL
MODEL 5
REMARK VINA RESULT:      -5.9      1.209      1.426
REMARK  1 active torsions:
REMARK  status: ('A' for Active; 'I' for Inactive)
REMARK    1  A    between atoms: C6_6  and  N7_7 
ROOT
ATOM      1  C1  ZIN A   1      18.197   3.602  10.065  0.00  0.00     0.015 C 
ATOM      2  C2  ZIN A   1      18.523   2.142  10.386  0.00  0.00    -0.041 C 
ATOM      3  C3  ZIN A   1      17.414   1.552  11.260  0.00  0.00     0.014 C 
ATOM      4  C4  ZIN A   1      17.738   0.092  11.580  0.00  0.00    -0.011 C 
ATOM      5  C5  ZIN A   1      19.071   0.019  12.330  0.00  0.00     0.043 C 
ATOM      6  C6  ZIN A   1      20.180   0.608  11.456  0.00  0.00     0.125 C 
ATOM      7  C11 ZIN A   1      19.855   2.069  11.136  0.00  0.00     0.048 C 
ATOM      8  C12 ZIN A   1      20.283  -0.189  10.155  0.00  0.00     0.048 C 
ATOM      9  C13 ZIN A   1      18.951  -0.116   9.406  0.00  0.00    -0.041 C 
ATOM     10  C14 ZIN A   1      19.054  -0.914   8.104  0.00  0.00     0.015 C 
ATOM     11  C15 ZIN A   1      17.842  -0.706  10.279  0.00  0.00     0.014 C 
ATOM     12  C16 ZIN A   1      18.625   1.344   9.085  0.00  0.00     0.018 C 
ENDROOT
BRANCH   6  13
ATOM     13  N7  ZIN A   1      21.459   0.539  12.176  0.00  0.00    -0.070 N 
ATOM     14  H8  ZIN A   1      21.705   1.457  12.514  0.00  0.00     0.275 HD
ATOM     15  H9  ZIN A   1      21.371  -0.094  12.957  0.00  0.00     0.275 HD
ATOM     16  H10 ZIN A   1      22.179   0.206  11.552  0.00  0.00     0.275 HD
ENDBRANCH   6  13
TORSDOF 1
ENDMDL
MODEL 6
REMARK VINA RESULT:      -5.7      1.876      2.476
REMARK  1 active torsions:
REMARK  status: ('A' for Active; 'I' for Inactive)
REMARK    1  A    between atoms: C6_6  and  N7_7 
ROOT
ATOM      1  C1  ZIN A   1      16.740   0.240  12.217  0.00  0.00     0.015 C 
ATOM      2  C2  ZIN A   1      17.714  -0.510  11.306  0.00  0.00    -0.041 C 
ATOM      3  C3  ZIN A   1      17.527  -2.017  11.490  0.00  0.00     0.014 C 
ATOM      4  C4  ZIN A   1      18.499  -2.768  10.580  0.00  0.00    -0.011 C 
ATOM      5  C5  ZIN A   1      19.935  -2.385  10.942  0.00  0.00     0.043 C 
ATOM      6  C6  ZIN A   1      20.124  -0.878  10.757  0.00  0.00     0.125 C 
ATOM      7  C11 ZIN A   1      19.151  -0.127  11.669  0.00  0.00     0.048 C 
ATOM      8  C12 ZIN A   1      19.848  -0.504   9.299  0.00  0.00     0.048 C 
ATOM      9  C13 ZIN A   1      18.412  -0.888   8.937  0.00  0.00    -0.041 C 
ATOM     10  C14 ZIN A   1      18.137  -0.515   7.479  0.00  0.00     0.015 C 
ATOM     11  C15 ZIN A   1      18.225  -2.395   9.122  0.00  0.00     0.014 C 
ATOM     12  C16 ZIN A   1      17.438  -0.137   9.848  0.00  0.00     0.018 C 
ENDROOT
BRANCH   6  13
ATOM     13  N7  ZIN A   1      21.502  -0.510  11.105  0.00  0.00    -0.070 N 
ATOM     14  H8  ZIN A   1      22.132  -1.238  10.802  0.00  0.00     0.275 HD
ATOM     15  H9  ZIN A   1      21.745   0.356  10.648  0.00  0.00     0.275 HD
ATOM     16  H10 ZIN A   1      21.578  -0.396  12.104  0.00  0.00     0.275 HD
ENDBRANCH   6  13
TORSDOF 1
ENDMDL
MODEL 7
REMARK VINA RESULT:      -5.2      1.747      2.966
REMARK  1 active torsions:
REMARK  status: ('A' for Active; 'I' for Inactive)
REMARK    1  A    between atoms: C6_6  and  N7_7 
ROOT
ATOM      1  C1  ZIN A   1      19.252   1.885   9.189  0.00  0.00     0.015 C 
ATOM      2  C2  ZIN A   1      18.881   0.992  10.375  0.00  0.00    -0.041 C 
ATOM      3  C3  ZIN A   1      17.376   1.087  10.634  0.00  0.00     0.014 C 
ATOM      4  C4  ZIN A   1      17.004   0.194  11.818  0.00  0.00    -0.011 C 
ATOM      5  C5  ZIN A   1      17.766   0.655  13.063  0.00  0.00     0.043 C 
ATOM      6  C6  ZIN A   1      19.271   0.559  12.805  0.00  0.00     0.125 C 
ATOM      7  C11 ZIN A   1      19.643   1.453  11.620  0.00  0.00     0.048 C 
ATOM      8  C12 ZIN A   1      19.643  -0.890  12.487  0.00  0.00     0.048 C 
ATOM      9  C13 ZIN A   1      18.882  -1.351  11.242  0.00  0.00    -0.041 C 
ATOM     10  C14 ZIN A   1      19.253  -2.801  10.925  0.00  0.00     0.015 C 
ATOM     11  C15 ZIN A   1      17.377  -1.256  11.502  0.00  0.00     0.014 C 
ATOM     12  C16 ZIN A   1      19.253  -0.457  10.057  0.00  0.00     0.018 C 
ENDROOT
BRANCH   6  13
ATOM     13  N7  ZIN A   1      20.002   1.002  13.999  0.00  0.00    -0.070 N 
ATOM     14  H8  ZIN A   1      19.387   0.977  14.799  0.00  0.00     0.275 HD
ATOM     15  H9  ZIN A   1      20.787   0.389  14.160  0.00  0.00     0.275 HD
ATOM     16  H10 ZIN A   1      20.335   1.944  13.860  0.00  0.00     0.275 HD
ENDBRANCH   6  13
TORSDOF 1
ENDMDL
MODEL 8
REMARK VINA RESULT:      -5.0      2.462      4.060
REMARK  1 active torsions:
REMARK  status: ('A' for Active; 'I' for Inactive)
REMARK    1  A    between atoms: C6_6  and  N7_7 
ROOT
ATOM      1  C1  ZIN A   1      17.146   0.405  12.732  0.00  0.00     0.015 C 
ATOM      2  C2  ZIN A   1      17.890  -0.508  11.755  0.00  0.00    -0.041 C 
ATOM      3  C3  ZIN A   1      19.375  -0.141  11.742  0.00  0.00     0.014 C 
ATOM      4  C4  ZIN A   1      20.119  -1.053  10.766  0.00  0.00    -0.011 C 
ATOM      5  C5  ZIN A   1      19.538  -0.878   9.361  0.00  0.00     0.043 C 
ATOM      6  C6  ZIN A   1      18.053  -1.247   9.373  0.00  0.00     0.125 C 
ATOM      7  C11 ZIN A   1      17.309  -0.333  10.350  0.00  0.00     0.048 C 
ATOM      8  C12 ZIN A   1      17.892  -2.703   9.814  0.00  0.00     0.048 C 
ATOM      9  C13 ZIN A   1      18.472  -2.878  11.219  0.00  0.00    -0.041 C 
ATOM     10  C14 ZIN A   1      18.312  -4.335  11.659  0.00  0.00     0.015 C 
ATOM     11  C15 ZIN A   1      19.957  -2.510  11.206  0.00  0.00     0.014 C 
ATOM     12  C16 ZIN A   1      17.729  -1.965  12.196  0.00  0.00     0.018 C 
ENDROOT
BRANCH   6  13
ATOM     13  N7  ZIN A   1      17.495  -1.078   8.025  0.00  0.00    -0.070 N 
ATOM     14  H8  ZIN A   1      18.205  -0.707   7.412  0.00  0.00     0.275 HD
ATOM     15  H9  ZIN A   1      17.183  -1.972   7.676  0.00  0.00     0.275 HD
ATOM     16  H10 ZIN A   1      16.715  -0.440   8.061  0.00  0.00     0.275 HD
ENDBRANCH   6  13
TORSDOF 1
ENDMDL
MODEL 9
REMARK VINA RESULT:      -5.0      2.130      3.941
REMARK  1 active torsions:
REMARK  status: ('A' for Active; 'I' for Inactive)
REMARK    1  A    between atoms: C6_6  and  N7_7 
ROOT
ATOM      1  C1  ZIN A   1      17.702   3.135  10.776  0.00  0.00     0.015 C 
ATOM      2  C2  ZIN A   1      18.202   1.858  11.455  0.00  0.00    -0.041 C 
ATOM      3  C3  ZIN A   1      19.731   1.853  11.470  0.00  0.00     0.014 C 
ATOM      4  C4  ZIN A   1      20.232   0.578  12.150  0.00  0.00    -0.011 C 
ATOM      5  C5  ZIN A   1      19.726  -0.643  11.378  0.00  0.00     0.043 C 
ATOM      6  C6  ZIN A   1      18.195  -0.639  11.364  0.00  0.00     0.125 C 
ATOM      7  C11 ZIN A   1      17.696   0.637  10.684  0.00  0.00     0.048 C 
ATOM      8  C12 ZIN A   1      17.672  -0.690  12.801  0.00  0.00     0.048 C 
ATOM      9  C13 ZIN A   1      18.178   0.531  13.572  0.00  0.00    -0.041 C 
ATOM     10  C14 ZIN A   1      17.654   0.479  15.009  0.00  0.00     0.015 C 
ATOM     11  C15 ZIN A   1      19.708   0.526  13.586  0.00  0.00     0.014 C 
ATOM     12  C16 ZIN A   1      17.678   1.807  12.892  0.00  0.00     0.018 C 
ENDROOT
BRANCH   6  13
ATOM     13  N7  ZIN A   1      17.710  -1.810  10.624  0.00  0.00    -0.070 N 
ATOM     14  H8  ZIN A   1      18.420  -2.527  10.623  0.00  0.00     0.275 HD
ATOM     15  H9  ZIN A   1      16.875  -2.166  11.066  0.00  0.00     0.275 HD
ATOM     16  H10 ZIN A   1      17.500  -1.545   9.673  0.00  0.00     0.275 HD
ENDBRANCH   6  13
TORSDOF 1
ENDMDL
