MODEL 1
REMARK VINA RESULT:      -6.6      0.000      0.000
REMARK  2 active torsions:
REMARK  status: ('A' for Active; 'I' for Inactive)
REMARK    1  A    between atoms: C2_2  and  C3_3 
REMARK    2  A    between atoms: C3_3  and  C4_4 
ROOT
ATOM      1  C3  ZIN A   1      18.107   0.536  12.538  0.00  0.00     0.148 C 
ATOM      2  C10 ZIN A   1      19.499  -0.026  12.540  0.00  0.00     0.241 C 
ATOM      3  O11 ZIN A   1      20.439   0.734  12.635  0.00  0.00    -0.272 OA
ATOM      4  N12 ZIN A   1      19.737  -1.338  12.440  0.00  0.00    -0.344 N 
ATOM      5  C13 ZIN A   1      18.684  -2.336  12.338  0.00  0.00     0.249 C 
ATOM      6  N14 ZIN A   1      17.427  -1.763  11.883  0.00  0.00    -0.344 N 
ATOM      7  C15 ZIN A   1      17.138  -0.460  11.971  0.00  0.00     0.241 C 
ATOM      8  O16 ZIN A   1      16.059  -0.071  11.580  0.00  0.00    -0.272 OA
ATOM      9  H27 ZIN A   1      20.658  -1.640  12.435  0.00  0.00     0.164 HD
ATOM     10  H30 ZIN A   1      16.763  -2.355  11.496  0.00  0.00     0.164 HD
ENDROOT
BRANCH   1  11
ATOM     11  C2  ZIN A   1      17.699   0.879  13.972  0.00  0.00     0.030 C 
ATOM     12  C1  ZIN A   1      17.927  -0.337  14.873  0.00  0.00     0.007 C 
ENDBRANCH   1  11
BRANCH   1  13
ATOM     13  C4  ZIN A   1      18.081   1.788  11.700  0.00  0.00    -0.031 A 
ATOM     14  C9  ZIN A   1      18.481   1.743  10.377  0.00  0.00     0.009 A 
ATOM     15  C8  ZIN A   1      18.453   2.891   9.607  0.00  0.00     0.001 A 
ATOM     16  C7  ZIN A   1      18.034   4.085  10.163  0.00  0.00     0.000 A 
ATOM     17  C6  ZIN A   1      17.641   4.132  11.487  0.00  0.00     0.001 A 
ATOM     18  C5  ZIN A   1      17.664   2.983  12.256  0.00  0.00     0.009 A 
ENDBRANCH   1  13
TORSDOF 2
ENDMDL
MODEL 2
REMARK VINA RESULT:      -6.6      2.222      3.434
REMARK  2 active torsions:
REMARK  status: ('A' for Active; 'I' for Inactive)
REMARK    1  A    between atoms: C2_2  and  C3_3 
REMARK    2  A    between atoms: C3_3  and  C4_4 
ROOT
ATOM      1  C3  ZIN A   1      19.227   2.130  11.695  0.00  0.00     0.148 C 
ATOM      2  C10 ZIN A   1      20.013   1.114  12.473  0.00  0.00     0.241 C 
ATOM      3  O11 ZIN A   1      20.822   0.425  11.890  0.00  0.00    -0.272 OA
ATOM      4  N12 ZIN A   1      19.849   0.944  13.789  0.00  0.00    -0.344 N 
ATOM      5  C13 ZIN A   1      18.920   1.728  14.587  0.00  0.00     0.249 C 
ATOM      6  N14 ZIN A   1      17.883   2.345  13.775  0.00  0.00    -0.344 N 
ATOM      7  C15 ZIN A   1      18.004   2.546  12.458  0.00  0.00     0.241 C 
ATOM      8  O16 ZIN A   1      17.094   3.081  11.862  0.00  0.00    -0.272 OA
ATOM      9  H27 ZIN A   1      20.377   0.263  14.235  0.00  0.00     0.164 HD
ATOM     10  H30 ZIN A   1      17.062   2.625  14.209  0.00  0.00     0.164 HD
ENDROOT
BRANCH   1  11
ATOM     11  C2  ZIN A   1      20.105   3.358  11.438  0.00  0.00     0.030 C 
ATOM     12  C1  ZIN A   1      19.761   4.452  12.452  0.00  0.00     0.007 C 
ENDBRANCH   1  11
BRANCH   1  13
ATOM     13  C4  ZIN A   1      18.812   1.530  10.377  0.00  0.00    -0.031 A 
ATOM     14  C9  ZIN A   1      19.309   2.047   9.195  0.00  0.00     0.009 A 
ATOM     15  C8  ZIN A   1      18.932   1.495   7.986  0.00  0.00     0.001 A 
ATOM     16  C7  ZIN A   1      18.050   0.431   7.958  0.00  0.00     0.000 A 
ATOM     17  C6  ZIN A   1      17.548  -0.082   9.139  0.00  0.00     0.001 A 
ATOM     18  C5  ZIN A   1      17.929   0.468  10.348  0.00  0.00     0.009 A 
ENDBRANCH   1  13
TORSDOF 2
ENDMDL
MODEL 3
REMARK VINA RESULT:      -6.5      2.417      3.715
REMARK  2 active torsions:
REMARK  status: ('A' for Active; 'I' for Inactive)
REMARK    1  A    between atoms: C2_2  and  C3_3 
REMARK    2  A    between atoms: C3_3  and  C4_4 
ROOT
ATOM      1  C3  ZIN A   1      18.125   1.044  11.042  0.00  0.00     0.148 C 
ATOM      2  C10 ZIN A   1      17.783   2.458  11.414  0.00  0.00     0.241 C 
ATOM      3  O11 ZIN A   1      16.964   3.057  10.750  0.00  0.00    -0.272 OA
ATOM      4  N12 ZIN A   1      18.352   3.077  12.453  0.00  0.00    -0.344 N 
ATOM      5  C13 ZIN A   1      19.331   2.445  13.323  0.00  0.00     0.249 C 
ATOM      6  N14 ZIN A   1      19.965   1.298  12.693  0.00  0.00    -0.344 N 
ATOM      7  C15 ZIN A   1      19.432   0.639  11.659  0.00  0.00     0.241 C 
ATOM      8  O16 ZIN A   1      20.024  -0.316  11.205  0.00  0.00    -0.272 OA
ATOM      9  H27 ZIN A   1      18.098   3.995  12.637  0.00  0.00     0.164 HD
ATOM     10  H30 ZIN A   1      20.819   0.995  13.040  0.00  0.00     0.164 HD
ENDROOT
BRANCH   1  11
ATOM     11  C2  ZIN A   1      17.020   0.109  11.540  0.00  0.00     0.030 C 
ATOM     12  C1  ZIN A   1      17.357  -0.373  12.953  0.00  0.00     0.007 C 
ENDBRANCH   1  11
BRANCH   1  13
ATOM     13  C4  ZIN A   1      18.228   0.938   9.542  0.00  0.00    -0.031 A 
ATOM     14  C9  ZIN A   1      19.122   1.737   8.853  0.00  0.00     0.009 A 
ATOM     15  C8  ZIN A   1      19.219   1.637   7.478  0.00  0.00     0.001 A 
ATOM     16  C7  ZIN A   1      18.417   0.745   6.792  0.00  0.00     0.000 A 
ATOM     17  C6  ZIN A   1      17.519  -0.048   7.480  0.00  0.00     0.001 A 
ATOM     18  C5  ZIN A   1      17.424   0.048   8.855  0.00  0.00     0.009 A 
ENDBRANCH   1  13
TORSDOF 2
ENDMDL
MODEL 4
REMARK VINA RESULT:      -6.5      1.582      4.348
REMARK  2 active torsions:
REMARK  status: ('A' for Active; 'I' for Inactive)
REMARK    1  A    between atoms: C2_2  and  C3_3 
REMARK    2  A    between atoms: C3_3  and  C4_4 
ROOT
ATOM      1  C3  ZIN A   1      18.431   0.090  11.998  0.00  0.00     0.148 C 
ATOM      2  C10 ZIN A   1      17.933  -1.106  11.238  0.00  0.00     0.241 C 
ATOM      3  O11 ZIN A   1      16.974  -1.715  11.664  0.00  0.00    -0.272 OA
ATOM      4  N12 ZIN A   1      18.512  -1.522  10.107  0.00  0.00    -0.344 N 
ATOM      5  C13 ZIN A   1      19.654  -0.856   9.501  0.00  0.00     0.249 C 
ATOM      6  N14 ZIN A   1      20.376  -0.028  10.455  0.00  0.00    -0.344 N 
ATOM      7  C15 ZIN A   1      19.838   0.421  11.594  0.00  0.00     0.241 C 
ATOM      8  O16 ZIN A   1      20.509   1.118  12.324  0.00  0.00    -0.272 OA
ATOM      9  H27 ZIN A   1      18.152  -2.308   9.668  0.00  0.00     0.164 HD
ATOM     10  H30 ZIN A   1      21.295   0.210  10.255  0.00  0.00     0.164 HD
ENDROOT
BRANCH   1  11
ATOM     11  C2  ZIN A   1      17.525   1.288  11.703  0.00  0.00     0.030 C 
ATOM     12  C1  ZIN A   1      17.856   1.851  10.320  0.00  0.00     0.007 C 
ENDBRANCH   1  11
BRANCH   1  13
ATOM     13  C4  ZIN A   1      18.394  -0.212  13.474  0.00  0.00    -0.031 A 
ATOM     14  C9  ZIN A   1      19.158  -1.243  13.987  0.00  0.00     0.009 A 
ATOM     15  C8  ZIN A   1      19.127  -1.518  15.342  0.00  0.00     0.001 A 
ATOM     16  C7  ZIN A   1      18.326  -0.766  16.181  0.00  0.00     0.000 A 
ATOM     17  C6  ZIN A   1      17.558   0.261  15.666  0.00  0.00     0.001 A 
ATOM     18  C5  ZIN A   1      17.592   0.538  14.313  0.00  0.00     0.009 A 
ENDBRANCH   1  13
TORSDOF 2
ENDMDL
MODEL 5
REMARK VINA RESULT:      -6.4      1.793      3.309
REMARK  2 active torsions:
REMARK  status: ('A' for Active; 'I' for Inactive)
REMARK    1  A    between atoms: C2_2  and  C3_3 
REMARK    2  A    between atoms: C3_3  and  C4_4 
ROOT
ATOM      1  C3  ZIN A   1      18.885   0.098  11.847  0.00  0.00     0.148 C 
ATOM      2  C10 ZIN A   1      17.596   0.578  12.450  0.00  0.00     0.241 C 
ATOM      3  O11 ZIN A   1      16.587   0.548  11.778  0.00  0.00    -0.272 OA
ATOM      4  N12 ZIN A   1      17.525   1.037  13.704  0.00  0.00    -0.344 N 
ATOM      5  C13 ZIN A   1      18.669   1.099  14.599  0.00  0.00     0.249 C 
ATOM      6  N14 ZIN A   1      19.932   1.077  13.878  0.00  0.00    -0.344 N 
ATOM      7  C15 ZIN A   1      20.057   0.618  12.628  0.00  0.00     0.241 C 
ATOM      8  O16 ZIN A   1      21.152   0.624  12.108  0.00  0.00    -0.272 OA
ATOM      9  H27 ZIN A   1      16.666   1.344  14.034  0.00  0.00     0.164 HD
ATOM     10  H30 ZIN A   1      20.725   1.411  14.326  0.00  0.00     0.164 HD
ENDROOT
BRANCH   1  11
ATOM     11  C2  ZIN A   1      18.909  -1.432  11.858  0.00  0.00     0.030 C 
ATOM     12  C1  ZIN A   1      19.111  -1.929  13.291  0.00  0.00     0.007 C 
ENDBRANCH   1  11
BRANCH   1  13
ATOM     13  C4  ZIN A   1      18.978   0.588  10.425  0.00  0.00    -0.031 A 
ATOM     14  C9  ZIN A   1      19.116  -0.318   9.390  0.00  0.00     0.009 A 
ATOM     15  C8  ZIN A   1      19.197   0.130   8.085  0.00  0.00     0.001 A 
ATOM     16  C7  ZIN A   1      19.149   1.485   7.816  0.00  0.00     0.000 A 
ATOM     17  C6  ZIN A   1      19.017   2.391   8.851  0.00  0.00     0.001 A 
ATOM     18  C5  ZIN A   1      18.932   1.943  10.156  0.00  0.00     0.009 A 
ENDBRANCH   1  13
TORSDOF 2
ENDMDL
MODEL 6
REMARK VINA RESULT:      -6.3      1.100      2.823
REMARK  2 active torsions:
REMARK  status: ('A' for Active; 'I' for Inactive)
REMARK    1  A    between atoms: C2_2  and  C3_3 
REMARK    2  A    between atoms: C3_3  and  C4_4 
ROOT
ATOM      1  C3  ZIN A   1      18.459   0.590  11.153  0.00  0.00     0.148 C 
ATOM      2  C10 ZIN A   1      17.290  -0.204  11.659  0.00  0.00     0.241 C 
ATOM      3  O11 ZIN A   1      16.169   0.133  11.341  0.00  0.00    -0.272 OA
ATOM      4  N12 ZIN A   1      17.443  -1.272  12.449  0.00  0.00    -0.344 N 
ATOM      5  C13 ZIN A   1      18.741  -1.772  12.875  0.00  0.00     0.249 C 
ATOM      6  N14 ZIN A   1      19.780  -0.760  12.768  0.00  0.00    -0.344 N 
ATOM      7  C15 ZIN A   1      19.679   0.319  11.985  0.00  0.00     0.241 C 
ATOM      8  O16 ZIN A   1      20.601   1.104  11.947  0.00  0.00    -0.272 OA
ATOM      9  H27 ZIN A   1      16.649  -1.738  12.753  0.00  0.00     0.164 HD
ATOM     10  H30 ZIN A   1      20.589  -0.873  13.292  0.00  0.00     0.164 HD
ENDROOT
BRANCH   1  11
ATOM     11  C2  ZIN A   1      18.743   0.202   9.700  0.00  0.00     0.030 C 
ATOM     12  C1  ZIN A   1      19.359  -1.198   9.656  0.00  0.00     0.007 C 
ENDBRANCH   1  11
BRANCH   1  13
ATOM     13  C4  ZIN A   1      18.126   2.058  11.221  0.00  0.00    -0.031 A 
ATOM     14  C9  ZIN A   1      18.151   2.826  10.071  0.00  0.00     0.009 A 
ATOM     15  C8  ZIN A   1      17.841   4.171  10.132  0.00  0.00     0.001 A 
ATOM     16  C7  ZIN A   1      17.516   4.751  11.344  0.00  0.00     0.000 A 
ATOM     17  C6  ZIN A   1      17.498   3.985  12.494  0.00  0.00     0.001 A 
ATOM     18  C5  ZIN A   1      17.803   2.638  12.433  0.00  0.00     0.009 A 
ENDBRANCH   1  13
TORSDOF 2
ENDMDL
MODEL 7
REMARK VINA RESULT:      -6.2      1.901      4.097
REMARK  2 active torsions:
REMARK  status: ('A' for Active; 'I' for Inactive)
REMARK    1  A    between atoms: C2_2  and  C3_3 
REMARK    2  A    between atoms: C3_3  and  C4_4 
ROOT
ATOM      1  C3  ZIN A   1      18.575  -0.178  11.980  0.00  0.00     0.148 C 
ATOM      2  C10 ZIN A   1      19.770   0.685  11.697  0.00  0.00     0.241 C 
ATOM      3  O11 ZIN A   1      20.750   0.582  12.404  0.00  0.00    -0.272 OA
ATOM      4  N12 ZIN A   1      19.791   1.563  10.689  0.00  0.00    -0.344 N 
ATOM      5  C13 ZIN A   1      18.679   1.753   9.771  0.00  0.00     0.249 C 
ATOM      6  N14 ZIN A   1      17.422   1.274  10.325  0.00  0.00    -0.344 N 
ATOM      7  C15 ZIN A   1      17.350   0.389  11.325  0.00  0.00     0.241 C 
ATOM      8  O16 ZIN A   1      16.258   0.033  11.715  0.00  0.00    -0.272 OA
ATOM      9  H27 ZIN A   1      20.588   2.101  10.563  0.00  0.00     0.164 HD
ATOM     10  H30 ZIN A   1      16.594   1.613   9.950  0.00  0.00     0.164 HD
ENDROOT
BRANCH   1  11
ATOM     11  C2  ZIN A   1      18.830  -1.588  11.442  0.00  0.00     0.030 C 
ATOM     12  C1  ZIN A   1      19.294  -1.502   9.986  0.00  0.00     0.007 C 
ENDBRANCH   1  11
BRANCH   1  13
ATOM     13  C4  ZIN A   1      18.357  -0.246  13.470  0.00  0.00    -0.031 A 
ATOM     14  C9  ZIN A   1      18.590  -1.427  14.149  0.00  0.00     0.009 A 
ATOM     15  C8  ZIN A   1      18.394  -1.489  15.516  0.00  0.00     0.001 A 
ATOM     16  C7  ZIN A   1      17.955  -0.371  16.202  0.00  0.00     0.000 A 
ATOM     17  C6  ZIN A   1      17.716   0.807  15.522  0.00  0.00     0.001 A 
ATOM     18  C5  ZIN A   1      17.916   0.870  14.156  0.00  0.00     0.009 A 
ENDBRANCH   1  13
TORSDOF 2
ENDMDL
MODEL 8
REMARK VINA RESULT:      -6.2      1.404      2.309
REMARK  2 active torsions:
REMARK  status: ('A' for Active; 'I' for Inactive)
REMARK    1  A    between atoms: C2_2  and  C3_3 
REMARK    2  A    between atoms: C3_3  and  C4_4 
ROOT
ATOM      1  C3  ZIN A   1      18.784   0.910  12.151  0.00  0.00     0.148 C 
ATOM      2  C10 ZIN A   1      20.034   0.263  12.674  0.00  0.00     0.241 C 
ATOM      3  O11 ZIN A   1      21.107   0.615  12.232  0.00  0.00    -0.272 OA
ATOM      4  N12 ZIN A   1      20.003  -0.689  13.613  0.00  0.00    -0.344 N 
ATOM      5  C13 ZIN A   1      18.774  -1.171  14.222  0.00  0.00     0.249 C 
ATOM      6  N14 ZIN A   1      17.606  -0.885  13.403  0.00  0.00    -0.344 N 
ATOM      7  C15 ZIN A   1      17.584   0.063  12.460  0.00  0.00     0.241 C 
ATOM      8  O16 ZIN A   1      16.562   0.244  11.834  0.00  0.00    -0.272 OA
ATOM      9  H27 ZIN A   1      20.843  -1.077  13.902  0.00  0.00     0.164 HD
ATOM     10  H30 ZIN A   1      16.802  -1.407  13.548  0.00  0.00     0.164 HD
ENDROOT
BRANCH   1  11
ATOM     11  C2  ZIN A   1      18.615   2.284  12.804  0.00  0.00     0.030 C 
ATOM     12  C1  ZIN A   1      18.236   2.107  14.275  0.00  0.00     0.007 C 
ENDBRANCH   1  11
BRANCH   1  13
ATOM     13  C4  ZIN A   1      18.903   1.079  10.658  0.00  0.00    -0.031 A 
ATOM     14  C9  ZIN A   1      18.769   2.333  10.092  0.00  0.00     0.009 A 
ATOM     15  C8  ZIN A   1      18.882   2.489   8.724  0.00  0.00     0.001 A 
ATOM     16  C7  ZIN A   1      19.120   1.390   7.920  0.00  0.00     0.000 A 
ATOM     17  C6  ZIN A   1      19.248   0.135   8.486  0.00  0.00     0.001 A 
ATOM     18  C5  ZIN A   1      19.139  -0.020   9.854  0.00  0.00     0.009 A 
ENDBRANCH   1  13
TORSDOF 2
ENDMDL
MODEL 9
REMARK VINA RESULT:      -6.1      2.493      5.155
REMARK  2 active torsions:
REMARK  status: ('A' for Active; 'I' for Inactive)
REMARK    1  A    between atoms: C2_2  and  C3_3 
REMARK    2  A    between atoms: C3_3  and  C4_4 
ROOT
ATOM      1  C3  ZIN A   1      18.088  -0.252   9.776  0.00  0.00     0.148 C 
ATOM      2  C10 ZIN A   1      19.435   0.377   9.563  0.00  0.00     0.241 C 
ATOM      3  O11 ZIN A   1      20.353  -0.317   9.180  0.00  0.00    -0.272 OA
ATOM      4  N12 ZIN A   1      19.655   1.678   9.781  0.00  0.00    -0.344 N 
ATOM      5  C13 ZIN A   1      18.622   2.600  10.223  0.00  0.00     0.249 C 
ATOM      6  N14 ZIN A   1      17.502   1.912  10.847  0.00  0.00    -0.344 N 
ATOM      7  C15 ZIN A   1      17.234   0.617  10.653  0.00  0.00     0.241 C 
ATOM      8  O16 ZIN A   1      16.271   0.129  11.202  0.00  0.00    -0.272 OA
ATOM      9  H27 ZIN A   1      20.549   2.024   9.636  0.00  0.00     0.164 HD
ATOM     10  H30 ZIN A   1      16.920   2.419  11.435  0.00  0.00     0.164 HD
ENDROOT
BRANCH   1  11
ATOM     11  C2  ZIN A   1      17.398  -0.439   8.423  0.00  0.00     0.030 C 
ATOM     12  C1  ZIN A   1      18.081   0.442   7.375  0.00  0.00     0.007 C 
ENDBRANCH   1  11
BRANCH   1  13
ATOM     13  C4  ZIN A   1      18.269  -1.597  10.433  0.00  0.00    -0.031 A 
ATOM     14  C9  ZIN A   1      18.866  -1.683  11.677  0.00  0.00     0.009 A 
ATOM     15  C8  ZIN A   1      19.028  -2.915  12.282  0.00  0.00     0.001 A 
ATOM     16  C7  ZIN A   1      18.603  -4.062  11.638  0.00  0.00     0.000 A 
ATOM     17  C6  ZIN A   1      18.013  -3.976  10.391  0.00  0.00     0.001 A 
ATOM     18  C5  ZIN A   1      17.846  -2.743   9.788  0.00  0.00     0.009 A 
ENDBRANCH   1  13
TORSDOF 2
ENDMDL
