MODEL 1
REMARK VINA RESULT:      -7.0      0.000      0.000
REMARK  6 active torsions:
REMARK  status: ('A' for Active; 'I' for Inactive)
REMARK    1  A    between atoms: N1_1  and  C5_5 
REMARK    2  A    between atoms: C5_5  and  C7_6 
REMARK    3  A    between atoms: C5_5  and  C25_24 
REMARK    4  A    between atoms: C7_6  and  C8_7 
REMARK    5  A    between atoms: C12_11  and  O13_12 
REMARK    6  A    between atoms: O13_12  and  C14_13 
ROOT
ATOM      1  C8  ZIN A   1      18.624  -0.308  14.469  0.00  0.00    -0.053 A 
ATOM      2  C9  ZIN A   1      18.850   0.899  13.836  0.00  0.00     0.028 A 
ATOM      3  C10 ZIN A   1      19.329   0.922  12.539  0.00  0.00     0.042 A 
ATOM      4  I11 ZIN A   1      19.671   2.753  11.580  0.00  0.00    -0.042 I 
ATOM      5  C12 ZIN A   1      19.582  -0.269  11.873  0.00  0.00     0.109 A 
ATOM      6  C22 ZIN A   1      19.354  -1.479  12.512  0.00  0.00     0.042 A 
ATOM      7  I23 ZIN A   1      19.736  -3.280  11.511  0.00  0.00    -0.042 I 
ATOM      8  C24 ZIN A   1      18.881  -1.497  13.810  0.00  0.00     0.028 A 
ENDROOT
BRANCH   1   9
ATOM      9  C7  ZIN A   1      18.102  -0.330  15.883  0.00  0.00     0.082 C 
BRANCH   9  10
ATOM     10  C5  ZIN A   1      19.266  -0.134  16.858  0.00  0.00     0.287 C 
BRANCH  10  11
ATOM     11  N1  ZIN A   1      19.621  -1.425  17.462  0.00  0.00    -0.065 N 
ATOM     12  H2  ZIN A   1      18.831  -2.051  17.408  0.00  0.00     0.275 HD
ATOM     13  H3  ZIN A   1      19.874  -1.286  18.429  0.00  0.00     0.275 HD
ATOM     14  H4  ZIN A   1      20.402  -1.826  16.964  0.00  0.00     0.275 HD
ENDBRANCH  10  11
BRANCH  10  15
ATOM     15  C25 ZIN A   1      18.855   0.830  17.941  0.00  0.00     0.204 C 
ATOM     16  O26 ZIN A   1      19.705   1.436  18.571  0.00  0.00    -0.646 OA
ATOM     17  O27 ZIN A   1      17.674   1.005  18.188  0.00  0.00    -0.646 OA
ENDBRANCH  10  15
ENDBRANCH   9  10
ENDBRANCH   1   9
BRANCH   5  18
ATOM     18  O13 ZIN A   1      20.053  -0.249  10.598  0.00  0.00    -0.308 OA
BRANCH  18  19
ATOM     19  C14 ZIN A   1      19.148  -0.222   9.585  0.00  0.00     0.077 A 
ATOM     20  C21 ZIN A   1      19.583  -0.190   8.267  0.00  0.00     0.058 A 
ATOM     21  C19 ZIN A   1      18.663  -0.168   7.237  0.00  0.00     0.045 A 
ATOM     22  C17 ZIN A   1      17.304  -0.168   7.519  0.00  0.00     0.123 A 
ATOM     23  I20 ZIN A   1      19.320  -0.126   5.248  0.00  0.00    -0.042 I 
ATOM     24  C16 ZIN A   1      16.870  -0.195   8.835  0.00  0.00     0.044 A 
ATOM     25  O18 ZIN A   1      16.400  -0.142   6.505  0.00  0.00    -0.191 OA
ATOM     26  C15 ZIN A   1      17.789  -0.222   9.866  0.00  0.00     0.040 A 
ENDBRANCH  18  19
ENDBRANCH   5  18
TORSDOF 6
ENDMDL
MODEL 2
REMARK VINA RESULT:      -7.0      0.072      2.135
REMARK  6 active torsions:
REMARK  status: ('A' for Active; 'I' for Inactive)
REMARK    1  A    between atoms: N1_1  and  C5_5 
REMARK    2  A    between atoms: C5_5  and  C7_6 
REMARK    3  A    between atoms: C5_5  and  C25_24 
REMARK    4  A    between atoms: C7_6  and  C8_7 
REMARK    5  A    between atoms: C12_11  and  O13_12 
REMARK    6  A    between atoms: O13_12  and  C14_13 
ROOT
ATOM      1  C8  ZIN A   1      18.597  -0.229  14.485  0.00  0.00    -0.053 A 
ATOM      2  C9  ZIN A   1      18.837  -1.424  13.832  0.00  0.00     0.028 A 
ATOM      3  C10 ZIN A   1      19.320  -1.420  12.537  0.00  0.00     0.042 A 
ATOM      4  I11 ZIN A   1      19.684  -3.231  11.548  0.00  0.00    -0.042 I 
ATOM      5  C12 ZIN A   1      19.565  -0.215  11.892  0.00  0.00     0.109 A 
ATOM      6  C22 ZIN A   1      19.323   0.982  12.550  0.00  0.00     0.042 A 
ATOM      7  I23 ZIN A   1      19.689   2.802  11.581  0.00  0.00    -0.042 I 
ATOM      8  C24 ZIN A   1      18.835   0.972  13.843  0.00  0.00     0.028 A 
ENDROOT
BRANCH   1   9
ATOM      9  C7  ZIN A   1      18.071  -0.236  15.897  0.00  0.00     0.082 C 
BRANCH   9  10
ATOM     10  C5  ZIN A   1      19.233  -0.047  16.875  0.00  0.00     0.287 C 
BRANCH  10  11
ATOM     11  N1  ZIN A   1      19.580  -1.340  17.478  0.00  0.00    -0.065 N 
ATOM     12  H2  ZIN A   1      19.273  -1.358  18.439  0.00  0.00     0.275 HD
ATOM     13  H3  ZIN A   1      20.580  -1.471  17.442  0.00  0.00     0.275 HD
ATOM     14  H4  ZIN A   1      19.126  -2.083  16.967  0.00  0.00     0.275 HD
ENDBRANCH  10  11
BRANCH  10  15
ATOM     15  C25 ZIN A   1      18.824   0.918  17.958  0.00  0.00     0.204 C 
ATOM     16  O26 ZIN A   1      17.643   1.120  18.180  0.00  0.00    -0.646 OA
ATOM     17  O27 ZIN A   1      19.675   1.497  18.612  0.00  0.00    -0.646 OA
ENDBRANCH  10  15
ENDBRANCH   9  10
ENDBRANCH   1   9
BRANCH   5  18
ATOM     18  O13 ZIN A   1      20.039  -0.209  10.619  0.00  0.00    -0.308 OA
BRANCH  18  19
ATOM     19  C14 ZIN A   1      19.138  -0.185   9.602  0.00  0.00     0.077 A 
ATOM     20  C21 ZIN A   1      19.577  -0.187   8.286  0.00  0.00     0.058 A 
ATOM     21  C19 ZIN A   1      18.660  -0.168   7.252  0.00  0.00     0.045 A 
ATOM     22  C17 ZIN A   1      17.301  -0.135   7.530  0.00  0.00     0.123 A 
ATOM     23  I20 ZIN A   1      19.323  -0.178   5.264  0.00  0.00    -0.042 I 
ATOM     24  C16 ZIN A   1      16.863  -0.128   8.845  0.00  0.00     0.044 A 
ATOM     25  O18 ZIN A   1      16.400  -0.111   6.513  0.00  0.00    -0.191 OA
ATOM     26  C15 ZIN A   1      17.779  -0.153   9.879  0.00  0.00     0.040 A 
ENDBRANCH  18  19
ENDBRANCH   5  18
TORSDOF 6
ENDMDL
MODEL 3
REMARK VINA RESULT:      -6.9      3.977      5.095
REMARK  6 active torsions:
REMARK  status: ('A' for Active; 'I' for Inactive)
REMARK    1  A    between atoms: N1_1  and  C5_5 
REMARK    2  A    between atoms: C5_5  and  C7_6 
REMARK    3  A    between atoms: C5_5  and  C25_24 
REMARK    4  A    between atoms: C7_6  and  C8_7 
REMARK    5  A    between atoms: C12_11  and  O13_12 
REMARK    6  A    between atoms: O13_12  and  C14_13 
ROOT
ATOM      1  C8  ZIN A   1      19.188   3.080  15.589  0.00  0.00    -0.053 A 
ATOM      2  C9  ZIN A   1      18.889   3.317  14.261  0.00  0.00     0.028 A 
ATOM      3  C10 ZIN A   1      18.251   2.347  13.511  0.00  0.00     0.042 A 
ATOM      4  I11 ZIN A   1      17.797   2.709  11.497  0.00  0.00    -0.042 I 
ATOM      5  C12 ZIN A   1      17.911   1.134  14.092  0.00  0.00     0.109 A 
ATOM      6  C22 ZIN A   1      18.214   0.898  15.426  0.00  0.00     0.042 A 
ATOM      7  I23 ZIN A   1      17.704  -0.932  16.308  0.00  0.00    -0.042 I 
ATOM      8  C24 ZIN A   1      18.856   1.870  16.170  0.00  0.00     0.028 A 
ENDROOT
BRANCH   1   9
ATOM      9  C7  ZIN A   1      19.883   4.139  16.404  0.00  0.00     0.082 C 
BRANCH   9  10
ATOM     10  C5  ZIN A   1      20.223   5.332  15.507  0.00  0.00     0.287 C 
BRANCH  10  11
ATOM     11  N1  ZIN A   1      21.626   5.714  15.711  0.00  0.00    -0.065 N 
ATOM     12  H2  ZIN A   1      22.165   5.465  14.895  0.00  0.00     0.275 HD
ATOM     13  H3  ZIN A   1      21.993   5.231  16.517  0.00  0.00     0.275 HD
ATOM     14  H4  ZIN A   1      21.685   6.711  15.861  0.00  0.00     0.275 HD
ENDBRANCH  10  11
BRANCH  10  15
ATOM     15  C25 ZIN A   1      19.330   6.495  15.859  0.00  0.00     0.204 C 
ATOM     16  O26 ZIN A   1      18.876   6.595  16.987  0.00  0.00    -0.646 OA
ATOM     17  O27 ZIN A   1      19.061   7.334  15.018  0.00  0.00    -0.646 OA
ENDBRANCH  10  15
ENDBRANCH   9  10
ENDBRANCH   1   9
BRANCH   5  18
ATOM     18  O13 ZIN A   1      17.284   0.178  13.357  0.00  0.00    -0.308 OA
BRANCH  18  19
ATOM     19  C14 ZIN A   1      18.041  -0.820  12.829  0.00  0.00     0.077 A 
ATOM     20  C21 ZIN A   1      17.447  -2.015  12.450  0.00  0.00     0.058 A 
ATOM     21  C19 ZIN A   1      18.216  -3.028  11.909  0.00  0.00     0.045 A 
ATOM     22  C17 ZIN A   1      19.584  -2.854  11.756  0.00  0.00     0.123 A 
ATOM     23  I20 ZIN A   1      17.316  -4.829  11.330  0.00  0.00    -0.042 I 
ATOM     24  C16 ZIN A   1      20.178  -1.662  12.140  0.00  0.00     0.044 A 
ATOM     25  O18 ZIN A   1      20.340  -3.852  11.228  0.00  0.00    -0.191 OA
ATOM     26  C15 ZIN A   1      19.409  -0.647  12.676  0.00  0.00     0.040 A 
ENDBRANCH  18  19
ENDBRANCH   5  18
TORSDOF 6
ENDMDL
MODEL 4
REMARK VINA RESULT:      -6.9      3.967      5.321
REMARK  6 active torsions:
REMARK  status: ('A' for Active; 'I' for Inactive)
REMARK    1  A    between atoms: N1_1  and  C5_5 
REMARK    2  A    between atoms: C5_5  and  C7_6 
REMARK    3  A    between atoms: C5_5  and  C25_24 
REMARK    4  A    between atoms: C7_6  and  C8_7 
REMARK    5  A    between atoms: C12_11  and  O13_12 
REMARK    6  A    between atoms: O13_12  and  C14_13 
ROOT
ATOM      1  C8  ZIN A   1      19.191   3.076  15.587  0.00  0.00    -0.053 A 
ATOM      2  C9  ZIN A   1      18.857   1.865  16.163  0.00  0.00     0.028 A 
ATOM      3  C10 ZIN A   1      18.217   0.895  15.414  0.00  0.00     0.042 A 
ATOM      4  I11 ZIN A   1      17.712  -0.941  16.287  0.00  0.00    -0.042 I 
ATOM      5  C12 ZIN A   1      17.910   1.139  14.082  0.00  0.00     0.109 A 
ATOM      6  C22 ZIN A   1      18.246   2.356  13.508  0.00  0.00     0.042 A 
ATOM      7  I23 ZIN A   1      17.784   2.730  11.499  0.00  0.00    -0.042 I 
ATOM      8  C24 ZIN A   1      18.881   3.324  14.262  0.00  0.00     0.028 A 
ENDROOT
BRANCH   1   9
ATOM      9  C7  ZIN A   1      19.889   4.131  16.406  0.00  0.00     0.082 C 
BRANCH   9  10
ATOM     10  C5  ZIN A   1      20.227   5.328  15.514  0.00  0.00     0.287 C 
BRANCH  10  11
ATOM     11  N1  ZIN A   1      21.632   5.705  15.714  0.00  0.00    -0.065 N 
ATOM     12  H2  ZIN A   1      22.123   5.658  14.834  0.00  0.00     0.275 HD
ATOM     13  H3  ZIN A   1      22.061   5.070  16.371  0.00  0.00     0.275 HD
ATOM     14  H4  ZIN A   1      21.680   6.646  16.076  0.00  0.00     0.275 HD
ENDBRANCH  10  11
BRANCH  10  15
ATOM     15  C25 ZIN A   1      19.339   6.491  15.876  0.00  0.00     0.204 C 
ATOM     16  O26 ZIN A   1      19.066   7.332  15.036  0.00  0.00    -0.646 OA
ATOM     17  O27 ZIN A   1      18.895   6.591  17.006  0.00  0.00    -0.646 OA
ENDBRANCH  10  15
ENDBRANCH   9  10
ENDBRANCH   1   9
BRANCH   5  18
ATOM     18  O13 ZIN A   1      17.280   0.188  13.344  0.00  0.00    -0.308 OA
BRANCH  18  19
ATOM     19  C14 ZIN A   1      18.035  -0.809  12.810  0.00  0.00     0.077 A 
ATOM     20  C21 ZIN A   1      17.440  -2.004  12.433  0.00  0.00     0.058 A 
ATOM     21  C19 ZIN A   1      18.207  -3.015  11.886  0.00  0.00     0.045 A 
ATOM     22  C17 ZIN A   1      19.574  -2.838  11.722  0.00  0.00     0.123 A 
ATOM     23  I20 ZIN A   1      17.307  -4.817  11.311  0.00  0.00    -0.042 I 
ATOM     24  C16 ZIN A   1      20.169  -1.646  12.104  0.00  0.00     0.044 A 
ATOM     25  O18 ZIN A   1      20.328  -3.834  11.189  0.00  0.00    -0.191 OA
ATOM     26  C15 ZIN A   1      19.402  -0.633  12.647  0.00  0.00     0.040 A 
ENDBRANCH  18  19
ENDBRANCH   5  18
TORSDOF 6
ENDMDL
MODEL 5
REMARK VINA RESULT:      -6.7      2.640      3.080
REMARK  6 active torsions:
REMARK  status: ('A' for Active; 'I' for Inactive)
REMARK    1  A    between atoms: N1_1  and  C5_5 
REMARK    2  A    between atoms: C5_5  and  C7_6 
REMARK    3  A    between atoms: C5_5  and  C25_24 
REMARK    4  A    between atoms: C7_6  and  C8_7 
REMARK    5  A    between atoms: C12_11  and  O13_12 
REMARK    6  A    between atoms: O13_12  and  C14_13 
ROOT
ATOM      1  C8  ZIN A   1      18.878   2.657  15.107  0.00  0.00    -0.053 A 
ATOM      2  C9  ZIN A   1      18.350   3.706  14.378  0.00  0.00     0.028 A 
ATOM      3  C10 ZIN A   1      17.690   3.460  13.189  0.00  0.00     0.042 A 
ATOM      4  I11 ZIN A   1      16.889   5.050  12.085  0.00  0.00    -0.042 I 
ATOM      5  C12 ZIN A   1      17.557   2.158  12.727  0.00  0.00     0.109 A 
ATOM      6  C22 ZIN A   1      18.089   1.107  13.461  0.00  0.00     0.042 A 
ATOM      7  I23 ZIN A   1      17.893  -0.860  12.768  0.00  0.00    -0.042 I 
ATOM      8  C24 ZIN A   1      18.752   1.359  14.647  0.00  0.00     0.028 A 
ENDROOT
BRANCH   1   9
ATOM      9  C7  ZIN A   1      19.598   2.929  16.403  0.00  0.00     0.082 C 
BRANCH   9  10
ATOM     10  C5  ZIN A   1      18.603   2.854  17.564  0.00  0.00     0.287 C 
BRANCH  10  11
ATOM     11  N1  ZIN A   1      18.809   3.998  18.460  0.00  0.00    -0.065 N 
ATOM     12  H2  ZIN A   1      17.949   4.518  18.547  0.00  0.00     0.275 HD
ATOM     13  H3  ZIN A   1      19.527   4.598  18.080  0.00  0.00     0.275 HD
ATOM     14  H4  ZIN A   1      19.095   3.667  19.369  0.00  0.00     0.275 HD
ENDBRANCH  10  11
BRANCH  10  15
ATOM     15  C25 ZIN A   1      18.818   1.573  18.328  0.00  0.00     0.204 C 
ATOM     16  O26 ZIN A   1      19.949   1.154  18.507  0.00  0.00    -0.646 OA
ATOM     17  O27 ZIN A   1      17.863   0.956  18.767  0.00  0.00    -0.646 OA
ENDBRANCH  10  15
ENDBRANCH   9  10
ENDBRANCH   1   9
BRANCH   5  18
ATOM     18  O13 ZIN A   1      16.909   1.913  11.558  0.00  0.00    -0.308 OA
BRANCH  18  19
ATOM     19  C14 ZIN A   1      17.658   1.720  10.441  0.00  0.00     0.077 A 
ATOM     20  C21 ZIN A   1      17.615   0.502   9.778  0.00  0.00     0.058 A 
ATOM     21  C19 ZIN A   1      18.373   0.308   8.639  0.00  0.00     0.045 A 
ATOM     22  C17 ZIN A   1      19.186   1.328   8.165  0.00  0.00     0.123 A 
ATOM     23  I20 ZIN A   1      18.301  -1.529   7.634  0.00  0.00    -0.042 I 
ATOM     24  C16 ZIN A   1      19.233   2.543   8.830  0.00  0.00     0.044 A 
ATOM     25  O18 ZIN A   1      19.935   1.135   7.047  0.00  0.00    -0.191 OA
ATOM     26  C15 ZIN A   1      18.471   2.739   9.966  0.00  0.00     0.040 A 
ENDBRANCH  18  19
ENDBRANCH   5  18
TORSDOF 6
ENDMDL
MODEL 6
REMARK VINA RESULT:      -6.5      3.928      5.185
REMARK  6 active torsions:
REMARK  status: ('A' for Active; 'I' for Inactive)
REMARK    1  A    between atoms: N1_1  and  C5_5 
REMARK    2  A    between atoms: C5_5  and  C7_6 
REMARK    3  A    between atoms: C5_5  and  C25_24 
REMARK    4  A    between atoms: C7_6  and  C8_7 
REMARK    5  A    between atoms: C12_11  and  O13_12 
REMARK    6  A    between atoms: O13_12  and  C14_13 
ROOT
ATOM      1  C8  ZIN A   1      18.945   3.082  12.959  0.00  0.00    -0.053 A 
ATOM      2  C9  ZIN A   1      18.595   2.569  11.724  0.00  0.00     0.028 A 
ATOM      3  C10 ZIN A   1      18.005   1.322  11.634  0.00  0.00     0.042 A 
ATOM      4  I11 ZIN A   1      17.474   0.545   9.762  0.00  0.00    -0.042 I 
ATOM      5  C12 ZIN A   1      17.765   0.585  12.786  0.00  0.00     0.109 A 
ATOM      6  C22 ZIN A   1      18.118   1.102  14.023  0.00  0.00     0.042 A 
ATOM      7  I23 ZIN A   1      17.758  -0.006  15.764  0.00  0.00    -0.042 I 
ATOM      8  C24 ZIN A   1      18.712   2.347  14.107  0.00  0.00     0.028 A 
ENDROOT
BRANCH   1   9
ATOM      9  C7  ZIN A   1      19.588   4.441  13.053  0.00  0.00     0.082 C 
BRANCH   9  10
ATOM     10  C5  ZIN A   1      19.139   5.128  14.345  0.00  0.00     0.287 C 
BRANCH  10  11
ATOM     11  N1  ZIN A   1      18.018   6.031  14.055  0.00  0.00    -0.065 N 
ATOM     12  H2  ZIN A   1      17.380   6.038  14.836  0.00  0.00     0.275 HD
ATOM     13  H3  ZIN A   1      17.534   5.712  13.229  0.00  0.00     0.275 HD
ATOM     14  H4  ZIN A   1      18.369   6.965  13.899  0.00  0.00     0.275 HD
ENDBRANCH  10  11
BRANCH  10  15
ATOM     15  C25 ZIN A   1      20.287   5.921  14.917  0.00  0.00     0.204 C 
ATOM     16  O26 ZIN A   1      20.610   6.979  14.406  0.00  0.00    -0.646 OA
ATOM     17  O27 ZIN A   1      20.891   5.504  15.890  0.00  0.00    -0.646 OA
ENDBRANCH  10  15
ENDBRANCH   9  10
ENDBRANCH   1   9
BRANCH   5  18
ATOM     18  O13 ZIN A   1      17.185  -0.641  12.700  0.00  0.00    -0.308 OA
BRANCH  18  19
ATOM     19  C14 ZIN A   1      17.948  -1.679  12.265  0.00  0.00     0.077 A 
ATOM     20  C21 ZIN A   1      17.355  -2.752  11.615  0.00  0.00     0.058 A 
ATOM     21  C19 ZIN A   1      18.131  -3.804  11.170  0.00  0.00     0.045 A 
ATOM     22  C17 ZIN A   1      19.503  -3.793  11.381  0.00  0.00     0.123 A 
ATOM     23  I20 ZIN A   1      17.237  -5.421  10.182  0.00  0.00    -0.042 I 
ATOM     24  C16 ZIN A   1      20.094  -2.723  12.035  0.00  0.00     0.044 A 
ATOM     25  O18 ZIN A   1      20.266  -4.830  10.946  0.00  0.00    -0.191 OA
ATOM     26  C15 ZIN A   1      19.319  -1.668  12.477  0.00  0.00     0.040 A 
ENDBRANCH  18  19
ENDBRANCH   5  18
TORSDOF 6
ENDMDL
MODEL 7
REMARK VINA RESULT:      -6.3      3.942      5.113
REMARK  6 active torsions:
REMARK  status: ('A' for Active; 'I' for Inactive)
REMARK    1  A    between atoms: N1_1  and  C5_5 
REMARK    2  A    between atoms: C5_5  and  C7_6 
REMARK    3  A    between atoms: C5_5  and  C25_24 
REMARK    4  A    between atoms: C7_6  and  C8_7 
REMARK    5  A    between atoms: C12_11  and  O13_12 
REMARK    6  A    between atoms: O13_12  and  C14_13 
ROOT
ATOM      1  C8  ZIN A   1      18.919   2.797  13.112  0.00  0.00    -0.053 A 
ATOM      2  C9  ZIN A   1      18.763   2.015  14.240  0.00  0.00     0.028 A 
ATOM      3  C10 ZIN A   1      18.198   0.757  14.139  0.00  0.00     0.042 A 
ATOM      4  I11 ZIN A   1      17.962  -0.428  15.850  0.00  0.00    -0.042 I 
ATOM      5  C12 ZIN A   1      17.787   0.280  12.902  0.00  0.00     0.109 A 
ATOM      6  C22 ZIN A   1      17.945   1.068  11.771  0.00  0.00     0.042 A 
ATOM      7  I23 ZIN A   1      17.326   0.354   9.901  0.00  0.00    -0.042 I 
ATOM      8  C24 ZIN A   1      18.506   2.327  11.879  0.00  0.00     0.028 A 
ENDROOT
BRANCH   1   9
ATOM      9  C7  ZIN A   1      19.535   4.167  13.226  0.00  0.00     0.082 C 
BRANCH   9  10
ATOM     10  C5  ZIN A   1      18.842   4.946  14.347  0.00  0.00     0.287 C 
BRANCH  10  11
ATOM     11  N1  ZIN A   1      17.717   5.707  13.790  0.00  0.00    -0.065 N 
ATOM     12  H2  ZIN A   1      17.831   5.796  12.791  0.00  0.00     0.275 HD
ATOM     13  H3  ZIN A   1      17.691   6.625  14.208  0.00  0.00     0.275 HD
ATOM     14  H4  ZIN A   1      16.853   5.224  13.988  0.00  0.00     0.275 HD
ENDBRANCH  10  11
BRANCH  10  15
ATOM     15  C25 ZIN A   1      19.826   5.897  14.980  0.00  0.00     0.204 C 
ATOM     16  O26 ZIN A   1      19.773   7.087  14.724  0.00  0.00    -0.646 OA
ATOM     17  O27 ZIN A   1      20.675   5.475  15.747  0.00  0.00    -0.646 OA
ENDBRANCH  10  15
ENDBRANCH   9  10
ENDBRANCH   1   9
BRANCH   5  18
ATOM     18  O13 ZIN A   1      17.231  -0.955  12.799  0.00  0.00    -0.308 OA
BRANCH  18  19
ATOM     19  C14 ZIN A   1      17.969  -1.942  12.225  0.00  0.00     0.077 A 
ATOM     20  C21 ZIN A   1      17.343  -2.941  11.494  0.00  0.00     0.058 A 
ATOM     21  C19 ZIN A   1      18.094  -3.941  10.906  0.00  0.00     0.045 A 
ATOM     22  C17 ZIN A   1      19.474  -3.951  11.056  0.00  0.00     0.123 A 
ATOM     23  I20 ZIN A   1      17.149  -5.445   9.797  0.00  0.00    -0.042 I 
ATOM     24  C16 ZIN A   1      20.099  -2.956  11.791  0.00  0.00     0.044 A 
ATOM     25  O18 ZIN A   1      20.212  -4.937  10.482  0.00  0.00    -0.191 OA
ATOM     26  C15 ZIN A   1      19.349  -1.953  12.374  0.00  0.00     0.040 A 
ENDBRANCH  18  19
ENDBRANCH   5  18
TORSDOF 6
ENDMDL
MODEL 8
REMARK VINA RESULT:      -6.3      4.302      5.740
REMARK  6 active torsions:
REMARK  status: ('A' for Active; 'I' for Inactive)
REMARK    1  A    between atoms: N1_1  and  C5_5 
REMARK    2  A    between atoms: C5_5  and  C7_6 
REMARK    3  A    between atoms: C5_5  and  C25_24 
REMARK    4  A    between atoms: C7_6  and  C8_7 
REMARK    5  A    between atoms: C12_11  and  O13_12 
REMARK    6  A    between atoms: O13_12  and  C14_13 
ROOT
ATOM      1  C8  ZIN A   1      17.966   0.617  10.200  0.00  0.00    -0.053 A 
ATOM      2  C9  ZIN A   1      17.879   0.498   8.826  0.00  0.00     0.028 A 
ATOM      3  C10 ZIN A   1      18.302  -0.661   8.203  0.00  0.00     0.042 A 
ATOM      4  I11 ZIN A   1      18.169  -0.841   6.120  0.00  0.00    -0.042 I 
ATOM      5  C12 ZIN A   1      18.817  -1.705   8.959  0.00  0.00     0.109 A 
ATOM      6  C22 ZIN A   1      18.904  -1.582  10.338  0.00  0.00     0.042 A 
ATOM      7  I23 ZIN A   1      19.680  -3.155  11.483  0.00  0.00    -0.042 I 
ATOM      8  C24 ZIN A   1      18.483  -0.420  10.955  0.00  0.00     0.028 A 
ENDROOT
BRANCH   1   9
ATOM      9  C7  ZIN A   1      17.503   1.882  10.876  0.00  0.00     0.082 C 
BRANCH   9  10
ATOM     10  C5  ZIN A   1      18.313   3.068  10.348  0.00  0.00     0.287 C 
BRANCH  10  11
ATOM     11  N1  ZIN A   1      19.519   3.240  11.168  0.00  0.00    -0.065 N 
ATOM     12  H2  ZIN A   1      20.291   2.750  10.740  0.00  0.00     0.275 HD
ATOM     13  H3  ZIN A   1      19.355   2.868  12.091  0.00  0.00     0.275 HD
ATOM     14  H4  ZIN A   1      19.743   4.222  11.236  0.00  0.00     0.275 HD
ENDBRANCH  10  11
BRANCH  10  15
ATOM     15  C25 ZIN A   1      17.476   4.319  10.419  0.00  0.00     0.204 C 
ATOM     16  O26 ZIN A   1      17.648   5.214   9.609  0.00  0.00    -0.646 OA
ATOM     17  O27 ZIN A   1      16.626   4.437  11.285  0.00  0.00    -0.646 OA
ENDBRANCH  10  15
ENDBRANCH   9  10
ENDBRANCH   1   9
BRANCH   5  18
ATOM     18  O13 ZIN A   1      19.235  -2.845   8.348  0.00  0.00    -0.308 OA
BRANCH  18  19
ATOM     19  C14 ZIN A   1      18.315  -3.819   8.117  0.00  0.00     0.077 A 
ATOM     20  C21 ZIN A   1      18.310  -4.496   6.906  0.00  0.00     0.058 A 
ATOM     21  C19 ZIN A   1      17.379  -5.490   6.674  0.00  0.00     0.045 A 
ATOM     22  C17 ZIN A   1      16.441  -5.803   7.648  0.00  0.00     0.123 A 
ATOM     23  I20 ZIN A   1      17.377  -6.516   4.847  0.00  0.00    -0.042 I 
ATOM     24  C16 ZIN A   1      16.443  -5.123   8.856  0.00  0.00     0.044 A 
ATOM     25  O18 ZIN A   1      15.522  -6.777   7.417  0.00  0.00    -0.191 OA
ATOM     26  C15 ZIN A   1      17.377  -4.133   9.091  0.00  0.00     0.040 A 
ENDBRANCH  18  19
ENDBRANCH   5  18
TORSDOF 6
ENDMDL
MODEL 9
REMARK VINA RESULT:      -6.3      4.061      8.258
REMARK  6 active torsions:
REMARK  status: ('A' for Active; 'I' for Inactive)
REMARK    1  A    between atoms: N1_1  and  C5_5 
REMARK    2  A    between atoms: C5_5  and  C7_6 
REMARK    3  A    between atoms: C5_5  and  C25_24 
REMARK    4  A    between atoms: C7_6  and  C8_7 
REMARK    5  A    between atoms: C12_11  and  O13_12 
REMARK    6  A    between atoms: O13_12  and  C14_13 
ROOT
ATOM      1  C8  ZIN A   1      19.077   1.427   9.822  0.00  0.00    -0.053 A 
ATOM      2  C9  ZIN A   1      18.483   2.669   9.707  0.00  0.00     0.028 A 
ATOM      3  C10 ZIN A   1      17.907   3.267  10.812  0.00  0.00     0.042 A 
ATOM      4  I11 ZIN A   1      17.009   5.152  10.636  0.00  0.00    -0.042 I 
ATOM      5  C12 ZIN A   1      17.925   2.618  12.039  0.00  0.00     0.109 A 
ATOM      6  C22 ZIN A   1      18.520   1.370  12.151  0.00  0.00     0.042 A 
ATOM      7  I23 ZIN A   1      18.549   0.385  14.000  0.00  0.00    -0.042 I 
ATOM      8  C24 ZIN A   1      19.091   0.775  11.042  0.00  0.00     0.028 A 
ENDROOT
BRANCH   1   9
ATOM      9  C7  ZIN A   1      19.704   0.778   8.616  0.00  0.00     0.082 C 
BRANCH   9  10
ATOM     10  C5  ZIN A   1      18.850  -0.415   8.177  0.00  0.00     0.287 C 
BRANCH  10  11
ATOM     11  N1  ZIN A   1      19.645  -1.646   8.271  0.00  0.00    -0.065 N 
ATOM     12  H2  ZIN A   1      20.096  -1.688   9.173  0.00  0.00     0.275 HD
ATOM     13  H3  ZIN A   1      20.346  -1.651   7.544  0.00  0.00     0.275 HD
ATOM     14  H4  ZIN A   1      19.041  -2.447   8.160  0.00  0.00     0.275 HD
ENDBRANCH  10  11
BRANCH  10  15
ATOM     15  C25 ZIN A   1      18.402  -0.214   6.752  0.00  0.00     0.204 C 
ATOM     16  O26 ZIN A   1      19.208  -0.303   5.842  0.00  0.00    -0.646 OA
ATOM     17  O27 ZIN A   1      17.234   0.037   6.509  0.00  0.00    -0.646 OA
ENDBRANCH  10  15
ENDBRANCH   9  10
ENDBRANCH   1   9
BRANCH   5  18
ATOM     18  O13 ZIN A   1      17.359   3.203  13.127  0.00  0.00    -0.308 OA
BRANCH  18  19
ATOM     19  C14 ZIN A   1      18.128   4.035  13.876  0.00  0.00     0.077 A 
ATOM     20  C21 ZIN A   1      17.642   4.540  15.074  0.00  0.00     0.058 A 
ATOM     21  C19 ZIN A   1      18.427   5.382  15.838  0.00  0.00     0.045 A 
ATOM     22  C17 ZIN A   1      19.697   5.731  15.403  0.00  0.00     0.123 A 
ATOM     23  I20 ZIN A   1      17.694   6.137  17.650  0.00  0.00    -0.042 I 
ATOM     24  C16 ZIN A   1      20.181   5.232  14.204  0.00  0.00     0.044 A 
ATOM     25  O18 ZIN A   1      20.467   6.563  16.153  0.00  0.00    -0.191 OA
ATOM     26  C15 ZIN A   1      19.399   4.386  13.442  0.00  0.00     0.040 A 
ENDBRANCH  18  19
ENDBRANCH   5  18
TORSDOF 6
ENDMDL
