MODEL 1
REMARK VINA RESULT:      -9.4      0.000      0.000
REMARK  4 active torsions:
REMARK  status: ('A' for Active; 'I' for Inactive)
REMARK    1  A    between atoms: S2_2  and  C5_5 
REMARK    2  A    between atoms: C8_8  and  C9_9 
REMARK       I    between atoms: C9_9  and  N11_11 
REMARK    3  A    between atoms: N11_11  and  C12_12 
REMARK    4  A    between atoms: C17_17  and  C18_18 
ROOT
ATOM      1  C9  ZIN A   1      18.252   1.094  10.524  0.00  0.00     0.257 C 
ATOM      2  O10 ZIN A   1      17.120   1.290  10.923  0.00  0.00    -0.267 OA
ATOM      3  N11 ZIN A   1      19.305   1.464  11.278  0.00  0.00    -0.323 N 
ATOM      4  H33 ZIN A   1      20.207   1.250  10.991  0.00  0.00     0.169 HD
ENDROOT
BRANCH   3   5
ATOM      5  C12 ZIN A   1      19.099   2.159  12.476  0.00  0.00     0.035 A 
ATOM      6  C24 ZIN A   1      18.979   1.463  13.669  0.00  0.00     0.045 A 
ATOM      7  C17 ZIN A   1      18.778   2.158  14.859  0.00  0.00     0.017 A 
ATOM      8  C15 ZIN A   1      18.688   3.551  14.841  0.00  0.00     0.046 A 
ATOM      9  C14 ZIN A   1      18.803   4.235  13.646  0.00  0.00     0.027 A 
ATOM     10 Cl16 ZIN A   1      18.431   4.422  16.321  0.00  0.00    -0.083 Cl
ATOM     11  C13 ZIN A   1      19.007   3.545  12.467  0.00  0.00     0.031 A 
BRANCH   7  12
ATOM     12  C18 ZIN A   1      18.654   1.421  16.140  0.00  0.00     0.068 A 
ATOM     13  N23 ZIN A   1      19.481   1.697  17.141  0.00  0.00    -0.260 NA
ATOM     14  C22 ZIN A   1      19.399   1.068  18.297  0.00  0.00     0.117 A 
ATOM     15  C21 ZIN A   1      18.449   0.084  18.504  0.00  0.00     0.019 A 
ATOM     16  C20 ZIN A   1      17.569  -0.238  17.481  0.00  0.00     0.004 A 
ATOM     17  C19 ZIN A   1      17.673   0.441  16.281  0.00  0.00     0.032 A 
ENDBRANCH   7  12
ENDBRANCH   3   5
BRANCH   1  18
ATOM     18  C8  ZIN A   1      18.471   0.448   9.215  0.00  0.00     0.054 A 
ATOM     19  C7  ZIN A   1      18.747   1.224   8.088  0.00  0.00     0.020 A 
ATOM     20  C6  ZIN A   1      18.951   0.615   6.867  0.00  0.00     0.024 A 
ATOM     21  C5  ZIN A   1      18.881  -0.763   6.756  0.00  0.00     0.060 A 
ATOM     22  C27 ZIN A   1      18.604  -1.539   7.867  0.00  0.00     0.048 A 
ATOM     23  C25 ZIN A   1      18.403  -0.943   9.096  0.00  0.00     0.051 A 
ATOM     24 Cl26 ZIN A   1      18.060  -1.919  10.491  0.00  0.00    -0.083 Cl
BRANCH  21  25
ATOM     25  S2  ZIN A   1      19.142  -1.532   5.192  0.00  0.00     0.171 S 
ATOM     26  C1  ZIN A   1      17.496  -1.578   4.430  0.00  0.00     0.167 C 
ATOM     27  O3  ZIN A   1      19.578  -2.845   5.515  0.00  0.00    -0.223 OA
ATOM     28  O4  ZIN A   1      19.989  -0.628   4.495  0.00  0.00    -0.223 OA
ENDBRANCH  21  25
ENDBRANCH   1  18
TORSDOF 4
ENDMDL
MODEL 2
REMARK VINA RESULT:      -9.3      4.106      9.662
REMARK  4 active torsions:
REMARK  status: ('A' for Active; 'I' for Inactive)
REMARK    1  A    between atoms: S2_2  and  C5_5 
REMARK    2  A    between atoms: C8_8  and  C9_9 
REMARK       I    between atoms: C9_9  and  N11_11 
REMARK    3  A    between atoms: N11_11  and  C12_12 
REMARK    4  A    between atoms: C17_17  and  C18_18 
ROOT
ATOM      1  C9  ZIN A   1      18.163  -1.105  12.578  0.00  0.00     0.257 C 
ATOM      2  O10 ZIN A   1      17.028  -1.343  12.212  0.00  0.00    -0.267 OA
ATOM      3  N11 ZIN A   1      19.207  -1.434  11.794  0.00  0.00    -0.323 N 
ATOM      4  H33 ZIN A   1      20.108  -1.186  12.055  0.00  0.00     0.169 HD
ENDROOT
BRANCH   3   5
ATOM      5  C12 ZIN A   1      18.993  -2.135  10.602  0.00  0.00     0.035 A 
ATOM      6  C24 ZIN A   1      18.920  -1.450   9.398  0.00  0.00     0.045 A 
ATOM      7  C17 ZIN A   1      18.712  -2.152   8.214  0.00  0.00     0.017 A 
ATOM      8  C15 ZIN A   1      18.566  -3.539   8.246  0.00  0.00     0.046 A 
ATOM      9  C14 ZIN A   1      18.635  -4.213   9.451  0.00  0.00     0.027 A 
ATOM     10 Cl16 ZIN A   1      18.299  -4.419   6.773  0.00  0.00    -0.083 Cl
ATOM     11  C13 ZIN A   1      18.847  -3.516  10.625  0.00  0.00     0.031 A 
BRANCH   7  12
ATOM     12  C18 ZIN A   1      18.637  -1.427   6.922  0.00  0.00     0.068 A 
ATOM     13  N23 ZIN A   1      19.526  -1.682   5.971  0.00  0.00    -0.260 NA
ATOM     14  C22 ZIN A   1      19.490  -1.063   4.808  0.00  0.00     0.117 A 
ATOM     15  C21 ZIN A   1      18.524  -0.110   4.540  0.00  0.00     0.019 A 
ATOM     16  C20 ZIN A   1      17.579   0.191   5.509  0.00  0.00     0.004 A 
ATOM     17  C19 ZIN A   1      17.636  -0.478   6.719  0.00  0.00     0.032 A 
ENDBRANCH   7  12
ENDBRANCH   3   5
BRANCH   1  18
ATOM     18  C8  ZIN A   1      18.395  -0.452  13.882  0.00  0.00     0.054 A 
ATOM     19  C7  ZIN A   1      18.579  -1.225  15.030  0.00  0.00     0.020 A 
ATOM     20  C6  ZIN A   1      18.795  -0.610  16.246  0.00  0.00     0.024 A 
ATOM     21  C5  ZIN A   1      18.829   0.771  16.330  0.00  0.00     0.060 A 
ATOM     22  C27 ZIN A   1      18.643   1.544  15.199  0.00  0.00     0.048 A 
ATOM     23  C25 ZIN A   1      18.431   0.942  13.975  0.00  0.00     0.051 A 
ATOM     24 Cl26 ZIN A   1      18.203   1.914  12.554  0.00  0.00    -0.083 Cl
BRANCH  21  25
ATOM     25  S2  ZIN A   1      19.104   1.549  17.888  0.00  0.00     0.171 S 
ATOM     26  C1  ZIN A   1      17.467   1.594  18.668  0.00  0.00     0.167 C 
ATOM     27  O3  ZIN A   1      19.534   2.861  17.554  0.00  0.00    -0.223 OA
ATOM     28  O4  ZIN A   1      19.962   0.651  18.580  0.00  0.00    -0.223 OA
ENDBRANCH  21  25
ENDBRANCH   1  18
TORSDOF 4
ENDMDL
MODEL 3
REMARK VINA RESULT:      -9.2      3.979      9.056
REMARK  4 active torsions:
REMARK  status: ('A' for Active; 'I' for Inactive)
REMARK    1  A    between atoms: S2_2  and  C5_5 
REMARK    2  A    between atoms: C8_8  and  C9_9 
REMARK       I    between atoms: C9_9  and  N11_11 
REMARK    3  A    between atoms: N11_11  and  C12_12 
REMARK    4  A    between atoms: C17_17  and  C18_18 
ROOT
ATOM      1  C9  ZIN A   1      18.370   1.154  12.097  0.00  0.00     0.257 C 
ATOM      2  O10 ZIN A   1      17.252   1.158  11.618  0.00  0.00    -0.267 OA
ATOM      3  N11 ZIN A   1      19.446   1.036  11.295  0.00  0.00    -0.323 N 
ATOM      4  H33 ZIN A   1      20.339   1.097  11.669  0.00  0.00     0.169 HD
ENDROOT
BRANCH   3   5
ATOM      5  C12 ZIN A   1      19.276   0.822   9.922  0.00  0.00     0.035 A 
ATOM      6  C24 ZIN A   1      19.218  -0.471   9.424  0.00  0.00     0.045 A 
ATOM      7  C17 ZIN A   1      19.044  -0.680   8.059  0.00  0.00     0.017 A 
ATOM      8  C15 ZIN A   1      18.939   0.413   7.198  0.00  0.00     0.046 A 
ATOM      9  C14 ZIN A   1      19.003   1.698   7.703  0.00  0.00     0.027 A 
ATOM     10 Cl16 ZIN A   1      18.729   0.159   5.493  0.00  0.00    -0.083 Cl
ATOM     11  C13 ZIN A   1      19.172   1.904   9.058  0.00  0.00     0.031 A 
BRANCH   7  12
ATOM     12  C18 ZIN A   1      18.976  -2.060   7.519  0.00  0.00     0.068 A 
ATOM     13  N23 ZIN A   1      19.695  -2.386   6.453  0.00  0.00    -0.260 NA
ATOM     14  C22 ZIN A   1      19.667  -3.603   5.947  0.00  0.00     0.117 A 
ATOM     15  C21 ZIN A   1      18.871  -4.586   6.506  0.00  0.00     0.019 A 
ATOM     16  C20 ZIN A   1      18.099  -4.285   7.618  0.00  0.00     0.004 A 
ATOM     17  C19 ZIN A   1      18.152  -3.002   8.133  0.00  0.00     0.032 A 
ENDBRANCH   7  12
ENDBRANCH   3   5
BRANCH   1  18
ATOM     18  C8  ZIN A   1      18.547   1.282  13.557  0.00  0.00     0.054 A 
ATOM     19  C7  ZIN A   1      18.651   2.544  14.143  0.00  0.00     0.020 A 
ATOM     20  C6  ZIN A   1      18.817   2.657  15.508  0.00  0.00     0.024 A 
ATOM     21  C5  ZIN A   1      18.882   1.522  16.297  0.00  0.00     0.060 A 
ATOM     22  C27 ZIN A   1      18.785   0.267  15.724  0.00  0.00     0.048 A 
ATOM     23  C25 ZIN A   1      18.613   0.140  14.360  0.00  0.00     0.051 A 
ATOM     24 Cl26 ZIN A   1      18.485  -1.436  13.642  0.00  0.00    -0.083 Cl
BRANCH  21  25
ATOM     25  S2  ZIN A   1      19.095   1.676  18.040  0.00  0.00     0.171 S 
ATOM     26  C1  ZIN A   1      17.427   1.467  18.721  0.00  0.00     0.167 C 
ATOM     27  O3  ZIN A   1      19.544   3.012  18.222  0.00  0.00    -0.223 OA
ATOM     28  O4  ZIN A   1      19.919   0.572  18.390  0.00  0.00    -0.223 OA
ENDBRANCH  21  25
ENDBRANCH   1  18
TORSDOF 4
ENDMDL
MODEL 4
REMARK VINA RESULT:      -8.8      3.952      9.202
REMARK  4 active torsions:
REMARK  status: ('A' for Active; 'I' for Inactive)
REMARK    1  A    between atoms: S2_2  and  C5_5 
REMARK    2  A    between atoms: C8_8  and  C9_9 
REMARK       I    between atoms: C9_9  and  N11_11 
REMARK    3  A    between atoms: N11_11  and  C12_12 
REMARK    4  A    between atoms: C17_17  and  C18_18 
ROOT
ATOM      1  C9  ZIN A   1      18.268   0.912  12.183  0.00  0.00     0.257 C 
ATOM      2  O10 ZIN A   1      17.159   0.996  11.692  0.00  0.00    -0.267 OA
ATOM      3  N11 ZIN A   1      19.351   0.808  11.387  0.00  0.00    -0.323 N 
ATOM      4  H33 ZIN A   1      20.240   0.806  11.775  0.00  0.00     0.169 HD
ENDROOT
BRANCH   3   5
ATOM      5  C12 ZIN A   1      19.192   0.700  10.001  0.00  0.00     0.035 A 
ATOM      6  C24 ZIN A   1      19.093  -0.550   9.409  0.00  0.00     0.045 A 
ATOM      7  C17 ZIN A   1      18.931  -0.653   8.030  0.00  0.00     0.017 A 
ATOM      8  C15 ZIN A   1      18.880   0.503   7.250  0.00  0.00     0.046 A 
ATOM      9  C14 ZIN A   1      18.985   1.744   7.848  0.00  0.00     0.027 A 
ATOM     10 Cl16 ZIN A   1      18.685   0.381   5.529  0.00  0.00    -0.083 Cl
ATOM     11  C13 ZIN A   1      19.141   1.845   9.217  0.00  0.00     0.031 A 
BRANCH   7  12
ATOM     12  C18 ZIN A   1      18.819  -1.987   7.391  0.00  0.00     0.068 A 
ATOM     13  N23 ZIN A   1      18.236  -2.984   8.044  0.00  0.00    -0.260 NA
ATOM     14  C22 ZIN A   1      18.113  -4.182   7.508  0.00  0.00     0.117 A 
ATOM     15  C21 ZIN A   1      18.601  -4.446   6.241  0.00  0.00     0.019 A 
ATOM     16  C20 ZIN A   1      19.223  -3.433   5.527  0.00  0.00     0.004 A 
ATOM     17  C19 ZIN A   1      19.334  -2.184   6.110  0.00  0.00     0.032 A 
ENDBRANCH   7  12
ENDBRANCH   3   5
BRANCH   1  18
ATOM     18  C8  ZIN A   1      18.429   0.927  13.650  0.00  0.00     0.054 A 
ATOM     19  C7  ZIN A   1      18.312  -0.257  14.381  0.00  0.00     0.020 A 
ATOM     20  C6  ZIN A   1      18.462  -0.237  15.751  0.00  0.00     0.024 A 
ATOM     21  C5  ZIN A   1      18.728   0.954  16.405  0.00  0.00     0.060 A 
ATOM     22  C27 ZIN A   1      18.841   2.132  15.689  0.00  0.00     0.048 A 
ATOM     23  C25 ZIN A   1      18.698   2.125  14.316  0.00  0.00     0.051 A 
ATOM     24 Cl26 ZIN A   1      18.846   3.605  13.418  0.00  0.00    -0.083 Cl
BRANCH  21  25
ATOM     25  S2  ZIN A   1      18.917   0.970  18.157  0.00  0.00     0.171 S 
ATOM     26  C1  ZIN A   1      17.262   1.362  18.788  0.00  0.00     0.167 C 
ATOM     27  O3  ZIN A   1      19.812   2.046  18.403  0.00  0.00    -0.223 OA
ATOM     28  O4  ZIN A   1      19.272  -0.367  18.483  0.00  0.00    -0.223 OA
ENDBRANCH  21  25
ENDBRANCH   1  18
TORSDOF 4
ENDMDL
MODEL 5
REMARK VINA RESULT:      -8.8      4.016      8.934
REMARK  4 active torsions:
REMARK  status: ('A' for Active; 'I' for Inactive)
REMARK    1  A    between atoms: S2_2  and  C5_5 
REMARK    2  A    between atoms: C8_8  and  C9_9 
REMARK       I    between atoms: C9_9  and  N11_11 
REMARK    3  A    between atoms: N11_11  and  C12_12 
REMARK    4  A    between atoms: C17_17  and  C18_18 
ROOT
ATOM      1  C9  ZIN A   1      18.534   2.115  10.895  0.00  0.00     0.257 C 
ATOM      2  O10 ZIN A   1      17.397   1.972  10.488  0.00  0.00    -0.267 OA
ATOM      3  N11 ZIN A   1      19.576   1.741  10.127  0.00  0.00    -0.323 N 
ATOM      4  H33 ZIN A   1      20.483   1.914  10.423  0.00  0.00     0.169 HD
ENDROOT
BRANCH   3   5
ATOM      5  C12 ZIN A   1      19.349   1.102   8.903  0.00  0.00     0.035 A 
ATOM      6  C24 ZIN A   1      19.345  -0.283   8.834  0.00  0.00     0.045 A 
ATOM      7  C17 ZIN A   1      19.114  -0.916   7.616  0.00  0.00     0.017 A 
ATOM      8  C15 ZIN A   1      18.900  -0.152   6.468  0.00  0.00     0.046 A 
ATOM      9  C14 ZIN A   1      18.912   1.228   6.545  0.00  0.00     0.027 A 
ATOM     10 Cl16 ZIN A   1      18.619  -0.934   4.944  0.00  0.00    -0.083 Cl
ATOM     11  C13 ZIN A   1      19.136   1.855   7.756  0.00  0.00     0.031 A 
BRANCH   7  12
ATOM     12  C18 ZIN A   1      19.103  -2.397   7.535  0.00  0.00     0.068 A 
ATOM     13  N23 ZIN A   1      19.996  -3.022   6.779  0.00  0.00    -0.260 NA
ATOM     14  C22 ZIN A   1      20.022  -4.337   6.686  0.00  0.00     0.117 A 
ATOM     15  C21 ZIN A   1      19.105  -5.115   7.368  0.00  0.00     0.019 A 
ATOM     16  C20 ZIN A   1      18.151  -4.501   8.166  0.00  0.00     0.004 A 
ATOM     17  C19 ZIN A   1      18.150  -3.120   8.251  0.00  0.00     0.032 A 
ENDBRANCH   7  12
ENDBRANCH   3   5
BRANCH   1  18
ATOM     18  C8  ZIN A   1      18.772   2.700  12.230  0.00  0.00     0.054 A 
ATOM     19  C7  ZIN A   1      19.101   4.051  12.355  0.00  0.00     0.020 A 
ATOM     20  C6  ZIN A   1      19.323   4.591  13.604  0.00  0.00     0.024 A 
ATOM     21  C5  ZIN A   1      19.220   3.799  14.733  0.00  0.00     0.060 A 
ATOM     22  C27 ZIN A   1      18.899   2.458  14.618  0.00  0.00     0.048 A 
ATOM     23  C25 ZIN A   1      18.669   1.905  13.375  0.00  0.00     0.051 A 
ATOM     24 Cl26 ZIN A   1      18.260   0.223  13.232  0.00  0.00    -0.083 Cl
BRANCH  21  25
ATOM     25  S2  ZIN A   1      19.506   4.498  16.325  0.00  0.00     0.171 S 
ATOM     26  C1  ZIN A   1      17.862   5.009  16.898  0.00  0.00     0.167 C 
ATOM     27  O3  ZIN A   1      20.320   5.634  16.068  0.00  0.00    -0.223 OA
ATOM     28  O4  ZIN A   1      19.990   3.411  17.103  0.00  0.00    -0.223 OA
ENDBRANCH  21  25
ENDBRANCH   1  18
TORSDOF 4
ENDMDL
MODEL 6
REMARK VINA RESULT:      -8.7      1.812      3.032
REMARK  4 active torsions:
REMARK  status: ('A' for Active; 'I' for Inactive)
REMARK    1  A    between atoms: S2_2  and  C5_5 
REMARK    2  A    between atoms: C8_8  and  C9_9 
REMARK       I    between atoms: C9_9  and  N11_11 
REMARK    3  A    between atoms: N11_11  and  C12_12 
REMARK    4  A    between atoms: C17_17  and  C18_18 
ROOT
ATOM      1  C9  ZIN A   1      18.144  -0.879  10.956  0.00  0.00     0.257 C 
ATOM      2  O10 ZIN A   1      17.014  -0.734  11.381  0.00  0.00    -0.267 OA
ATOM      3  N11 ZIN A   1      19.192  -0.842  11.803  0.00  0.00    -0.323 N 
ATOM      4  H33 ZIN A   1      20.087  -1.022  11.475  0.00  0.00     0.169 HD
ENDROOT
BRANCH   3   5
ATOM      5  C12 ZIN A   1      18.988  -0.543  13.155  0.00  0.00     0.035 A 
ATOM      6  C24 ZIN A   1      19.039   0.773  13.589  0.00  0.00     0.045 A 
ATOM      7  C17 ZIN A   1      18.831   1.067  14.934  0.00  0.00     0.017 A 
ATOM      8  C15 ZIN A   1      18.585   0.035  15.839  0.00  0.00     0.046 A 
ATOM      9  C14 ZIN A   1      18.542  -1.274  15.399  0.00  0.00     0.027 A 
ATOM     10 Cl16 ZIN A   1      18.332   0.395  17.519  0.00  0.00    -0.083 Cl
ATOM     11  C13 ZIN A   1      18.743  -1.565  14.063  0.00  0.00     0.031 A 
BRANCH   7  12
ATOM     12  C18 ZIN A   1      18.879   2.473  15.405  0.00  0.00     0.068 A 
ATOM     13  N23 ZIN A   1      19.720   2.815  16.372  0.00  0.00    -0.260 NA
ATOM     14  C22 ZIN A   1      19.796   4.055  16.815  0.00  0.00     0.117 A 
ATOM     15  C21 ZIN A   1      18.988   5.047  16.289  0.00  0.00     0.019 A 
ATOM     16  C20 ZIN A   1      18.091   4.730  15.280  0.00  0.00     0.004 A 
ATOM     17  C19 ZIN A   1      18.036   3.423  14.830  0.00  0.00     0.032 A 
ENDBRANCH   7  12
ENDBRANCH   3   5
BRANCH   1  18
ATOM     18  C8  ZIN A   1      18.368  -1.097   9.513  0.00  0.00     0.054 A 
ATOM     19  C7  ZIN A   1      18.393  -2.394   8.996  0.00  0.00     0.020 A 
ATOM     20  C6  ZIN A   1      18.603  -2.592   7.647  0.00  0.00     0.024 A 
ATOM     21  C5  ZIN A   1      18.790  -1.509   6.806  0.00  0.00     0.060 A 
ATOM     22  C27 ZIN A   1      18.771  -0.222   7.311  0.00  0.00     0.048 A 
ATOM     23  C25 ZIN A   1      18.557  -0.009   8.658  0.00  0.00     0.051 A 
ATOM     24 Cl26 ZIN A   1      18.528   1.609   9.290  0.00  0.00    -0.083 Cl
BRANCH  21  25
ATOM     25  S2  ZIN A   1      19.058  -1.772   5.084  0.00  0.00     0.171 S 
ATOM     26  C1  ZIN A   1      17.413  -1.607   4.338  0.00  0.00     0.167 C 
ATOM     27  O3  ZIN A   1      19.512  -3.115   5.001  0.00  0.00    -0.223 OA
ATOM     28  O4  ZIN A   1      19.894  -0.690   4.692  0.00  0.00    -0.223 OA
ENDBRANCH  21  25
ENDBRANCH   1  18
TORSDOF 4
ENDMDL
MODEL 7
REMARK VINA RESULT:      -8.4      4.129      8.996
REMARK  4 active torsions:
REMARK  status: ('A' for Active; 'I' for Inactive)
REMARK    1  A    between atoms: S2_2  and  C5_5 
REMARK    2  A    between atoms: C8_8  and  C9_9 
REMARK       I    between atoms: C9_9  and  N11_11 
REMARK    3  A    between atoms: N11_11  and  C12_12 
REMARK    4  A    between atoms: C17_17  and  C18_18 
ROOT
ATOM      1  C9  ZIN A   1      18.307   1.784  10.209  0.00  0.00     0.257 C 
ATOM      2  O10 ZIN A   1      17.235   1.288   9.921  0.00  0.00    -0.267 OA
ATOM      3  N11 ZIN A   1      19.364   1.627   9.389  0.00  0.00    -0.323 N 
ATOM      4  H33 ZIN A   1      20.201   2.076   9.585  0.00  0.00     0.169 HD
ENDROOT
BRANCH   3   5
ATOM      5  C12 ZIN A   1      19.256   0.813   8.256  0.00  0.00     0.035 A 
ATOM      6  C24 ZIN A   1      19.302  -0.567   8.386  0.00  0.00     0.045 A 
ATOM      7  C17 ZIN A   1      19.189  -1.373   7.256  0.00  0.00     0.017 A 
ATOM      8  C15 ZIN A   1      19.041  -0.788   5.999  0.00  0.00     0.046 A 
ATOM      9  C14 ZIN A   1      19.002   0.589   5.878  0.00  0.00     0.027 A 
ATOM     10 Cl16 ZIN A   1      18.907  -1.788   4.586  0.00  0.00    -0.083 Cl
ATOM     11  C13 ZIN A   1      19.109   1.388   7.000  0.00  0.00     0.031 A 
BRANCH   7  12
ATOM     12  C18 ZIN A   1      19.233  -2.850   7.388  0.00  0.00     0.068 A 
ATOM     13  N23 ZIN A   1      20.190  -3.538   6.779  0.00  0.00    -0.260 NA
ATOM     14  C22 ZIN A   1      20.266  -4.850   6.876  0.00  0.00     0.117 A 
ATOM     15  C21 ZIN A   1      19.337  -5.562   7.612  0.00  0.00     0.019 A 
ATOM     16  C20 ZIN A   1      18.317  -4.882   8.261  0.00  0.00     0.004 A 
ATOM     17  C19 ZIN A   1      18.264  -3.504   8.147  0.00  0.00     0.032 A 
ENDBRANCH   7  12
ENDBRANCH   3   5
BRANCH   1  18
ATOM     18  C8  ZIN A   1      18.448   2.562  11.456  0.00  0.00     0.054 A 
ATOM     19  C7  ZIN A   1      18.810   1.924  12.643  0.00  0.00     0.020 A 
ATOM     20  C6  ZIN A   1      18.939   2.656  13.805  0.00  0.00     0.024 A 
ATOM     21  C5  ZIN A   1      18.711   4.021  13.797  0.00  0.00     0.060 A 
ATOM     22  C27 ZIN A   1      18.347   4.660  12.626  0.00  0.00     0.048 A 
ATOM     23  C25 ZIN A   1      18.219   3.941  11.454  0.00  0.00     0.051 A 
ATOM     24 Cl26 ZIN A   1      17.768   4.746   9.983  0.00  0.00    -0.083 Cl
BRANCH  21  25
ATOM     25  S2  ZIN A   1      18.878   4.948  15.286  0.00  0.00     0.171 S 
ATOM     26  C1  ZIN A   1      19.825   3.864  16.391  0.00  0.00     0.167 C 
ATOM     27  O3  ZIN A   1      17.545   5.098  15.757  0.00  0.00    -0.223 OA
ATOM     28  O4  ZIN A   1      19.654   6.078  14.910  0.00  0.00    -0.223 OA
ENDBRANCH  21  25
ENDBRANCH   1  18
TORSDOF 4
ENDMDL
MODEL 8
REMARK VINA RESULT:      -8.4      2.102      3.538
REMARK  4 active torsions:
REMARK  status: ('A' for Active; 'I' for Inactive)
REMARK    1  A    between atoms: S2_2  and  C5_5 
REMARK    2  A    between atoms: C8_8  and  C9_9 
REMARK       I    between atoms: C9_9  and  N11_11 
REMARK    3  A    between atoms: N11_11  and  C12_12 
REMARK    4  A    between atoms: C17_17  and  C18_18 
ROOT
ATOM      1  C9  ZIN A   1      19.262   1.617  10.854  0.00  0.00     0.257 C 
ATOM      2  O10 ZIN A   1      20.129   2.437  11.089  0.00  0.00    -0.267 OA
ATOM      3  N11 ZIN A   1      18.310   1.361  11.773  0.00  0.00    -0.323 N 
ATOM      4  H33 ZIN A   1      17.582   0.755  11.561  0.00  0.00     0.169 HD
ENDROOT
BRANCH   3   5
ATOM      5  C12 ZIN A   1      18.373   1.967  13.032  0.00  0.00     0.035 A 
ATOM      6  C24 ZIN A   1      17.926   3.269  13.198  0.00  0.00     0.045 A 
ATOM      7  C17 ZIN A   1      17.985   3.867  14.454  0.00  0.00     0.017 A 
ATOM      8  C15 ZIN A   1      18.504   3.156  15.537  0.00  0.00     0.046 A 
ATOM      9  C14 ZIN A   1      18.952   1.861  15.361  0.00  0.00     0.027 A 
ATOM     10 Cl16 ZIN A   1      18.587   3.899  17.104  0.00  0.00    -0.083 Cl
ATOM     11  C13 ZIN A   1      18.888   1.266  14.116  0.00  0.00     0.031 A 
BRANCH   7  12
ATOM     12  C18 ZIN A   1      17.505   5.258  14.640  0.00  0.00     0.068 A 
ATOM     13  N23 ZIN A   1      16.206   5.494  14.772  0.00  0.00    -0.260 NA
ATOM     14  C22 ZIN A   1      15.740   6.715  14.944  0.00  0.00     0.117 A 
ATOM     15  C21 ZIN A   1      16.595   7.802  14.982  0.00  0.00     0.019 A 
ATOM     16  C20 ZIN A   1      17.959   7.600  14.843  0.00  0.00     0.004 A 
ATOM     17  C19 ZIN A   1      18.422   6.307  14.669  0.00  0.00     0.032 A 
ENDBRANCH   7  12
ENDBRANCH   3   5
BRANCH   1  18
ATOM     18  C8  ZIN A   1      19.252   0.904   9.561  0.00  0.00     0.054 A 
ATOM     19  C7  ZIN A   1      18.885   1.574   8.393  0.00  0.00     0.020 A 
ATOM     20  C6  ZIN A   1      18.877   0.903   7.189  0.00  0.00     0.024 A 
ATOM     21  C5  ZIN A   1      19.231  -0.434   7.135  0.00  0.00     0.060 A 
ATOM     22  C27 ZIN A   1      19.592  -1.107   8.288  0.00  0.00     0.048 A 
ATOM     23  C25 ZIN A   1      19.609  -0.446   9.500  0.00  0.00     0.051 A 
ATOM     24 Cl26 ZIN A   1      20.068  -1.291  10.946  0.00  0.00    -0.083 Cl
BRANCH  21  25
ATOM     25  S2  ZIN A   1      19.217  -1.284   5.591  0.00  0.00     0.171 S 
ATOM     26  C1  ZIN A   1      17.477  -1.259   5.076  0.00  0.00     0.167 C 
ATOM     27  O3  ZIN A   1      19.622  -2.606   5.915  0.00  0.00    -0.223 OA
ATOM     28  O4  ZIN A   1      20.002  -0.465   4.734  0.00  0.00    -0.223 OA
ENDBRANCH  21  25
ENDBRANCH   1  18
TORSDOF 4
ENDMDL
MODEL 9
REMARK VINA RESULT:      -8.1      4.546      8.576
REMARK  4 active torsions:
REMARK  status: ('A' for Active; 'I' for Inactive)
REMARK    1  A    between atoms: S2_2  and  C5_5 
REMARK    2  A    between atoms: C8_8  and  C9_9 
REMARK       I    between atoms: C9_9  and  N11_11 
REMARK    3  A    between atoms: N11_11  and  C12_12 
REMARK    4  A    between atoms: C17_17  and  C18_18 
ROOT
ATOM      1  C9  ZIN A   1      18.014   2.677  11.696  0.00  0.00     0.257 C 
ATOM      2  O10 ZIN A   1      16.995   2.067  11.438  0.00  0.00    -0.267 OA
ATOM      3  N11 ZIN A   1      19.159   2.381  11.051  0.00  0.00    -0.323 N 
ATOM      4  H33 ZIN A   1      19.957   2.910  11.210  0.00  0.00     0.169 HD
ENDROOT
BRANCH   3   5
ATOM      5  C12 ZIN A   1      19.198   1.309  10.151  0.00  0.00     0.035 A 
ATOM      6  C24 ZIN A   1      19.068   0.009  10.616  0.00  0.00     0.045 A 
ATOM      7  C17 ZIN A   1      19.103  -1.054   9.718  0.00  0.00     0.017 A 
ATOM      8  C15 ZIN A   1      19.278  -0.806   8.356  0.00  0.00     0.046 A 
ATOM      9  C14 ZIN A   1      19.412   0.493   7.902  0.00  0.00     0.027 A 
ATOM     10 Cl16 ZIN A   1      19.329  -2.128   7.232  0.00  0.00    -0.083 Cl
ATOM     11  C13 ZIN A   1      19.373   1.547   8.794  0.00  0.00     0.031 A 
BRANCH   7  12
ATOM     12  C18 ZIN A   1      18.960  -2.447  10.207  0.00  0.00     0.068 A 
ATOM     13  N23 ZIN A   1      17.835  -3.113   9.980  0.00  0.00    -0.260 NA
ATOM     14  C22 ZIN A   1      17.671  -4.354  10.394  0.00  0.00     0.117 A 
ATOM     15  C21 ZIN A   1      18.670  -5.006  11.094  0.00  0.00     0.019 A 
ATOM     16  C20 ZIN A   1      19.860  -4.344  11.357  0.00  0.00     0.004 A 
ATOM     17  C19 ZIN A   1      20.007  -3.044  10.906  0.00  0.00     0.032 A 
ENDBRANCH   7  12
ENDBRANCH   3   5
BRANCH   1  18
ATOM     18  C8  ZIN A   1      17.997   3.744  12.717  0.00  0.00     0.054 A 
ATOM     19  C7  ZIN A   1      18.711   3.589  13.906  0.00  0.00     0.020 A 
ATOM     20  C6  ZIN A   1      18.690   4.588  14.856  0.00  0.00     0.024 A 
ATOM     21  C5  ZIN A   1      17.963   5.744  14.634  0.00  0.00     0.060 A 
ATOM     22  C27 ZIN A   1      17.248   5.904  13.461  0.00  0.00     0.048 A 
ATOM     23  C25 ZIN A   1      17.264   4.914  12.499  0.00  0.00     0.051 A 
ATOM     24 Cl26 ZIN A   1      16.372   5.119  11.023  0.00  0.00    -0.083 Cl
BRANCH  21  25
ATOM     25  S2  ZIN A   1      17.941   7.016  15.854  0.00  0.00     0.171 S 
ATOM     26  C1  ZIN A   1      17.690   8.545  14.910  0.00  0.00     0.167 C 
ATOM     27  O3  ZIN A   1      19.245   6.985  16.416  0.00  0.00    -0.223 OA
ATOM     28  O4  ZIN A   1      16.795   6.723  16.644  0.00  0.00    -0.223 OA
ENDBRANCH  21  25
ENDBRANCH   1  18
TORSDOF 4
ENDMDL
