MODEL 1
REMARK VINA RESULT:      -6.9      0.000      0.000
REMARK  15 active torsions:
REMARK  status: ('A' for Active; 'I' for Inactive)
REMARK       I    between atoms: N1_1  and  C2_2 
REMARK       I    between atoms: C2_2  and  N4_4 
REMARK    1  A    between atoms: N4_4  and  C5_5 
REMARK    2  A    between atoms: C10_10  and  C12_11 
REMARK    3  A    between atoms: C12_11  and  N13_12 
REMARK       I    between atoms: N13_12  and  C14_13 
REMARK    4  A    between atoms: C14_13  and  C16_15 
REMARK    5  A    between atoms: C16_15  and  C17_16 
REMARK    6  A    between atoms: C17_16  and  N19_17 
REMARK    7  A    between atoms: C17_16  and  C23_21 
REMARK    8  A    between atoms: C23_21  and  C24_22 
REMARK    9  A    between atoms: C24_22  and  C25_23 
REMARK   10  A    between atoms: C25_23  and  N26_24 
REMARK   11  A    between atoms: C33_31  and  C35_32 
REMARK   12  A    between atoms: C35_32  and  O36_33 
REMARK   13  A    between atoms: C40_37  and  N42_38 
REMARK   14  A    between atoms: C47_43  and  C49_44 
REMARK   15  A    between atoms: C55_49  and  N56_50 
ROOT
ATOM      1  C5  ZIN A   1      20.110   4.496  13.765  0.00  0.00     0.128 C 
ATOM      2  C6  ZIN A   1      19.175   3.552  13.968  0.00  0.00     0.118 C 
ATOM      3  N7  ZIN A   1      18.672   2.717  12.937  0.00  0.00    -0.320 N 
ATOM      4  C8  ZIN A   1      19.087   2.847  11.657  0.00  0.00     0.246 C 
ATOM      5  O9  ZIN A   1      19.614   3.854  11.224  0.00  0.00    -0.271 OA
ATOM      6  C10 ZIN A   1      18.900   1.674  10.713  0.00  0.00     0.194 C 
ATOM      7  N30 ZIN A   1      19.159   0.415  11.431  0.00  0.00    -0.344 N 
ATOM      8  C31 ZIN A   1      18.215  -0.109  12.263  0.00  0.00     0.243 C 
ATOM      9  O32 ZIN A   1      17.127   0.385  12.460  0.00  0.00    -0.271 OA
ATOM     10  C33 ZIN A   1      18.562  -1.393  12.989  0.00  0.00     0.200 C 
ATOM     11  N37 ZIN A   1      17.753  -1.472  14.221  0.00  0.00    -0.344 N 
ATOM     12  C38 ZIN A   1      18.247  -0.827  15.318  0.00  0.00     0.253 C 
ATOM     13  O39 ZIN A   1      19.281  -0.200  15.252  0.00  0.00    -0.271 OA
ATOM     14  C40 ZIN A   1      17.483  -0.913  16.614  0.00  0.00     0.326 C 
ATOM     15  C43 ZIN A   1      18.206  -0.108  17.696  0.00  0.00     0.167 C 
ATOM     16  N44 ZIN A   1      17.818   1.317  17.565  0.00  0.00    -0.357 N 
ATOM     17  C45 ZIN A   1      18.776   2.221  17.904  0.00  0.00     0.242 C 
ATOM     18  O46 ZIN A   1      19.835   1.827  18.366  0.00  0.00    -0.271 OA
ATOM     19  C47 ZIN A   1      18.558   3.697  17.706  0.00  0.00     0.200 C 
ATOM     20  N58 ZIN A   1      19.057   4.087  16.363  0.00  0.00    -0.340 N 
ATOM     21  C59 ZIN A   1      18.624   3.334  15.316  0.00  0.00     0.270 C 
ATOM     22  O60 ZIN A   1      17.774   2.471  15.451  0.00  0.00    -0.266 OA
ATOM     23  H65 ZIN A   1      17.998   2.042  13.173  0.00  0.00     0.169 HD
ATOM     24  H77 ZIN A   1      20.020  -0.056  11.315  0.00  0.00     0.163 HD
ATOM     25  H81 ZIN A   1      16.913  -1.958  14.250  0.00  0.00     0.163 HD
ATOM     26  H86 ZIN A   1      16.932   1.559  17.256  0.00  0.00     0.162 HD
ATOM     27  H94 ZIN A   1      19.659   4.849  16.255  0.00  0.00     0.163 HD
ENDROOT
BRANCH   6  28
ATOM     28  C12 ZIN A   1      17.522   1.718  10.063  0.00  0.00     0.157 C 
BRANCH  28  29
ATOM     29  N13 ZIN A   1      17.324   0.510   9.257  0.00  0.00    -0.359 N 
ATOM     30  C14 ZIN A   1      17.960   0.376   8.077  0.00  0.00     0.219 C 
ATOM     31  O15 ZIN A   1      18.696   1.255   7.682  0.00  0.00    -0.274 OA
ATOM     32  H68 ZIN A   1      16.735  -0.193   9.574  0.00  0.00     0.162 HD
BRANCH  30  33
ATOM     33  C16 ZIN A   1      17.756  -0.867   7.249  0.00  0.00     0.135 C 
BRANCH  33  34
ATOM     34  C17 ZIN A   1      19.017  -1.732   7.312  0.00  0.00     0.192 C 
BRANCH  34  35
ATOM     35  N19 ZIN A   1      19.684  -1.533   8.605  0.00  0.00    -0.075 N 
ATOM     36  H20 ZIN A   1      19.332  -0.692   9.039  0.00  0.00     0.274 HD
ATOM     37  H21 ZIN A   1      19.499  -2.324   9.204  0.00  0.00     0.274 HD
ATOM     38  H22 ZIN A   1      20.678  -1.446   8.460  0.00  0.00     0.274 HD
ENDBRANCH  34  35
BRANCH  34  39
ATOM     39  C23 ZIN A   1      18.632  -3.205   7.157  0.00  0.00     0.034 C 
BRANCH  39  40
ATOM     40  C24 ZIN A   1      19.707  -3.931   6.346  0.00  0.00     0.029 C 
BRANCH  40  41
ATOM     41  C25 ZIN A   1      20.113  -5.216   7.071  0.00  0.00     0.229 C 
BRANCH  41  42
ATOM     42  N26 ZIN A   1      21.551  -5.180   7.364  0.00  0.00    -0.079 N 
ATOM     43  H27 ZIN A   1      22.025  -4.640   6.655  0.00  0.00     0.274 HD
ATOM     44  H28 ZIN A   1      21.700  -4.752   8.265  0.00  0.00     0.274 HD
ATOM     45  H29 ZIN A   1      21.917  -6.119   7.373  0.00  0.00     0.274 HD
ENDBRANCH  41  42
ENDBRANCH  40  41
ENDBRANCH  39  40
ENDBRANCH  34  39
ENDBRANCH  33  34
ENDBRANCH  30  33
ENDBRANCH  28  29
ENDBRANCH   6  28
BRANCH  10  46
ATOM     46  C35 ZIN A   1      18.239  -2.584  12.084  0.00  0.00     0.199 C 
BRANCH  46  47
ATOM     47  O36 ZIN A   1      17.578  -2.121  10.906  0.00  0.00    -0.398 OA
ATOM     48  H80 ZIN A   1      16.906  -1.444  11.071  0.00  0.00     0.209 HD
ENDBRANCH  46  47
ENDBRANCH  10  46
BRANCH   1  49
ATOM     49  N4  ZIN A   1      20.944   4.871  14.796  0.00  0.00    -0.317 N 
ATOM     50  C2  ZIN A   1      21.225   6.174  14.996  0.00  0.00     0.317 C 
ATOM     51  N1  ZIN A   1      22.042   6.541  16.003  0.00  0.00    -0.352 N 
ATOM     52  O3  ZIN A   1      20.742   7.018  14.266  0.00  0.00    -0.247 OA
ATOM     53  H61 ZIN A   1      22.244   7.478  16.146  0.00  0.00     0.160 HD
ATOM     54  H62 ZIN A   1      22.423   5.867  16.587  0.00  0.00     0.160 HD
ATOM     55  H63 ZIN A   1      21.329   4.197  15.378  0.00  0.00     0.170 HD
ENDBRANCH   1  49
BRANCH  19  56
ATOM     56  C49 ZIN A   1      17.093   4.082  17.877  0.00  0.00     0.133 C 
ATOM     57  N57 ZIN A   1      16.760   5.198  16.977  0.00  0.00    -0.220 N 
ATOM     58  C55 ZIN A   1      15.631   5.939  17.235  0.00  0.00     0.667 C 
ATOM     59  H93 ZIN A   1      17.327   5.408  16.218  0.00  0.00     0.178 HD
ATOM     60  N53 ZIN A   1      14.989   5.856  18.354  0.00  0.00    -0.227 N 
ATOM     61  C52 ZIN A   1      15.373   4.965  19.443  0.00  0.00     0.140 C 
ATOM     62  H54 ZIN A   1      14.208   6.417  18.475  0.00  0.00     0.177 HD
ATOM     63  C51 ZIN A   1      16.843   4.561  19.315  0.00  0.00     0.048 C 
BRANCH  58  64
ATOM     64  N56 ZIN A   1      15.169   6.800  16.267  0.00  0.00    -0.235 N 
ATOM     65  H91 ZIN A   1      15.651   6.894  15.431  0.00  0.00     0.174 HD
ATOM     66  H92 ZIN A   1      14.361   7.315  16.421  0.00  0.00     0.174 HD
ENDBRANCH  58  64
ENDBRANCH  19  56
BRANCH  14  67
ATOM     67  N42 ZIN A   1      17.388  -2.318  17.034  0.00  0.00     0.093 N 
ATOM     68  H82 ZIN A   1      17.815  -2.455  17.938  0.00  0.00     0.314 HD
ATOM     69  H83 ZIN A   1      16.428  -2.631  17.036  0.00  0.00     0.314 HD
ENDBRANCH  14  67
TORSDOF 15
ENDMDL
MODEL 2
REMARK VINA RESULT:      -6.1      1.250      1.441
REMARK  15 active torsions:
REMARK  status: ('A' for Active; 'I' for Inactive)
REMARK       I    between atoms: N1_1  and  C2_2 
REMARK       I    between atoms: C2_2  and  N4_4 
REMARK    1  A    between atoms: N4_4  and  C5_5 
REMARK    2  A    between atoms: C10_10  and  C12_11 
REMARK    3  A    between atoms: C12_11  and  N13_12 
REMARK       I    between atoms: N13_12  and  C14_13 
REMARK    4  A    between atoms: C14_13  and  C16_15 
REMARK    5  A    between atoms: C16_15  and  C17_16 
REMARK    6  A    between atoms: C17_16  and  N19_17 
REMARK    7  A    between atoms: C17_16  and  C23_21 
REMARK    8  A    between atoms: C23_21  and  C24_22 
REMARK    9  A    between atoms: C24_22  and  C25_23 
REMARK   10  A    between atoms: C25_23  and  N26_24 
REMARK   11  A    between atoms: C33_31  and  C35_32 
REMARK   12  A    between atoms: C35_32  and  O36_33 
REMARK   13  A    between atoms: C40_37  and  N42_38 
REMARK   14  A    between atoms: C47_43  and  C49_44 
REMARK   15  A    between atoms: C55_49  and  N56_50 
ROOT
ATOM      1  C5  ZIN A   1      20.453   5.166  14.513  0.00  0.00     0.128 C 
ATOM      2  C6  ZIN A   1      19.495   4.224  14.525  0.00  0.00     0.118 C 
ATOM      3  N7  ZIN A   1      19.116   3.481  13.377  0.00  0.00    -0.320 N 
ATOM      4  C8  ZIN A   1      19.683   3.707  12.170  0.00  0.00     0.246 C 
ATOM      5  O9  ZIN A   1      20.264   4.736  11.887  0.00  0.00    -0.271 OA
ATOM      6  C10 ZIN A   1      19.604   2.616  11.119  0.00  0.00     0.194 C 
ATOM      7  N30 ZIN A   1      19.767   1.300  11.759  0.00  0.00    -0.344 N 
ATOM      8  C31 ZIN A   1      18.727   0.725  12.426  0.00  0.00     0.243 C 
ATOM      9  O32 ZIN A   1      17.627   1.219  12.530  0.00  0.00    -0.271 OA
ATOM     10  C33 ZIN A   1      18.977  -0.618  13.081  0.00  0.00     0.200 C 
ATOM     11  N37 ZIN A   1      18.025  -0.782  14.197  0.00  0.00    -0.344 N 
ATOM     12  C38 ZIN A   1      18.386  -0.235  15.395  0.00  0.00     0.253 C 
ATOM     13  O39 ZIN A   1      19.425   0.380  15.504  0.00  0.00    -0.271 OA
ATOM     14  C40 ZIN A   1      17.470  -0.411  16.578  0.00  0.00     0.326 C 
ATOM     15  C43 ZIN A   1      18.062   0.293  17.801  0.00  0.00     0.167 C 
ATOM     16  N44 ZIN A   1      17.702   1.730  17.740  0.00  0.00    -0.357 N 
ATOM     17  C45 ZIN A   1      18.617   2.589  18.264  0.00  0.00     0.242 C 
ATOM     18  O46 ZIN A   1      19.610   2.143  18.816  0.00  0.00    -0.271 OA
ATOM     19  C47 ZIN A   1      18.433   4.079  18.161  0.00  0.00     0.200 C 
ATOM     20  N58 ZIN A   1      19.092   4.567  16.924  0.00  0.00    -0.340 N 
ATOM     21  C59 ZIN A   1      18.785   3.907  15.775  0.00  0.00     0.270 C 
ATOM     22  O60 ZIN A   1      17.920   3.049  15.736  0.00  0.00    -0.266 OA
ATOM     23  H65 ZIN A   1      18.415   2.800  13.474  0.00  0.00     0.169 HD
ATOM     24  H77 ZIN A   1      20.633   0.826  11.708  0.00  0.00     0.163 HD
ATOM     25  H81 ZIN A   1      17.184  -1.256  14.086  0.00  0.00     0.163 HD
ATOM     26  H86 ZIN A   1      16.861   2.010  17.348  0.00  0.00     0.162 HD
ATOM     27  H94 ZIN A   1      19.707   5.326  16.951  0.00  0.00     0.163 HD
ENDROOT
BRANCH   6  28
ATOM     28  C12 ZIN A   1      18.315   2.732  10.314  0.00  0.00     0.157 C 
BRANCH  28  29
ATOM     29  N13 ZIN A   1      18.602   2.497   8.897  0.00  0.00    -0.359 N 
ATOM     30  C14 ZIN A   1      18.331   1.298   8.345  0.00  0.00     0.219 C 
ATOM     31  O15 ZIN A   1      17.850   0.414   9.022  0.00  0.00    -0.274 OA
ATOM     32  H68 ZIN A   1      18.986   3.204   8.355  0.00  0.00     0.162 HD
BRANCH  30  33
ATOM     33  C16 ZIN A   1      18.624   1.056   6.887  0.00  0.00     0.135 C 
BRANCH  33  34
ATOM     34  C17 ZIN A   1      18.080  -0.314   6.478  0.00  0.00     0.192 C 
BRANCH  34  35
ATOM     35  N19 ZIN A   1      16.622  -0.234   6.319  0.00  0.00    -0.075 N 
ATOM     36  H20 ZIN A   1      16.267  -1.132   6.023  0.00  0.00     0.274 HD
ATOM     37  H21 ZIN A   1      16.201   0.022   7.199  0.00  0.00     0.274 HD
ATOM     38  H22 ZIN A   1      16.398   0.461   5.623  0.00  0.00     0.274 HD
ENDBRANCH  34  35
BRANCH  34  39
ATOM     39  C23 ZIN A   1      18.716  -0.740   5.153  0.00  0.00     0.034 C 
BRANCH  39  40
ATOM     40  C24 ZIN A   1      19.216  -2.182   5.267  0.00  0.00     0.029 C 
BRANCH  40  41
ATOM     41  C25 ZIN A   1      19.199  -2.612   6.735  0.00  0.00     0.229 C 
BRANCH  41  42
ATOM     42  N26 ZIN A   1      20.222  -3.643   6.955  0.00  0.00    -0.079 N 
ATOM     43  H27 ZIN A   1      20.972  -3.259   7.510  0.00  0.00     0.274 HD
ATOM     44  H28 ZIN A   1      19.812  -4.426   7.442  0.00  0.00     0.274 HD
ATOM     45  H29 ZIN A   1      20.585  -3.953   6.066  0.00  0.00     0.274 HD
ENDBRANCH  41  42
ENDBRANCH  40  41
ENDBRANCH  39  40
ENDBRANCH  34  39
ENDBRANCH  33  34
ENDBRANCH  30  33
ENDBRANCH  28  29
ENDBRANCH   6  28
BRANCH  10  46
ATOM     46  C35 ZIN A   1      18.758  -1.727  12.051  0.00  0.00     0.199 C 
BRANCH  46  47
ATOM     47  O36 ZIN A   1      19.094  -1.242  10.751  0.00  0.00    -0.398 OA
ATOM     48  H80 ZIN A   1      18.374  -1.308  10.107  0.00  0.00     0.209 HD
ENDBRANCH  46  47
ENDBRANCH  10  46
BRANCH   1  49
ATOM     49  N4  ZIN A   1      21.160   5.444  15.663  0.00  0.00    -0.317 N 
ATOM     50  C2  ZIN A   1      22.487   5.668  15.601  0.00  0.00     0.317 C 
ATOM     51  N1  ZIN A   1      23.178   5.940  16.725  0.00  0.00    -0.352 N 
ATOM     52  O3  ZIN A   1      23.061   5.622  14.530  0.00  0.00    -0.247 OA
ATOM     53  H61 ZIN A   1      24.134   6.100  16.681  0.00  0.00     0.160 HD
ATOM     54  H62 ZIN A   1      22.719   5.980  17.579  0.00  0.00     0.160 HD
ATOM     55  H63 ZIN A   1      20.701   5.480  16.517  0.00  0.00     0.170 HD
ENDBRANCH   1  49
BRANCH  19  56
ATOM     56  C49 ZIN A   1      16.960   4.472  18.187  0.00  0.00     0.133 C 
ATOM     57  N57 ZIN A   1      16.687   5.457  17.128  0.00  0.00    -0.220 N 
ATOM     58  C55 ZIN A   1      15.544   6.217  17.213  0.00  0.00     0.667 C 
ATOM     59  H93 ZIN A   1      17.301   5.570  16.386  0.00  0.00     0.178 HD
ATOM     60  N53 ZIN A   1      14.831   6.276  18.290  0.00  0.00    -0.227 N 
ATOM     61  C52 ZIN A   1      15.144   5.540  19.509  0.00  0.00     0.140 C 
ATOM     62  H54 ZIN A   1      14.044   6.843  18.286  0.00  0.00     0.177 HD
ATOM     63  C51 ZIN A   1      16.619   5.134  19.530  0.00  0.00     0.048 C 
BRANCH  58  64
ATOM     64  N56 ZIN A   1      15.145   6.940  16.113  0.00  0.00    -0.235 N 
ATOM     65  H91 ZIN A   1      14.359   7.507  16.164  0.00  0.00     0.174 HD
ATOM     66  H92 ZIN A   1      15.648   6.882  15.286  0.00  0.00     0.174 HD
ENDBRANCH  58  64
ENDBRANCH  19  56
BRANCH  14  67
ATOM     67  N42 ZIN A   1      17.318  -1.844  16.868  0.00  0.00     0.093 N 
ATOM     68  H82 ZIN A   1      16.480  -2.017  17.404  0.00  0.00     0.314 HD
ATOM     69  H83 ZIN A   1      17.321  -2.387  16.018  0.00  0.00     0.314 HD
ENDBRANCH  14  67
TORSDOF 15
ENDMDL
MODEL 3
REMARK VINA RESULT:      -6.1      2.141      2.760
REMARK  15 active torsions:
REMARK  status: ('A' for Active; 'I' for Inactive)
REMARK       I    between atoms: N1_1  and  C2_2 
REMARK       I    between atoms: C2_2  and  N4_4 
REMARK    1  A    between atoms: N4_4  and  C5_5 
REMARK    2  A    between atoms: C10_10  and  C12_11 
REMARK    3  A    between atoms: C12_11  and  N13_12 
REMARK       I    between atoms: N13_12  and  C14_13 
REMARK    4  A    between atoms: C14_13  and  C16_15 
REMARK    5  A    between atoms: C16_15  and  C17_16 
REMARK    6  A    between atoms: C17_16  and  N19_17 
REMARK    7  A    between atoms: C17_16  and  C23_21 
REMARK    8  A    between atoms: C23_21  and  C24_22 
REMARK    9  A    between atoms: C24_22  and  C25_23 
REMARK   10  A    between atoms: C25_23  and  N26_24 
REMARK   11  A    between atoms: C33_31  and  C35_32 
REMARK   12  A    between atoms: C35_32  and  O36_33 
REMARK   13  A    between atoms: C40_37  and  N42_38 
REMARK   14  A    between atoms: C47_43  and  C49_44 
REMARK   15  A    between atoms: C55_49  and  N56_50 
ROOT
ATOM      1  C5  ZIN A   1      18.055   6.587  13.908  0.00  0.00     0.128 C 
ATOM      2  C6  ZIN A   1      17.614   5.408  14.376  0.00  0.00     0.118 C 
ATOM      3  N7  ZIN A   1      17.698   4.196  13.642  0.00  0.00    -0.320 N 
ATOM      4  C8  ZIN A   1      18.205   4.162  12.389  0.00  0.00     0.246 C 
ATOM      5  O9  ZIN A   1      18.293   5.144  11.678  0.00  0.00    -0.271 OA
ATOM      6  C10 ZIN A   1      18.703   2.837  11.846  0.00  0.00     0.194 C 
ATOM      7  N30 ZIN A   1      19.377   2.085  12.918  0.00  0.00    -0.344 N 
ATOM      8  C31 ZIN A   1      18.645   1.420  13.857  0.00  0.00     0.243 C 
ATOM      9  O32 ZIN A   1      17.436   1.380  13.878  0.00  0.00    -0.271 OA
ATOM     10  C33 ZIN A   1      19.407   0.690  14.944  0.00  0.00     0.200 C 
ATOM     11  N37 ZIN A   1      18.537   0.570  16.130  0.00  0.00    -0.344 N 
ATOM     12  C38 ZIN A   1      18.518   1.634  16.986  0.00  0.00     0.253 C 
ATOM     13  O39 ZIN A   1      19.166   2.630  16.745  0.00  0.00    -0.271 OA
ATOM     14  C40 ZIN A   1      17.680   1.546  18.234  0.00  0.00     0.326 C 
ATOM     15  C43 ZIN A   1      17.797   2.849  19.030  0.00  0.00     0.167 C 
ATOM     16  N44 ZIN A   1      16.845   3.835  18.464  0.00  0.00    -0.357 N 
ATOM     17  C45 ZIN A   1      17.240   5.135  18.524  0.00  0.00     0.242 C 
ATOM     18  O46 ZIN A   1      18.279   5.420  19.100  0.00  0.00    -0.271 OA
ATOM     19  C47 ZIN A   1      16.427   6.226  17.882  0.00  0.00     0.200 C 
ATOM     20  N58 ZIN A   1      16.903   6.434  16.491  0.00  0.00    -0.340 N 
ATOM     21  C59 ZIN A   1      17.015   5.321  15.718  0.00  0.00     0.270 C 
ATOM     22  O60 ZIN A   1      16.624   4.231  16.098  0.00  0.00    -0.266 OA
ATOM     23  H65 ZIN A   1      17.364   3.373  14.063  0.00  0.00     0.169 HD
ATOM     24  H77 ZIN A   1      20.364   2.059  12.963  0.00  0.00     0.163 HD
ATOM     25  H81 ZIN A   1      18.004  -0.225  16.295  0.00  0.00     0.163 HD
ATOM     26  H86 ZIN A   1      16.003   3.544  18.083  0.00  0.00     0.162 HD
ATOM     27  H94 ZIN A   1      17.115   7.331  16.165  0.00  0.00     0.163 HD
ENDROOT
BRANCH   6  28
ATOM     28  C12 ZIN A   1      17.567   2.057  11.194  0.00  0.00     0.157 C 
BRANCH  28  29
ATOM     29  N13 ZIN A   1      17.948   1.690   9.828  0.00  0.00    -0.359 N 
ATOM     30  C14 ZIN A   1      17.834   0.412   9.418  0.00  0.00     0.219 C 
ATOM     31  O15 ZIN A   1      17.417  -0.435  10.180  0.00  0.00    -0.274 OA
ATOM     32  H68 ZIN A   1      18.281   2.368   9.218  0.00  0.00     0.162 HD
BRANCH  30  33
ATOM     33  C16 ZIN A   1      18.225   0.035   8.012  0.00  0.00     0.135 C 
BRANCH  33  34
ATOM     34  C17 ZIN A   1      19.396  -0.948   8.055  0.00  0.00     0.192 C 
BRANCH  34  35
ATOM     35  N19 ZIN A   1      20.094  -0.822   9.341  0.00  0.00    -0.075 N 
ATOM     36  H20 ZIN A   1      19.456  -1.038  10.093  0.00  0.00     0.274 HD
ATOM     37  H21 ZIN A   1      20.873  -1.463   9.366  0.00  0.00     0.274 HD
ATOM     38  H22 ZIN A   1      20.432   0.122   9.449  0.00  0.00     0.274 HD
ENDBRANCH  34  35
BRANCH  34  39
ATOM     39  C23 ZIN A   1      18.870  -2.376   7.898  0.00  0.00     0.034 C 
BRANCH  39  40
ATOM     40  C24 ZIN A   1      19.716  -3.121   6.863  0.00  0.00     0.029 C 
BRANCH  40  41
ATOM     41  C25 ZIN A   1      19.805  -4.600   7.246  0.00  0.00     0.229 C 
BRANCH  41  42
ATOM     42  N26 ZIN A   1      21.198  -5.051   7.136  0.00  0.00    -0.079 N 
ATOM     43  H27 ZIN A   1      21.687  -4.475   6.468  0.00  0.00     0.274 HD
ATOM     44  H28 ZIN A   1      21.648  -4.976   8.036  0.00  0.00     0.274 HD
ATOM     45  H29 ZIN A   1      21.218  -6.012   6.830  0.00  0.00     0.274 HD
ENDBRANCH  41  42
ENDBRANCH  40  41
ENDBRANCH  39  40
ENDBRANCH  34  39
ENDBRANCH  33  34
ENDBRANCH  30  33
ENDBRANCH  28  29
ENDBRANCH   6  28
BRANCH  10  46
ATOM     46  C35 ZIN A   1      19.787  -0.704  14.442  0.00  0.00     0.199 C 
BRANCH  46  47
ATOM     47  O36 ZIN A   1      19.352  -0.858  13.090  0.00  0.00    -0.398 OA
ATOM     48  H80 ZIN A   1      18.598  -1.456  12.985  0.00  0.00     0.209 HD
ENDBRANCH  46  47
ENDBRANCH  10  46
BRANCH   1  49
ATOM     49  N4  ZIN A   1      18.468   7.566  14.787  0.00  0.00    -0.317 N 
ATOM     50  C2  ZIN A   1      17.704   8.658  14.986  0.00  0.00     0.317 C 
ATOM     51  N1  ZIN A   1      18.107   9.615  15.845  0.00  0.00    -0.352 N 
ATOM     52  O3  ZIN A   1      16.651   8.780  14.391  0.00  0.00    -0.247 OA
ATOM     53  H61 ZIN A   1      17.558  10.401  15.988  0.00  0.00     0.160 HD
ATOM     54  H62 ZIN A   1      18.945   9.515  16.323  0.00  0.00     0.160 HD
ATOM     55  H63 ZIN A   1      19.307   7.467  15.262  0.00  0.00     0.170 HD
ENDBRANCH   1  49
BRANCH  19  56
ATOM     56  C49 ZIN A   1      14.935   5.911  17.907  0.00  0.00     0.133 C 
ATOM     57  N57 ZIN A   1      14.289   6.455  16.702  0.00  0.00    -0.220 N 
ATOM     58  C55 ZIN A   1      12.924   6.620  16.703  0.00  0.00     0.667 C 
ATOM     59  H93 ZIN A   1      14.815   6.694  15.923  0.00  0.00     0.178 HD
ATOM     60  N53 ZIN A   1      12.219   6.549  17.785  0.00  0.00    -0.227 N 
ATOM     61  C52 ZIN A   1      12.782   6.270  19.100  0.00  0.00     0.140 C 
ATOM     62  H54 ZIN A   1      11.262   6.689  17.717  0.00  0.00     0.177 HD
ATOM     63  C51 ZIN A   1      14.280   6.583  19.123  0.00  0.00     0.048 C 
BRANCH  58  64
ATOM     64  N56 ZIN A   1      12.285   6.871  15.511  0.00  0.00    -0.235 N 
ATOM     65  H91 ZIN A   1      12.801   6.955  14.693  0.00  0.00     0.174 HD
ATOM     66  H92 ZIN A   1      11.320   6.966  15.488  0.00  0.00     0.174 HD
ENDBRANCH  58  64
ENDBRANCH  19  56
BRANCH  14  67
ATOM     67  N42 ZIN A   1      18.152   0.427  19.062  0.00  0.00     0.093 N 
ATOM     68  H82 ZIN A   1      18.608   0.762  19.898  0.00  0.00     0.314 HD
ATOM     69  H83 ZIN A   1      17.394  -0.198  19.290  0.00  0.00     0.314 HD
ENDBRANCH  14  67
TORSDOF 15
ENDMDL
MODEL 4
REMARK VINA RESULT:      -5.3      2.276      4.369
REMARK  15 active torsions:
REMARK  status: ('A' for Active; 'I' for Inactive)
REMARK       I    between atoms: N1_1  and  C2_2 
REMARK       I    between atoms: C2_2  and  N4_4 
REMARK    1  A    between atoms: N4_4  and  C5_5 
REMARK    2  A    between atoms: C10_10  and  C12_11 
REMARK    3  A    between atoms: C12_11  and  N13_12 
REMARK       I    between atoms: N13_12  and  C14_13 
REMARK    4  A    between atoms: C14_13  and  C16_15 
REMARK    5  A    between atoms: C16_15  and  C17_16 
REMARK    6  A    between atoms: C17_16  and  N19_17 
REMARK    7  A    between atoms: C17_16  and  C23_21 
REMARK    8  A    between atoms: C23_21  and  C24_22 
REMARK    9  A    between atoms: C24_22  and  C25_23 
REMARK   10  A    between atoms: C25_23  and  N26_24 
REMARK   11  A    between atoms: C33_31  and  C35_32 
REMARK   12  A    between atoms: C35_32  and  O36_33 
REMARK   13  A    between atoms: C40_37  and  N42_38 
REMARK   14  A    between atoms: C47_43  and  C49_44 
REMARK   15  A    between atoms: C55_49  and  N56_50 
ROOT
ATOM      1  C5  ZIN A   1      18.554   5.017  13.419  0.00  0.00     0.128 C 
ATOM      2  C6  ZIN A   1      17.882   4.470  14.446  0.00  0.00     0.118 C 
ATOM      3  N7  ZIN A   1      17.818   3.072  14.681  0.00  0.00    -0.320 N 
ATOM      4  C8  ZIN A   1      18.412   2.187  13.849  0.00  0.00     0.246 C 
ATOM      5  O9  ZIN A   1      18.723   2.453  12.704  0.00  0.00    -0.271 OA
ATOM      6  C10 ZIN A   1      18.720   0.797  14.372  0.00  0.00     0.194 C 
ATOM      7  N30 ZIN A   1      19.167   0.883  15.772  0.00  0.00    -0.344 N 
ATOM      8  C31 ZIN A   1      18.260   1.054  16.775  0.00  0.00     0.243 C 
ATOM      9  O32 ZIN A   1      17.063   1.129  16.607  0.00  0.00    -0.271 OA
ATOM     10  C33 ZIN A   1      18.796   1.160  18.188  0.00  0.00     0.200 C 
ATOM     11  N37 ZIN A   1      17.824   1.912  19.005  0.00  0.00    -0.344 N 
ATOM     12  C38 ZIN A   1      17.918   3.274  18.966  0.00  0.00     0.253 C 
ATOM     13  O39 ZIN A   1      18.743   3.816  18.263  0.00  0.00    -0.271 OA
ATOM     14  C40 ZIN A   1      16.979   4.090  19.816  0.00  0.00     0.326 C 
ATOM     15  C43 ZIN A   1      17.250   5.581  19.604  0.00  0.00     0.167 C 
ATOM     16  N44 ZIN A   1      16.529   6.024  18.386  0.00  0.00    -0.357 N 
ATOM     17  C45 ZIN A   1      17.133   7.011  17.672  0.00  0.00     0.242 C 
ATOM     18  O46 ZIN A   1      18.155   7.523  18.102  0.00  0.00    -0.271 OA
ATOM     19  C47 ZIN A   1      16.571   7.472  16.354  0.00  0.00     0.200 C 
ATOM     20  N58 ZIN A   1      17.188   6.681  15.259  0.00  0.00    -0.340 N 
ATOM     21  C59 ZIN A   1      17.170   5.330  15.407  0.00  0.00     0.270 C 
ATOM     22  O60 ZIN A   1      16.571   4.789  16.319  0.00  0.00    -0.266 OA
ATOM     23  H65 ZIN A   1      17.316   2.755  15.464  0.00  0.00     0.169 HD
ATOM     24  H77 ZIN A   1      20.129   0.818  15.992  0.00  0.00     0.163 HD
ATOM     25  H81 ZIN A   1      17.152   1.463  19.544  0.00  0.00     0.163 HD
ATOM     26  H86 ZIN A   1      15.683   5.620  18.141  0.00  0.00     0.162 HD
ATOM     27  H94 ZIN A   1      17.574   7.125  14.479  0.00  0.00     0.163 HD
ENDROOT
BRANCH   6  28
ATOM     28  C12 ZIN A   1      17.525  -0.129  14.182  0.00  0.00     0.157 C 
BRANCH  28  29
ATOM     29  N13 ZIN A   1      17.385  -0.464  12.763  0.00  0.00    -0.359 N 
ATOM     30  C14 ZIN A   1      17.919  -1.604  12.284  0.00  0.00     0.219 C 
ATOM     31  O15 ZIN A   1      18.516  -2.354  13.028  0.00  0.00    -0.274 OA
ATOM     32  H68 ZIN A   1      16.908   0.136  12.168  0.00  0.00     0.162 HD
BRANCH  30  33
ATOM     33  C16 ZIN A   1      17.775  -1.948  10.824  0.00  0.00     0.135 C 
BRANCH  33  34
ATOM     34  C17 ZIN A   1      18.991  -1.428  10.055  0.00  0.00     0.192 C 
BRANCH  34  35
ATOM     35  N19 ZIN A   1      20.179  -1.494  10.916  0.00  0.00    -0.075 N 
ATOM     36  H20 ZIN A   1      20.769  -0.694  10.737  0.00  0.00     0.274 HD
ATOM     37  H21 ZIN A   1      19.895  -1.494  11.883  0.00  0.00     0.274 HD
ATOM     38  H22 ZIN A   1      20.692  -2.340  10.717  0.00  0.00     0.274 HD
ENDBRANCH  34  35
BRANCH  34  39
ATOM     39  C23 ZIN A   1      19.214  -2.290   8.810  0.00  0.00     0.034 C 
BRANCH  39  40
ATOM     40  C24 ZIN A   1      19.119  -1.414   7.560  0.00  0.00     0.029 C 
BRANCH  40  41
ATOM     41  C25 ZIN A   1      18.528  -2.231   6.408  0.00  0.00     0.229 C 
BRANCH  41  42
ATOM     42  N26 ZIN A   1      17.827  -3.402   6.949  0.00  0.00    -0.079 N 
ATOM     43  H27 ZIN A   1      18.491  -4.144   7.117  0.00  0.00     0.274 HD
ATOM     44  H28 ZIN A   1      17.376  -3.154   7.816  0.00  0.00     0.274 HD
ATOM     45  H29 ZIN A   1      17.133  -3.715   6.287  0.00  0.00     0.274 HD
ENDBRANCH  41  42
ENDBRANCH  40  41
ENDBRANCH  39  40
ENDBRANCH  34  39
ENDBRANCH  33  34
ENDBRANCH  30  33
ENDBRANCH  28  29
ENDBRANCH   6  28
BRANCH  10  46
ATOM     46  C35 ZIN A   1      18.973  -0.246  18.764  0.00  0.00     0.199 C 
BRANCH  46  47
ATOM     47  O36 ZIN A   1      19.758  -1.033  17.867  0.00  0.00    -0.398 OA
ATOM     48  H80 ZIN A   1      19.426  -1.933  17.738  0.00  0.00     0.209 HD
ENDBRANCH  46  47
ENDBRANCH  10  46
BRANCH   1  49
ATOM     49  N4  ZIN A   1      19.054   6.297  13.527  0.00  0.00    -0.317 N 
ATOM     50  C2  ZIN A   1      20.277   6.499  14.055  0.00  0.00     0.317 C 
ATOM     51  N1  ZIN A   1      20.767   7.750  14.161  0.00  0.00    -0.352 N 
ATOM     52  O3  ZIN A   1      20.938   5.553  14.438  0.00  0.00    -0.247 OA
ATOM     53  H61 ZIN A   1      21.647   7.896  14.542  0.00  0.00     0.160 HD
ATOM     54  H62 ZIN A   1      20.241   8.505  13.852  0.00  0.00     0.160 HD
ATOM     55  H63 ZIN A   1      18.526   7.051  13.221  0.00  0.00     0.170 HD
ENDBRANCH   1  49
BRANCH  19  56
ATOM     56  C49 ZIN A   1      15.051   7.365  16.317  0.00  0.00     0.133 C 
ATOM     57  N57 ZIN A   1      14.631   6.629  15.114  0.00  0.00    -0.220 N 
ATOM     58  C55 ZIN A   1      13.328   6.746  14.690  0.00  0.00     0.667 C 
ATOM     59  H93 ZIN A   1      15.261   6.073  14.628  0.00  0.00     0.178 HD
ATOM     60  N53 ZIN A   1      12.529   7.651  15.152  0.00  0.00    -0.227 N 
ATOM     61  C52 ZIN A   1      12.908   8.621  16.172  0.00  0.00     0.140 C 
ATOM     62  H54 ZIN A   1      11.627   7.687  14.799  0.00  0.00     0.177 HD
ATOM     63  C51 ZIN A   1      14.430   8.768  16.237  0.00  0.00     0.048 C 
BRANCH  58  64
ATOM     64  N56 ZIN A   1      12.858   5.869  13.740  0.00  0.00    -0.235 N 
ATOM     65  H91 ZIN A   1      12.062   6.086  13.231  0.00  0.00     0.174 HD
ATOM     66  H92 ZIN A   1      13.322   5.032  13.581  0.00  0.00     0.174 HD
ENDBRANCH  58  64
ENDBRANCH  19  56
BRANCH  14  67
ATOM     67  N42 ZIN A   1      17.185   3.754  21.232  0.00  0.00     0.093 N 
ATOM     68  H82 ZIN A   1      16.319   3.468  21.666  0.00  0.00     0.314 HD
ATOM     69  H83 ZIN A   1      17.893   3.043  21.336  0.00  0.00     0.314 HD
ENDBRANCH  14  67
TORSDOF 15
ENDMDL
MODEL 5
REMARK VINA RESULT:      -5.2      2.376      4.658
REMARK  15 active torsions:
REMARK  status: ('A' for Active; 'I' for Inactive)
REMARK       I    between atoms: N1_1  and  C2_2 
REMARK       I    between atoms: C2_2  and  N4_4 
REMARK    1  A    between atoms: N4_4  and  C5_5 
REMARK    2  A    between atoms: C10_10  and  C12_11 
REMARK    3  A    between atoms: C12_11  and  N13_12 
REMARK       I    between atoms: N13_12  and  C14_13 
REMARK    4  A    between atoms: C14_13  and  C16_15 
REMARK    5  A    between atoms: C16_15  and  C17_16 
REMARK    6  A    between atoms: C17_16  and  N19_17 
REMARK    7  A    between atoms: C17_16  and  C23_21 
REMARK    8  A    between atoms: C23_21  and  C24_22 
REMARK    9  A    between atoms: C24_22  and  C25_23 
REMARK   10  A    between atoms: C25_23  and  N26_24 
REMARK   11  A    between atoms: C33_31  and  C35_32 
REMARK   12  A    between atoms: C35_32  and  O36_33 
REMARK   13  A    between atoms: C40_37  and  N42_38 
REMARK   14  A    between atoms: C47_43  and  C49_44 
REMARK   15  A    between atoms: C55_49  and  N56_50 
ROOT
ATOM      1  C5  ZIN A   1      18.933   4.726  13.301  0.00  0.00     0.128 C 
ATOM      2  C6  ZIN A   1      18.164   4.264  14.302  0.00  0.00     0.118 C 
ATOM      3  N7  ZIN A   1      18.039   2.886  14.617  0.00  0.00    -0.320 N 
ATOM      4  C8  ZIN A   1      18.671   1.935  13.894  0.00  0.00     0.246 C 
ATOM      5  O9  ZIN A   1      19.081   2.117  12.764  0.00  0.00    -0.271 OA
ATOM      6  C10 ZIN A   1      18.893   0.574  14.526  0.00  0.00     0.194 C 
ATOM      7  N30 ZIN A   1      19.227   0.739  15.950  0.00  0.00    -0.344 N 
ATOM      8  C31 ZIN A   1      18.248   0.997  16.862  0.00  0.00     0.243 C 
ATOM      9  O32 ZIN A   1      17.071   1.092  16.592  0.00  0.00    -0.271 OA
ATOM     10  C33 ZIN A   1      18.670   1.181  18.305  0.00  0.00     0.200 C 
ATOM     11  N37 ZIN A   1      17.660   2.009  18.991  0.00  0.00    -0.344 N 
ATOM     12  C38 ZIN A   1      17.798   3.363  18.875  0.00  0.00     0.253 C 
ATOM     13  O39 ZIN A   1      18.693   3.837  18.210  0.00  0.00    -0.271 OA
ATOM     14  C40 ZIN A   1      16.818   4.255  19.592  0.00  0.00     0.326 C 
ATOM     15  C43 ZIN A   1      17.152   5.722  19.310  0.00  0.00     0.167 C 
ATOM     16  N44 ZIN A   1      16.546   6.104  18.012  0.00  0.00    -0.357 N 
ATOM     17  C45 ZIN A   1      17.235   7.026  17.289  0.00  0.00     0.242 C 
ATOM     18  O46 ZIN A   1      18.234   7.539  17.770  0.00  0.00    -0.271 OA
ATOM     19  C47 ZIN A   1      16.796   7.416  15.903  0.00  0.00     0.200 C 
ATOM     20  N58 ZIN A   1      17.475   6.540  14.914  0.00  0.00    -0.340 N 
ATOM     21  C59 ZIN A   1      17.404   5.202  15.144  0.00  0.00     0.270 C 
ATOM     22  O60 ZIN A   1      16.716   4.737  16.036  0.00  0.00    -0.266 OA
ATOM     23  H65 ZIN A   1      17.466   2.633  15.375  0.00  0.00     0.169 HD
ATOM     24  H77 ZIN A   1      20.165   0.663  16.253  0.00  0.00     0.163 HD
ATOM     25  H81 ZIN A   1      16.933   1.613  19.499  0.00  0.00     0.163 HD
ATOM     26  H86 ZIN A   1      15.710   5.706  17.723  0.00  0.00     0.162 HD
ATOM     27  H94 ZIN A   1      17.937   6.923  14.143  0.00  0.00     0.163 HD
ENDROOT
BRANCH   6  28
ATOM     28  C12 ZIN A   1      17.689  -0.332  14.297  0.00  0.00     0.157 C 
BRANCH  28  29
ATOM     29  N13 ZIN A   1      17.478  -0.510  12.858  0.00  0.00    -0.359 N 
ATOM     30  C14 ZIN A   1      17.922  -1.625  12.245  0.00  0.00     0.219 C 
ATOM     31  O15 ZIN A   1      18.496  -2.480  12.885  0.00  0.00    -0.274 OA
ATOM     32  H68 ZIN A   1      17.017   0.174  12.347  0.00  0.00     0.162 HD
BRANCH  30  33
ATOM     33  C16 ZIN A   1      17.704  -1.808  10.766  0.00  0.00     0.135 C 
BRANCH  33  34
ATOM     34  C17 ZIN A   1      18.621  -0.858   9.994  0.00  0.00     0.192 C 
BRANCH  34  35
ATOM     35  N19 ZIN A   1      19.395  -1.620   9.005  0.00  0.00    -0.075 N 
ATOM     36  H20 ZIN A   1      20.340  -1.268   8.973  0.00  0.00     0.274 HD
ATOM     37  H21 ZIN A   1      19.407  -2.595   9.265  0.00  0.00     0.274 HD
ATOM     38  H22 ZIN A   1      18.969  -1.521   8.096  0.00  0.00     0.274 HD
ENDBRANCH  34  35
BRANCH  34  39
ATOM     39  C23 ZIN A   1      17.776   0.197   9.277  0.00  0.00     0.034 C 
BRANCH  39  40
ATOM     40  C24 ZIN A   1      18.636   0.918   8.236  0.00  0.00     0.029 C 
BRANCH  40  41
ATOM     41  C25 ZIN A   1      19.140   2.240   8.818  0.00  0.00     0.229 C 
BRANCH  41  42
ATOM     42  N26 ZIN A   1      18.247   2.671   9.901  0.00  0.00    -0.079 N 
ATOM     43  H27 ZIN A   1      18.249   3.678   9.958  0.00  0.00     0.274 HD
ATOM     44  H28 ZIN A   1      17.310   2.348   9.712  0.00  0.00     0.274 HD
ATOM     45  H29 ZIN A   1      18.566   2.282  10.776  0.00  0.00     0.274 HD
ENDBRANCH  41  42
ENDBRANCH  40  41
ENDBRANCH  39  40
ENDBRANCH  34  39
ENDBRANCH  33  34
ENDBRANCH  30  33
ENDBRANCH  28  29
ENDBRANCH   6  28
BRANCH  10  46
ATOM     46  C35 ZIN A   1      18.757  -0.189  18.981  0.00  0.00     0.199 C 
BRANCH  46  47
ATOM     47  O36 ZIN A   1      19.707  -1.001  18.290  0.00  0.00    -0.398 OA
ATOM     48  H80 ZIN A   1      20.360  -0.499  17.783  0.00  0.00     0.209 HD
ENDBRANCH  46  47
ENDBRANCH  10  46
BRANCH   1  49
ATOM     49  N4  ZIN A   1      19.463   5.997  13.370  0.00  0.00    -0.317 N 
ATOM     50  C2  ZIN A   1      20.529   6.241  14.157  0.00  0.00     0.317 C 
ATOM     51  N1  ZIN A   1      21.046   7.483  14.224  0.00  0.00    -0.352 N 
ATOM     52  O3  ZIN A   1      21.023   5.340  14.807  0.00  0.00    -0.247 OA
ATOM     53  H61 ZIN A   1      21.814   7.659  14.791  0.00  0.00     0.160 HD
ATOM     54  H62 ZIN A   1      20.655   8.201  13.702  0.00  0.00     0.160 HD
ATOM     55  H63 ZIN A   1      19.068   6.715  12.851  0.00  0.00     0.170 HD
ENDBRANCH   1  49
BRANCH  19  56
ATOM     56  C49 ZIN A   1      15.281   7.346  15.747  0.00  0.00     0.133 C 
ATOM     57  N57 ZIN A   1      14.661   7.000  17.036  0.00  0.00    -0.220 N 
ATOM     58  C55 ZIN A   1      13.373   6.519  17.041  0.00  0.00     0.667 C 
ATOM     59  H93 ZIN A   1      15.151   7.110  17.867  0.00  0.00     0.178 HD
ATOM     60  N53 ZIN A   1      12.776   6.131  15.962  0.00  0.00    -0.227 N 
ATOM     61  C52 ZIN A   1      13.385   6.179  14.638  0.00  0.00     0.140 C 
ATOM     62  H54 ZIN A   1      11.872   5.788  16.038  0.00  0.00     0.177 HD
ATOM     63  C51 ZIN A   1      14.910   6.239  14.748  0.00  0.00     0.048 C 
BRANCH  58  64
ATOM     64  N56 ZIN A   1      12.697   6.446  18.236  0.00  0.00    -0.235 N 
ATOM     65  H91 ZIN A   1      12.084   7.154  18.490  0.00  0.00     0.174 HD
ATOM     66  H92 ZIN A   1      12.834   5.689  18.826  0.00  0.00     0.174 HD
ENDBRANCH  58  64
ENDBRANCH  19  56
BRANCH  14  67
ATOM     67  N42 ZIN A   1      16.899   4.007  21.038  0.00  0.00     0.093 N 
ATOM     68  H82 ZIN A   1      16.556   3.086  21.267  0.00  0.00     0.314 HD
ATOM     69  H83 ZIN A   1      17.842   4.136  21.375  0.00  0.00     0.314 HD
ENDBRANCH  14  67
TORSDOF 15
ENDMDL
MODEL 6
REMARK VINA RESULT:      -4.4      2.305     10.156
REMARK  15 active torsions:
REMARK  status: ('A' for Active; 'I' for Inactive)
REMARK       I    between atoms: N1_1  and  C2_2 
REMARK       I    between atoms: C2_2  and  N4_4 
REMARK    1  A    between atoms: N4_4  and  C5_5 
REMARK    2  A    between atoms: C10_10  and  C12_11 
REMARK    3  A    between atoms: C12_11  and  N13_12 
REMARK       I    between atoms: N13_12  and  C14_13 
REMARK    4  A    between atoms: C14_13  and  C16_15 
REMARK    5  A    between atoms: C16_15  and  C17_16 
REMARK    6  A    between atoms: C17_16  and  N19_17 
REMARK    7  A    between atoms: C17_16  and  C23_21 
REMARK    8  A    between atoms: C23_21  and  C24_22 
REMARK    9  A    between atoms: C24_22  and  C25_23 
REMARK   10  A    between atoms: C25_23  and  N26_24 
REMARK   11  A    between atoms: C33_31  and  C35_32 
REMARK   12  A    between atoms: C35_32  and  O36_33 
REMARK   13  A    between atoms: C40_37  and  N42_38 
REMARK   14  A    between atoms: C47_43  and  C49_44 
REMARK   15  A    between atoms: C55_49  and  N56_50 
ROOT
ATOM      1  C5  ZIN A   1      17.924  -0.384   6.866  0.00  0.00     0.128 C 
ATOM      2  C6  ZIN A   1      18.420  -1.039   7.928  0.00  0.00     0.118 C 
ATOM      3  N7  ZIN A   1      18.881  -0.387   9.101  0.00  0.00    -0.320 N 
ATOM      4  C8  ZIN A   1      18.883   0.961   9.207  0.00  0.00     0.246 C 
ATOM      5  O9  ZIN A   1      18.838   1.706   8.247  0.00  0.00    -0.271 OA
ATOM      6  C10 ZIN A   1      18.926   1.577  10.592  0.00  0.00     0.194 C 
ATOM      7  N30 ZIN A   1      18.099   0.782  11.514  0.00  0.00    -0.344 N 
ATOM      8  C31 ZIN A   1      18.572  -0.390  12.026  0.00  0.00     0.243 C 
ATOM      9  O32 ZIN A   1      19.668  -0.846  11.789  0.00  0.00    -0.271 OA
ATOM     10  C33 ZIN A   1      17.655  -1.168  12.948  0.00  0.00     0.200 C 
ATOM     11  N37 ZIN A   1      18.041  -2.591  12.906  0.00  0.00    -0.344 N 
ATOM     12  C38 ZIN A   1      17.509  -3.340  11.896  0.00  0.00     0.253 C 
ATOM     13  O39 ZIN A   1      16.786  -2.832  11.067  0.00  0.00    -0.271 OA
ATOM     14  C40 ZIN A   1      17.837  -4.810  11.833  0.00  0.00     0.326 C 
ATOM     15  C43 ZIN A   1      17.151  -5.442  10.619  0.00  0.00     0.167 C 
ATOM     16  N44 ZIN A   1      17.994  -5.205   9.423  0.00  0.00    -0.357 N 
ATOM     17  C45 ZIN A   1      17.321  -5.053   8.251  0.00  0.00     0.242 C 
ATOM     18  O46 ZIN A   1      16.109  -5.202   8.231  0.00  0.00    -0.271 OA
ATOM     19  C47 ZIN A   1      18.044  -4.690   6.981  0.00  0.00     0.200 C 
ATOM     20  N58 ZIN A   1      18.068  -3.212   6.840  0.00  0.00    -0.340 N 
ATOM     21  C59 ZIN A   1      18.497  -2.510   7.922  0.00  0.00     0.270 C 
ATOM     22  O60 ZIN A   1      18.959  -3.059   8.906  0.00  0.00    -0.266 OA
ATOM     23  H65 ZIN A   1      19.217  -0.942   9.840  0.00  0.00     0.169 HD
ATOM     24  H77 ZIN A   1      17.196   1.093  11.767  0.00  0.00     0.163 HD
ATOM     25  H81 ZIN A   1      18.643  -2.977  13.564  0.00  0.00     0.163 HD
ATOM     26  H86 ZIN A   1      18.959  -5.168   9.501  0.00  0.00     0.162 HD
ATOM     27  H94 ZIN A   1      17.792  -2.786   6.005  0.00  0.00     0.163 HD
ENDROOT
BRANCH   6  28
ATOM     28  C12 ZIN A   1      20.366   1.737  11.068  0.00  0.00     0.157 C 
BRANCH  28  29
ATOM     29  N13 ZIN A   1      20.598   3.129  11.462  0.00  0.00    -0.359 N 
ATOM     30  C14 ZIN A   1      19.900   3.666  12.481  0.00  0.00     0.219 C 
ATOM     31  O15 ZIN A   1      19.078   2.997  13.072  0.00  0.00    -0.274 OA
ATOM     32  H68 ZIN A   1      21.256   3.663  10.990  0.00  0.00     0.162 HD
BRANCH  30  33
ATOM     33  C16 ZIN A   1      20.140   5.097  12.887  0.00  0.00     0.135 C 
BRANCH  33  34
ATOM     34  C17 ZIN A   1      20.003   5.226  14.406  0.00  0.00     0.192 C 
BRANCH  34  35
ATOM     35  N19 ZIN A   1      21.238   5.793  14.962  0.00  0.00    -0.075 N 
ATOM     36  H20 ZIN A   1      21.502   5.277  15.789  0.00  0.00     0.274 HD
ATOM     37  H21 ZIN A   1      21.976   5.731  14.277  0.00  0.00     0.274 HD
ATOM     38  H22 ZIN A   1      21.085   6.760  15.205  0.00  0.00     0.274 HD
ENDBRANCH  34  35
BRANCH  34  39
ATOM     39  C23 ZIN A   1      18.825   6.146  14.735  0.00  0.00     0.034 C 
BRANCH  39  40
ATOM     40  C24 ZIN A   1      17.665   5.313  15.285  0.00  0.00     0.029 C 
BRANCH  40  41
ATOM     41  C25 ZIN A   1      18.203   4.287  16.285  0.00  0.00     0.229 C 
BRANCH  41  42
ATOM     42  N26 ZIN A   1      17.887   2.933  15.814  0.00  0.00    -0.079 N 
ATOM     43  H27 ZIN A   1      18.564   2.651  15.120  0.00  0.00     0.274 HD
ATOM     44  H28 ZIN A   1      17.917   2.291  16.592  0.00  0.00     0.274 HD
ATOM     45  H29 ZIN A   1      16.964   2.924  15.407  0.00  0.00     0.274 HD
ENDBRANCH  41  42
ENDBRANCH  40  41
ENDBRANCH  39  40
ENDBRANCH  34  39
ENDBRANCH  33  34
ENDBRANCH  30  33
ENDBRANCH  28  29
ENDBRANCH   6  28
BRANCH  10  46
ATOM     46  C35 ZIN A   1      17.806  -0.635  14.373  0.00  0.00     0.199 C 
BRANCH  46  47
ATOM     47  O36 ZIN A   1      18.798   0.392  14.395  0.00  0.00    -0.398 OA
ATOM     48  H80 ZIN A   1      19.059   0.670  15.285  0.00  0.00     0.209 HD
ENDBRANCH  46  47
ENDBRANCH  10  46
BRANCH   1  49
ATOM     49  N4  ZIN A   1      17.012  -1.004   6.038  0.00  0.00    -0.317 N 
ATOM     50  C2  ZIN A   1      17.379  -1.388   4.799  0.00  0.00     0.317 C 
ATOM     51  N1  ZIN A   1      16.488  -1.994   3.990  0.00  0.00    -0.352 N 
ATOM     52  O3  ZIN A   1      18.513  -1.186   4.412  0.00  0.00    -0.247 OA
ATOM     53  H61 ZIN A   1      16.752  -2.270   3.098  0.00  0.00     0.160 HD
ATOM     54  H62 ZIN A   1      15.584  -2.159   4.301  0.00  0.00     0.160 HD
ATOM     55  H63 ZIN A   1      16.108  -1.165   6.348  0.00  0.00     0.170 HD
ENDBRANCH   1  49
BRANCH  19  56
ATOM     56  C49 ZIN A   1      19.456  -5.265   6.947  0.00  0.00     0.133 C 
ATOM     57  N57 ZIN A   1      19.756  -5.928   8.227  0.00  0.00    -0.220 N 
ATOM     58  C55 ZIN A   1      21.070  -6.172   8.550  0.00  0.00     0.667 C 
ATOM     59  H93 ZIN A   1      19.042  -6.186   8.830  0.00  0.00     0.178 HD
ATOM     60  N53 ZIN A   1      22.053  -5.636   7.904  0.00  0.00    -0.227 N 
ATOM     61  C52 ZIN A   1      21.880  -4.742   6.764  0.00  0.00     0.140 C 
ATOM     62  H54 ZIN A   1      22.955  -5.839   8.193  0.00  0.00     0.177 HD
ATOM     63  C51 ZIN A   1      20.477  -4.132   6.765  0.00  0.00     0.048 C 
BRANCH  58  64
ATOM     64  N56 ZIN A   1      21.349  -7.016   9.600  0.00  0.00    -0.235 N 
ATOM     65  H91 ZIN A   1      22.260  -7.107   9.920  0.00  0.00     0.174 HD
ATOM     66  H92 ZIN A   1      20.635  -7.522  10.018  0.00  0.00     0.174 HD
ENDBRANCH  58  64
ENDBRANCH  19  56
BRANCH  14  67
ATOM     67  N42 ZIN A   1      17.363  -5.469  13.058  0.00  0.00     0.093 N 
ATOM     68  H82 ZIN A   1      18.059  -5.418  13.788  0.00  0.00     0.314 HD
ATOM     69  H83 ZIN A   1      16.487  -5.073  13.365  0.00  0.00     0.314 HD
ENDBRANCH  14  67
TORSDOF 15
ENDMDL
MODEL 7
REMARK VINA RESULT:      -4.2      2.071      3.120
REMARK  15 active torsions:
REMARK  status: ('A' for Active; 'I' for Inactive)
REMARK       I    between atoms: N1_1  and  C2_2 
REMARK       I    between atoms: C2_2  and  N4_4 
REMARK    1  A    between atoms: N4_4  and  C5_5 
REMARK    2  A    between atoms: C10_10  and  C12_11 
REMARK    3  A    between atoms: C12_11  and  N13_12 
REMARK       I    between atoms: N13_12  and  C14_13 
REMARK    4  A    between atoms: C14_13  and  C16_15 
REMARK    5  A    between atoms: C16_15  and  C17_16 
REMARK    6  A    between atoms: C17_16  and  N19_17 
REMARK    7  A    between atoms: C17_16  and  C23_21 
REMARK    8  A    between atoms: C23_21  and  C24_22 
REMARK    9  A    between atoms: C24_22  and  C25_23 
REMARK   10  A    between atoms: C25_23  and  N26_24 
REMARK   11  A    between atoms: C33_31  and  C35_32 
REMARK   12  A    between atoms: C35_32  and  O36_33 
REMARK   13  A    between atoms: C40_37  and  N42_38 
REMARK   14  A    between atoms: C47_43  and  C49_44 
REMARK   15  A    between atoms: C55_49  and  N56_50 
ROOT
ATOM      1  C5  ZIN A   1      18.490   5.015  12.771  0.00  0.00     0.128 C 
ATOM      2  C6  ZIN A   1      17.871   4.199  13.640  0.00  0.00     0.118 C 
ATOM      3  N7  ZIN A   1      17.775   2.795  13.460  0.00  0.00    -0.320 N 
ATOM      4  C8  ZIN A   1      18.281   2.186  12.364  0.00  0.00     0.246 C 
ATOM      5  O9  ZIN A   1      18.523   2.772  11.327  0.00  0.00    -0.271 OA
ATOM      6  C10 ZIN A   1      18.575   0.700  12.433  0.00  0.00     0.194 C 
ATOM      7  N30 ZIN A   1      19.117   0.364  13.760  0.00  0.00    -0.344 N 
ATOM      8  C31 ZIN A   1      18.286   0.245  14.833  0.00  0.00     0.243 C 
ATOM      9  O32 ZIN A   1      17.084   0.382  14.784  0.00  0.00    -0.271 OA
ATOM     10  C33 ZIN A   1      18.918  -0.077  16.172  0.00  0.00     0.200 C 
ATOM     11  N37 ZIN A   1      18.030   0.415  17.243  0.00  0.00    -0.344 N 
ATOM     12  C38 ZIN A   1      18.167   1.727  17.597  0.00  0.00     0.253 C 
ATOM     13  O39 ZIN A   1      18.962   2.440  17.024  0.00  0.00    -0.271 OA
ATOM     14  C40 ZIN A   1      17.316   2.269  18.716  0.00  0.00     0.326 C 
ATOM     15  C43 ZIN A   1      17.624   3.753  18.929  0.00  0.00     0.167 C 
ATOM     16  N44 ZIN A   1      16.839   4.544  17.951  0.00  0.00    -0.357 N 
ATOM     17  C45 ZIN A   1      17.427   5.689  17.514  0.00  0.00     0.242 C 
ATOM     18  O46 ZIN A   1      18.492   6.038  17.998  0.00  0.00    -0.271 OA
ATOM     19  C47 ZIN A   1      16.794   6.525  16.434  0.00  0.00     0.200 C 
ATOM     20  N58 ZIN A   1      17.308   6.083  15.112  0.00  0.00    -0.340 N 
ATOM     21  C59 ZIN A   1      17.255   4.748  14.860  0.00  0.00     0.270 C 
ATOM     22  O60 ZIN A   1      16.699   3.970  15.616  0.00  0.00    -0.266 OA
ATOM     23  H65 ZIN A   1      17.316   2.268  14.151  0.00  0.00     0.169 HD
ATOM     24  H77 ZIN A   1      20.089   0.225  13.880  0.00  0.00     0.163 HD
ATOM     25  H81 ZIN A   1      17.381  -0.164  17.675  0.00  0.00     0.163 HD
ATOM     26  H86 ZIN A   1      15.965   4.240  17.662  0.00  0.00     0.162 HD
ATOM     27  H94 ZIN A   1      17.657   6.731  14.470  0.00  0.00     0.163 HD
ENDROOT
BRANCH   6  28
ATOM     28  C12 ZIN A   1      17.339  -0.114  12.070  0.00  0.00     0.157 C 
BRANCH  28  29
ATOM     29  N13 ZIN A   1      17.208  -0.182  10.613  0.00  0.00    -0.359 N 
ATOM     30  C14 ZIN A   1      18.189  -0.737   9.874  0.00  0.00     0.219 C 
ATOM     31  O15 ZIN A   1      19.179  -1.181  10.416  0.00  0.00    -0.274 OA
ATOM     32  H68 ZIN A   1      16.416   0.172  10.180  0.00  0.00     0.162 HD
BRANCH  30  33
ATOM     33  C16 ZIN A   1      18.054  -0.808   8.375  0.00  0.00     0.135 C 
BRANCH  33  34
ATOM     34  C17 ZIN A   1      18.316  -2.241   7.907  0.00  0.00     0.192 C 
BRANCH  34  35
ATOM     35  N19 ZIN A   1      19.761  -2.443   7.735  0.00  0.00    -0.075 N 
ATOM     36  H20 ZIN A   1      19.934  -2.897   6.850  0.00  0.00     0.274 HD
ATOM     37  H21 ZIN A   1      20.230  -1.550   7.753  0.00  0.00     0.274 HD
ATOM     38  H22 ZIN A   1      20.110  -3.022   8.484  0.00  0.00     0.274 HD
ENDBRANCH  34  35
BRANCH  34  39
ATOM     39  C23 ZIN A   1      17.784  -3.224   8.951  0.00  0.00     0.034 C 
BRANCH  39  40
ATOM     40  C24 ZIN A   1      18.675  -4.468   8.982  0.00  0.00     0.029 C 
BRANCH  40  41
ATOM     41  C25 ZIN A   1      19.247  -4.651  10.389  0.00  0.00     0.229 C 
BRANCH  41  42
ATOM     42  N26 ZIN A   1      18.312  -4.093  11.374  0.00  0.00    -0.079 N 
ATOM     43  H27 ZIN A   1      17.459  -3.817  10.910  0.00  0.00     0.274 HD
ATOM     44  H28 ZIN A   1      18.103  -4.790  12.072  0.00  0.00     0.274 HD
ATOM     45  H29 ZIN A   1      18.729  -3.288  11.817  0.00  0.00     0.274 HD
ENDBRANCH  41  42
ENDBRANCH  40  41
ENDBRANCH  39  40
ENDBRANCH  34  39
ENDBRANCH  33  34
ENDBRANCH  30  33
ENDBRANCH  28  29
ENDBRANCH   6  28
BRANCH  10  46
ATOM     46  C35 ZIN A   1      19.085  -1.592  16.297  0.00  0.00     0.199 C 
BRANCH  46  47
ATOM     47  O36 ZIN A   1      17.803  -2.201  16.460  0.00  0.00    -0.398 OA
ATOM     48  H80 ZIN A   1      17.139  -1.895  15.825  0.00  0.00     0.209 HD
ENDBRANCH  46  47
ENDBRANCH  10  46
BRANCH   1  49
ATOM     49  N4  ZIN A   1      19.041   6.200  13.210  0.00  0.00    -0.317 N 
ATOM     50  C2  ZIN A   1      20.198   6.190  13.901  0.00  0.00     0.317 C 
ATOM     51  N1  ZIN A   1      20.736   7.348  14.332  0.00  0.00    -0.352 N 
ATOM     52  O3  ZIN A   1      20.755   5.135  14.138  0.00  0.00    -0.247 OA
ATOM     53  H61 ZIN A   1      21.568   7.341  14.829  0.00  0.00     0.160 HD
ATOM     54  H62 ZIN A   1      20.293   8.189  14.139  0.00  0.00     0.160 HD
ATOM     55  H63 ZIN A   1      18.596   7.040  13.021  0.00  0.00     0.170 HD
ENDBRANCH   1  49
BRANCH  19  56
ATOM     56  C49 ZIN A   1      15.272   6.454  16.479  0.00  0.00     0.133 C 
ATOM     57  N57 ZIN A   1      14.743   6.190  15.132  0.00  0.00    -0.220 N 
ATOM     58  C55 ZIN A   1      13.419   6.462  14.877  0.00  0.00     0.667 C 
ATOM     59  H93 ZIN A   1      15.317   5.833  14.435  0.00  0.00     0.178 HD
ATOM     60  N53 ZIN A   1      12.688   7.156  15.687  0.00  0.00    -0.227 N 
ATOM     61  C52 ZIN A   1      13.173   7.703  16.949  0.00  0.00     0.140 C 
ATOM     62  H54 ZIN A   1      11.766   7.323  15.440  0.00  0.00     0.177 HD
ATOM     63  C51 ZIN A   1      14.700   7.802  16.942  0.00  0.00     0.048 C 
BRANCH  58  64
ATOM     64  N56 ZIN A   1      12.853   5.978  13.721  0.00  0.00    -0.235 N 
ATOM     65  H91 ZIN A   1      13.398   5.494  13.080  0.00  0.00     0.174 HD
ATOM     66  H92 ZIN A   1      11.911   6.123  13.545  0.00  0.00     0.174 HD
ENDBRANCH  58  64
ENDBRANCH  19  56
BRANCH  14  67
ATOM     67  N42 ZIN A   1      17.605   1.529  19.953  0.00  0.00     0.093 N 
ATOM     68  H82 ZIN A   1      17.953   2.147  20.671  0.00  0.00     0.314 HD
ATOM     69  H83 ZIN A   1      16.790   1.027  20.272  0.00  0.00     0.314 HD
ENDBRANCH  14  67
TORSDOF 15
ENDMDL
