MODEL 1
REMARK VINA RESULT:     -10.5      0.000      0.000
REMARK  14 active torsions:
REMARK  status: ('A' for Active; 'I' for Inactive)
REMARK    1  A    between atoms: C2_2  and  N5_5 
REMARK       I    between atoms: N5_5  and  C6_6 
REMARK    2  A    between atoms: C6_6  and  C8_8 
REMARK    3  A    between atoms: N20_17  and  C22_19 
REMARK    4  A    between atoms: C22_19  and  C23_20 
REMARK    5  A    between atoms: C23_20  and  O25_21 
REMARK    6  A    between atoms: C23_20  and  C26_22 
REMARK    7  A    between atoms: C26_22  and  C28_23 
REMARK    8  A    between atoms: C26_22  and  N35_30 
REMARK    9  A    between atoms: C28_23  and  C29_24 
REMARK       I    between atoms: N35_30  and  C36_31 
REMARK   10  A    between atoms: C36_31  and  C38_33 
REMARK   11  A    between atoms: C38_33  and  C40_34 
REMARK   12  A    between atoms: C38_33  and  N44_38 
REMARK   13  A    between atoms: C40_34  and  C41_35 
REMARK       I    between atoms: C41_35  and  N42_36 
REMARK       I    between atoms: N44_38  and  C45_39 
REMARK   14  A    between atoms: C45_39  and  C47_41 
ROOT
ATOM      1  C26 ZIN A   1      17.930   0.397  10.521  0.00  0.00     0.119 C 
ENDROOT
BRANCH   1   2
ATOM      2  C23 ZIN A   1      17.033  -0.401  11.471  0.00  0.00     0.167 C 
BRANCH   2   3
ATOM      3  C22 ZIN A   1      17.529  -0.225  12.907  0.00  0.00     0.269 C 
BRANCH   3   4
ATOM      4  N20 ZIN A   1      18.987  -0.042  12.903  0.00  0.00    -0.055 N 
ATOM      5  C8  ZIN A   1      19.636  -1.297  13.298  0.00  0.00     0.279 C 
ATOM      6  C10 ZIN A   1      19.131  -1.729  14.677  0.00  0.00     0.048 C 
ATOM      7  C11 ZIN A   1      19.458  -0.635  15.694  0.00  0.00    -0.006 C 
ATOM      8  C17 ZIN A   1      18.821   0.679  15.233  0.00  0.00     0.016 C 
ATOM      9  C13 ZIN A   1      18.902  -1.010  17.068  0.00  0.00     0.005 C 
ATOM     10  C16 ZIN A   1      19.175   1.787  16.226  0.00  0.00     0.007 C 
ATOM     11  C19 ZIN A   1      19.347   1.031  13.841  0.00  0.00     0.241 C 
ATOM     12  C15 ZIN A   1      18.630   1.418  17.609  0.00  0.00     0.000 C 
ATOM     13  C14 ZIN A   1      19.245   0.096  18.069  0.00  0.00     0.000 C 
ATOM     14  H21 ZIN A   1      19.289   0.211  11.974  0.00  0.00     0.281 HD
BRANCH   5  15
ATOM     15  C6  ZIN A   1      19.315  -2.368  12.289  0.00  0.00     0.249 C 
ATOM     16  N5  ZIN A   1      18.454  -3.356  12.604  0.00  0.00    -0.351 N 
ATOM     17  H66 ZIN A   1      18.042  -3.377  13.482  0.00  0.00     0.163 HD
ATOM     18  O7  ZIN A   1      19.831  -2.341  11.191  0.00  0.00    -0.271 OA
BRANCH  16  19
ATOM     19  C2  ZIN A   1      18.142  -4.397  11.623  0.00  0.00     0.022 C 
ATOM     20  C1  ZIN A   1      17.297  -3.798  10.495  0.00  0.00     0.037 C 
ATOM     21  C3  ZIN A   1      17.358  -5.522  12.303  0.00  0.00     0.037 C 
ATOM     22  C4  ZIN A   1      19.441  -4.959  11.043  0.00  0.00     0.037 C 
ENDBRANCH  16  19
ENDBRANCH   5  15
ENDBRANCH   3   4
ENDBRANCH   2   3
BRANCH   2  23
ATOM     23  O25 ZIN A   1      15.690   0.073  11.368  0.00  0.00    -0.392 OA
ATOM     24  H81 ZIN A   1      15.361   0.501  12.170  0.00  0.00     0.210 HD
ENDBRANCH   2  23
ENDBRANCH   1   2
BRANCH   1  25
ATOM     25  C28 ZIN A   1      17.350   1.799  10.328  0.00  0.00     0.066 C 
BRANCH  25  26
ATOM     26  C29 ZIN A   1      18.159   2.792  11.123  0.00  0.00    -0.056 A 
ATOM     27  C34 ZIN A   1      17.538   3.598  12.057  0.00  0.00     0.007 A 
ATOM     28  C33 ZIN A   1      18.282   4.506  12.788  0.00  0.00     0.001 A 
ATOM     29  C32 ZIN A   1      19.644   4.613  12.578  0.00  0.00     0.000 A 
ATOM     30  C31 ZIN A   1      20.263   3.809  11.639  0.00  0.00     0.001 A 
ATOM     31  C30 ZIN A   1      19.521   2.899  10.911  0.00  0.00     0.007 A 
ENDBRANCH  25  26
ENDBRANCH   1  25
BRANCH   1  32
ATOM     32  N35 ZIN A   1      17.998  -0.286   9.225  0.00  0.00    -0.352 N 
ATOM     33  C36 ZIN A   1      19.179  -0.399   8.586  0.00  0.00     0.241 C 
ATOM     34  O37 ZIN A   1      20.185   0.062   9.082  0.00  0.00    -0.271 OA
ATOM     35  H89 ZIN A   1      17.194  -0.655   8.828  0.00  0.00     0.163 HD
BRANCH  33  36
ATOM     36  C38 ZIN A   1      19.249  -1.101   7.253  0.00  0.00     0.185 C 
BRANCH  36  37
ATOM     37  C40 ZIN A   1      18.644  -0.203   6.172  0.00  0.00     0.137 C 
BRANCH  37  38
ATOM     38  C41 ZIN A   1      18.880  -0.819   4.817  0.00  0.00     0.217 C 
ATOM     39  N42 ZIN A   1      17.848  -1.000   3.970  0.00  0.00    -0.370 N 
ATOM     40  H92 ZIN A   1      16.952  -0.733   4.233  0.00  0.00     0.159 HD
ATOM     41  H93 ZIN A   1      17.999  -1.396   3.098  0.00  0.00     0.159 HD
ATOM     42  O43 ZIN A   1      19.999  -1.151   4.489  0.00  0.00    -0.274 OA
ENDBRANCH  37  38
ENDBRANCH  36  37
BRANCH  36  43
ATOM     43  N44 ZIN A   1      18.499  -2.357   7.322  0.00  0.00    -0.342 N 
ATOM     44  C45 ZIN A   1      19.105  -3.522   7.021  0.00  0.00     0.271 C 
ATOM     45  O46 ZIN A   1      20.247  -3.522   6.606  0.00  0.00    -0.266 OA
ATOM     46  H94 ZIN A   1      17.564  -2.350   7.584  0.00  0.00     0.163 HD
BRANCH  44  47
ATOM     47  C47 ZIN A   1      18.379  -4.803   7.195  0.00  0.00     0.125 A 
ATOM     48  N56 ZIN A   1      17.171  -4.934   6.682  0.00  0.00    -0.243 NA
ATOM     49  C55 ZIN A   1      16.483  -6.068   6.810  0.00  0.00     0.068 A 
ATOM     50  C50 ZIN A   1      17.046  -7.161   7.521  0.00  0.00    -0.007 A 
ATOM     51  C54 ZIN A   1      15.196  -6.203   6.254  0.00  0.00     0.032 A 
ATOM     52  C49 ZIN A   1      18.331  -7.029   8.078  0.00  0.00     0.016 A 
ATOM     53  C51 ZIN A   1      16.311  -8.350   7.656  0.00  0.00     0.014 A 
ATOM     54  C48 ZIN A   1      18.989  -5.845   7.909  0.00  0.00     0.038 A 
ATOM     55  C52 ZIN A   1      15.070  -8.442   7.104  0.00  0.00     0.001 A 
ATOM     56  C53 ZIN A   1      14.516  -7.370   6.406  0.00  0.00     0.002 A 
ENDBRANCH  44  47
ENDBRANCH  36  43
ENDBRANCH  33  36
ENDBRANCH   1  32
TORSDOF 14
ENDMDL
MODEL 2
REMARK VINA RESULT:     -10.5      1.638      4.823
REMARK  14 active torsions:
REMARK  status: ('A' for Active; 'I' for Inactive)
REMARK    1  A    between atoms: C2_2  and  N5_5 
REMARK       I    between atoms: N5_5  and  C6_6 
REMARK    2  A    between atoms: C6_6  and  C8_8 
REMARK    3  A    between atoms: N20_17  and  C22_19 
REMARK    4  A    between atoms: C22_19  and  C23_20 
REMARK    5  A    between atoms: C23_20  and  O25_21 
REMARK    6  A    between atoms: C23_20  and  C26_22 
REMARK    7  A    between atoms: C26_22  and  C28_23 
REMARK    8  A    between atoms: C26_22  and  N35_30 
REMARK    9  A    between atoms: C28_23  and  C29_24 
REMARK       I    between atoms: N35_30  and  C36_31 
REMARK   10  A    between atoms: C36_31  and  C38_33 
REMARK   11  A    between atoms: C38_33  and  C40_34 
REMARK   12  A    between atoms: C38_33  and  N44_38 
REMARK   13  A    between atoms: C40_34  and  C41_35 
REMARK       I    between atoms: C41_35  and  N42_36 
REMARK       I    between atoms: N44_38  and  C45_39 
REMARK   14  A    between atoms: C45_39  and  C47_41 
ROOT
ATOM      1  C26 ZIN A   1      19.456  -1.360  10.896  0.00  0.00     0.119 C 
ENDROOT
BRANCH   1   2
ATOM      2  C23 ZIN A   1      20.185  -0.143  11.470  0.00  0.00     0.167 C 
BRANCH   2   3
ATOM      3  C22 ZIN A   1      19.792   0.040  12.937  0.00  0.00     0.269 C 
BRANCH   3   4
ATOM      4  N20 ZIN A   1      18.398  -0.382  13.126  0.00  0.00    -0.055 N 
ATOM      5  C8  ZIN A   1      17.565   0.793  13.406  0.00  0.00     0.279 C 
ATOM      6  C10 ZIN A   1      18.100   1.525  14.639  0.00  0.00     0.048 C 
ATOM      7  C11 ZIN A   1      18.069   0.574  15.836  0.00  0.00    -0.006 C 
ATOM      8  C17 ZIN A   1      18.895  -0.672  15.503  0.00  0.00     0.016 C 
ATOM      9  C13 ZIN A   1      18.664   1.258  17.068  0.00  0.00     0.005 C 
ATOM     10  C16 ZIN A   1      18.837  -1.645  16.681  0.00  0.00     0.007 C 
ATOM     11  C19 ZIN A   1      18.323  -1.331  14.247  0.00  0.00     0.241 C 
ATOM     12  C15 ZIN A   1      19.423  -0.968  17.924  0.00  0.00     0.000 C 
ATOM     13  C14 ZIN A   1      18.618   0.290  18.253  0.00  0.00     0.000 C 
ATOM     14  H21 ZIN A   1      18.067  -0.832  12.286  0.00  0.00     0.281 HD
BRANCH   5  15
ATOM     15  C6  ZIN A   1      17.596   1.722  12.220  0.00  0.00     0.249 C 
ATOM     16  N5  ZIN A   1      18.190   2.928  12.322  0.00  0.00    -0.351 N 
ATOM     17  H66 ZIN A   1      18.597   3.197  13.161  0.00  0.00     0.163 HD
ATOM     18  O7  ZIN A   1      17.086   1.385  11.173  0.00  0.00    -0.271 OA
BRANCH  16  19
ATOM     19  C2  ZIN A   1      18.219   3.831  11.170  0.00  0.00     0.022 C 
ATOM     20  C1  ZIN A   1      19.275   4.916  11.399  0.00  0.00     0.037 C 
ATOM     21  C3  ZIN A   1      16.847   4.484  10.998  0.00  0.00     0.037 C 
ATOM     22  C4  ZIN A   1      18.569   3.038   9.910  0.00  0.00     0.037 C 
ENDBRANCH  16  19
ENDBRANCH   5  15
ENDBRANCH   3   4
ENDBRANCH   2   3
BRANCH   2  23
ATOM     23  O25 ZIN A   1      21.596  -0.344  11.376  0.00  0.00    -0.392 OA
ATOM     24  H81 ZIN A   1      22.118   0.459  11.508  0.00  0.00     0.210 HD
ENDBRANCH   2  23
ENDBRANCH   1   2
BRANCH   1  25
ATOM     25  C28 ZIN A   1      20.011  -2.635  11.533  0.00  0.00     0.066 C 
BRANCH  25  26
ATOM     26  C29 ZIN A   1      19.098  -3.793  11.220  0.00  0.00    -0.056 A 
ATOM     27  C34 ZIN A   1      19.489  -4.752  10.306  0.00  0.00     0.007 A 
ATOM     28  C33 ZIN A   1      18.653  -5.816  10.022  0.00  0.00     0.001 A 
ATOM     29  C32 ZIN A   1      17.423  -5.915  10.646  0.00  0.00     0.000 A 
ATOM     30  C31 ZIN A   1      17.031  -4.952  11.557  0.00  0.00     0.001 A 
ATOM     31  C30 ZIN A   1      17.868  -3.891  11.844  0.00  0.00     0.007 A 
ENDBRANCH  25  26
ENDBRANCH   1  25
BRANCH   1  32
ATOM     32  N35 ZIN A   1      19.659  -1.411   9.445  0.00  0.00    -0.352 N 
ATOM     33  C36 ZIN A   1      18.602  -1.318   8.614  0.00  0.00     0.241 C 
ATOM     34  O37 ZIN A   1      17.484  -1.191   9.066  0.00  0.00    -0.271 OA
ATOM     35  H89 ZIN A   1      20.553  -1.512   9.084  0.00  0.00     0.163 HD
BRANCH  33  36
ATOM     36  C38 ZIN A   1      18.810  -1.370   7.122  0.00  0.00     0.185 C 
BRANCH  36  37
ATOM     37  C40 ZIN A   1      18.176  -0.136   6.476  0.00  0.00     0.137 C 
BRANCH  37  38
ATOM     38  C41 ZIN A   1      18.626  -0.033   5.041  0.00  0.00     0.217 C 
ATOM     39  N42 ZIN A   1      19.682   0.739   4.720  0.00  0.00    -0.370 N 
ATOM     40  H92 ZIN A   1      20.152   1.230   5.412  0.00  0.00     0.159 HD
ATOM     41  H93 ZIN A   1      19.971   0.806   3.796  0.00  0.00     0.159 HD
ATOM     42  O43 ZIN A   1      18.037  -0.646   4.176  0.00  0.00    -0.274 OA
ENDBRANCH  37  38
ENDBRANCH  36  37
BRANCH  36  43
ATOM     43  N44 ZIN A   1      18.185  -2.580   6.583  0.00  0.00    -0.342 N 
ATOM     44  C45 ZIN A   1      18.950  -3.617   6.192  0.00  0.00     0.271 C 
ATOM     45  O46 ZIN A   1      20.160  -3.517   6.202  0.00  0.00    -0.266 OA
ATOM     46  H94 ZIN A   1      17.219  -2.634   6.507  0.00  0.00     0.163 HD
BRANCH  44  47
ATOM     47  C47 ZIN A   1      18.314  -4.882   5.750  0.00  0.00     0.125 A 
ATOM     48  N56 ZIN A   1      18.229  -5.891   6.596  0.00  0.00    -0.243 NA
ATOM     49  C55 ZIN A   1      17.662  -7.044   6.244  0.00  0.00     0.068 A 
ATOM     50  C50 ZIN A   1      17.145  -7.207   4.932  0.00  0.00    -0.007 A 
ATOM     51  C54 ZIN A   1      17.569  -8.114   7.154  0.00  0.00     0.032 A 
ATOM     52  C49 ZIN A   1      17.237  -6.140   4.020  0.00  0.00     0.016 A 
ATOM     53  C51 ZIN A   1      16.555  -8.429   4.568  0.00  0.00     0.014 A 
ATOM     54  C48 ZIN A   1      17.824  -4.981   4.440  0.00  0.00     0.038 A 
ATOM     55  C52 ZIN A   1      16.484  -9.440   5.476  0.00  0.00     0.001 A 
ATOM     56  C53 ZIN A   1      16.990  -9.282   6.765  0.00  0.00     0.002 A 
ENDBRANCH  44  47
ENDBRANCH  36  43
ENDBRANCH  33  36
ENDBRANCH   1  32
TORSDOF 14
ENDMDL
MODEL 3
REMARK VINA RESULT:     -10.2      3.132     10.692
REMARK  14 active torsions:
REMARK  status: ('A' for Active; 'I' for Inactive)
REMARK    1  A    between atoms: C2_2  and  N5_5 
REMARK       I    between atoms: N5_5  and  C6_6 
REMARK    2  A    between atoms: C6_6  and  C8_8 
REMARK    3  A    between atoms: N20_17  and  C22_19 
REMARK    4  A    between atoms: C22_19  and  C23_20 
REMARK    5  A    between atoms: C23_20  and  O25_21 
REMARK    6  A    between atoms: C23_20  and  C26_22 
REMARK    7  A    between atoms: C26_22  and  C28_23 
REMARK    8  A    between atoms: C26_22  and  N35_30 
REMARK    9  A    between atoms: C28_23  and  C29_24 
REMARK       I    between atoms: N35_30  and  C36_31 
REMARK   10  A    between atoms: C36_31  and  C38_33 
REMARK   11  A    between atoms: C38_33  and  C40_34 
REMARK   12  A    between atoms: C38_33  and  N44_38 
REMARK   13  A    between atoms: C40_34  and  C41_35 
REMARK       I    between atoms: C41_35  and  N42_36 
REMARK       I    between atoms: N44_38  and  C45_39 
REMARK   14  A    between atoms: C45_39  and  C47_41 
ROOT
ATOM      1  C26 ZIN A   1      18.632  -0.566  12.529  0.00  0.00     0.119 C 
ENDROOT
BRANCH   1   2
ATOM      2  C23 ZIN A   1      17.507   0.142  11.769  0.00  0.00     0.167 C 
BRANCH   2   3
ATOM      3  C22 ZIN A   1      17.792   0.084  10.268  0.00  0.00     0.269 C 
BRANCH   3   4
ATOM      4  N20 ZIN A   1      19.245   0.080  10.046  0.00  0.00    -0.055 N 
ATOM      5  C8  ZIN A   1      19.664   1.389   9.533  0.00  0.00     0.279 C 
ATOM      6  C10 ZIN A   1      18.902   1.709   8.244  0.00  0.00     0.048 C 
ATOM      7  C11 ZIN A   1      19.203   0.627   7.206  0.00  0.00    -0.006 C 
ATOM      8  C17 ZIN A   1      18.814  -0.738   7.782  0.00  0.00     0.016 C 
ATOM      9  C13 ZIN A   1      18.399   0.884   5.931  0.00  0.00     0.005 C 
ATOM     10  C16 ZIN A   1      19.147  -1.828   6.763  0.00  0.00     0.007 C 
ATOM     11  C19 ZIN A   1      19.588  -0.974   9.079  0.00  0.00     0.241 C 
ATOM     12  C15 ZIN A   1      18.354  -1.578   5.477  0.00  0.00     0.000 C 
ATOM     13  C14 ZIN A   1      18.720  -0.208   4.905  0.00  0.00     0.000 C 
ATOM     14  H21 ZIN A   1      19.716  -0.102  10.919  0.00  0.00     0.281 HD
BRANCH   5  15
ATOM     15  C6  ZIN A   1      19.370   2.448  10.563  0.00  0.00     0.249 C 
ATOM     16  N5  ZIN A   1      18.401   3.358  10.339  0.00  0.00    -0.351 N 
ATOM     17  H66 ZIN A   1      17.892   3.330   9.513  0.00  0.00     0.163 HD
ATOM     18  O7  ZIN A   1      20.006   2.483  11.595  0.00  0.00    -0.271 OA
BRANCH  16  19
ATOM     19  C2  ZIN A   1      18.115   4.388  11.341  0.00  0.00     0.022 C 
ATOM     20  C1  ZIN A   1      17.281   3.781  12.471  0.00  0.00     0.037 C 
ATOM     21  C3  ZIN A   1      17.335   5.531  10.689  0.00  0.00     0.037 C 
ATOM     22  C4  ZIN A   1      19.430   4.925  11.909  0.00  0.00     0.037 C 
ENDBRANCH  16  19
ENDBRANCH   5  15
ENDBRANCH   3   4
ENDBRANCH   2   3
BRANCH   2  23
ATOM     23  O25 ZIN A   1      16.265  -0.507  12.044  0.00  0.00    -0.392 OA
ATOM     24  H81 ZIN A   1      15.808  -0.169  12.826  0.00  0.00     0.210 HD
ENDBRANCH   2  23
ENDBRANCH   1   2
BRANCH   1  25
ATOM     25  C28 ZIN A   1      18.125  -1.909  13.057  0.00  0.00     0.066 C 
BRANCH  25  26
ATOM     26  C29 ZIN A   1      18.466  -2.997  12.071  0.00  0.00    -0.056 A 
ATOM     27  C34 ZIN A   1      17.458  -3.646  11.383  0.00  0.00     0.007 A 
ATOM     28  C33 ZIN A   1      17.771  -4.641  10.476  0.00  0.00     0.001 A 
ATOM     29  C32 ZIN A   1      19.091  -4.994  10.265  0.00  0.00     0.000 A 
ATOM     30  C31 ZIN A   1      20.099  -4.348  10.957  0.00  0.00     0.001 A 
ATOM     31  C30 ZIN A   1      19.786  -3.350  11.861  0.00  0.00     0.007 A 
ENDBRANCH  25  26
ENDBRANCH   1  25
BRANCH   1  32
ATOM     32  N35 ZIN A   1      19.061   0.270  13.654  0.00  0.00    -0.352 N 
ATOM     33  C36 ZIN A   1      18.249   0.438  14.716  0.00  0.00     0.241 C 
ATOM     34  O37 ZIN A   1      17.164  -0.102  14.742  0.00  0.00    -0.271 OA
ATOM     35  H89 ZIN A   1      19.929   0.703  13.634  0.00  0.00     0.163 HD
BRANCH  33  36
ATOM     36  C38 ZIN A   1      18.690   1.298  15.873  0.00  0.00     0.185 C 
BRANCH  36  37
ATOM     37  C40 ZIN A   1      18.160   0.704  17.180  0.00  0.00     0.137 C 
BRANCH  37  38
ATOM     38  C41 ZIN A   1      19.315   0.394  18.097  0.00  0.00     0.217 C 
ATOM     39  N42 ZIN A   1      19.732  -0.878  18.249  0.00  0.00    -0.370 N 
ATOM     40  H92 ZIN A   1      19.288  -1.594  17.768  0.00  0.00     0.159 HD
ATOM     41  H93 ZIN A   1      20.476  -1.078  18.839  0.00  0.00     0.159 HD
ATOM     42  O43 ZIN A   1      19.870   1.291  18.697  0.00  0.00    -0.274 OA
ENDBRANCH  37  38
ENDBRANCH  36  37
BRANCH  36  43
ATOM     43  N44 ZIN A   1      18.163   2.654  15.703  0.00  0.00    -0.342 N 
ATOM     44  C45 ZIN A   1      18.933   3.719  16.000  0.00  0.00     0.271 C 
ATOM     45  O46 ZIN A   1      20.031   3.555  16.493  0.00  0.00    -0.266 OA
ATOM     46  H94 ZIN A   1      17.258   2.786  15.377  0.00  0.00     0.163 HD
BRANCH  44  47
ATOM     47  C47 ZIN A   1      18.441   5.090  15.725  0.00  0.00     0.125 A 
ATOM     48  N56 ZIN A   1      17.169   5.372  15.933  0.00  0.00    -0.243 NA
ATOM     49  C55 ZIN A   1      16.683   6.591  15.704  0.00  0.00     0.068 A 
ATOM     50  C50 ZIN A   1      17.539   7.615  15.217  0.00  0.00    -0.007 A 
ATOM     51  C54 ZIN A   1      15.326   6.887  15.933  0.00  0.00     0.032 A 
ATOM     52  C49 ZIN A   1      18.896   7.322  14.986  0.00  0.00     0.016 A 
ATOM     53  C51 ZIN A   1      17.017   8.895  14.973  0.00  0.00     0.014 A 
ATOM     54  C48 ZIN A   1      19.336   6.056  15.244  0.00  0.00     0.038 A 
ATOM     55  C52 ZIN A   1      15.699   9.141  15.207  0.00  0.00     0.001 A 
ATOM     56  C53 ZIN A   1      14.856   8.138  15.685  0.00  0.00     0.002 A 
ENDBRANCH  44  47
ENDBRANCH  36  43
ENDBRANCH  33  36
ENDBRANCH   1  32
TORSDOF 14
ENDMDL
MODEL 4
REMARK VINA RESULT:     -10.1      3.265     10.259
REMARK  14 active torsions:
REMARK  status: ('A' for Active; 'I' for Inactive)
REMARK    1  A    between atoms: C2_2  and  N5_5 
REMARK       I    between atoms: N5_5  and  C6_6 
REMARK    2  A    between atoms: C6_6  and  C8_8 
REMARK    3  A    between atoms: N20_17  and  C22_19 
REMARK    4  A    between atoms: C22_19  and  C23_20 
REMARK    5  A    between atoms: C23_20  and  O25_21 
REMARK    6  A    between atoms: C23_20  and  C26_22 
REMARK    7  A    between atoms: C26_22  and  C28_23 
REMARK    8  A    between atoms: C26_22  and  N35_30 
REMARK    9  A    between atoms: C28_23  and  C29_24 
REMARK       I    between atoms: N35_30  and  C36_31 
REMARK   10  A    between atoms: C36_31  and  C38_33 
REMARK   11  A    between atoms: C38_33  and  C40_34 
REMARK   12  A    between atoms: C38_33  and  N44_38 
REMARK   13  A    between atoms: C40_34  and  C41_35 
REMARK       I    between atoms: C41_35  and  N42_36 
REMARK       I    between atoms: N44_38  and  C45_39 
REMARK   14  A    between atoms: C45_39  and  C47_41 
ROOT
ATOM      1  C26 ZIN A   1      19.317   1.212  11.889  0.00  0.00     0.119 C 
ENDROOT
BRANCH   1   2
ATOM      2  C23 ZIN A   1      20.114   0.040  11.310  0.00  0.00     0.167 C 
BRANCH   2   3
ATOM      3  C22 ZIN A   1      19.811  -0.093   9.817  0.00  0.00     0.269 C 
BRANCH   3   4
ATOM      4  N20 ZIN A   1      18.388   0.188   9.580  0.00  0.00    -0.055 N 
ATOM      5  C8  ZIN A   1      17.675  -1.071   9.342  0.00  0.00     0.279 C 
ATOM      6  C10 ZIN A   1      18.305  -1.807   8.156  0.00  0.00     0.048 C 
ATOM      7  C11 ZIN A   1      18.215  -0.920   6.914  0.00  0.00    -0.006 C 
ATOM      8  C17 ZIN A   1      18.914   0.412   7.202  0.00  0.00     0.016 C 
ATOM      9  C13 ZIN A   1      18.900  -1.603   5.729  0.00  0.00     0.005 C 
ATOM     10  C16 ZIN A   1      18.796   1.318   5.977  0.00  0.00     0.007 C 
ATOM     11  C19 ZIN A   1      18.254   1.073   8.413  0.00  0.00     0.241 C 
ATOM     12  C15 ZIN A   1      19.471   0.642   4.780  0.00  0.00     0.000 C 
ATOM     13  C14 ZIN A   1      18.794  -0.700   4.498  0.00  0.00     0.000 C 
ATOM     14  H21 ZIN A   1      17.998   0.644  10.391  0.00  0.00     0.281 HD
BRANCH   5  15
ATOM     15  C6  ZIN A   1      17.762  -1.937  10.572  0.00  0.00     0.249 C 
ATOM     16  N5  ZIN A   1      18.572  -3.015  10.583  0.00  0.00    -0.351 N 
ATOM     17  H66 ZIN A   1      19.098  -3.232   9.797  0.00  0.00     0.163 HD
ATOM     18  O7  ZIN A   1      17.103  -1.664  11.553  0.00  0.00    -0.271 OA
BRANCH  16  19
ATOM     19  C2  ZIN A   1      18.656  -3.856  11.778  0.00  0.00     0.022 C 
ATOM     20  C1  ZIN A   1      18.750  -2.968  13.021  0.00  0.00     0.037 C 
ATOM     21  C3  ZIN A   1      19.900  -4.743  11.691  0.00  0.00     0.037 C 
ATOM     22  C4  ZIN A   1      17.408  -4.735  11.873  0.00  0.00     0.037 C 
ENDBRANCH  16  19
ENDBRANCH   5  15
ENDBRANCH   3   4
ENDBRANCH   2   3
BRANCH   2  23
ATOM     23  O25 ZIN A   1      21.510   0.277  11.494  0.00  0.00    -0.392 OA
ATOM     24  H81 ZIN A   1      21.791   1.174  11.267  0.00  0.00     0.210 HD
ENDBRANCH   2  23
ENDBRANCH   1   2
BRANCH   1  25
ATOM     25  C28 ZIN A   1      19.794   2.518  11.252  0.00  0.00     0.066 C 
BRANCH  25  26
ATOM     26  C29 ZIN A   1      18.775   3.600  11.501  0.00  0.00    -0.056 A 
ATOM     27  C34 ZIN A   1      17.762   3.818  10.587  0.00  0.00     0.007 A 
ATOM     28  C33 ZIN A   1      16.826   4.808  10.818  0.00  0.00     0.001 A 
ATOM     29  C32 ZIN A   1      16.908   5.586  11.958  0.00  0.00     0.000 A 
ATOM     30  C31 ZIN A   1      17.925   5.371  12.869  0.00  0.00     0.001 A 
ATOM     31  C30 ZIN A   1      18.859   4.378  12.641  0.00  0.00     0.007 A 
ENDBRANCH  25  26
ENDBRANCH   1  25
BRANCH   1  32
ATOM     32  N35 ZIN A   1      19.522   1.272  13.339  0.00  0.00    -0.352 N 
ATOM     33  C36 ZIN A   1      18.482   1.076  14.174  0.00  0.00     0.241 C 
ATOM     34  O37 ZIN A   1      17.378   0.849  13.727  0.00  0.00    -0.271 OA
ATOM     35  H89 ZIN A   1      20.405   1.453  13.698  0.00  0.00     0.163 HD
BRANCH  33  36
ATOM     36  C38 ZIN A   1      18.692   1.138  15.666  0.00  0.00     0.185 C 
BRANCH  36  37
ATOM     37  C40 ZIN A   1      18.014  -0.065  16.326  0.00  0.00     0.137 C 
BRANCH  37  38
ATOM     38  C41 ZIN A   1      19.024  -0.823  17.148  0.00  0.00     0.217 C 
ATOM     39  N42 ZIN A   1      19.519  -0.280  18.277  0.00  0.00    -0.370 N 
ATOM     40  H92 ZIN A   1      19.224   0.600  18.561  0.00  0.00     0.159 HD
ATOM     41  H93 ZIN A   1      20.169  -0.768  18.806  0.00  0.00     0.159 HD
ATOM     42  O43 ZIN A   1      19.392  -1.923  16.793  0.00  0.00    -0.274 OA
ENDBRANCH  37  38
ENDBRANCH  36  37
BRANCH  36  43
ATOM     43  N44 ZIN A   1      18.111   2.376  16.191  0.00  0.00    -0.342 N 
ATOM     44  C45 ZIN A   1      18.793   3.114  17.088  0.00  0.00     0.271 C 
ATOM     45  O46 ZIN A   1      19.849   2.709  17.529  0.00  0.00    -0.266 OA
ATOM     46  H94 ZIN A   1      17.233   2.664  15.892  0.00  0.00     0.163 HD
BRANCH  44  47
ATOM     47  C47 ZIN A   1      18.254   4.421  17.536  0.00  0.00     0.125 A 
ATOM     48  N56 ZIN A   1      18.285   5.448  16.709  0.00  0.00    -0.243 NA
ATOM     49  C55 ZIN A   1      17.808   6.640  17.067  0.00  0.00     0.068 A 
ATOM     50  C50 ZIN A   1      17.263   6.823  18.365  0.00  0.00    -0.007 A 
ATOM     51  C54 ZIN A   1      17.839   7.731  16.177  0.00  0.00     0.032 A 
ATOM     52  C49 ZIN A   1      17.231   5.735  19.256  0.00  0.00     0.016 A 
ATOM     53  C51 ZIN A   1      16.768   8.085  18.735  0.00  0.00     0.014 A 
ATOM     54  C48 ZIN A   1      17.729   4.538  18.831  0.00  0.00     0.038 A 
ATOM     55  C52 ZIN A   1      16.816   9.115  17.847  0.00  0.00     0.001 A 
ATOM     56  C53 ZIN A   1      17.351   8.937  16.572  0.00  0.00     0.002 A 
ENDBRANCH  44  47
ENDBRANCH  36  43
ENDBRANCH  33  36
ENDBRANCH   1  32
TORSDOF 14
ENDMDL
MODEL 5
REMARK VINA RESULT:     -10.0      2.331      5.336
REMARK  14 active torsions:
REMARK  status: ('A' for Active; 'I' for Inactive)
REMARK    1  A    between atoms: C2_2  and  N5_5 
REMARK       I    between atoms: N5_5  and  C6_6 
REMARK    2  A    between atoms: C6_6  and  C8_8 
REMARK    3  A    between atoms: N20_17  and  C22_19 
REMARK    4  A    between atoms: C22_19  and  C23_20 
REMARK    5  A    between atoms: C23_20  and  O25_21 
REMARK    6  A    between atoms: C23_20  and  C26_22 
REMARK    7  A    between atoms: C26_22  and  C28_23 
REMARK    8  A    between atoms: C26_22  and  N35_30 
REMARK    9  A    between atoms: C28_23  and  C29_24 
REMARK       I    between atoms: N35_30  and  C36_31 
REMARK   10  A    between atoms: C36_31  and  C38_33 
REMARK   11  A    between atoms: C38_33  and  C40_34 
REMARK   12  A    between atoms: C38_33  and  N44_38 
REMARK   13  A    between atoms: C40_34  and  C41_35 
REMARK       I    between atoms: C41_35  and  N42_36 
REMARK       I    between atoms: N44_38  and  C45_39 
REMARK   14  A    between atoms: C45_39  and  C47_41 
ROOT
ATOM      1  C26 ZIN A   1      18.420  -1.260  10.664  0.00  0.00     0.119 C 
ENDROOT
BRANCH   1   2
ATOM      2  C23 ZIN A   1      18.763  -0.978  12.129  0.00  0.00     0.167 C 
BRANCH   2   3
ATOM      3  C22 ZIN A   1      18.268   0.418  12.509  0.00  0.00     0.269 C 
BRANCH   3   4
ATOM      4  N20 ZIN A   1      19.415   1.262  12.870  0.00  0.00    -0.055 N 
ATOM      5  C8  ZIN A   1      19.113   1.995  14.105  0.00  0.00     0.279 C 
ATOM      6  C10 ZIN A   1      17.843   2.829  13.914  0.00  0.00     0.048 C 
ATOM      7  C11 ZIN A   1      18.062   3.817  12.768  0.00  0.00    -0.006 C 
ATOM      8  C17 ZIN A   1      18.435   3.037  11.503  0.00  0.00     0.016 C 
ATOM      9  C13 ZIN A   1      16.784   4.615  12.510  0.00  0.00     0.005 C 
ATOM     10  C16 ZIN A   1      18.693   4.022  10.362  0.00  0.00     0.007 C 
ATOM     11  C19 ZIN A   1      19.689   2.207  11.777  0.00  0.00     0.241 C 
ATOM     12  C15 ZIN A   1      17.422   4.834  10.099  0.00  0.00     0.000 C 
ATOM     13  C14 ZIN A   1      17.029   5.600  11.363  0.00  0.00     0.000 C 
ATOM     14  H21 ZIN A   1      20.226   0.680  13.019  0.00  0.00     0.281 HD
BRANCH   5  15
ATOM     15  C6  ZIN A   1      18.904   1.015  15.230  0.00  0.00     0.249 C 
ATOM     16  N5  ZIN A   1      18.171   1.368  16.305  0.00  0.00    -0.351 N 
ATOM     17  H66 ZIN A   1      17.777   2.253  16.353  0.00  0.00     0.163 HD
ATOM     18  O7  ZIN A   1      19.396  -0.092  15.169  0.00  0.00    -0.271 OA
BRANCH  16  19
ATOM     19  C2  ZIN A   1      17.968   0.415  17.399  0.00  0.00     0.022 C 
ATOM     20  C1  ZIN A   1      17.068  -0.727  16.920  0.00  0.00     0.037 C 
ATOM     21  C3  ZIN A   1      17.303   1.127  18.578  0.00  0.00     0.037 C 
ATOM     22  C4  ZIN A   1      19.319  -0.150  17.840  0.00  0.00     0.037 C 
ENDBRANCH  16  19
ENDBRANCH   5  15
ENDBRANCH   3   4
ENDBRANCH   2   3
BRANCH   2  23
ATOM     23  O25 ZIN A   1      18.131  -1.951  12.962  0.00  0.00    -0.392 OA
ATOM     24  H81 ZIN A   1      18.300  -2.866  12.697  0.00  0.00     0.210 HD
ENDBRANCH   2  23
ENDBRANCH   1   2
BRANCH   1  25
ATOM     25  C28 ZIN A   1      17.415  -0.219  10.167  0.00  0.00     0.066 C 
BRANCH  25  26
ATOM     26  C29 ZIN A   1      17.753   0.170   8.751  0.00  0.00    -0.056 A 
ATOM     27  C34 ZIN A   1      16.983  -0.299   7.703  0.00  0.00     0.007 A 
ATOM     28  C33 ZIN A   1      17.292   0.062   6.405  0.00  0.00     0.001 A 
ATOM     29  C32 ZIN A   1      18.375   0.884   6.154  0.00  0.00     0.000 A 
ATOM     30  C31 ZIN A   1      19.148   1.348   7.202  0.00  0.00     0.001 A 
ATOM     31  C30 ZIN A   1      18.837   0.991   8.500  0.00  0.00     0.007 A 
ENDBRANCH  25  26
ENDBRANCH   1  25
BRANCH   1  32
ATOM     32  N35 ZIN A   1      17.834  -2.599  10.549  0.00  0.00    -0.352 N 
ATOM     33  C36 ZIN A   1      18.144  -3.380   9.496  0.00  0.00     0.241 C 
ATOM     34  O37 ZIN A   1      18.908  -2.977   8.644  0.00  0.00    -0.271 OA
ATOM     35  H89 ZIN A   1      17.223  -2.921  11.230  0.00  0.00     0.163 HD
BRANCH  33  36
ATOM     36  C38 ZIN A   1      17.542  -4.757   9.377  0.00  0.00     0.185 C 
BRANCH  36  37
ATOM     37  C40 ZIN A   1      18.627  -5.810   9.613  0.00  0.00     0.137 C 
BRANCH  37  38
ATOM     38  C41 ZIN A   1      19.524  -5.887   8.405  0.00  0.00     0.217 C 
ATOM     39  N42 ZIN A   1      20.703  -5.234   8.398  0.00  0.00    -0.370 N 
ATOM     40  H92 ZIN A   1      20.973  -4.714   9.171  0.00  0.00     0.159 HD
ATOM     41  H93 ZIN A   1      21.280  -5.283   7.620  0.00  0.00     0.159 HD
ATOM     42  O43 ZIN A   1      19.185  -6.538   7.439  0.00  0.00    -0.274 OA
ENDBRANCH  37  38
ENDBRANCH  36  37
BRANCH  36  43
ATOM     43  N44 ZIN A   1      16.977  -4.930   8.037  0.00  0.00    -0.342 N 
ATOM     44  C45 ZIN A   1      15.992  -5.825   7.830  0.00  0.00     0.271 C 
ATOM     45  O46 ZIN A   1      15.634  -6.553   8.734  0.00  0.00    -0.266 OA
ATOM     46  H94 ZIN A   1      17.313  -4.399   7.297  0.00  0.00     0.163 HD
BRANCH  44  47
ATOM     47  C47 ZIN A   1      15.346  -5.922   6.499  0.00  0.00     0.125 A 
ATOM     48  N56 ZIN A   1      15.916  -5.342   5.461  0.00  0.00    -0.243 NA
ATOM     49  C55 ZIN A   1      15.374  -5.408   4.246  0.00  0.00     0.068 A 
ATOM     50  C50 ZIN A   1      14.151  -6.103   4.053  0.00  0.00    -0.007 A 
ATOM     51  C54 ZIN A   1      15.992  -4.791   3.141  0.00  0.00     0.032 A 
ATOM     52  C49 ZIN A   1      13.531  -6.719   5.155  0.00  0.00     0.016 A 
ATOM     53  C51 ZIN A   1      13.583  -6.161   2.770  0.00  0.00     0.014 A 
ATOM     54  C48 ZIN A   1      14.137  -6.623   6.374  0.00  0.00     0.038 A 
ATOM     55  C52 ZIN A   1      14.211  -5.552   1.727  0.00  0.00     0.001 A 
ATOM     56  C53 ZIN A   1      15.412  -4.869   1.914  0.00  0.00     0.002 A 
ENDBRANCH  44  47
ENDBRANCH  36  43
ENDBRANCH  33  36
ENDBRANCH   1  32
TORSDOF 14
ENDMDL
MODEL 6
REMARK VINA RESULT:      -9.9      2.086      5.674
REMARK  14 active torsions:
REMARK  status: ('A' for Active; 'I' for Inactive)
REMARK    1  A    between atoms: C2_2  and  N5_5 
REMARK       I    between atoms: N5_5  and  C6_6 
REMARK    2  A    between atoms: C6_6  and  C8_8 
REMARK    3  A    between atoms: N20_17  and  C22_19 
REMARK    4  A    between atoms: C22_19  and  C23_20 
REMARK    5  A    between atoms: C23_20  and  O25_21 
REMARK    6  A    between atoms: C23_20  and  C26_22 
REMARK    7  A    between atoms: C26_22  and  C28_23 
REMARK    8  A    between atoms: C26_22  and  N35_30 
REMARK    9  A    between atoms: C28_23  and  C29_24 
REMARK       I    between atoms: N35_30  and  C36_31 
REMARK   10  A    between atoms: C36_31  and  C38_33 
REMARK   11  A    between atoms: C38_33  and  C40_34 
REMARK   12  A    between atoms: C38_33  and  N44_38 
REMARK   13  A    between atoms: C40_34  and  C41_35 
REMARK       I    between atoms: C41_35  and  N42_36 
REMARK       I    between atoms: N44_38  and  C45_39 
REMARK   14  A    between atoms: C45_39  and  C47_41 
ROOT
ATOM      1  C26 ZIN A   1      18.866  -3.052  10.785  0.00  0.00     0.119 C 
ENDROOT
BRANCH   1   2
ATOM      2  C23 ZIN A   1      19.844  -2.344  11.726  0.00  0.00     0.167 C 
BRANCH   2   3
ATOM      3  C22 ZIN A   1      19.150  -1.146  12.374  0.00  0.00     0.269 C 
BRANCH   3   4
ATOM      4  N20 ZIN A   1      20.158  -0.156  12.778  0.00  0.00    -0.055 N 
ATOM      5  C8  ZIN A   1      19.575   0.761  13.764  0.00  0.00     0.279 C 
ATOM      6  C10 ZIN A   1      18.334   1.435  13.174  0.00  0.00     0.048 C 
ATOM      7  C11 ZIN A   1      18.738   2.214  11.921  0.00  0.00    -0.006 C 
ATOM      8  C17 ZIN A   1      19.398   1.251  10.928  0.00  0.00     0.016 C 
ATOM      9  C13 ZIN A   1      17.504   2.841  11.271  0.00  0.00     0.005 C 
ATOM     10  C16 ZIN A   1      19.838   2.030   9.688  0.00  0.00     0.007 C 
ATOM     11  C19 ZIN A   1      20.606   0.594  11.595  0.00  0.00     0.241 C 
ATOM     12  C15 ZIN A   1      18.611   2.671   9.032  0.00  0.00     0.000 C 
ATOM     13  C14 ZIN A   1      17.933   3.618  10.023  0.00  0.00     0.000 C 
ATOM     14  H21 ZIN A   1      20.947  -0.631  13.190  0.00  0.00     0.281 HD
BRANCH   5  15
ATOM     15  C6  ZIN A   1      19.186  -0.012  14.997  0.00  0.00     0.249 C 
ATOM     16  N5  ZIN A   1      18.517   0.600  15.995  0.00  0.00    -0.351 N 
ATOM     17  H66 ZIN A   1      18.287   1.540  15.917  0.00  0.00     0.163 HD
ATOM     18  O7  ZIN A   1      19.475  -1.186  15.093  0.00  0.00    -0.271 OA
BRANCH  16  19
ATOM     19  C2  ZIN A   1      18.139  -0.151  17.193  0.00  0.00     0.022 C 
ATOM     20  C1  ZIN A   1      17.222  -1.311  16.800  0.00  0.00     0.037 C 
ATOM     21  C3  ZIN A   1      17.403   0.774  18.164  0.00  0.00     0.037 C 
ATOM     22  C4  ZIN A   1      19.397  -0.702  17.868  0.00  0.00     0.037 C 
ENDBRANCH  16  19
ENDBRANCH   5  15
ENDBRANCH   3   4
ENDBRANCH   2   3
BRANCH   2  23
ATOM     23  O25 ZIN A   1      20.271  -3.254  12.740  0.00  0.00    -0.392 OA
ATOM     24  H81 ZIN A   1      21.219  -3.219  12.928  0.00  0.00     0.210 HD
ENDBRANCH   2  23
ENDBRANCH   1   2
BRANCH   1  25
ATOM     25  C28 ZIN A   1      18.846  -4.548  11.100  0.00  0.00     0.066 C 
BRANCH  25  26
ATOM     26  C29 ZIN A   1      17.925  -5.253  10.138  0.00  0.00    -0.056 A 
ATOM     27  C34 ZIN A   1      16.577  -4.947  10.123  0.00  0.00     0.007 A 
ATOM     28  C33 ZIN A   1      15.733  -5.590   9.237  0.00  0.00     0.001 A 
ATOM     29  C32 ZIN A   1      16.235  -6.546   8.373  0.00  0.00     0.000 A 
ATOM     30  C31 ZIN A   1      17.582  -6.855   8.392  0.00  0.00     0.001 A 
ATOM     31  C30 ZIN A   1      18.427  -6.208   9.275  0.00  0.00     0.007 A 
ENDBRANCH  25  26
ENDBRANCH   1  25
BRANCH   1  32
ATOM     32  N35 ZIN A   1      19.293  -2.851   9.397  0.00  0.00    -0.352 N 
ATOM     33  C36 ZIN A   1      18.639  -1.970   8.613  0.00  0.00     0.241 C 
ATOM     34  O37 ZIN A   1      17.699  -1.344   9.055  0.00  0.00    -0.271 OA
ATOM     35  H89 ZIN A   1      20.044  -3.351   9.043  0.00  0.00     0.163 HD
BRANCH  33  36
ATOM     36  C38 ZIN A   1      19.077  -1.763   7.185  0.00  0.00     0.185 C 
BRANCH  36  37
ATOM     37  C40 ZIN A   1      19.286  -0.269   6.928  0.00  0.00     0.137 C 
BRANCH  37  38
ATOM     38  C41 ZIN A   1      18.639   0.111   5.622  0.00  0.00     0.217 C 
ATOM     39  N42 ZIN A   1      19.374   0.157   4.494  0.00  0.00    -0.370 N 
ATOM     40  H92 ZIN A   1      20.321  -0.054   4.523  0.00  0.00     0.159 HD
ATOM     41  H93 ZIN A   1      18.958   0.403   3.652  0.00  0.00     0.159 HD
ATOM     42  O43 ZIN A   1      17.455   0.375   5.585  0.00  0.00    -0.274 OA
ENDBRANCH  37  38
ENDBRANCH  36  37
BRANCH  36  43
ATOM     43  N44 ZIN A   1      18.048  -2.276   6.279  0.00  0.00    -0.342 N 
ATOM     44  C45 ZIN A   1      18.284  -3.382   5.547  0.00  0.00     0.271 C 
ATOM     45  O46 ZIN A   1      19.380  -3.902   5.570  0.00  0.00    -0.266 OA
ATOM     46  H94 ZIN A   1      17.195  -1.818   6.205  0.00  0.00     0.163 HD
BRANCH  44  47
ATOM     47  C47 ZIN A   1      17.204  -3.964   4.713  0.00  0.00     0.125 A 
ATOM     48  N56 ZIN A   1      16.467  -4.942   5.202  0.00  0.00    -0.243 NA
ATOM     49  C55 ZIN A   1      15.484  -5.491   4.491  0.00  0.00     0.068 A 
ATOM     50  C50 ZIN A   1      15.220  -5.031   3.174  0.00  0.00    -0.007 A 
ATOM     51  C54 ZIN A   1      14.697  -6.531   5.022  0.00  0.00     0.032 A 
ATOM     52  C49 ZIN A   1      16.005  -3.993   2.640  0.00  0.00     0.016 A 
ATOM     53  C51 ZIN A   1      14.186  -5.621   2.429  0.00  0.00     0.014 A 
ATOM     54  C48 ZIN A   1      16.995  -3.465   3.418  0.00  0.00     0.038 A 
ATOM     55  C52 ZIN A   1      13.448  -6.624   2.978  0.00  0.00     0.001 A 
ATOM     56  C53 ZIN A   1      13.704  -7.077   4.271  0.00  0.00     0.002 A 
ENDBRANCH  44  47
ENDBRANCH  36  43
ENDBRANCH  33  36
ENDBRANCH   1  32
TORSDOF 14
ENDMDL
MODEL 7
REMARK VINA RESULT:      -9.4      4.042      9.391
REMARK  14 active torsions:
REMARK  status: ('A' for Active; 'I' for Inactive)
REMARK    1  A    between atoms: C2_2  and  N5_5 
REMARK       I    between atoms: N5_5  and  C6_6 
REMARK    2  A    between atoms: C6_6  and  C8_8 
REMARK    3  A    between atoms: N20_17  and  C22_19 
REMARK    4  A    between atoms: C22_19  and  C23_20 
REMARK    5  A    between atoms: C23_20  and  O25_21 
REMARK    6  A    between atoms: C23_20  and  C26_22 
REMARK    7  A    between atoms: C26_22  and  C28_23 
REMARK    8  A    between atoms: C26_22  and  N35_30 
REMARK    9  A    between atoms: C28_23  and  C29_24 
REMARK       I    between atoms: N35_30  and  C36_31 
REMARK   10  A    between atoms: C36_31  and  C38_33 
REMARK   11  A    between atoms: C38_33  and  C40_34 
REMARK   12  A    between atoms: C38_33  and  N44_38 
REMARK   13  A    between atoms: C40_34  and  C41_35 
REMARK       I    between atoms: C41_35  and  N42_36 
REMARK       I    between atoms: N44_38  and  C45_39 
REMARK   14  A    between atoms: C45_39  and  C47_41 
ROOT
ATOM      1  C26 ZIN A   1      17.895   1.877  11.041  0.00  0.00     0.119 C 
ENDROOT
BRANCH   1   2
ATOM      2  C23 ZIN A   1      17.477   0.543  11.664  0.00  0.00     0.167 C 
BRANCH   2   3
ATOM      3  C22 ZIN A   1      17.708   0.592  13.175  0.00  0.00     0.269 C 
BRANCH   3   4
ATOM      4  N20 ZIN A   1      19.058   0.099  13.480  0.00  0.00    -0.055 N 
ATOM      5  C8  ZIN A   1      18.974  -1.276  13.983  0.00  0.00     0.279 C 
ATOM      6  C10 ZIN A   1      18.070  -1.321  15.218  0.00  0.00     0.048 C 
ATOM      7  C11 ZIN A   1      18.656  -0.411  16.298  0.00  0.00    -0.006 C 
ATOM      8  C17 ZIN A   1      18.792   1.007  15.734  0.00  0.00     0.016 C 
ATOM      9  C13 ZIN A   1      17.735  -0.382  17.518  0.00  0.00     0.005 C 
ATOM     10  C16 ZIN A   1      19.413   1.914  16.797  0.00  0.00     0.007 C 
ATOM     11  C19 ZIN A   1      19.679   0.969  14.490  0.00  0.00     0.241 C 
ATOM     12  C15 ZIN A   1      18.503   1.945  18.029  0.00  0.00     0.000 C 
ATOM     13  C14 ZIN A   1      18.344   0.530  18.587  0.00  0.00     0.000 C 
ATOM     14  H21 ZIN A   1      19.617   0.112  12.639  0.00  0.00     0.281 HD
BRANCH   5  15
ATOM     15  C6  ZIN A   1      18.401  -2.168  12.911  0.00  0.00     0.249 C 
ATOM     16  N5  ZIN A   1      19.215  -2.967  12.193  0.00  0.00    -0.351 N 
ATOM     17  H66 ZIN A   1      20.169  -2.969  12.367  0.00  0.00     0.163 HD
ATOM     18  O7  ZIN A   1      17.208  -2.165  12.695  0.00  0.00    -0.271 OA
BRANCH  16  19
ATOM     19  C2  ZIN A   1      18.658  -3.833  11.151  0.00  0.00     0.022 C 
ATOM     20  C1  ZIN A   1      17.907  -2.980  10.127  0.00  0.00     0.037 C 
ATOM     21  C3  ZIN A   1      17.692  -4.837  11.784  0.00  0.00     0.037 C 
ATOM     22  C4  ZIN A   1      19.793  -4.586  10.454  0.00  0.00     0.037 C 
ENDBRANCH  16  19
ENDBRANCH   5  15
ENDBRANCH   3   4
ENDBRANCH   2   3
BRANCH   2  23
ATOM     23  O25 ZIN A   1      16.094   0.307  11.400  0.00  0.00    -0.392 OA
ATOM     24  H81 ZIN A   1      15.531   0.345  12.186  0.00  0.00     0.210 HD
ENDBRANCH   2  23
ENDBRANCH   1   2
BRANCH   1  25
ATOM     25  C28 ZIN A   1      19.115   1.661  10.143  0.00  0.00     0.066 C 
BRANCH  25  26
ATOM     26  C29 ZIN A   1      18.662   1.205   8.780  0.00  0.00    -0.056 A 
ATOM     27  C34 ZIN A   1      17.644   0.278   8.665  0.00  0.00     0.007 A 
ATOM     28  C33 ZIN A   1      17.226  -0.137   7.415  0.00  0.00     0.001 A 
ATOM     29  C32 ZIN A   1      17.832   0.368   6.280  0.00  0.00     0.000 A 
ATOM     30  C31 ZIN A   1      18.854   1.292   6.396  0.00  0.00     0.001 A 
ATOM     31  C30 ZIN A   1      19.269   1.710   7.646  0.00  0.00     0.007 A 
ENDBRANCH  25  26
ENDBRANCH   1  25
BRANCH   1  32
ATOM     32  N35 ZIN A   1      18.233   2.827  12.104  0.00  0.00    -0.352 N 
ATOM     33  C36 ZIN A   1      17.566   3.994  12.201  0.00  0.00     0.241 C 
ATOM     34  O37 ZIN A   1      16.686   4.258  11.409  0.00  0.00    -0.271 OA
ATOM     35  H89 ZIN A   1      18.937   2.617  12.738  0.00  0.00     0.163 HD
BRANCH  33  36
ATOM     36  C38 ZIN A   1      17.913   4.973  13.294  0.00  0.00     0.185 C 
BRANCH  36  37
ATOM     37  C40 ZIN A   1      19.180   4.504  14.013  0.00  0.00     0.137 C 
BRANCH  37  38
ATOM     38  C41 ZIN A   1      19.691   5.608  14.902  0.00  0.00     0.217 C 
ATOM     39  N42 ZIN A   1      19.817   5.403  16.227  0.00  0.00    -0.370 N 
ATOM     40  H92 ZIN A   1      19.578   4.543  16.610  0.00  0.00     0.159 HD
ATOM     41  H93 ZIN A   1      20.145   6.114  16.800  0.00  0.00     0.159 HD
ATOM     42  O43 ZIN A   1      19.990   6.683  14.424  0.00  0.00    -0.274 OA
ENDBRANCH  37  38
ENDBRANCH  36  37
BRANCH  36  43
ATOM     43  N44 ZIN A   1      16.808   5.048  14.252  0.00  0.00    -0.342 N 
ATOM     44  C45 ZIN A   1      16.221   6.232  14.512  0.00  0.00     0.271 C 
ATOM     45  O46 ZIN A   1      16.665   7.250  14.022  0.00  0.00    -0.266 OA
ATOM     46  H94 ZIN A   1      16.498   4.244  14.700  0.00  0.00     0.163 HD
BRANCH  44  47
ATOM     47  C47 ZIN A   1      15.032   6.292  15.397  0.00  0.00     0.125 A 
ATOM     48  N56 ZIN A   1      15.201   6.283  16.705  0.00  0.00    -0.243 NA
ATOM     49  C55 ZIN A   1      14.163   6.340  17.537  0.00  0.00     0.068 A 
ATOM     50  C50 ZIN A   1      12.842   6.402  17.020  0.00  0.00    -0.007 A 
ATOM     51  C54 ZIN A   1      14.350   6.336  18.933  0.00  0.00     0.032 A 
ATOM     52  C49 ZIN A   1      12.651   6.405  15.626  0.00  0.00     0.016 A 
ATOM     53  C51 ZIN A   1      11.753   6.455  17.906  0.00  0.00     0.014 A 
ATOM     54  C48 ZIN A   1      13.753   6.350  14.823  0.00  0.00     0.038 A 
ATOM     55  C52 ZIN A   1      11.976   6.449  19.248  0.00  0.00     0.001 A 
ATOM     56  C53 ZIN A   1      13.272   6.390  19.759  0.00  0.00     0.002 A 
ENDBRANCH  44  47
ENDBRANCH  36  43
ENDBRANCH  33  36
ENDBRANCH   1  32
TORSDOF 14
ENDMDL
MODEL 8
REMARK VINA RESULT:      -9.2      3.780     10.050
REMARK  14 active torsions:
REMARK  status: ('A' for Active; 'I' for Inactive)
REMARK    1  A    between atoms: C2_2  and  N5_5 
REMARK       I    between atoms: N5_5  and  C6_6 
REMARK    2  A    between atoms: C6_6  and  C8_8 
REMARK    3  A    between atoms: N20_17  and  C22_19 
REMARK    4  A    between atoms: C22_19  and  C23_20 
REMARK    5  A    between atoms: C23_20  and  O25_21 
REMARK    6  A    between atoms: C23_20  and  C26_22 
REMARK    7  A    between atoms: C26_22  and  C28_23 
REMARK    8  A    between atoms: C26_22  and  N35_30 
REMARK    9  A    between atoms: C28_23  and  C29_24 
REMARK       I    between atoms: N35_30  and  C36_31 
REMARK   10  A    between atoms: C36_31  and  C38_33 
REMARK   11  A    between atoms: C38_33  and  C40_34 
REMARK   12  A    between atoms: C38_33  and  N44_38 
REMARK   13  A    between atoms: C40_34  and  C41_35 
REMARK       I    between atoms: C41_35  and  N42_36 
REMARK       I    between atoms: N44_38  and  C45_39 
REMARK   14  A    between atoms: C45_39  and  C47_41 
ROOT
ATOM      1  C26 ZIN A   1      18.025   1.858  10.943  0.00  0.00     0.119 C 
ENDROOT
BRANCH   1   2
ATOM      2  C23 ZIN A   1      17.347   0.778  11.790  0.00  0.00     0.167 C 
BRANCH   2   3
ATOM      3  C22 ZIN A   1      18.263  -0.443  11.887  0.00  0.00     0.269 C 
BRANCH   3   4
ATOM      4  N20 ZIN A   1      17.522  -1.565  12.478  0.00  0.00    -0.055 N 
ATOM      5  C8  ZIN A   1      18.405  -2.313  13.380  0.00  0.00     0.279 C 
ATOM      6  C10 ZIN A   1      19.637  -2.799  12.612  0.00  0.00     0.048 C 
ATOM      7  C11 ZIN A   1      19.184  -3.704  11.465  0.00  0.00    -0.006 C 
ATOM      8  C17 ZIN A   1      18.217  -2.924  10.569  0.00  0.00     0.016 C 
ATOM      9  C13 ZIN A   1      20.391  -4.148  10.638  0.00  0.00     0.005 C 
ATOM     10  C16 ZIN A   1      17.731  -3.835   9.441  0.00  0.00     0.007 C 
ATOM     11  C19 ZIN A   1      17.032  -2.445  11.407  0.00  0.00     0.241 C 
ATOM     12  C15 ZIN A   1      18.932  -4.294   8.609  0.00  0.00     0.000 C 
ATOM     13  C14 ZIN A   1      19.915  -5.056   9.500  0.00  0.00     0.000 C 
ATOM     14  H21 ZIN A   1      16.737  -1.208  13.003  0.00  0.00     0.281 HD
BRANCH   5  15
ATOM     15  C6  ZIN A   1      18.842  -1.417  14.510  0.00  0.00     0.249 C 
ATOM     16  N5  ZIN A   1      17.927  -0.906  15.358  0.00  0.00    -0.351 N 
ATOM     17  H66 ZIN A   1      16.987  -1.116  15.240  0.00  0.00     0.163 HD
ATOM     18  O7  ZIN A   1      20.017  -1.154  14.656  0.00  0.00    -0.271 OA
BRANCH  16  19
ATOM     19  C2  ZIN A   1      18.351  -0.035  16.457  0.00  0.00     0.022 C 
ATOM     20  C1  ZIN A   1      17.127   0.396  17.268  0.00  0.00     0.037 C 
ATOM     21  C3  ZIN A   1      19.046   1.204  15.887  0.00  0.00     0.037 C 
ATOM     22  C4  ZIN A   1      19.322  -0.793  17.363  0.00  0.00     0.037 C 
ENDBRANCH  16  19
ENDBRANCH   5  15
ENDBRANCH   3   4
ENDBRANCH   2   3
BRANCH   2  23
ATOM     23  O25 ZIN A   1      17.094   1.289  13.099  0.00  0.00    -0.392 OA
ATOM     24  H81 ZIN A   1      16.168   1.516  13.261  0.00  0.00     0.210 HD
ENDBRANCH   2  23
ENDBRANCH   1   2
BRANCH   1  25
ATOM     25  C28 ZIN A   1      19.183   1.238  10.159  0.00  0.00     0.066 C 
BRANCH  25  26
ATOM     26  C29 ZIN A   1      18.742   0.967   8.743  0.00  0.00    -0.056 A 
ATOM     27  C34 ZIN A   1      17.722   0.066   8.498  0.00  0.00     0.007 A 
ATOM     28  C33 ZIN A   1      17.316  -0.179   7.200  0.00  0.00     0.001 A 
ATOM     29  C32 ZIN A   1      17.935   0.468   6.147  0.00  0.00     0.000 A 
ATOM     30  C31 ZIN A   1      18.959   1.364   6.392  0.00  0.00     0.001 A 
ATOM     31  C30 ZIN A   1      19.362   1.613   7.690  0.00  0.00     0.007 A 
ENDBRANCH  25  26
ENDBRANCH   1  25
BRANCH   1  32
ATOM     32  N35 ZIN A   1      18.539   2.914  11.820  0.00  0.00    -0.352 N 
ATOM     33  C36 ZIN A   1      17.797   4.015  12.053  0.00  0.00     0.241 C 
ATOM     34  O37 ZIN A   1      16.705   4.131  11.539  0.00  0.00    -0.271 OA
ATOM     35  H89 ZIN A   1      19.412   2.821  12.231  0.00  0.00     0.163 HD
BRANCH  33  36
ATOM     36  C38 ZIN A   1      18.325   5.102  12.954  0.00  0.00     0.185 C 
BRANCH  36  37
ATOM     37  C40 ZIN A   1      19.772   4.786  13.340  0.00  0.00     0.137 C 
BRANCH  37  38
ATOM     38  C41 ZIN A   1      20.174   5.631  14.521  0.00  0.00     0.217 C 
ATOM     39  N42 ZIN A   1      20.626   5.045  15.646  0.00  0.00    -0.370 N 
ATOM     40  H92 ZIN A   1      20.693   4.078  15.696  0.00  0.00     0.159 HD
ATOM     41  H93 ZIN A   1      20.884   5.588  16.407  0.00  0.00     0.159 HD
ATOM     42  O43 ZIN A   1      20.090   6.840  14.458  0.00  0.00    -0.274 OA
ENDBRANCH  37  38
ENDBRANCH  36  37
BRANCH  36  43
ATOM     43  N44 ZIN A   1      17.503   5.177  14.164  0.00  0.00    -0.342 N 
ATOM     44  C45 ZIN A   1      16.704   6.241  14.371  0.00  0.00     0.271 C 
ATOM     45  O46 ZIN A   1      16.731   7.180  13.601  0.00  0.00    -0.266 OA
ATOM     46  H94 ZIN A   1      17.534   4.459  14.817  0.00  0.00     0.163 HD
BRANCH  44  47
ATOM     47  C47 ZIN A   1      15.790   6.266  15.539  0.00  0.00     0.125 A 
ATOM     48  N56 ZIN A   1      16.260   5.956  16.732  0.00  0.00    -0.243 NA
ATOM     49  C55 ZIN A   1      15.477   5.970  17.810  0.00  0.00     0.068 A 
ATOM     50  C50 ZIN A   1      14.105   6.313  17.684  0.00  0.00    -0.007 A 
ATOM     51  C54 ZIN A   1      15.987   5.643  19.081  0.00  0.00     0.032 A 
ATOM     52  C49 ZIN A   1      13.593   6.639  16.415  0.00  0.00     0.016 A 
ATOM     53  C51 ZIN A   1      13.286   6.319  18.825  0.00  0.00     0.014 A 
ATOM     54  C48 ZIN A   1      14.444   6.613  15.349  0.00  0.00     0.038 A 
ATOM     55  C52 ZIN A   1      13.816   5.997  20.037  0.00  0.00     0.001 A 
ATOM     56  C53 ZIN A   1      15.163   5.660  20.163  0.00  0.00     0.002 A 
ENDBRANCH  44  47
ENDBRANCH  36  43
ENDBRANCH  33  36
ENDBRANCH   1  32
TORSDOF 14
ENDMDL
MODEL 9
REMARK VINA RESULT:      -8.7      2.179      5.364
REMARK  14 active torsions:
REMARK  status: ('A' for Active; 'I' for Inactive)
REMARK    1  A    between atoms: C2_2  and  N5_5 
REMARK       I    between atoms: N5_5  and  C6_6 
REMARK    2  A    between atoms: C6_6  and  C8_8 
REMARK    3  A    between atoms: N20_17  and  C22_19 
REMARK    4  A    between atoms: C22_19  and  C23_20 
REMARK    5  A    between atoms: C23_20  and  O25_21 
REMARK    6  A    between atoms: C23_20  and  C26_22 
REMARK    7  A    between atoms: C26_22  and  C28_23 
REMARK    8  A    between atoms: C26_22  and  N35_30 
REMARK    9  A    between atoms: C28_23  and  C29_24 
REMARK       I    between atoms: N35_30  and  C36_31 
REMARK   10  A    between atoms: C36_31  and  C38_33 
REMARK   11  A    between atoms: C38_33  and  C40_34 
REMARK   12  A    between atoms: C38_33  and  N44_38 
REMARK   13  A    between atoms: C40_34  and  C41_35 
REMARK       I    between atoms: C41_35  and  N42_36 
REMARK       I    between atoms: N44_38  and  C45_39 
REMARK   14  A    between atoms: C45_39  and  C47_41 
ROOT
ATOM      1  C26 ZIN A   1      19.575  -0.225   9.536  0.00  0.00     0.119 C 
ENDROOT
BRANCH   1   2
ATOM      2  C23 ZIN A   1      20.404   0.418  10.650  0.00  0.00     0.167 C 
BRANCH   2   3
ATOM      3  C22 ZIN A   1      19.490   0.781  11.820  0.00  0.00     0.269 C 
BRANCH   3   4
ATOM      4  N20 ZIN A   1      20.119   1.838  12.624  0.00  0.00    -0.055 N 
ATOM      5  C8  ZIN A   1      19.304   2.095  13.816  0.00  0.00     0.279 C 
ATOM      6  C10 ZIN A   1      17.883   2.482  13.399  0.00  0.00     0.048 C 
ATOM      7  C11 ZIN A   1      17.942   3.741  12.533  0.00  0.00    -0.006 C 
ATOM      8  C17 ZIN A   1      18.845   3.471  11.325  0.00  0.00     0.016 C 
ATOM      9  C13 ZIN A   1      16.542   4.109  12.044  0.00  0.00     0.005 C 
ATOM     10  C16 ZIN A   1      18.939   4.738  10.473  0.00  0.00     0.007 C 
ATOM     11  C19 ZIN A   1      20.233   3.062  11.817  0.00  0.00     0.241 C 
ATOM     12  C15 ZIN A   1      17.540   5.122   9.984  0.00  0.00     0.000 C 
ATOM     13  C14 ZIN A   1      16.625   5.373  11.184  0.00  0.00     0.000 C 
ATOM     14  H21 ZIN A   1      21.040   1.539  12.908  0.00  0.00     0.281 HD
BRANCH   5  15
ATOM     15  C6  ZIN A   1      19.256   0.853  14.668  0.00  0.00     0.249 C 
ATOM     16  N5  ZIN A   1      18.388   0.773  15.696  0.00  0.00    -0.351 N 
ATOM     17  H66 ZIN A   1      17.794   1.516  15.887  0.00  0.00     0.163 HD
ATOM     18  O7  ZIN A   1      19.999  -0.075  14.428  0.00  0.00    -0.271 OA
BRANCH  16  19
ATOM     19  C2  ZIN A   1      18.341  -0.435  16.523  0.00  0.00     0.022 C 
ATOM     20  C1  ZIN A   1      19.231  -0.245  17.754  0.00  0.00     0.037 C 
ATOM     21  C3  ZIN A   1      18.843  -1.630  15.711  0.00  0.00     0.037 C 
ATOM     22  C4  ZIN A   1      16.901  -0.691  16.970  0.00  0.00     0.037 C 
ENDBRANCH  16  19
ENDBRANCH   5  15
ENDBRANCH   3   4
ENDBRANCH   2   3
BRANCH   2  23
ATOM     23  O25 ZIN A   1      21.403  -0.502  11.092  0.00  0.00    -0.392 OA
ATOM     24  H81 ZIN A   1      22.301  -0.144  11.083  0.00  0.00     0.210 HD
ENDBRANCH   2  23
ENDBRANCH   1   2
BRANCH   1  25
ATOM     25  C28 ZIN A   1      18.612   0.811   8.953  0.00  0.00     0.066 C 
BRANCH  25  26
ATOM     26  C29 ZIN A   1      18.399   0.530   7.488  0.00  0.00    -0.056 A 
ATOM     27  C34 ZIN A   1      17.228  -0.069   7.063  0.00  0.00     0.007 A 
ATOM     28  C33 ZIN A   1      17.030  -0.322   5.719  0.00  0.00     0.001 A 
ATOM     29  C32 ZIN A   1      18.007   0.016   4.800  0.00  0.00     0.000 A 
ATOM     30  C31 ZIN A   1      19.180   0.610   5.226  0.00  0.00     0.001 A 
ATOM     31  C30 ZIN A   1      19.376   0.868   6.570  0.00  0.00     0.007 A 
ENDBRANCH  25  26
ENDBRANCH   1  25
BRANCH   1  32
ATOM     32  N35 ZIN A   1      18.810  -1.349  10.084  0.00  0.00    -0.352 N 
ATOM     33  C36 ZIN A   1      18.712  -2.499   9.388  0.00  0.00     0.241 C 
ATOM     34  O37 ZIN A   1      19.256  -2.605   8.310  0.00  0.00    -0.271 OA
ATOM     35  H89 ZIN A   1      18.374  -1.265  10.947  0.00  0.00     0.163 HD
BRANCH  33  36
ATOM     36  C38 ZIN A   1      17.925  -3.655   9.952  0.00  0.00     0.185 C 
BRANCH  36  37
ATOM     37  C40 ZIN A   1      18.867  -4.589  10.715  0.00  0.00     0.137 C 
BRANCH  37  38
ATOM     38  C41 ZIN A   1      19.715  -3.782  11.664  0.00  0.00     0.217 C 
ATOM     39  N42 ZIN A   1      21.052  -3.743  11.506  0.00  0.00    -0.370 N 
ATOM     40  H92 ZIN A   1      21.469  -4.235  10.781  0.00  0.00     0.159 HD
ATOM     41  H93 ZIN A   1      21.598  -3.223  12.117  0.00  0.00     0.159 HD
ATOM     42  O43 ZIN A   1      19.192  -3.166  12.570  0.00  0.00    -0.274 OA
ENDBRANCH  37  38
ENDBRANCH  36  37
BRANCH  36  43
ATOM     43  N44 ZIN A   1      17.287  -4.392   8.858  0.00  0.00    -0.342 N 
ATOM     44  C45 ZIN A   1      16.239  -5.199   9.110  0.00  0.00     0.271 C 
ATOM     45  O46 ZIN A   1      15.878  -5.386  10.254  0.00  0.00    -0.266 OA
ATOM     46  H94 ZIN A   1      17.621  -4.298   7.951  0.00  0.00     0.163 HD
BRANCH  44  47
ATOM     47  C47 ZIN A   1      15.525  -5.858   7.990  0.00  0.00     0.125 A 
ATOM     48  N56 ZIN A   1      16.191  -6.172   6.895  0.00  0.00    -0.243 NA
ATOM     49  C55 ZIN A   1      15.592  -6.769   5.867  0.00  0.00     0.068 A 
ATOM     50  C50 ZIN A   1      14.206  -7.071   5.932  0.00  0.00    -0.007 A 
ATOM     51  C54 ZIN A   1      16.311  -7.106   4.704  0.00  0.00     0.032 A 
ATOM     52  C49 ZIN A   1      13.485  -6.734   7.092  0.00  0.00     0.016 A 
ATOM     53  C51 ZIN A   1      13.582  -7.695   4.839  0.00  0.00     0.014 A 
ATOM     54  C48 ZIN A   1      14.154  -6.129   8.116  0.00  0.00     0.038 A 
ATOM     55  C52 ZIN A   1      14.311  -8.004   3.733  0.00  0.00     0.001 A 
ATOM     56  C53 ZIN A   1      15.673  -7.710   3.667  0.00  0.00     0.002 A 
ENDBRANCH  44  47
ENDBRANCH  36  43
ENDBRANCH  33  36
ENDBRANCH   1  32
TORSDOF 14
ENDMDL
