MODEL 1
REMARK VINA RESULT:      -9.9      0.000      0.000
REMARK  10 active torsions:
REMARK  status: ('A' for Active; 'I' for Inactive)
REMARK    1  A    between atoms: C2_2  and  O3_3 
REMARK    2  A    between atoms: O3_3  and  C4_4 
REMARK    3  A    between atoms: C10_10  and  C11_11 
REMARK    4  A    between atoms: C11_11  and  O13_13 
REMARK    5  A    between atoms: O13_13  and  C14_14 
REMARK    6  A    between atoms: C14_14  and  C15_15 
REMARK    7  A    between atoms: N23_23  and  C24_24 
REMARK    8  A    between atoms: C24_24  and  C25_25 
REMARK    9  A    between atoms: C28_28  and  C29_29 
REMARK   10  A    between atoms: C34_34  and  C35_35 
ROOT
ATOM      1  C4  ZIN A   1      18.935   2.802   9.748  0.00  0.00     0.249 A 
ATOM      2  N5  ZIN A   1      18.042   3.723   9.497  0.00  0.00    -0.206 NA
ATOM      3  C6  ZIN A   1      17.569   4.227  10.669  0.00  0.00     0.089 A 
ATOM      4  C7  ZIN A   1      16.626   5.209  10.979  0.00  0.00     0.034 A 
ATOM      5  C8  ZIN A   1      16.350   5.513  12.296  0.00  0.00     0.003 A 
ATOM      6  C9  ZIN A   1      16.999   4.854  13.324  0.00  0.00     0.020 A 
ATOM      7  C10 ZIN A   1      17.946   3.868  13.040  0.00  0.00     0.068 A 
ATOM      8  C22 ZIN A   1      18.234   3.552  11.705  0.00  0.00     0.083 A 
ATOM      9  N23 ZIN A   1      19.086   2.655  11.097  0.00  0.00    -0.304 N 
ENDROOT
BRANCH   9  10
ATOM     10  C24 ZIN A   1      19.987   1.719  11.773  0.00  0.00     0.171 C 
BRANCH  10  11
ATOM     11  C25 ZIN A   1      19.499   0.309  11.561  0.00  0.00    -0.040 A 
ATOM     12  C42 ZIN A   1      20.399  -0.689  11.232  0.00  0.00     0.010 A 
ATOM     13  C41 ZIN A   1      19.958  -1.983  11.041  0.00  0.00     0.013 A 
ATOM     14  C28 ZIN A   1      18.603  -2.281  11.169  0.00  0.00    -0.025 A 
ATOM     15  C27 ZIN A   1      17.700  -1.269  11.495  0.00  0.00     0.013 A 
ATOM     16  C26 ZIN A   1      18.152   0.019  11.689  0.00  0.00     0.010 A 
BRANCH  14  17
ATOM     17  C29 ZIN A   1      18.123  -3.667  10.959  0.00  0.00    -0.012 A 
ATOM     18  C34 ZIN A   1      17.976  -4.175   9.655  0.00  0.00     0.025 A 
ATOM     19  C33 ZIN A   1      17.529  -5.483   9.473  0.00  0.00     0.016 A 
ATOM     20  C32 ZIN A   1      17.222  -6.266  10.567  0.00  0.00     0.001 A 
ATOM     21  C31 ZIN A   1      17.362  -5.763  11.850  0.00  0.00     0.001 A 
ATOM     22  C30 ZIN A   1      17.809  -4.472  12.050  0.00  0.00     0.013 A 
BRANCH  18  23
ATOM     23  C35 ZIN A   1      18.305  -3.333   8.489  0.00  0.00     0.193 A 
ATOM     24  N40 ZIN A   1      17.680  -2.198   8.120  0.00  0.00    -0.102 NA
ATOM     25  O39 ZIN A   1      18.197  -1.746   7.120  0.00  0.00    -0.152 OA
ATOM     26  C37 ZIN A   1      19.203  -2.544   6.729  0.00  0.00     0.412 A 
ATOM     27  N36 ZIN A   1      19.270  -3.555   7.604  0.00  0.00    -0.163 NA
ATOM     28  O38 ZIN A   1      19.923  -2.377   5.758  0.00  0.00    -0.234 OA
ENDBRANCH  18  23
ENDBRANCH  14  17
ENDBRANCH  10  11
ENDBRANCH   9  10
BRANCH   1  29
ATOM     29  O3  ZIN A   1      19.606   2.094   8.811  0.00  0.00    -0.321 OA
BRANCH  29  30
ATOM     30  C2  ZIN A   1      18.844   1.179   8.021  0.00  0.00     0.174 C 
ATOM     31  C1  ZIN A   1      19.116   1.436   6.537  0.00  0.00     0.034 C 
ENDBRANCH  29  30
ENDBRANCH   1  29
BRANCH   7  32
ATOM     32  C11 ZIN A   1      18.638   3.166  14.135  0.00  0.00     0.296 C 
ATOM     33  O12 ZIN A   1      19.547   3.711  14.728  0.00  0.00    -0.259 OA
BRANCH  32  34
ATOM     34  O13 ZIN A   1      18.263   1.917  14.476  0.00  0.00    -0.311 OA
BRANCH  34  35
ATOM     35  C14 ZIN A   1      19.214   1.129  15.241  0.00  0.00     0.247 C 
BRANCH  35  36
ATOM     36  C15 ZIN A   1      18.673   0.896  16.628  0.00  0.00     0.112 A 
ATOM     37  O21 ZIN A   1      18.096   1.830  17.425  0.00  0.00    -0.255 OA
ATOM     38  C19 ZIN A   1      17.745   1.232  18.574  0.00  0.00     0.416 A 
ATOM     39  O18 ZIN A   1      18.109  -0.058  18.493  0.00  0.00    -0.257 OA
ATOM     40  O20 ZIN A   1      17.200   1.765  19.521  0.00  0.00    -0.229 OA
ATOM     41  C16 ZIN A   1      18.684  -0.255  17.282  0.00  0.00     0.087 A 
ATOM     42  C17 ZIN A   1      19.240  -1.557  16.768  0.00  0.00     0.079 C 
ENDBRANCH  35  36
ENDBRANCH  34  35
ENDBRANCH  32  34
ENDBRANCH   7  32
TORSDOF 10
ENDMDL
MODEL 2
REMARK VINA RESULT:      -9.3      2.803      8.201
REMARK  10 active torsions:
REMARK  status: ('A' for Active; 'I' for Inactive)
REMARK    1  A    between atoms: C2_2  and  O3_3 
REMARK    2  A    between atoms: O3_3  and  C4_4 
REMARK    3  A    between atoms: C10_10  and  C11_11 
REMARK    4  A    between atoms: C11_11  and  O13_13 
REMARK    5  A    between atoms: O13_13  and  C14_14 
REMARK    6  A    between atoms: C14_14  and  C15_15 
REMARK    7  A    between atoms: N23_23  and  C24_24 
REMARK    8  A    between atoms: C24_24  and  C25_25 
REMARK    9  A    between atoms: C28_28  and  C29_29 
REMARK   10  A    between atoms: C34_34  and  C35_35 
ROOT
ATOM      1  C4  ZIN A   1      18.889  -1.656   5.536  0.00  0.00     0.249 A 
ATOM      2  N5  ZIN A   1      18.372  -1.921   4.366  0.00  0.00    -0.206 NA
ATOM      3  C6  ZIN A   1      18.002  -3.229   4.318  0.00  0.00     0.089 A 
ATOM      4  C7  ZIN A   1      17.412  -4.023   3.333  0.00  0.00     0.034 A 
ATOM      5  C8  ZIN A   1      17.149  -5.355   3.582  0.00  0.00     0.003 A 
ATOM      6  C9  ZIN A   1      17.464  -5.920   4.804  0.00  0.00     0.020 A 
ATOM      7  C10 ZIN A   1      18.055  -5.147   5.805  0.00  0.00     0.068 A 
ATOM      8  C22 ZIN A   1      18.326  -3.793   5.562  0.00  0.00     0.083 A 
ATOM      9  N23 ZIN A   1      18.889  -2.781   6.309  0.00  0.00    -0.304 N 
ENDROOT
BRANCH   9  10
ATOM     10  C24 ZIN A   1      19.391  -2.892   7.681  0.00  0.00     0.171 C 
BRANCH  10  11
ATOM     11  C25 ZIN A   1      19.054  -1.635   8.442  0.00  0.00    -0.040 A 
ATOM     12  C42 ZIN A   1      20.069  -0.859   8.974  0.00  0.00     0.010 A 
ATOM     13  C41 ZIN A   1      19.767   0.294   9.669  0.00  0.00     0.013 A 
ATOM     14  C28 ZIN A   1      18.436   0.672   9.843  0.00  0.00    -0.025 A 
ATOM     15  C27 ZIN A   1      17.418  -0.117   9.309  0.00  0.00     0.013 A 
ATOM     16  C26 ZIN A   1      17.732  -1.266   8.613  0.00  0.00     0.010 A 
BRANCH  14  17
ATOM     17  C29 ZIN A   1      18.105   1.906  10.593  0.00  0.00    -0.012 A 
ATOM     18  C34 ZIN A   1      18.000   1.875  11.996  0.00  0.00     0.025 A 
ATOM     19  C33 ZIN A   1      17.693   3.045  12.689  0.00  0.00     0.016 A 
ATOM     20  C32 ZIN A   1      17.484   4.221  11.998  0.00  0.00     0.001 A 
ATOM     21  C31 ZIN A   1      17.583   4.249  10.617  0.00  0.00     0.001 A 
ATOM     22  C30 ZIN A   1      17.891   3.102   9.914  0.00  0.00     0.013 A 
BRANCH  18  23
ATOM     23  C35 ZIN A   1      18.224   0.614  12.730  0.00  0.00     0.193 A 
ATOM     24  N40 ZIN A   1      17.324  -0.369  12.925  0.00  0.00    -0.102 NA
ATOM     25  O39 ZIN A   1      17.826  -1.270  13.564  0.00  0.00    -0.152 OA
ATOM     26  C37 ZIN A   1      19.099  -0.964  13.857  0.00  0.00     0.412 A 
ATOM     27  N36 ZIN A   1      19.351   0.239  13.324  0.00  0.00    -0.163 NA
ATOM     28  O38 ZIN A   1      19.881  -1.652  14.492  0.00  0.00    -0.234 OA
ENDBRANCH  18  23
ENDBRANCH  14  17
ENDBRANCH  10  11
ENDBRANCH   9  10
BRANCH   1  29
ATOM     29  O3  ZIN A   1      19.361  -0.449   5.923  0.00  0.00    -0.321 OA
BRANCH  29  30
ATOM     30  C2  ZIN A   1      18.537   0.686   5.651  0.00  0.00     0.174 C 
ATOM     31  C1  ZIN A   1      18.972   1.856   6.537  0.00  0.00     0.034 C 
ENDBRANCH  29  30
ENDBRANCH   1  29
BRANCH   7  32
ATOM     32  C11 ZIN A   1      18.391  -5.748   7.108  0.00  0.00     0.296 C 
ATOM     33  O12 ZIN A   1      19.468  -6.286   7.269  0.00  0.00    -0.259 OA
BRANCH  32  34
ATOM     34  O13 ZIN A   1      17.501  -5.704   8.119  0.00  0.00    -0.311 OA
BRANCH  34  35
ATOM     35  C14 ZIN A   1      17.883  -6.351   9.362  0.00  0.00     0.247 C 
BRANCH  35  36
ATOM     36  C15 ZIN A   1      18.457  -5.326  10.306  0.00  0.00     0.112 A 
ATOM     37  O21 ZIN A   1      19.759  -4.958  10.386  0.00  0.00    -0.255 OA
ATOM     38  C19 ZIN A   1      19.866  -4.022  11.342  0.00  0.00     0.416 A 
ATOM     39  O18 ZIN A   1      18.642  -3.819  11.856  0.00  0.00    -0.257 OA
ATOM     40  O20 ZIN A   1      20.889  -3.463  11.685  0.00  0.00    -0.229 OA
ATOM     41  C16 ZIN A   1      17.776  -4.634  11.206  0.00  0.00     0.087 A 
ATOM     42  C17 ZIN A   1      16.295  -4.734  11.463  0.00  0.00     0.079 C 
ENDBRANCH  35  36
ENDBRANCH  34  35
ENDBRANCH  32  34
ENDBRANCH   7  32
TORSDOF 10
ENDMDL
MODEL 3
REMARK VINA RESULT:      -9.1      2.910      9.130
REMARK  10 active torsions:
REMARK  status: ('A' for Active; 'I' for Inactive)
REMARK    1  A    between atoms: C2_2  and  O3_3 
REMARK    2  A    between atoms: O3_3  and  C4_4 
REMARK    3  A    between atoms: C10_10  and  C11_11 
REMARK    4  A    between atoms: C11_11  and  O13_13 
REMARK    5  A    between atoms: O13_13  and  C14_14 
REMARK    6  A    between atoms: C14_14  and  C15_15 
REMARK    7  A    between atoms: N23_23  and  C24_24 
REMARK    8  A    between atoms: C24_24  and  C25_25 
REMARK    9  A    between atoms: C28_28  and  C29_29 
REMARK   10  A    between atoms: C34_34  and  C35_35 
ROOT
ATOM      1  C4  ZIN A   1      18.342  -1.531   7.870  0.00  0.00     0.249 A 
ATOM      2  N5  ZIN A   1      19.159  -1.980   6.954  0.00  0.00    -0.206 NA
ATOM      3  C6  ZIN A   1      19.608  -3.213   7.311  0.00  0.00     0.089 A 
ATOM      4  C7  ZIN A   1      20.478  -4.127   6.713  0.00  0.00     0.034 A 
ATOM      5  C8  ZIN A   1      20.749  -5.332   7.330  0.00  0.00     0.003 A 
ATOM      6  C9  ZIN A   1      20.166  -5.650   8.542  0.00  0.00     0.020 A 
ATOM      7  C10 ZIN A   1      19.293  -4.753   9.160  0.00  0.00     0.068 A 
ATOM      8  C22 ZIN A   1      19.011  -3.527   8.542  0.00  0.00     0.083 A 
ATOM      9  N23 ZIN A   1      18.222  -2.447   8.874  0.00  0.00    -0.304 N 
ENDROOT
BRANCH   9  10
ATOM     10  C24 ZIN A   1      17.403  -2.309  10.081  0.00  0.00     0.171 C 
BRANCH  10  11
ATOM     11  C25 ZIN A   1      17.775  -1.036  10.798  0.00  0.00    -0.040 A 
ATOM     12  C42 ZIN A   1      19.077  -0.838  11.221  0.00  0.00     0.010 A 
ATOM     13  C41 ZIN A   1      19.423   0.327  11.873  0.00  0.00     0.013 A 
ATOM     14  C28 ZIN A   1      18.456   1.301  12.115  0.00  0.00    -0.025 A 
ATOM     15  C27 ZIN A   1      17.144   1.094  11.691  0.00  0.00     0.013 A 
ATOM     16  C26 ZIN A   1      16.810  -0.073  11.035  0.00  0.00     0.010 A 
BRANCH  14  17
ATOM     17  C29 ZIN A   1      18.821   2.553  12.821  0.00  0.00    -0.012 A 
ATOM     18  C34 ZIN A   1      18.823   2.596  14.227  0.00  0.00     0.025 A 
ATOM     19  C33 ZIN A   1      19.174   3.779  14.878  0.00  0.00     0.016 A 
ATOM     20  C32 ZIN A   1      19.504   4.899  14.142  0.00  0.00     0.001 A 
ATOM     21  C31 ZIN A   1      19.496   4.856  12.758  0.00  0.00     0.001 A 
ATOM     22  C30 ZIN A   1      19.157   3.692  12.097  0.00  0.00     0.013 A 
BRANCH  18  23
ATOM     23  C35 ZIN A   1      18.469   1.395  15.009  0.00  0.00     0.193 A 
ATOM     24  N40 ZIN A   1      17.225   0.987  15.329  0.00  0.00    -0.102 NA
ATOM     25  O39 ZIN A   1      17.279  -0.039  15.973  0.00  0.00    -0.152 OA
ATOM     26  C37 ZIN A   1      18.560  -0.399  16.148  0.00  0.00     0.412 A 
ATOM     27  N36 ZIN A   1      19.317   0.518  15.531  0.00  0.00    -0.163 NA
ATOM     28  O38 ZIN A   1      18.959  -1.379  16.755  0.00  0.00    -0.234 OA
ENDBRANCH  18  23
ENDBRANCH  14  17
ENDBRANCH  10  11
ENDBRANCH   9  10
BRANCH   1  29
ATOM     29  O3  ZIN A   1      17.714  -0.334   7.832  0.00  0.00    -0.321 OA
BRANCH  29  30
ATOM     30  C2  ZIN A   1      18.437   0.760   7.265  0.00  0.00     0.174 C 
ATOM     31  C1  ZIN A   1      18.976   1.652   8.386  0.00  0.00     0.034 C 
ENDBRANCH  29  30
ENDBRANCH   1  29
BRANCH   7  32
ATOM     32  C11 ZIN A   1      18.671  -5.092  10.453  0.00  0.00     0.296 C 
ATOM     33  O12 ZIN A   1      19.050  -4.549  11.471  0.00  0.00    -0.259 OA
BRANCH  32  34
ATOM     34  O13 ZIN A   1      17.683  -6.007  10.505  0.00  0.00    -0.311 OA
BRANCH  34  35
ATOM     35  C14 ZIN A   1      16.523  -5.774   9.662  0.00  0.00     0.247 C 
BRANCH  35  36
ATOM     36  C15 ZIN A   1      16.511  -6.777   8.537  0.00  0.00     0.112 A 
ATOM     37  O21 ZIN A   1      17.553  -7.552   8.150  0.00  0.00    -0.255 OA
ATOM     38  C19 ZIN A   1      17.144  -8.311   7.121  0.00  0.00     0.416 A 
ATOM     39  O18 ZIN A   1      15.862  -8.002   6.868  0.00  0.00    -0.257 OA
ATOM     40  O20 ZIN A   1      17.816  -9.128   6.522  0.00  0.00    -0.229 OA
ATOM     41  C16 ZIN A   1      15.480  -7.049   7.752  0.00  0.00     0.087 A 
ATOM     42  C17 ZIN A   1      14.118  -6.410   7.829  0.00  0.00     0.079 C 
ENDBRANCH  35  36
ENDBRANCH  34  35
ENDBRANCH  32  34
ENDBRANCH   7  32
TORSDOF 10
ENDMDL
MODEL 4
REMARK VINA RESULT:      -9.0      2.372      7.604
REMARK  10 active torsions:
REMARK  status: ('A' for Active; 'I' for Inactive)
REMARK    1  A    between atoms: C2_2  and  O3_3 
REMARK    2  A    between atoms: O3_3  and  C4_4 
REMARK    3  A    between atoms: C10_10  and  C11_11 
REMARK    4  A    between atoms: C11_11  and  O13_13 
REMARK    5  A    between atoms: O13_13  and  C14_14 
REMARK    6  A    between atoms: C14_14  and  C15_15 
REMARK    7  A    between atoms: N23_23  and  C24_24 
REMARK    8  A    between atoms: C24_24  and  C25_25 
REMARK    9  A    between atoms: C28_28  and  C29_29 
REMARK   10  A    between atoms: C34_34  and  C35_35 
ROOT
ATOM      1  C4  ZIN A   1      18.891   1.087   8.252  0.00  0.00     0.249 A 
ATOM      2  N5  ZIN A   1      18.043   1.298   7.282  0.00  0.00    -0.206 NA
ATOM      3  C6  ZIN A   1      17.892   0.158   6.555  0.00  0.00     0.089 A 
ATOM      4  C7  ZIN A   1      17.125  -0.171   5.435  0.00  0.00     0.034 A 
ATOM      5  C8  ZIN A   1      17.181  -1.445   4.907  0.00  0.00     0.003 A 
ATOM      6  C9  ZIN A   1      17.993  -2.410   5.476  0.00  0.00     0.020 A 
ATOM      7  C10 ZIN A   1      18.769  -2.105   6.595  0.00  0.00     0.068 A 
ATOM      8  C22 ZIN A   1      18.719  -0.815   7.139  0.00  0.00     0.083 A 
ATOM      9  N23 ZIN A   1      19.342  -0.201   8.205  0.00  0.00    -0.304 N 
ENDROOT
BRANCH   9  10
ATOM     10  C24 ZIN A   1      20.307  -0.817   9.118  0.00  0.00     0.171 C 
BRANCH  10  11
ATOM     11  C25 ZIN A   1      19.793  -0.722  10.531  0.00  0.00    -0.040 A 
ATOM     12  C42 ZIN A   1      20.592  -0.175  11.520  0.00  0.00     0.010 A 
ATOM     13  C41 ZIN A   1      20.125  -0.082  12.815  0.00  0.00     0.013 A 
ATOM     14  C28 ZIN A   1      18.850  -0.550  13.129  0.00  0.00    -0.025 A 
ATOM     15  C27 ZIN A   1      18.052  -1.105  12.130  0.00  0.00     0.013 A 
ATOM     16  C26 ZIN A   1      18.527  -1.189  10.837  0.00  0.00     0.010 A 
BRANCH  14  17
ATOM     17  C29 ZIN A   1      18.345  -0.458  14.519  0.00  0.00    -0.012 A 
ATOM     18  C34 ZIN A   1      18.021   0.794  15.073  0.00  0.00     0.025 A 
ATOM     19  C33 ZIN A   1      17.542   0.864  16.381  0.00  0.00     0.016 A 
ATOM     20  C32 ZIN A   1      17.399  -0.289  17.126  0.00  0.00     0.001 A 
ATOM     21  C31 ZIN A   1      17.723  -1.520  16.581  0.00  0.00     0.001 A 
ATOM     22  C30 ZIN A   1      18.193  -1.609  15.286  0.00  0.00     0.013 A 
BRANCH  18  23
ATOM     23  C35 ZIN A   1      18.176   2.023  14.272  0.00  0.00     0.193 A 
ATOM     24  N40 ZIN A   1      17.297   2.508  13.372  0.00  0.00    -0.102 NA
ATOM     25  O39 ZIN A   1      17.721   3.537  12.891  0.00  0.00    -0.152 OA
ATOM     26  C37 ZIN A   1      18.922   3.824  13.418  0.00  0.00     0.412 A 
ATOM     27  N36 ZIN A   1      19.209   2.857  14.299  0.00  0.00    -0.163 NA
ATOM     28  O38 ZIN A   1      19.620   4.787  13.146  0.00  0.00    -0.234 OA
ENDBRANCH  18  23
ENDBRANCH  14  17
ENDBRANCH  10  11
ENDBRANCH   9  10
BRANCH   1  29
ATOM     29  O3  ZIN A   1      19.272   2.009   9.166  0.00  0.00    -0.321 OA
BRANCH  29  30
ATOM     30  C2  ZIN A   1      18.241   2.594   9.965  0.00  0.00     0.174 C 
ATOM     31  C1  ZIN A   1      18.132   4.086   9.642  0.00  0.00     0.034 C 
ENDBRANCH  29  30
ENDBRANCH   1  29
BRANCH   7  32
ATOM     32  C11 ZIN A   1      19.634  -3.133   7.201  0.00  0.00     0.296 C 
ATOM     33  O12 ZIN A   1      20.580  -3.575   6.580  0.00  0.00    -0.259 OA
BRANCH  32  34
ATOM     34  O13 ZIN A   1      19.374  -3.584   8.444  0.00  0.00    -0.311 OA
BRANCH  34  35
ATOM     35  C14 ZIN A   1      19.116  -5.006   8.589  0.00  0.00     0.247 C 
BRANCH  35  36
ATOM     36  C15 ZIN A   1      17.674  -5.218   8.973  0.00  0.00     0.112 A 
ATOM     37  O21 ZIN A   1      16.654  -5.481   8.121  0.00  0.00    -0.255 OA
ATOM     38  C19 ZIN A   1      15.531  -5.605   8.846  0.00  0.00     0.416 A 
ATOM     39  O18 ZIN A   1      15.852  -5.412  10.136  0.00  0.00    -0.257 OA
ATOM     40  O20 ZIN A   1      14.421  -5.845   8.412  0.00  0.00    -0.229 OA
ATOM     41  C16 ZIN A   1      17.184  -5.172  10.202  0.00  0.00     0.087 A 
ATOM     42  C17 ZIN A   1      17.972  -4.899  11.458  0.00  0.00     0.079 C 
ENDBRANCH  35  36
ENDBRANCH  34  35
ENDBRANCH  32  34
ENDBRANCH   7  32
TORSDOF 10
ENDMDL
MODEL 5
REMARK VINA RESULT:      -8.9      2.405      4.310
REMARK  10 active torsions:
REMARK  status: ('A' for Active; 'I' for Inactive)
REMARK    1  A    between atoms: C2_2  and  O3_3 
REMARK    2  A    between atoms: O3_3  and  C4_4 
REMARK    3  A    between atoms: C10_10  and  C11_11 
REMARK    4  A    between atoms: C11_11  and  O13_13 
REMARK    5  A    between atoms: O13_13  and  C14_14 
REMARK    6  A    between atoms: C14_14  and  C15_15 
REMARK    7  A    between atoms: N23_23  and  C24_24 
REMARK    8  A    between atoms: C24_24  and  C25_25 
REMARK    9  A    between atoms: C28_28  and  C29_29 
REMARK   10  A    between atoms: C34_34  and  C35_35 
ROOT
ATOM      1  C4  ZIN A   1      17.063   4.763  12.855  0.00  0.00     0.249 A 
ATOM      2  N5  ZIN A   1      16.900   6.028  13.140  0.00  0.00    -0.206 NA
ATOM      3  C6  ZIN A   1      17.424   6.287  14.368  0.00  0.00     0.089 A 
ATOM      4  C7  ZIN A   1      17.522   7.444  15.144  0.00  0.00     0.034 A 
ATOM      5  C8  ZIN A   1      18.126   7.397  16.384  0.00  0.00     0.003 A 
ATOM      6  C9  ZIN A   1      18.640   6.211  16.874  0.00  0.00     0.020 A 
ATOM      7  C10 ZIN A   1      18.554   5.041  16.118  0.00  0.00     0.068 A 
ATOM      8  C22 ZIN A   1      17.944   5.078  14.857  0.00  0.00     0.083 A 
ATOM      9  N23 ZIN A   1      17.697   4.132  13.885  0.00  0.00    -0.304 N 
ENDROOT
BRANCH   9  10
ATOM     10  C24 ZIN A   1      18.053   2.712  13.947  0.00  0.00     0.171 C 
BRANCH  10  11
ATOM     11  C25 ZIN A   1      18.252   2.183  12.550  0.00  0.00    -0.040 A 
ATOM     12  C42 ZIN A   1      19.426   2.457  11.869  0.00  0.00     0.010 A 
ATOM     13  C41 ZIN A   1      19.615   1.972  10.592  0.00  0.00     0.013 A 
ATOM     14  C28 ZIN A   1      18.617   1.212   9.982  0.00  0.00    -0.025 A 
ATOM     15  C27 ZIN A   1      17.435   0.944  10.671  0.00  0.00     0.013 A 
ATOM     16  C26 ZIN A   1      17.258   1.430  11.950  0.00  0.00     0.010 A 
BRANCH  14  17
ATOM     17  C29 ZIN A   1      18.812   0.693   8.608  0.00  0.00    -0.012 A 
ATOM     18  C34 ZIN A   1      18.915  -0.691   8.382  0.00  0.00     0.025 A 
ATOM     19  C33 ZIN A   1      19.092  -1.165   7.083  0.00  0.00     0.016 A 
ATOM     20  C32 ZIN A   1      19.178  -0.276   6.030  0.00  0.00     0.001 A 
ATOM     21  C31 ZIN A   1      19.082   1.086   6.255  0.00  0.00     0.001 A 
ATOM     22  C30 ZIN A   1      18.900   1.574   7.533  0.00  0.00     0.013 A 
BRANCH  18  23
ATOM     23  C35 ZIN A   1      18.822  -1.637   9.512  0.00  0.00     0.193 A 
ATOM     24  N40 ZIN A   1      19.784  -1.894  10.420  0.00  0.00    -0.102 NA
ATOM     25  O39 ZIN A   1      19.389  -2.717  11.219  0.00  0.00    -0.152 OA
ATOM     26  C37 ZIN A   1      18.137  -3.086  10.910  0.00  0.00     0.412 A 
ATOM     27  N36 ZIN A   1      17.777  -2.396   9.820  0.00  0.00    -0.163 NA
ATOM     28  O38 ZIN A   1      17.453  -3.899  11.510  0.00  0.00    -0.234 OA
ENDBRANCH  18  23
ENDBRANCH  14  17
ENDBRANCH  10  11
ENDBRANCH   9  10
BRANCH   1  29
ATOM     29  O3  ZIN A   1      16.658   4.165  11.710  0.00  0.00    -0.321 OA
BRANCH  29  30
ATOM     30  C2  ZIN A   1      16.546   4.994  10.551  0.00  0.00     0.174 C 
ATOM     31  C1  ZIN A   1      17.846   4.925   9.748  0.00  0.00     0.034 C 
ENDBRANCH  29  30
ENDBRANCH   1  29
BRANCH   7  32
ATOM     32  C11 ZIN A   1      19.102   3.777  16.640  0.00  0.00     0.296 C 
ATOM     33  O12 ZIN A   1      20.296   3.561  16.581  0.00  0.00    -0.259 OA
BRANCH  32  34
ATOM     34  O13 ZIN A   1      18.277   2.858  17.182  0.00  0.00    -0.311 OA
BRANCH  34  35
ATOM     35  C14 ZIN A   1      18.881   1.621  17.644  0.00  0.00     0.247 C 
BRANCH  35  36
ATOM     36  C15 ZIN A   1      18.716   0.557  16.589  0.00  0.00     0.112 A 
ATOM     37  O21 ZIN A   1      19.608   0.260  15.612  0.00  0.00    -0.255 OA
ATOM     38  C19 ZIN A   1      19.099  -0.743  14.879  0.00  0.00     0.416 A 
ATOM     39  O18 ZIN A   1      17.899  -1.057  15.392  0.00  0.00    -0.257 OA
ATOM     40  O20 ZIN A   1      19.628  -1.268  13.919  0.00  0.00    -0.229 OA
ATOM     41  C16 ZIN A   1      17.671  -0.244  16.452  0.00  0.00     0.087 A 
ATOM     42  C17 ZIN A   1      16.443  -0.251  17.324  0.00  0.00     0.079 C 
ENDBRANCH  35  36
ENDBRANCH  34  35
ENDBRANCH  32  34
ENDBRANCH   7  32
TORSDOF 10
ENDMDL
MODEL 6
REMARK VINA RESULT:      -8.9      1.893      9.003
REMARK  10 active torsions:
REMARK  status: ('A' for Active; 'I' for Inactive)
REMARK    1  A    between atoms: C2_2  and  O3_3 
REMARK    2  A    between atoms: O3_3  and  C4_4 
REMARK    3  A    between atoms: C10_10  and  C11_11 
REMARK    4  A    between atoms: C11_11  and  O13_13 
REMARK    5  A    between atoms: O13_13  and  C14_14 
REMARK    6  A    between atoms: C14_14  and  C15_15 
REMARK    7  A    between atoms: N23_23  and  C24_24 
REMARK    8  A    between atoms: C24_24  and  C25_25 
REMARK    9  A    between atoms: C28_28  and  C29_29 
REMARK   10  A    between atoms: C34_34  and  C35_35 
ROOT
ATOM      1  C4  ZIN A   1      18.990  -2.886  12.649  0.00  0.00     0.249 A 
ATOM      2  N5  ZIN A   1      18.242  -3.911  12.958  0.00  0.00    -0.206 NA
ATOM      3  C6  ZIN A   1      17.896  -4.579  11.825  0.00  0.00     0.089 A 
ATOM      4  C7  ZIN A   1      17.128  -5.719  11.580  0.00  0.00     0.034 A 
ATOM      5  C8  ZIN A   1      16.952  -6.172  10.288  0.00  0.00     0.003 A 
ATOM      6  C9  ZIN A   1      17.530  -5.506   9.222  0.00  0.00     0.020 A 
ATOM      7  C10 ZIN A   1      18.301  -4.364   9.441  0.00  0.00     0.068 A 
ATOM      8  C22 ZIN A   1      18.487  -3.897  10.749  0.00  0.00     0.083 A 
ATOM      9  N23 ZIN A   1      19.167  -2.830  11.297  0.00  0.00    -0.304 N 
ENDROOT
BRANCH   9  10
ATOM     10  C24 ZIN A   1      19.937  -1.823  10.563  0.00  0.00     0.171 C 
BRANCH  10  11
ATOM     11  C25 ZIN A   1      19.363  -0.456  10.831  0.00  0.00    -0.040 A 
ATOM     12  C42 ZIN A   1      20.185   0.560  11.285  0.00  0.00     0.010 A 
ATOM     13  C41 ZIN A   1      19.664   1.815  11.528  0.00  0.00     0.013 A 
ATOM     14  C28 ZIN A   1      18.306   2.055  11.324  0.00  0.00    -0.025 A 
ATOM     15  C27 ZIN A   1      17.482   1.026  10.871  0.00  0.00     0.013 A 
ATOM     16  C26 ZIN A   1      18.014  -0.223  10.627  0.00  0.00     0.010 A 
BRANCH  14  17
ATOM     17  C29 ZIN A   1      17.741   3.399  11.589  0.00  0.00    -0.012 A 
ATOM     18  C34 ZIN A   1      17.576   3.849  12.912  0.00  0.00     0.025 A 
ATOM     19  C33 ZIN A   1      17.048   5.118  13.146  0.00  0.00     0.016 A 
ATOM     20  C32 ZIN A   1      16.680   5.919  12.084  0.00  0.00     0.001 A 
ATOM     21  C31 ZIN A   1      16.838   5.472  10.782  0.00  0.00     0.001 A 
ATOM     22  C30 ZIN A   1      17.365   4.221  10.531  0.00  0.00     0.013 A 
BRANCH  18  23
ATOM     23  C35 ZIN A   1      17.972   2.989  14.044  0.00  0.00     0.193 A 
ATOM     24  N40 ZIN A   1      17.393   1.827  14.406  0.00  0.00    -0.102 NA
ATOM     25  O39 ZIN A   1      17.959   1.367  15.375  0.00  0.00    -0.152 OA
ATOM     26  C37 ZIN A   1      18.955   2.183  15.750  0.00  0.00     0.412 A 
ATOM     27  N36 ZIN A   1      18.961   3.218  14.899  0.00  0.00    -0.163 NA
ATOM     28  O38 ZIN A   1      19.714   2.015  16.690  0.00  0.00    -0.234 OA
ENDBRANCH  18  23
ENDBRANCH  14  17
ENDBRANCH  10  11
ENDBRANCH   9  10
BRANCH   1  29
ATOM     29  O3  ZIN A   1      19.509  -2.006  13.536  0.00  0.00    -0.321 OA
BRANCH  29  30
ATOM     30  C2  ZIN A   1      18.613  -1.462  14.508  0.00  0.00     0.174 C 
ATOM     31  C1  ZIN A   1      19.211  -1.635  15.906  0.00  0.00     0.034 C 
ENDBRANCH  29  30
ENDBRANCH   1  29
BRANCH   7  32
ATOM     32  C11 ZIN A   1      18.917  -3.655   8.306  0.00  0.00     0.296 C 
ATOM     33  O12 ZIN A   1      20.002  -4.005   7.886  0.00  0.00    -0.259 OA
BRANCH  32  34
ATOM     34  O13 ZIN A   1      18.277  -2.615   7.734  0.00  0.00    -0.311 OA
BRANCH  34  35
ATOM     35  C14 ZIN A   1      18.839  -2.093   6.501  0.00  0.00     0.247 C 
BRANCH  35  36
ATOM     36  C15 ZIN A   1      18.903  -0.589   6.576  0.00  0.00     0.112 A 
ATOM     37  O21 ZIN A   1      19.109   0.144   7.697  0.00  0.00    -0.255 OA
ATOM     38  C19 ZIN A   1      19.100   1.441   7.351  0.00  0.00     0.416 A 
ATOM     39  O18 ZIN A   1      18.880   1.510   6.028  0.00  0.00    -0.257 OA
ATOM     40  O20 ZIN A   1      19.257   2.384   8.102  0.00  0.00    -0.229 OA
ATOM     41  C16 ZIN A   1      18.759   0.245   5.558  0.00  0.00     0.087 A 
ATOM     42  C17 ZIN A   1      18.505  -0.145   4.125  0.00  0.00     0.079 C 
ENDBRANCH  35  36
ENDBRANCH  34  35
ENDBRANCH  32  34
ENDBRANCH   7  32
TORSDOF 10
ENDMDL
MODEL 7
REMARK VINA RESULT:      -8.9      2.352      9.588
REMARK  10 active torsions:
REMARK  status: ('A' for Active; 'I' for Inactive)
REMARK    1  A    between atoms: C2_2  and  O3_3 
REMARK    2  A    between atoms: O3_3  and  C4_4 
REMARK    3  A    between atoms: C10_10  and  C11_11 
REMARK    4  A    between atoms: C11_11  and  O13_13 
REMARK    5  A    between atoms: O13_13  and  C14_14 
REMARK    6  A    between atoms: C14_14  and  C15_15 
REMARK    7  A    between atoms: N23_23  and  C24_24 
REMARK    8  A    between atoms: C24_24  and  C25_25 
REMARK    9  A    between atoms: C28_28  and  C29_29 
REMARK   10  A    between atoms: C34_34  and  C35_35 
ROOT
ATOM      1  C4  ZIN A   1      19.045  -2.746  12.457  0.00  0.00     0.249 A 
ATOM      2  N5  ZIN A   1      18.206  -3.727  12.658  0.00  0.00    -0.206 NA
ATOM      3  C6  ZIN A   1      17.667  -4.114  11.470  0.00  0.00     0.089 A 
ATOM      4  C7  ZIN A   1      16.739  -5.093  11.112  0.00  0.00     0.034 A 
ATOM      5  C8  ZIN A   1      16.379  -5.256   9.789  0.00  0.00     0.003 A 
ATOM      6  C9  ZIN A   1      16.929  -4.456   8.805  0.00  0.00     0.020 A 
ATOM      7  C10 ZIN A   1      17.858  -3.469   9.138  0.00  0.00     0.068 A 
ATOM      8  C22 ZIN A   1      18.231  -3.296  10.477  0.00  0.00     0.083 A 
ATOM      9  N23 ZIN A   1      19.093  -2.439  11.128  0.00  0.00    -0.304 N 
ENDROOT
BRANCH   9  10
ATOM     10  C24 ZIN A   1      19.909  -1.393  10.507  0.00  0.00     0.171 C 
BRANCH  10  11
ATOM     11  C25 ZIN A   1      19.344  -0.040  10.856  0.00  0.00    -0.040 A 
ATOM     12  C42 ZIN A   1      17.985   0.191  10.735  0.00  0.00     0.010 A 
ATOM     13  C41 ZIN A   1      17.462   1.426  11.057  0.00  0.00     0.013 A 
ATOM     14  C28 ZIN A   1      18.306   2.446  11.495  0.00  0.00    -0.025 A 
ATOM     15  C27 ZIN A   1      19.675   2.208  11.610  0.00  0.00     0.013 A 
ATOM     16  C26 ZIN A   1      20.187   0.968  11.290  0.00  0.00     0.010 A 
BRANCH  14  17
ATOM     17  C29 ZIN A   1      17.751   3.777  11.837  0.00  0.00    -0.012 A 
ATOM     18  C34 ZIN A   1      17.643   4.174  13.182  0.00  0.00     0.025 A 
ATOM     19  C33 ZIN A   1      17.124   5.432  13.488  0.00  0.00     0.016 A 
ATOM     20  C32 ZIN A   1      16.709   6.272  12.474  0.00  0.00     0.001 A 
ATOM     21  C31 ZIN A   1      16.810   5.876  11.151  0.00  0.00     0.001 A 
ATOM     22  C30 ZIN A   1      17.327   4.638  10.829  0.00  0.00     0.013 A 
BRANCH  18  23
ATOM     23  C35 ZIN A   1      18.089   3.272  14.261  0.00  0.00     0.193 A 
ATOM     24  N40 ZIN A   1      17.606   2.043  14.527  0.00  0.00    -0.102 NA
ATOM     25  O39 ZIN A   1      18.190   1.564  15.476  0.00  0.00    -0.152 OA
ATOM     26  C37 ZIN A   1      19.105   2.433  15.932  0.00  0.00     0.412 A 
ATOM     27  N36 ZIN A   1      19.039   3.523  15.155  0.00  0.00    -0.163 NA
ATOM     28  O38 ZIN A   1      19.857   2.263  16.877  0.00  0.00    -0.234 OA
ENDBRANCH  18  23
ENDBRANCH  14  17
ENDBRANCH  10  11
ENDBRANCH   9  10
BRANCH   1  29
ATOM     29  O3  ZIN A   1      19.757  -2.122  13.423  0.00  0.00    -0.321 OA
BRANCH  29  30
ATOM     30  C2  ZIN A   1      19.065  -1.157  14.218  0.00  0.00     0.174 C 
ATOM     31  C1  ZIN A   1      18.936  -1.675  15.652  0.00  0.00     0.034 C 
ENDBRANCH  29  30
ENDBRANCH   1  29
BRANCH   7  32
ATOM     32  C11 ZIN A   1      18.444  -2.616   8.089  0.00  0.00     0.296 C 
ATOM     33  O12 ZIN A   1      17.919  -1.558   7.801  0.00  0.00    -0.259 OA
BRANCH  32  34
ATOM     34  O13 ZIN A   1      19.562  -3.010   7.447  0.00  0.00    -0.311 OA
BRANCH  34  35
ATOM     35  C14 ZIN A   1      19.462  -3.213   6.012  0.00  0.00     0.247 C 
BRANCH  35  36
ATOM     36  C15 ZIN A   1      18.733  -4.504   5.738  0.00  0.00     0.112 A 
ATOM     37  O21 ZIN A   1      19.002  -5.705   6.306  0.00  0.00    -0.255 OA
ATOM     38  C19 ZIN A   1      18.136  -6.601   5.806  0.00  0.00     0.416 A 
ATOM     39  O18 ZIN A   1      17.345  -5.962   4.930  0.00  0.00    -0.257 OA
ATOM     40  O20 ZIN A   1      18.082  -7.782   6.092  0.00  0.00    -0.229 OA
ATOM     41  C16 ZIN A   1      17.725  -4.661   4.895  0.00  0.00     0.087 A 
ATOM     42  C17 ZIN A   1      17.107  -3.582   4.045  0.00  0.00     0.079 C 
ENDBRANCH  35  36
ENDBRANCH  34  35
ENDBRANCH  32  34
ENDBRANCH   7  32
TORSDOF 10
ENDMDL
MODEL 8
REMARK VINA RESULT:      -8.8      2.391      5.710
REMARK  10 active torsions:
REMARK  status: ('A' for Active; 'I' for Inactive)
REMARK    1  A    between atoms: C2_2  and  O3_3 
REMARK    2  A    between atoms: O3_3  and  C4_4 
REMARK    3  A    between atoms: C10_10  and  C11_11 
REMARK    4  A    between atoms: C11_11  and  O13_13 
REMARK    5  A    between atoms: O13_13  and  C14_14 
REMARK    6  A    between atoms: C14_14  and  C15_15 
REMARK    7  A    between atoms: N23_23  and  C24_24 
REMARK    8  A    between atoms: C24_24  and  C25_25 
REMARK    9  A    between atoms: C28_28  and  C29_29 
REMARK   10  A    between atoms: C34_34  and  C35_35 
ROOT
ATOM      1  C4  ZIN A   1      18.856   0.924  17.291  0.00  0.00     0.249 A 
ATOM      2  N5  ZIN A   1      18.280   1.078  18.453  0.00  0.00    -0.206 NA
ATOM      3  C6  ZIN A   1      17.811   2.350  18.563  0.00  0.00     0.089 A 
ATOM      4  C7  ZIN A   1      17.128   3.037  19.568  0.00  0.00     0.034 A 
ATOM      5  C8  ZIN A   1      16.773   4.359  19.387  0.00  0.00     0.003 A 
ATOM      6  C9  ZIN A   1      17.087   5.018  18.213  0.00  0.00     0.020 A 
ATOM      7  C10 ZIN A   1      17.769   4.353  17.193  0.00  0.00     0.068 A 
ATOM      8  C22 ZIN A   1      18.134   3.012  17.367  0.00  0.00     0.083 A 
ATOM      9  N23 ZIN A   1      18.797   2.091  16.584  0.00  0.00    -0.304 N 
ENDROOT
BRANCH   9  10
ATOM     10  C24 ZIN A   1      19.337   2.322  15.243  0.00  0.00     0.171 C 
BRANCH  10  11
ATOM     11  C25 ZIN A   1      18.998   1.151  14.356  0.00  0.00    -0.040 A 
ATOM     12  C42 ZIN A   1      17.683   0.925  13.987  0.00  0.00     0.010 A 
ATOM     13  C41 ZIN A   1      17.368  -0.143  13.172  0.00  0.00     0.013 A 
ATOM     14  C28 ZIN A   1      18.374  -1.000  12.728  0.00  0.00    -0.025 A 
ATOM     15  C27 ZIN A   1      19.696  -0.769  13.108  0.00  0.00     0.013 A 
ATOM     16  C26 ZIN A   1      20.001   0.304  13.919  0.00  0.00     0.010 A 
BRANCH  14  17
ATOM     17  C29 ZIN A   1      18.040  -2.152  11.858  0.00  0.00    -0.012 A 
ATOM     18  C34 ZIN A   1      17.937  -1.980  10.466  0.00  0.00     0.025 A 
ATOM     19  C33 ZIN A   1      17.628  -3.074   9.658  0.00  0.00     0.016 A 
ATOM     20  C32 ZIN A   1      17.413  -4.313  10.228  0.00  0.00     0.001 A 
ATOM     21  C31 ZIN A   1      17.509  -4.479  11.600  0.00  0.00     0.001 A 
ATOM     22  C30 ZIN A   1      17.820  -3.409  12.414  0.00  0.00     0.013 A 
BRANCH  18  23
ATOM     23  C35 ZIN A   1      18.168  -0.653   9.862  0.00  0.00     0.193 A 
ATOM     24  N40 ZIN A   1      17.258   0.330   9.720  0.00  0.00    -0.102 NA
ATOM     25  O39 ZIN A   1      17.769   1.294   9.189  0.00  0.00    -0.152 OA
ATOM     26  C37 ZIN A   1      19.058   1.035   8.923  0.00  0.00     0.412 A 
ATOM     27  N36 ZIN A   1      19.311  -0.208   9.353  0.00  0.00    -0.163 NA
ATOM     28  O38 ZIN A   1      19.852   1.792   8.389  0.00  0.00    -0.234 OA
ENDBRANCH  18  23
ENDBRANCH  14  17
ENDBRANCH  10  11
ENDBRANCH   9  10
BRANCH   1  29
ATOM     29  O3  ZIN A   1      19.432  -0.219  16.853  0.00  0.00    -0.321 OA
BRANCH  29  30
ATOM     30  C2  ZIN A   1      18.823  -1.447  17.259  0.00  0.00     0.174 C 
ATOM     31  C1  ZIN A   1      17.511  -1.643  16.496  0.00  0.00     0.034 C 
ENDBRANCH  29  30
ENDBRANCH   1  29
BRANCH   7  32
ATOM     32  C11 ZIN A   1      18.104   5.057  15.942  0.00  0.00     0.296 C 
ATOM     33  O12 ZIN A   1      19.141   5.684  15.855  0.00  0.00    -0.259 OA
BRANCH  32  34
ATOM     34  O13 ZIN A   1      17.258   5.005  14.894  0.00  0.00    -0.311 OA
BRANCH  34  35
ATOM     35  C14 ZIN A   1      17.599   5.807  13.731  0.00  0.00     0.247 C 
BRANCH  35  36
ATOM     36  C15 ZIN A   1      18.250   4.932  12.691  0.00  0.00     0.112 A 
ATOM     37  O21 ZIN A   1      19.468   4.346  12.794  0.00  0.00    -0.255 OA
ATOM     38  C19 ZIN A   1      19.688   3.650  11.668  0.00  0.00     0.416 A 
ATOM     39  O18 ZIN A   1      18.619   3.812  10.871  0.00  0.00    -0.257 OA
ATOM     40  O20 ZIN A   1      20.680   2.995  11.412  0.00  0.00    -0.229 OA
ATOM     41  C16 ZIN A   1      17.734   4.609  11.516  0.00  0.00     0.087 A 
ATOM     42  C17 ZIN A   1      16.395   5.052  10.987  0.00  0.00     0.079 C 
ENDBRANCH  35  36
ENDBRANCH  34  35
ENDBRANCH  32  34
ENDBRANCH   7  32
TORSDOF 10
ENDMDL
MODEL 9
REMARK VINA RESULT:      -8.5      3.147     10.253
REMARK  10 active torsions:
REMARK  status: ('A' for Active; 'I' for Inactive)
REMARK    1  A    between atoms: C2_2  and  O3_3 
REMARK    2  A    between atoms: O3_3  and  C4_4 
REMARK    3  A    between atoms: C10_10  and  C11_11 
REMARK    4  A    between atoms: C11_11  and  O13_13 
REMARK    5  A    between atoms: O13_13  and  C14_14 
REMARK    6  A    between atoms: C14_14  and  C15_15 
REMARK    7  A    between atoms: N23_23  and  C24_24 
REMARK    8  A    between atoms: C24_24  and  C25_25 
REMARK    9  A    between atoms: C28_28  and  C29_29 
REMARK   10  A    between atoms: C34_34  and  C35_35 
ROOT
ATOM      1  C4  ZIN A   1      17.848  -3.557  10.233  0.00  0.00     0.249 A 
ATOM      2  N5  ZIN A   1      16.999  -4.541  10.370  0.00  0.00    -0.206 NA
ATOM      3  C6  ZIN A   1      16.800  -5.140   9.165  0.00  0.00     0.089 A 
ATOM      4  C7  ZIN A   1      16.013  -6.215   8.747  0.00  0.00     0.034 A 
ATOM      5  C8  ZIN A   1      16.019  -6.604   7.423  0.00  0.00     0.003 A 
ATOM      6  C9  ZIN A   1      16.799  -5.939   6.495  0.00  0.00     0.020 A 
ATOM      7  C10 ZIN A   1      17.594  -4.860   6.889  0.00  0.00     0.068 A 
ATOM      8  C22 ZIN A   1      17.596  -4.458   8.231  0.00  0.00     0.083 A 
ATOM      9  N23 ZIN A   1      18.242  -3.461   8.930  0.00  0.00    -0.304 N 
ENDROOT
BRANCH   9  10
ATOM     10  C24 ZIN A   1      19.180  -2.482   8.377  0.00  0.00     0.171 C 
BRANCH  10  11
ATOM     11  C25 ZIN A   1      18.896  -1.124   8.967  0.00  0.00    -0.040 A 
ATOM     12  C42 ZIN A   1      19.889  -0.450   9.655  0.00  0.00     0.010 A 
ATOM     13  C41 ZIN A   1      19.635   0.795  10.193  0.00  0.00     0.013 A 
ATOM     14  C28 ZIN A   1      18.373   1.369  10.052  0.00  0.00    -0.025 A 
ATOM     15  C27 ZIN A   1      17.374   0.682   9.362  0.00  0.00     0.013 A 
ATOM     16  C26 ZIN A   1      17.641  -0.560   8.824  0.00  0.00     0.010 A 
BRANCH  14  17
ATOM     17  C29 ZIN A   1      18.093   2.703  10.634  0.00  0.00    -0.012 A 
ATOM     18  C34 ZIN A   1      17.900   2.844  12.020  0.00  0.00     0.025 A 
ATOM     19  C33 ZIN A   1      17.643   4.106  12.554  0.00  0.00     0.016 A 
ATOM     20  C32 ZIN A   1      17.567   5.204  11.721  0.00  0.00     0.001 A 
ATOM     21  C31 ZIN A   1      17.752   5.063  10.356  0.00  0.00     0.001 A 
ATOM     22  C30 ZIN A   1      18.013   3.822   9.811  0.00  0.00     0.013 A 
BRANCH  18  23
ATOM     23  C35 ZIN A   1      17.982   1.666  12.905  0.00  0.00     0.193 A 
ATOM     24  N40 ZIN A   1      17.079   0.669  12.996  0.00  0.00    -0.102 NA
ATOM     25  O39 ZIN A   1      17.446  -0.149  13.813  0.00  0.00    -0.152 OA
ATOM     26  C37 ZIN A   1      18.617   0.234  14.345  0.00  0.00     0.412 A 
ATOM     27  N36 ZIN A   1      18.957   1.392  13.764  0.00  0.00    -0.163 NA
ATOM     28  O38 ZIN A   1      19.253  -0.362  15.198  0.00  0.00    -0.234 OA
ENDBRANCH  18  23
ENDBRANCH  14  17
ENDBRANCH  10  11
ENDBRANCH   9  10
BRANCH   1  29
ATOM     29  O3  ZIN A   1      18.270  -2.750  11.233  0.00  0.00    -0.321 OA
BRANCH  29  30
ATOM     30  C2  ZIN A   1      19.112  -3.336  12.228  0.00  0.00     0.174 C 
ATOM     31  C1  ZIN A   1      20.377  -3.885  11.566  0.00  0.00     0.034 C 
ENDBRANCH  29  30
ENDBRANCH   1  29
BRANCH   7  32
ATOM     32  C11 ZIN A   1      18.426  -4.151   5.900  0.00  0.00     0.296 C 
ATOM     33  O12 ZIN A   1      19.623  -4.354   5.855  0.00  0.00    -0.259 OA
BRANCH  32  34
ATOM     34  O13 ZIN A   1      17.858  -3.275   5.047  0.00  0.00    -0.311 OA
BRANCH  34  35
ATOM     35  C14 ZIN A   1      18.001  -3.550   3.628  0.00  0.00     0.247 C 
BRANCH  35  36
ATOM     36  C15 ZIN A   1      16.832  -4.377   3.157  0.00  0.00     0.112 A 
ATOM     37  O21 ZIN A   1      15.560  -4.289   3.615  0.00  0.00    -0.255 OA
ATOM     38  C19 ZIN A   1      14.818  -5.186   2.946  0.00  0.00     0.416 A 
ATOM     39  O18 ZIN A   1      15.626  -5.829   2.088  0.00  0.00    -0.257 OA
ATOM     40  O20 ZIN A   1      13.627  -5.384   3.095  0.00  0.00    -0.229 OA
ATOM     41  C16 ZIN A   1      16.874  -5.319   2.228  0.00  0.00     0.087 A 
ATOM     42  C17 ZIN A   1      18.096  -5.749   1.459  0.00  0.00     0.079 C 
ENDBRANCH  35  36
ENDBRANCH  34  35
ENDBRANCH  32  34
ENDBRANCH   7  32
TORSDOF 10
ENDMDL
