MODEL 1
REMARK VINA RESULT:      -9.3      0.000      0.000
REMARK  3 active torsions:
REMARK  status: ('A' for Active; 'I' for Inactive)
REMARK    1  A    between atoms: C2_2  and  O3_3 
REMARK       I    between atoms: C2_2  and  N13_12 
REMARK    2  A    between atoms: O3_3  and  C4_4 
REMARK    3  A    between atoms: C22_21  and  C24_22 
ROOT
ATOM      1  O1  ZIN A   1      16.214  -0.064  10.975  0.00  0.00    -0.238 OA
ATOM      2  C2  ZIN A   1      17.410  -0.111  11.181  0.00  0.00     0.364 C 
ATOM      3  N13 ZIN A   1      18.184  -0.952  10.467  0.00  0.00    -0.315 N 
ATOM      4  C14 ZIN A   1      19.636  -1.037  10.698  0.00  0.00     0.134 C 
ATOM      5  C15 ZIN A   1      19.948  -2.442  11.213  0.00  0.00     0.059 C 
ATOM      6  C16 ZIN A   1      19.271  -3.487  10.365  0.00  0.00    -0.048 A 
ATOM      7  C17 ZIN A   1      19.773  -4.782  10.416  0.00  0.00     0.008 A 
ATOM      8  C18 ZIN A   1      19.192  -5.788   9.672  0.00  0.00     0.001 A 
ATOM      9  C19 ZIN A   1      18.103  -5.509   8.870  0.00  0.00     0.001 A 
ATOM     10  C20 ZIN A   1      17.604  -4.223   8.815  0.00  0.00     0.010 A 
ATOM     11  C21 ZIN A   1      18.190  -3.208   9.558  0.00  0.00    -0.024 A 
ATOM     12  C22 ZIN A   1      17.614  -1.825   9.436  0.00  0.00     0.156 C 
ENDROOT
BRANCH   2  13
ATOM     13  O3  ZIN A   1      17.961   0.674  12.126  0.00  0.00    -0.296 OA
BRANCH  13  14
ATOM     14  C4  ZIN A   1      17.537   2.062  12.159  0.00  0.00     0.166 C 
ATOM     15  C10 ZIN A   1      17.816   2.719  10.802  0.00  0.00     0.020 C 
ATOM     16  C9  ZIN A   1      19.328   2.660  10.535  0.00  0.00     0.037 C 
ATOM     17  C11 ZIN A   1      17.387   4.189  10.872  0.00  0.00     0.037 C 
ATOM     18  C8  ZIN A   1      20.059   3.393  11.663  0.00  0.00     0.273 C 
ATOM     19  N7  ZIN A   1      19.076   3.908  12.627  0.00  0.00     0.090 N 
ATOM     20  C6  ZIN A   1      18.318   2.811  13.243  0.00  0.00     0.305 C 
ATOM     21  C12 ZIN A   1      18.177   4.881  11.992  0.00  0.00     0.273 C 
ENDBRANCH  13  14
ENDBRANCH   2  13
BRANCH  12  22
ATOM     22  C24 ZIN A   1      17.941  -1.263   8.076  0.00  0.00    -0.031 A 
ATOM     23  C29 ZIN A   1      18.960  -1.818   7.327  0.00  0.00     0.009 A 
ATOM     24  C28 ZIN A   1      19.257  -1.306   6.078  0.00  0.00     0.001 A 
ATOM     25  C27 ZIN A   1      18.540  -0.233   5.582  0.00  0.00     0.000 A 
ATOM     26  C26 ZIN A   1      17.523   0.325   6.334  0.00  0.00     0.001 A 
ATOM     27  C25 ZIN A   1      17.224  -0.191   7.582  0.00  0.00     0.009 A 
ENDBRANCH  12  22
TORSDOF 3
ENDMDL
MODEL 2
REMARK VINA RESULT:      -9.1      2.545      7.852
REMARK  3 active torsions:
REMARK  status: ('A' for Active; 'I' for Inactive)
REMARK    1  A    between atoms: C2_2  and  O3_3 
REMARK       I    between atoms: C2_2  and  N13_12 
REMARK    2  A    between atoms: O3_3  and  C4_4 
REMARK    3  A    between atoms: C22_21  and  C24_22 
ROOT
ATOM      1  O1  ZIN A   1      16.492  -1.019  12.082  0.00  0.00    -0.238 OA
ATOM      2  C2  ZIN A   1      17.696  -1.014  11.921  0.00  0.00     0.364 C 
ATOM      3  N13 ZIN A   1      18.450  -0.068  12.516  0.00  0.00    -0.315 N 
ATOM      4  C14 ZIN A   1      19.911  -0.030  12.336  0.00  0.00     0.134 C 
ATOM      5  C15 ZIN A   1      20.261   1.266  11.606  0.00  0.00     0.059 C 
ATOM      6  C16 ZIN A   1      19.562   2.442  12.238  0.00  0.00    -0.048 A 
ATOM      7  C17 ZIN A   1      20.080   3.708  11.992  0.00  0.00     0.008 A 
ATOM      8  C18 ZIN A   1      19.482   4.827  12.531  0.00  0.00     0.001 A 
ATOM      9  C19 ZIN A   1      18.358   4.692  13.323  0.00  0.00     0.001 A 
ATOM     10  C20 ZIN A   1      17.842   3.437  13.571  0.00  0.00     0.010 A 
ATOM     11  C21 ZIN A   1      18.446   2.308  13.034  0.00  0.00    -0.024 A 
ATOM     12  C22 ZIN A   1      17.849   0.968  13.361  0.00  0.00     0.156 C 
ENDROOT
BRANCH   2  13
ATOM     13  O3  ZIN A   1      18.276  -1.949  11.145  0.00  0.00    -0.296 OA
BRANCH  13  14
ATOM     14  C4  ZIN A   1      17.561  -3.201  10.977  0.00  0.00     0.166 C 
ATOM     15  C10 ZIN A   1      18.203  -4.282  11.856  0.00  0.00     0.020 C 
ATOM     16  C9  ZIN A   1      19.661  -4.470  11.410  0.00  0.00     0.037 C 
ATOM     17  C11 ZIN A   1      17.450  -5.600  11.639  0.00  0.00     0.037 C 
ATOM     18  C8  ZIN A   1      19.679  -4.876   9.933  0.00  0.00     0.273 C 
ATOM     19  N7  ZIN A   1      18.300  -4.951   9.432  0.00  0.00     0.090 N 
ATOM     20  C6  ZIN A   1      17.638  -3.642   9.512  0.00  0.00     0.305 C 
ATOM     21  C12 ZIN A   1      17.533  -5.977  10.153  0.00  0.00     0.273 C 
ENDBRANCH  13  14
ENDBRANCH   2  13
BRANCH  12  22
ATOM     22  C24 ZIN A   1      18.113   0.641  14.809  0.00  0.00    -0.031 A 
ATOM     23  C29 ZIN A   1      17.544  -0.481  15.379  0.00  0.00     0.009 A 
ATOM     24  C28 ZIN A   1      17.790  -0.784  16.705  0.00  0.00     0.001 A 
ATOM     25  C27 ZIN A   1      18.599   0.042  17.463  0.00  0.00     0.000 A 
ATOM     26  C26 ZIN A   1      19.165   1.167  16.894  0.00  0.00     0.001 A 
ATOM     27  C25 ZIN A   1      18.922   1.467  15.567  0.00  0.00     0.009 A 
ENDBRANCH  12  22
TORSDOF 3
ENDMDL
MODEL 3
REMARK VINA RESULT:      -9.0      2.643      6.618
REMARK  3 active torsions:
REMARK  status: ('A' for Active; 'I' for Inactive)
REMARK    1  A    between atoms: C2_2  and  O3_3 
REMARK       I    between atoms: C2_2  and  N13_12 
REMARK    2  A    between atoms: O3_3  and  C4_4 
REMARK    3  A    between atoms: C22_21  and  C24_22 
ROOT
ATOM      1  O1  ZIN A   1      21.158   0.658  11.905  0.00  0.00    -0.238 OA
ATOM      2  C2  ZIN A   1      20.030   0.213  11.827  0.00  0.00     0.364 C 
ATOM      3  N13 ZIN A   1      19.113   0.539  12.760  0.00  0.00    -0.315 N 
ATOM      4  C14 ZIN A   1      17.739   0.012  12.697  0.00  0.00     0.134 C 
ATOM      5  C15 ZIN A   1      17.520  -0.874  13.924  0.00  0.00     0.059 C 
ATOM      6  C16 ZIN A   1      17.991  -0.182  15.176  0.00  0.00    -0.048 A 
ATOM      7  C17 ZIN A   1      17.493  -0.637  16.390  0.00  0.00     0.008 A 
ATOM      8  C18 ZIN A   1      17.891  -0.054  17.575  0.00  0.00     0.001 A 
ATOM      9  C19 ZIN A   1      18.795   0.991  17.557  0.00  0.00     0.001 A 
ATOM     10  C20 ZIN A   1      19.289   1.448  16.352  0.00  0.00     0.010 A 
ATOM     11  C21 ZIN A   1      18.885   0.866  15.159  0.00  0.00    -0.024 A 
ATOM     12  C22 ZIN A   1      19.444   1.425  13.880  0.00  0.00     0.156 C 
ENDROOT
BRANCH   2  13
ATOM     13  O3  ZIN A   1      19.698  -0.608  10.813  0.00  0.00    -0.296 OA
BRANCH  13  14
ATOM     14  C4  ZIN A   1      19.925  -0.117   9.466  0.00  0.00     0.166 C 
ATOM     15  C10 ZIN A   1      19.079   1.140   9.227  0.00  0.00     0.020 C 
ATOM     16  C9  ZIN A   1      17.597   0.764   9.383  0.00  0.00     0.037 C 
ATOM     17  C11 ZIN A   1      19.313   1.621   7.790  0.00  0.00     0.037 C 
ATOM     18  C8  ZIN A   1      17.253  -0.333   8.372  0.00  0.00     0.273 C 
ATOM     19  N7  ZIN A   1      18.452  -0.666   7.589  0.00  0.00     0.090 N 
ATOM     20  C6  ZIN A   1      19.517  -1.191   8.454  0.00  0.00     0.305 C 
ATOM     21  C12 ZIN A   1      18.918   0.497   6.822  0.00  0.00     0.273 C 
ENDBRANCH  13  14
ENDBRANCH   2  13
BRANCH  12  22
ATOM     22  C24 ZIN A   1      18.850   2.787  13.626  0.00  0.00    -0.031 A 
ATOM     23  C29 ZIN A   1      19.244   3.517  12.521  0.00  0.00     0.009 A 
ATOM     24  C28 ZIN A   1      18.696   4.764  12.285  0.00  0.00     0.001 A 
ATOM     25  C27 ZIN A   1      17.761   5.285  13.161  0.00  0.00     0.000 A 
ATOM     26  C26 ZIN A   1      17.370   4.556  14.268  0.00  0.00     0.001 A 
ATOM     27  C25 ZIN A   1      17.916   3.307  14.501  0.00  0.00     0.009 A 
ENDBRANCH  12  22
TORSDOF 3
ENDMDL
MODEL 4
REMARK VINA RESULT:      -8.8      2.161      4.640
REMARK  3 active torsions:
REMARK  status: ('A' for Active; 'I' for Inactive)
REMARK    1  A    between atoms: C2_2  and  O3_3 
REMARK       I    between atoms: C2_2  and  N13_12 
REMARK    2  A    between atoms: O3_3  and  C4_4 
REMARK    3  A    between atoms: C22_21  and  C24_22 
ROOT
ATOM      1  O1  ZIN A   1      21.119  -0.761  10.979  0.00  0.00    -0.238 OA
ATOM      2  C2  ZIN A   1      19.984  -0.328  11.019  0.00  0.00     0.364 C 
ATOM      3  N13 ZIN A   1      19.065  -0.766  10.136  0.00  0.00    -0.315 N 
ATOM      4  C14 ZIN A   1      17.684  -0.256  10.154  0.00  0.00     0.134 C 
ATOM      5  C15 ZIN A   1      17.441   0.489   8.841  0.00  0.00     0.059 C 
ATOM      6  C16 ZIN A   1      17.914  -0.326   7.666  0.00  0.00    -0.048 A 
ATOM      7  C17 ZIN A   1      17.398  -0.012   6.415  0.00  0.00     0.008 A 
ATOM      8  C18 ZIN A   1      17.797  -0.714   5.296  0.00  0.00     0.001 A 
ATOM      9  C19 ZIN A   1      18.717  -1.737   5.418  0.00  0.00     0.001 A 
ATOM     10  C20 ZIN A   1      19.229  -2.053   6.660  0.00  0.00     0.010 A 
ATOM     11  C21 ZIN A   1      18.824  -1.353   7.788  0.00  0.00    -0.024 A 
ATOM     12  C22 ZIN A   1      19.402  -1.762   9.114  0.00  0.00     0.156 C 
ENDROOT
BRANCH   2  13
ATOM     13  O3  ZIN A   1      19.647   0.593  11.942  0.00  0.00    -0.296 OA
BRANCH  13  14
ATOM     14  C4  ZIN A   1      19.913   0.262  13.330  0.00  0.00     0.166 C 
ATOM     15  C10 ZIN A   1      19.062  -0.945  13.744  0.00  0.00     0.020 C 
ATOM     16  C9  ZIN A   1      17.580  -0.571  13.589  0.00  0.00     0.037 C 
ATOM     17  C11 ZIN A   1      19.338  -1.256  15.220  0.00  0.00     0.037 C 
ATOM     18  C8  ZIN A   1      17.280   0.644  14.472  0.00  0.00     0.273 C 
ATOM     19  N7  ZIN A   1      18.506   1.051  15.173  0.00  0.00     0.090 N 
ATOM     20  C6  ZIN A   1      19.548   1.455  14.219  0.00  0.00     0.305 C 
ATOM     21  C12 ZIN A   1      18.986  -0.020  16.059  0.00  0.00     0.273 C 
ENDBRANCH  13  14
ENDBRANCH   2  13
BRANCH  12  22
ATOM     22  C24 ZIN A   1      18.832  -3.098   9.519  0.00  0.00    -0.031 A 
ATOM     23  C29 ZIN A   1      17.704  -3.587   8.888  0.00  0.00     0.009 A 
ATOM     24  C28 ZIN A   1      17.184  -4.814   9.256  0.00  0.00     0.001 A 
ATOM     25  C27 ZIN A   1      17.787  -5.547  10.262  0.00  0.00     0.000 A 
ATOM     26  C26 ZIN A   1      18.912  -5.055  10.895  0.00  0.00     0.001 A 
ATOM     27  C25 ZIN A   1      19.435  -3.830  10.524  0.00  0.00     0.009 A 
ENDBRANCH  12  22
TORSDOF 3
ENDMDL
MODEL 5
REMARK VINA RESULT:      -8.7      1.093      1.592
REMARK  3 active torsions:
REMARK  status: ('A' for Active; 'I' for Inactive)
REMARK    1  A    between atoms: C2_2  and  O3_3 
REMARK       I    between atoms: C2_2  and  N13_12 
REMARK    2  A    between atoms: O3_3  and  C4_4 
REMARK    3  A    between atoms: C22_21  and  C24_22 
ROOT
ATOM      1  O1  ZIN A   1      16.554   0.871  11.080  0.00  0.00    -0.238 OA
ATOM      2  C2  ZIN A   1      17.766   0.868  11.169  0.00  0.00     0.364 C 
ATOM      3  N13 ZIN A   1      18.479  -0.127  10.606  0.00  0.00    -0.315 N 
ATOM      4  C14 ZIN A   1      19.948  -0.162  10.702  0.00  0.00     0.134 C 
ATOM      5  C15 ZIN A   1      20.337  -1.401  11.508  0.00  0.00     0.059 C 
ATOM      6  C16 ZIN A   1      19.598  -2.617  11.013  0.00  0.00    -0.048 A 
ATOM      7  C17 ZIN A   1      20.125  -3.864  11.325  0.00  0.00     0.008 A 
ATOM      8  C18 ZIN A   1      19.492  -5.017  10.911  0.00  0.00     0.001 A 
ATOM      9  C19 ZIN A   1      18.323  -4.935  10.179  0.00  0.00     0.001 A 
ATOM     10  C20 ZIN A   1      17.798  -3.698   9.865  0.00  0.00     0.010 A 
ATOM     11  C21 ZIN A   1      18.437  -2.536  10.276  0.00  0.00    -0.024 A 
ATOM     12  C22 ZIN A   1      17.825  -1.221   9.881  0.00  0.00     0.156 C 
ENDROOT
BRANCH   2  13
ATOM     13  O3  ZIN A   1      18.393   1.856  11.834  0.00  0.00    -0.296 OA
BRANCH  13  14
ATOM     14  C4  ZIN A   1      17.558   2.807  12.545  0.00  0.00     0.166 C 
ATOM     15  C10 ZIN A   1      17.604   4.165  11.833  0.00  0.00     0.020 C 
ATOM     16  C9  ZIN A   1      19.056   4.667  11.837  0.00  0.00     0.037 C 
ATOM     17  C11 ZIN A   1      16.739   5.158  12.618  0.00  0.00     0.037 C 
ATOM     18  C8  ZIN A   1      19.535   4.788  13.286  0.00  0.00     0.273 C 
ATOM     19  N7  ZIN A   1      18.452   4.383  14.193  0.00  0.00     0.090 N 
ATOM     20  C6  ZIN A   1      18.080   2.978  13.975  0.00  0.00     0.305 C 
ATOM     21  C12 ZIN A   1      17.287   5.266  14.048  0.00  0.00     0.273 C 
ENDBRANCH  13  14
ENDBRANCH   2  13
BRANCH  12  22
ATOM     22  C24 ZIN A   1      18.004  -1.009   8.399  0.00  0.00    -0.031 A 
ATOM     23  C29 ZIN A   1      17.117  -0.211   7.703  0.00  0.00     0.009 A 
ATOM     24  C28 ZIN A   1      17.284  -0.013   6.346  0.00  0.00     0.001 A 
ATOM     25  C27 ZIN A   1      18.333  -0.622   5.682  0.00  0.00     0.000 A 
ATOM     26  C26 ZIN A   1      19.218  -1.423   6.378  0.00  0.00     0.001 A 
ATOM     27  C25 ZIN A   1      19.053  -1.618   7.737  0.00  0.00     0.009 A 
ENDBRANCH  12  22
TORSDOF 3
ENDMDL
MODEL 6
REMARK VINA RESULT:      -8.5      1.863      2.506
REMARK  3 active torsions:
REMARK  status: ('A' for Active; 'I' for Inactive)
REMARK    1  A    between atoms: C2_2  and  O3_3 
REMARK       I    between atoms: C2_2  and  N13_12 
REMARK    2  A    between atoms: O3_3  and  C4_4 
REMARK    3  A    between atoms: C22_21  and  C24_22 
ROOT
ATOM      1  O1  ZIN A   1      16.455   0.331  10.658  0.00  0.00    -0.238 OA
ATOM      2  C2  ZIN A   1      17.646   0.197  10.857  0.00  0.00     0.364 C 
ATOM      3  N13 ZIN A   1      18.336  -0.751  10.192  0.00  0.00    -0.315 N 
ATOM      4  C14 ZIN A   1      19.779  -0.943  10.414  0.00  0.00     0.134 C 
ATOM      5  C15 ZIN A   1      19.980  -2.334  11.016  0.00  0.00     0.059 C 
ATOM      6  C16 ZIN A   1      19.205  -3.370  10.244  0.00  0.00    -0.048 A 
ATOM      7  C17 ZIN A   1      19.597  -4.696  10.374  0.00  0.00     0.008 A 
ATOM      8  C18 ZIN A   1      18.924  -5.695   9.702  0.00  0.00     0.001 A 
ATOM      9  C19 ZIN A   1      17.850  -5.377   8.893  0.00  0.00     0.001 A 
ATOM     10  C20 ZIN A   1      17.461  -4.059   8.759  0.00  0.00     0.010 A 
ATOM     11  C21 ZIN A   1      18.140  -3.052   9.430  0.00  0.00    -0.024 A 
ATOM     12  C22 ZIN A   1      17.680  -1.636   9.224  0.00  0.00     0.156 C 
ENDROOT
BRANCH   2  13
ATOM     13  O3  ZIN A   1      18.274   0.991  11.744  0.00  0.00    -0.296 OA
BRANCH  13  14
ATOM     14  C4  ZIN A   1      17.777   0.979  13.107  0.00  0.00     0.166 C 
ATOM     15  C10 ZIN A   1      18.885   1.438  14.063  0.00  0.00     0.020 C 
ATOM     16  C9  ZIN A   1      20.063   0.459  13.948  0.00  0.00     0.037 C 
ATOM     17  C11 ZIN A   1      18.345   1.389  15.498  0.00  0.00     0.037 C 
ATOM     18  C8  ZIN A   1      19.576  -0.948  14.304  0.00  0.00     0.273 C 
ATOM     19  N7  ZIN A   1      18.145  -0.898  14.636  0.00  0.00     0.090 N 
ATOM     20  C6  ZIN A   1      17.352  -0.443  13.486  0.00  0.00     0.305 C 
ATOM     21  C12 ZIN A   1      17.907  -0.048  15.811  0.00  0.00     0.273 C 
ENDBRANCH  13  14
ENDBRANCH   2  13
BRANCH  12  22
ATOM     22  C24 ZIN A   1      18.033  -1.192   7.828  0.00  0.00    -0.031 A 
ATOM     23  C29 ZIN A   1      19.049  -1.825   7.138  0.00  0.00     0.009 A 
ATOM     24  C28 ZIN A   1      19.371  -1.421   5.856  0.00  0.00     0.001 A 
ATOM     25  C27 ZIN A   1      18.681  -0.376   5.268  0.00  0.00     0.000 A 
ATOM     26  C26 ZIN A   1      17.668   0.260   5.959  0.00  0.00     0.001 A 
ATOM     27  C25 ZIN A   1      17.345  -0.148   7.240  0.00  0.00     0.009 A 
ENDBRANCH  12  22
TORSDOF 3
ENDMDL
MODEL 7
REMARK VINA RESULT:      -8.5      2.580      3.764
REMARK  3 active torsions:
REMARK  status: ('A' for Active; 'I' for Inactive)
REMARK    1  A    between atoms: C2_2  and  O3_3 
REMARK       I    between atoms: C2_2  and  N13_12 
REMARK    2  A    between atoms: O3_3  and  C4_4 
REMARK    3  A    between atoms: C22_21  and  C24_22 
ROOT
ATOM      1  O1  ZIN A   1      16.995   3.475  12.119  0.00  0.00    -0.238 OA
ATOM      2  C2  ZIN A   1      18.164   3.212  12.318  0.00  0.00     0.364 C 
ATOM      3  N13 ZIN A   1      18.676   2.044  11.879  0.00  0.00    -0.315 N 
ATOM      4  C14 ZIN A   1      20.087   1.694  12.110  0.00  0.00     0.134 C 
ATOM      5  C15 ZIN A   1      20.124   0.465  13.017  0.00  0.00     0.059 C 
ATOM      6  C16 ZIN A   1      19.169  -0.592  12.527  0.00  0.00    -0.048 A 
ATOM      7  C17 ZIN A   1      19.377  -1.897  12.956  0.00  0.00     0.008 A 
ATOM      8  C18 ZIN A   1      18.533  -2.911  12.552  0.00  0.00     0.001 A 
ATOM      9  C19 ZIN A   1      17.472  -2.629  11.714  0.00  0.00     0.001 A 
ATOM     10  C20 ZIN A   1      17.264  -1.335  11.284  0.00  0.00     0.010 A 
ATOM     11  C21 ZIN A   1      18.116  -0.314  11.684  0.00  0.00    -0.024 A 
ATOM     12  C22 ZIN A   1      17.848   1.070  11.161  0.00  0.00     0.156 C 
ENDROOT
BRANCH   2  13
ATOM     13  O3  ZIN A   1      18.947   4.084  12.980  0.00  0.00    -0.296 OA
BRANCH  13  14
ATOM     14  C4  ZIN A   1      18.411   4.654  14.202  0.00  0.00     0.166 C 
ATOM     15  C10 ZIN A   1      18.741   6.151  14.261  0.00  0.00     0.020 C 
ATOM     16  C9  ZIN A   1      20.270   6.313  14.256  0.00  0.00     0.037 C 
ATOM     17  C11 ZIN A   1      18.192   6.723  15.573  0.00  0.00     0.037 C 
ATOM     18  C8  ZIN A   1      20.850   5.572  15.465  0.00  0.00     0.273 C 
ATOM     19  N7  ZIN A   1      19.757   4.952  16.227  0.00  0.00     0.090 N 
ATOM     20  C6  ZIN A   1      19.044   3.959  15.412  0.00  0.00     0.305 C 
ATOM     21  C12 ZIN A   1      18.834   5.971  16.747  0.00  0.00     0.273 C 
ENDBRANCH  13  14
ENDBRANCH   2  13
BRANCH  12  22
ATOM     22  C24 ZIN A   1      18.182   1.124   9.692  0.00  0.00    -0.031 A 
ATOM     23  C29 ZIN A   1      19.027   2.106   9.212  0.00  0.00     0.009 A 
ATOM     24  C28 ZIN A   1      19.337   2.153   7.866  0.00  0.00     0.001 A 
ATOM     25  C27 ZIN A   1      18.794   1.223   6.998  0.00  0.00     0.000 A 
ATOM     26  C26 ZIN A   1      17.945   0.244   7.478  0.00  0.00     0.001 A 
ATOM     27  C25 ZIN A   1      17.638   0.195   8.826  0.00  0.00     0.009 A 
ENDBRANCH  12  22
TORSDOF 3
ENDMDL
MODEL 8
REMARK VINA RESULT:      -8.3      1.577      3.984
REMARK  3 active torsions:
REMARK  status: ('A' for Active; 'I' for Inactive)
REMARK    1  A    between atoms: C2_2  and  O3_3 
REMARK       I    between atoms: C2_2  and  N13_12 
REMARK    2  A    between atoms: O3_3  and  C4_4 
REMARK    3  A    between atoms: C22_21  and  C24_22 
ROOT
ATOM      1  O1  ZIN A   1      20.752  -0.135   9.616  0.00  0.00    -0.238 OA
ATOM      2  C2  ZIN A   1      19.620   0.230   9.367  0.00  0.00     0.364 C 
ATOM      3  N13 ZIN A   1      18.786  -0.582   8.687  0.00  0.00    -0.315 N 
ATOM      4  C14 ZIN A   1      17.411  -0.167   8.364  0.00  0.00     0.134 C 
ATOM      5  C15 ZIN A   1      17.293  -0.073   6.843  0.00  0.00     0.059 C 
ATOM      6  C16 ZIN A   1      17.871  -1.297   6.183  0.00  0.00    -0.048 A 
ATOM      7  C17 ZIN A   1      17.476  -1.575   4.881  0.00  0.00     0.008 A 
ATOM      8  C18 ZIN A   1      17.975  -2.675   4.216  0.00  0.00     0.001 A 
ATOM      9  C19 ZIN A   1      18.877  -3.510   4.848  0.00  0.00     0.001 A 
ATOM     10  C20 ZIN A   1      19.269  -3.238   6.143  0.00  0.00     0.010 A 
ATOM     11  C21 ZIN A   1      18.763  -2.135   6.816  0.00  0.00    -0.024 A 
ATOM     12  C22 ZIN A   1      19.214  -1.909   8.232  0.00  0.00     0.156 C 
ENDROOT
BRANCH   2  13
ATOM     13  O3  ZIN A   1      19.201   1.445   9.767  0.00  0.00    -0.296 OA
BRANCH  13  14
ATOM     14  C4  ZIN A   1      19.177   1.697  11.196  0.00  0.00     0.166 C 
ATOM     15  C10 ZIN A   1      17.760   2.102  11.623  0.00  0.00     0.020 C 
ATOM     16  C9  ZIN A   1      17.377   3.390  10.877  0.00  0.00     0.037 C 
ATOM     17  C11 ZIN A   1      17.766   2.391  13.129  0.00  0.00     0.037 C 
ATOM     18  C8  ZIN A   1      18.391   4.484  11.223  0.00  0.00     0.273 C 
ATOM     19  N7  ZIN A   1      19.394   3.942  12.150  0.00  0.00     0.090 N 
ATOM     20  C6  ZIN A   1      20.142   2.838  11.532  0.00  0.00     0.305 C 
ATOM     21  C12 ZIN A   1      18.770   3.517  13.411  0.00  0.00     0.273 C 
ENDBRANCH  13  14
ENDBRANCH   2  13
BRANCH  12  22
ATOM     22  C24 ZIN A   1      18.605  -2.958   9.126  0.00  0.00    -0.031 A 
ATOM     23  C29 ZIN A   1      17.531  -3.706   8.681  0.00  0.00     0.009 A 
ATOM     24  C28 ZIN A   1      16.975  -4.671   9.499  0.00  0.00     0.001 A 
ATOM     25  C27 ZIN A   1      17.488  -4.883  10.766  0.00  0.00     0.000 A 
ATOM     26  C26 ZIN A   1      18.558  -4.132  11.212  0.00  0.00     0.001 A 
ATOM     27  C25 ZIN A   1      19.117  -3.169  10.392  0.00  0.00     0.009 A 
ENDBRANCH  12  22
TORSDOF 3
ENDMDL
MODEL 9
REMARK VINA RESULT:      -8.2      2.478      6.673
REMARK  3 active torsions:
REMARK  status: ('A' for Active; 'I' for Inactive)
REMARK    1  A    between atoms: C2_2  and  O3_3 
REMARK       I    between atoms: C2_2  and  N13_12 
REMARK    2  A    between atoms: O3_3  and  C4_4 
REMARK    3  A    between atoms: C22_21  and  C24_22 
ROOT
ATOM      1  O1  ZIN A   1      20.278  -0.519   8.730  0.00  0.00    -0.238 OA
ATOM      2  C2  ZIN A   1      19.169  -0.920   9.027  0.00  0.00     0.364 C 
ATOM      3  N13 ZIN A   1      18.586  -0.500  10.167  0.00  0.00    -0.315 N 
ATOM      4  C14 ZIN A   1      17.247  -0.971  10.559  0.00  0.00     0.134 C 
ATOM      5  C15 ZIN A   1      17.390  -1.772  11.853  0.00  0.00     0.059 C 
ATOM      6  C16 ZIN A   1      18.235  -1.027  12.854  0.00  0.00    -0.048 A 
ATOM      7  C17 ZIN A   1      18.118  -1.387  14.190  0.00  0.00     0.008 A 
ATOM      8  C18 ZIN A   1      18.871  -0.752  15.156  0.00  0.00     0.001 A 
ATOM      9  C19 ZIN A   1      19.749   0.251  14.794  0.00  0.00     0.001 A 
ATOM     10  C20 ZIN A   1      19.865   0.613  13.467  0.00  0.00     0.010 A 
ATOM     11  C21 ZIN A   1      19.104  -0.021  12.495  0.00  0.00    -0.024 A 
ATOM     12  C22 ZIN A   1      19.261   0.437  11.071  0.00  0.00     0.156 C 
ENDROOT
BRANCH   2  13
ATOM     13  O3  ZIN A   1      18.528  -1.785   8.220  0.00  0.00    -0.296 OA
BRANCH  13  14
ATOM     14  C4  ZIN A   1      18.990  -3.161   8.228  0.00  0.00     0.166 C 
ATOM     15  C10 ZIN A   1      19.845  -3.424   6.982  0.00  0.00     0.020 C 
ATOM     16  C9  ZIN A   1      18.975  -3.192   5.737  0.00  0.00     0.037 C 
ATOM     17  C11 ZIN A   1      20.296  -4.889   6.998  0.00  0.00     0.037 C 
ATOM     18  C8  ZIN A   1      17.771  -4.137   5.790  0.00  0.00     0.273 C 
ATOM     19  N7  ZIN A   1      17.845  -4.951   7.011  0.00  0.00     0.090 N 
ATOM     20  C6  ZIN A   1      17.785  -4.106   8.212  0.00  0.00     0.305 C 
ATOM     21  C12 ZIN A   1      19.052  -5.789   7.013  0.00  0.00     0.273 C 
ENDBRANCH  13  14
ENDBRANCH   2  13
BRANCH  12  22
ATOM     22  C24 ZIN A   1      18.649   1.805  10.913  0.00  0.00    -0.031 A 
ATOM     23  C29 ZIN A   1      17.936   2.367  11.955  0.00  0.00     0.009 A 
ATOM     24  C28 ZIN A   1      17.378   3.623  11.813  0.00  0.00     0.001 A 
ATOM     25  C27 ZIN A   1      17.526   4.314  10.623  0.00  0.00     0.000 A 
ATOM     26  C26 ZIN A   1      18.235   3.750   9.580  0.00  0.00     0.001 A 
ATOM     27  C25 ZIN A   1      18.796   2.494   9.725  0.00  0.00     0.009 A 
ENDBRANCH  12  22
TORSDOF 3
ENDMDL
