MODEL 1
REMARK VINA RESULT:      -6.1      0.000      0.000
REMARK  5 active torsions:
REMARK  status: ('A' for Active; 'I' for Inactive)
REMARK    1  A    between atoms: C2_2  and  C3_3 
REMARK    2  A    between atoms: C3_3  and  N4_4 
REMARK    3  A    between atoms: N4_4  and  C5_5 
REMARK    4  A    between atoms: C5_5  and  C8_7 
REMARK       I    between atoms: C8_7  and  N10_9 
REMARK    5  A    between atoms: N10_9  and  C11_10 
ROOT
ATOM      1  C8  <0> d   1      19.094  -1.429  10.193  0.00  0.00     0.255 C 
ATOM      2  O9  <0> d   1      17.901  -1.499   9.992  0.00  0.00    -0.271 OA
ATOM      3  N10 <0> d   1      19.911  -0.942   9.239  0.00  0.00    -0.325 N 
ATOM      4  H29 <0> d   1      20.857  -0.826   9.423  0.00  0.00     0.169 HD
ENDROOT
BRANCH   1   5
ATOM      5  C5  <0> d   1      19.665  -1.888  11.511  0.00  0.00     0.307 C 
ATOM      6  C7  <0> d   1      18.529  -2.357  12.423  0.00  0.00     0.053 C 
BRANCH   5   7
ATOM      7  N4  <0> d   1      20.598  -2.999  11.279  0.00  0.00     0.096 N 
ATOM      8  H25 <0> d   1      21.389  -2.944  11.903  0.00  0.00     0.316 HD
BRANCH   7   9
ATOM      9  C3  <0> d   1      19.916  -4.294  11.406  0.00  0.00     0.270 C 
BRANCH   9  10
ATOM     10  C2  <0> d   1      19.831  -4.963  10.033  0.00  0.00     0.025 C 
ATOM     11  C1  <0> d   1      18.365  -5.112   9.627  0.00  0.00     0.007 C 
ENDBRANCH   9  10
ENDBRANCH   7   9
ENDBRANCH   5   7
ENDBRANCH   1   5
BRANCH   3  12
ATOM     12  C11 <0> d   1      19.395  -0.604   7.982  0.00  0.00     0.040 A 
ATOM     13  C16 <0> d   1      19.087   0.719   7.690  0.00  0.00    -0.035 A 
ATOM     14  C15 <0> d   1      18.585   1.050   6.447  0.00  0.00     0.009 A 
ATOM     15  C17 <0> d   1      19.312   1.792   8.723  0.00  0.00     0.050 C 
ATOM     16  C14 <0> d   1      18.378   0.065   5.498  0.00  0.00     0.001 A 
ATOM     17  C13 <0> d   1      18.678  -1.253   5.789  0.00  0.00     0.002 A 
ATOM     18  C12 <0> d   1      19.186  -1.590   7.028  0.00  0.00     0.030 A 
ENDBRANCH   3  12
TORSDOF 5
ENDMDL
MODEL 2
REMARK VINA RESULT:      -6.0      1.578      3.331
REMARK  5 active torsions:
REMARK  status: ('A' for Active; 'I' for Inactive)
REMARK    1  A    between atoms: C2_2  and  C3_3 
REMARK    2  A    between atoms: C3_3  and  N4_4 
REMARK    3  A    between atoms: N4_4  and  C5_5 
REMARK    4  A    between atoms: C5_5  and  C8_7 
REMARK       I    between atoms: C8_7  and  N10_9 
REMARK    5  A    between atoms: N10_9  and  C11_10 
ROOT
ATOM      1  C8  <0> d   1      18.781  -1.836  10.703  0.00  0.00     0.255 C 
ATOM      2  O9  <0> d   1      17.654  -1.417  10.552  0.00  0.00    -0.271 OA
ATOM      3  N10 <0> d   1      19.770  -1.419   9.888  0.00  0.00    -0.325 N 
ATOM      4  H29 <0> d   1      20.684  -1.704  10.049  0.00  0.00     0.169 HD
ENDROOT
BRANCH   1   5
ATOM      5  C5  <0> d   1      19.077  -2.823  11.803  0.00  0.00     0.307 C 
ATOM      6  C7  <0> d   1      20.006  -3.917  11.270  0.00  0.00     0.053 C 
BRANCH   5   7
ATOM      7  N4  <0> d   1      19.730  -2.128  12.921  0.00  0.00     0.096 N 
ATOM      8  H25 <0> d   1      20.412  -1.466  12.586  0.00  0.00     0.316 HD
BRANCH   7   9
ATOM      9  C3  <0> d   1      18.738  -1.473  13.784  0.00  0.00     0.270 C 
BRANCH   9  10
ATOM     10  C2  <0> d   1      19.312  -1.315  15.193  0.00  0.00     0.025 C 
ATOM     11  C1  <0> d   1      18.194  -1.494  16.221  0.00  0.00     0.007 C 
ENDBRANCH   9  10
ENDBRANCH   7   9
ENDBRANCH   5   7
ENDBRANCH   1   5
BRANCH   3  12
ATOM     12  C11 <0> d   1      19.479  -0.576   8.810  0.00  0.00     0.040 A 
ATOM     13  C16 <0> d   1      19.214  -1.115   7.557  0.00  0.00    -0.035 A 
ATOM     14  C15 <0> d   1      18.921  -0.280   6.497  0.00  0.00     0.009 A 
ATOM     15  C17 <0> d   1      19.234  -2.608   7.358  0.00  0.00     0.050 C 
ATOM     16  C14 <0> d   1      18.903   1.092   6.678  0.00  0.00     0.001 A 
ATOM     17  C13 <0> d   1      19.173   1.630   7.923  0.00  0.00     0.002 A 
ATOM     18  C12 <0> d   1      19.460   0.801   8.988  0.00  0.00     0.030 A 
ENDBRANCH   3  12
TORSDOF 5
ENDMDL
MODEL 3
REMARK VINA RESULT:      -6.0      3.338      4.684
REMARK  5 active torsions:
REMARK  status: ('A' for Active; 'I' for Inactive)
REMARK    1  A    between atoms: C2_2  and  C3_3 
REMARK    2  A    between atoms: C3_3  and  N4_4 
REMARK    3  A    between atoms: N4_4  and  C5_5 
REMARK    4  A    between atoms: C5_5  and  C8_7 
REMARK       I    between atoms: C8_7  and  N10_9 
REMARK    5  A    between atoms: N10_9  and  C11_10 
ROOT
ATOM      1  C8  <0> d   1      19.168   2.874  10.555  0.00  0.00     0.255 C 
ATOM      2  O9  <0> d   1      18.374   3.561   9.950  0.00  0.00    -0.271 OA
ATOM      3  N10 <0> d   1      19.514   1.663  10.077  0.00  0.00    -0.325 N 
ATOM      4  H29 <0> d   1      20.198   1.140  10.526  0.00  0.00     0.169 HD
ENDROOT
BRANCH   1   5
ATOM      5  C5  <0> d   1      19.770   3.374  11.844  0.00  0.00     0.307 C 
ATOM      6  C7  <0> d   1      19.020   4.625  12.305  0.00  0.00     0.053 C 
BRANCH   5   7
ATOM      7  N4  <0> d   1      19.660   2.330  12.872  0.00  0.00     0.096 N 
ATOM      8  H25 <0> d   1      20.400   2.414  13.553  0.00  0.00     0.316 HD
BRANCH   7   9
ATOM      9  C3  <0> d   1      18.342   2.365  13.519  0.00  0.00     0.270 C 
BRANCH   9  10
ATOM     10  C2  <0> d   1      17.970   0.959  13.996  0.00  0.00     0.025 C 
ATOM     11  C1  <0> d   1      19.114  -0.005  13.681  0.00  0.00     0.007 C 
ENDBRANCH   9  10
ENDBRANCH   7   9
ENDBRANCH   5   7
ENDBRANCH   1   5
BRANCH   3  12
ATOM     12  C11 <0> d   1      18.888   1.158   8.932  0.00  0.00     0.040 A 
ATOM     13  C16 <0> d   1      17.792   0.312   9.054  0.00  0.00    -0.035 A 
ATOM     14  C15 <0> d   1      17.172  -0.178   7.922  0.00  0.00     0.009 A 
ATOM     15  C17 <0> d   1      17.274  -0.059  10.419  0.00  0.00     0.050 C 
ATOM     16  C14 <0> d   1      17.648   0.161   6.668  0.00  0.00     0.001 A 
ATOM     17  C13 <0> d   1      18.741   0.998   6.544  0.00  0.00     0.002 A 
ATOM     18  C12 <0> d   1      19.362   1.497   7.672  0.00  0.00     0.030 A 
ENDBRANCH   3  12
TORSDOF 5
ENDMDL
MODEL 4
REMARK VINA RESULT:      -5.9      4.480      8.128
REMARK  5 active torsions:
REMARK  status: ('A' for Active; 'I' for Inactive)
REMARK    1  A    between atoms: C2_2  and  C3_3 
REMARK    2  A    between atoms: C3_3  and  N4_4 
REMARK    3  A    between atoms: N4_4  and  C5_5 
REMARK    4  A    between atoms: C5_5  and  C8_7 
REMARK       I    between atoms: C8_7  and  N10_9 
REMARK    5  A    between atoms: N10_9  and  C11_10 
ROOT
ATOM      1  C8  <0> d   1      19.058   1.681  12.735  0.00  0.00     0.255 C 
ATOM      2  O9  <0> d   1      17.850   1.579  12.759  0.00  0.00    -0.271 OA
ATOM      3  N10 <0> d   1      19.799   1.141  13.722  0.00  0.00    -0.325 N 
ATOM      4  H29 <0> d   1      20.768   1.166  13.670  0.00  0.00     0.169 HD
ENDROOT
BRANCH   1   5
ATOM      5  C5  <0> d   1      19.731   2.412  11.601  0.00  0.00     0.307 C 
ATOM      6  C7  <0> d   1      18.676   2.866  10.589  0.00  0.00     0.053 C 
BRANCH   5   7
ATOM      7  N4  <0> d   1      20.440   3.586  12.129  0.00  0.00     0.096 N 
ATOM      8  H25 <0> d   1      21.191   3.862  11.515  0.00  0.00     0.316 HD
BRANCH   7   9
ATOM      9  C3  <0> d   1      19.512   4.701  12.362  0.00  0.00     0.270 C 
BRANCH   9  10
ATOM     10  C2  <0> d   1      19.642   5.180  13.809  0.00  0.00     0.025 C 
ATOM     11  C1  <0> d   1      18.364   4.838  14.575  0.00  0.00     0.007 C 
ENDBRANCH   9  10
ENDBRANCH   7   9
ENDBRANCH   5   7
ENDBRANCH   1   5
BRANCH   3  12
ATOM     12  C11 <0> d   1      19.172   0.544  14.821  0.00  0.00     0.040 A 
ATOM     13  C16 <0> d   1      18.930  -0.824  14.826  0.00  0.00    -0.035 A 
ATOM     14  C15 <0> d   1      18.318  -1.411  15.916  0.00  0.00     0.009 A 
ATOM     15  C17 <0> d   1      19.347  -1.668  13.650  0.00  0.00     0.050 C 
ATOM     16  C14 <0> d   1      17.934  -0.636  16.996  0.00  0.00     0.001 A 
ATOM     17  C13 <0> d   1      18.169   0.726  16.991  0.00  0.00     0.002 A 
ATOM     18  C12 <0> d   1      18.786   1.318  15.907  0.00  0.00     0.030 A 
ENDBRANCH   3  12
TORSDOF 5
ENDMDL
MODEL 5
REMARK VINA RESULT:      -5.9      1.212      2.475
REMARK  5 active torsions:
REMARK  status: ('A' for Active; 'I' for Inactive)
REMARK    1  A    between atoms: C2_2  and  C3_3 
REMARK    2  A    between atoms: C3_3  and  N4_4 
REMARK    3  A    between atoms: N4_4  and  C5_5 
REMARK    4  A    between atoms: C5_5  and  C8_7 
REMARK       I    between atoms: C8_7  and  N10_9 
REMARK    5  A    between atoms: N10_9  and  C11_10 
ROOT
ATOM      1  C8  <0> d   1      18.807  -2.359   9.260  0.00  0.00     0.255 C 
ATOM      2  O9  <0> d   1      17.714  -2.662   8.833  0.00  0.00    -0.271 OA
ATOM      3  N10 <0> d   1      19.643  -1.619   8.506  0.00  0.00    -0.325 N 
ATOM      4  H29 <0> d   1      20.492  -1.322   8.871  0.00  0.00     0.169 HD
ENDROOT
BRANCH   1   5
ATOM      5  C5  <0> d   1      19.233  -2.810  10.634  0.00  0.00     0.307 C 
ATOM      6  C7  <0> d   1      19.745  -4.250  10.562  0.00  0.00     0.053 C 
BRANCH   5   7
ATOM      7  N4  <0> d   1      20.303  -1.933  11.127  0.00  0.00     0.096 N 
ATOM      8  H25 <0> d   1      20.736  -1.429  10.368  0.00  0.00     0.316 HD
BRANCH   7   9
ATOM      9  C3  <0> d   1      19.798  -1.011  12.152  0.00  0.00     0.270 C 
BRANCH   9  10
ATOM     10  C2  <0> d   1      18.963  -1.788  13.172  0.00  0.00     0.025 C 
ATOM     11  C1  <0> d   1      19.238  -1.247  14.575  0.00  0.00     0.007 C 
ENDBRANCH   9  10
ENDBRANCH   7   9
ENDBRANCH   5   7
ENDBRANCH   1   5
BRANCH   3  12
ATOM     12  C11 <0> d   1      19.288  -1.279   7.195  0.00  0.00     0.040 A 
ATOM     13  C16 <0> d   1      18.870   0.013   6.901  0.00  0.00    -0.035 A 
ATOM     14  C15 <0> d   1      18.527   0.346   5.606  0.00  0.00     0.009 A 
ATOM     15  C17 <0> d   1      18.803   1.051   7.991  0.00  0.00     0.050 C 
ATOM     16  C14 <0> d   1      18.587  -0.607   4.605  0.00  0.00     0.001 A 
ATOM     17  C13 <0> d   1      18.998  -1.895   4.897  0.00  0.00     0.002 A 
ATOM     18  C12 <0> d   1      19.348  -2.233   6.188  0.00  0.00     0.030 A 
ENDBRANCH   3  12
TORSDOF 5
ENDMDL
MODEL 6
REMARK VINA RESULT:      -5.8      1.266      2.090
REMARK  5 active torsions:
REMARK  status: ('A' for Active; 'I' for Inactive)
REMARK    1  A    between atoms: C2_2  and  C3_3 
REMARK    2  A    between atoms: C3_3  and  N4_4 
REMARK    3  A    between atoms: N4_4  and  C5_5 
REMARK    4  A    between atoms: C5_5  and  C8_7 
REMARK       I    between atoms: C8_7  and  N10_9 
REMARK    5  A    between atoms: N10_9  and  C11_10 
ROOT
ATOM      1  C8  <0> d   1      19.527  -1.079   9.591  0.00  0.00     0.255 C 
ATOM      2  O9  <0> d   1      20.383  -0.298   9.237  0.00  0.00    -0.271 OA
ATOM      3  N10 <0> d   1      18.640  -1.558   8.697  0.00  0.00    -0.325 N 
ATOM      4  H29 <0> d   1      17.995  -2.232   8.966  0.00  0.00     0.169 HD
ENDROOT
BRANCH   1   5
ATOM      5  C5  <0> d   1      19.454  -1.517  11.032  0.00  0.00     0.307 C 
ATOM      6  C7  <0> d   1      18.018  -1.925  11.369  0.00  0.00     0.053 C 
BRANCH   5   7
ATOM      7  N4  <0> d   1      20.351  -2.662  11.242  0.00  0.00     0.096 N 
ATOM      8  H25 <0> d   1      20.984  -2.490  12.008  0.00  0.00     0.316 HD
BRANCH   7   9
ATOM      9  C3  <0> d   1      19.587  -3.897  11.455  0.00  0.00     0.270 C 
BRANCH   9  10
ATOM     10  C2  <0> d   1      19.870  -4.877  10.315  0.00  0.00     0.025 C 
ATOM     11  C1  <0> d   1      18.561  -5.229   9.608  0.00  0.00     0.007 C 
ENDBRANCH   9  10
ENDBRANCH   7   9
ENDBRANCH   5   7
ENDBRANCH   1   5
BRANCH   3  12
ATOM     12  C11 <0> d   1      18.647  -1.082   7.381  0.00  0.00     0.040 A 
ATOM     13  C16 <0> d   1      19.175  -1.864   6.362  0.00  0.00    -0.035 A 
ATOM     14  C15 <0> d   1      19.174  -1.394   5.063  0.00  0.00     0.009 A 
ATOM     15  C17 <0> d   1      19.736  -3.228   6.670  0.00  0.00     0.050 C 
ATOM     16  C14 <0> d   1      18.660  -0.142   4.779  0.00  0.00     0.001 A 
ATOM     17  C13 <0> d   1      18.140   0.641   5.793  0.00  0.00     0.002 A 
ATOM     18  C12 <0> d   1      18.132   0.174   7.092  0.00  0.00     0.030 A 
ENDBRANCH   3  12
TORSDOF 5
ENDMDL
MODEL 7
REMARK VINA RESULT:      -5.8      5.346      6.642
REMARK  5 active torsions:
REMARK  status: ('A' for Active; 'I' for Inactive)
REMARK    1  A    between atoms: C2_2  and  C3_3 
REMARK    2  A    between atoms: C3_3  and  N4_4 
REMARK    3  A    between atoms: N4_4  and  C5_5 
REMARK    4  A    between atoms: C5_5  and  C8_7 
REMARK       I    between atoms: C8_7  and  N10_9 
REMARK    5  A    between atoms: N10_9  and  C11_10 
ROOT
ATOM      1  C8  <0> d   1      18.701   2.491  14.686  0.00  0.00     0.255 C 
ATOM      2  O9  <0> d   1      17.819   1.780  14.254  0.00  0.00    -0.271 OA
ATOM      3  N10 <0> d   1      19.282   3.405  13.885  0.00  0.00    -0.325 N 
ATOM      4  H29 <0> d   1      19.942   4.018  14.246  0.00  0.00     0.169 HD
ENDROOT
BRANCH   1   5
ATOM      5  C5  <0> d   1      19.147   2.354  16.120  0.00  0.00     0.307 C 
ATOM      6  C7  <0> d   1      19.694   3.695  16.614  0.00  0.00     0.053 C 
BRANCH   5   7
ATOM      7  N4  <0> d   1      18.004   1.954  16.951  0.00  0.00     0.096 N 
ATOM      8  H25 <0> d   1      17.153   1.928  16.409  0.00  0.00     0.316 HD
BRANCH   7   9
ATOM      9  C3  <0> d   1      18.253   0.660  17.602  0.00  0.00     0.270 C 
BRANCH   9  10
ATOM     10  C2  <0> d   1      17.345  -0.405  16.985  0.00  0.00     0.025 C 
ATOM     11  C1  <0> d   1      18.185  -1.369  16.148  0.00  0.00     0.007 C 
ENDBRANCH   9  10
ENDBRANCH   7   9
ENDBRANCH   5   7
ENDBRANCH   1   5
BRANCH   3  12
ATOM     12  C11 <0> d   1      18.935   3.470  12.530  0.00  0.00     0.040 A 
ATOM     13  C16 <0> d   1      18.000   4.401  12.096  0.00  0.00    -0.035 A 
ATOM     14  C15 <0> d   1      17.666   4.467  10.758  0.00  0.00     0.009 A 
ATOM     15  C17 <0> d   1      17.363   5.346  13.081  0.00  0.00     0.050 C 
ATOM     16  C14 <0> d   1      18.250   3.600   9.853  0.00  0.00     0.001 A 
ATOM     17  C13 <0> d   1      19.177   2.668  10.284  0.00  0.00     0.002 A 
ATOM     18  C12 <0> d   1      19.520   2.601  11.620  0.00  0.00     0.030 A 
ENDBRANCH   3  12
TORSDOF 5
ENDMDL
MODEL 8
REMARK VINA RESULT:      -5.6      2.702      6.606
REMARK  5 active torsions:
REMARK  status: ('A' for Active; 'I' for Inactive)
REMARK    1  A    between atoms: C2_2  and  C3_3 
REMARK    2  A    between atoms: C3_3  and  N4_4 
REMARK    3  A    between atoms: N4_4  and  C5_5 
REMARK    4  A    between atoms: C5_5  and  C8_7 
REMARK       I    between atoms: C8_7  and  N10_9 
REMARK    5  A    between atoms: N10_9  and  C11_10 
ROOT
ATOM      1  C8  <0> d   1      17.532   0.774  11.356  0.00  0.00     0.255 C 
ATOM      2  O9  <0> d   1      16.448   0.320  11.652  0.00  0.00    -0.271 OA
ATOM      3  N10 <0> d   1      18.554   0.704  12.232  0.00  0.00    -0.325 N 
ATOM      4  H29 <0> d   1      19.438   1.009  11.972  0.00  0.00     0.169 HD
ENDROOT
BRANCH   1   5
ATOM      5  C5  <0> d   1      17.738   1.418  10.008  0.00  0.00     0.307 C 
ATOM      6  C7  <0> d   1      18.206   2.862  10.199  0.00  0.00     0.053 C 
BRANCH   5   7
ATOM      7  N4  <0> d   1      18.756   0.668   9.259  0.00  0.00     0.096 N 
ATOM      8  H25 <0> d   1      19.064  -0.141   9.778  0.00  0.00     0.316 HD
BRANCH   7   9
ATOM      9  C3  <0> d   1      18.257   0.285   7.932  0.00  0.00     0.270 C 
BRANCH   9  10
ATOM     10  C2  <0> d   1      18.901   1.175   6.868  0.00  0.00     0.025 C 
ATOM     11  C1  <0> d   1      19.054   0.386   5.567  0.00  0.00     0.007 C 
ENDBRANCH   9  10
ENDBRANCH   7   9
ENDBRANCH   5   7
ENDBRANCH   1   5
BRANCH   3  12
ATOM     12  C11 <0> d   1      18.340   0.193  13.517  0.00  0.00     0.040 A 
ATOM     13  C16 <0> d   1      18.694  -1.118  13.811  0.00  0.00    -0.035 A 
ATOM     14  C15 <0> d   1      18.488  -1.617  15.082  0.00  0.00     0.009 A 
ATOM     15  C17 <0> d   1      19.313  -1.989  12.750  0.00  0.00     0.050 C 
ATOM     16  C14 <0> d   1      17.919  -0.818  16.057  0.00  0.00     0.001 A 
ATOM     17  C13 <0> d   1      17.561   0.485  15.765  0.00  0.00     0.002 A 
ATOM     18  C12 <0> d   1      17.770   0.992  14.498  0.00  0.00     0.030 A 
ENDBRANCH   3  12
TORSDOF 5
ENDMDL
MODEL 9
REMARK VINA RESULT:      -5.6      3.965      5.280
REMARK  5 active torsions:
REMARK  status: ('A' for Active; 'I' for Inactive)
REMARK    1  A    between atoms: C2_2  and  C3_3 
REMARK    2  A    between atoms: C3_3  and  N4_4 
REMARK    3  A    between atoms: N4_4  and  C5_5 
REMARK    4  A    between atoms: C5_5  and  C8_7 
REMARK       I    between atoms: C8_7  and  N10_9 
REMARK    5  A    between atoms: N10_9  and  C11_10 
ROOT
ATOM      1  C8  <0> d   1      18.757   2.108  12.852  0.00  0.00     0.255 C 
ATOM      2  O9  <0> d   1      19.718   1.404  12.629  0.00  0.00    -0.271 OA
ATOM      3  N10 <0> d   1      17.860   2.352  11.876  0.00  0.00    -0.325 N 
ATOM      4  H29 <0> d   1      17.057   2.862  12.071  0.00  0.00     0.169 HD
ENDROOT
BRANCH   1   5
ATOM      5  C5  <0> d   1      18.565   2.713  14.219  0.00  0.00     0.307 C 
ATOM      6  C7  <0> d   1      17.853   4.062  14.085  0.00  0.00     0.053 C 
BRANCH   5   7
ATOM      7  N4  <0> d   1      17.751   1.810  15.044  0.00  0.00     0.096 N 
ATOM      8  H25 <0> d   1      17.347   1.074  14.483  0.00  0.00     0.316 HD
BRANCH   7   9
ATOM      9  C3  <0> d   1      18.540   1.255  16.152  0.00  0.00     0.270 C 
BRANCH   9  10
ATOM     10  C2  <0> d   1      18.111  -0.191  16.410  0.00  0.00     0.025 C 
ATOM     11  C1  <0> d   1      18.153  -0.977  15.100  0.00  0.00     0.007 C 
ENDBRANCH   9  10
ENDBRANCH   7   9
ENDBRANCH   5   7
ENDBRANCH   1   5
BRANCH   3  12
ATOM     12  C11 <0> d   1      18.085   1.868  10.582  0.00  0.00     0.040 A 
ATOM     13  C16 <0> d   1      17.523   0.662  10.183  0.00  0.00    -0.035 A 
ATOM     14  C15 <0> d   1      17.742   0.192   8.903  0.00  0.00     0.009 A 
ATOM     15  C17 <0> d   1      16.667  -0.126  11.140  0.00  0.00     0.050 C 
ATOM     16  C14 <0> d   1      18.529   0.914   8.024  0.00  0.00     0.001 A 
ATOM     17  C13 <0> d   1      19.093   2.112   8.421  0.00  0.00     0.002 A 
ATOM     18  C12 <0> d   1      18.873   2.591   9.697  0.00  0.00     0.030 A 
ENDBRANCH   3  12
TORSDOF 5
ENDMDL
