MODEL 1
REMARK VINA RESULT:      -9.5      0.000      0.000
REMARK  3 active torsions:
REMARK  status: ('A' for Active; 'I' for Inactive)
REMARK    1  A    between atoms: C6_6  and  N8_7 
REMARK    2  A    between atoms: C10_9  and  C11_10 
REMARK    3  A    between atoms: C11_10  and  C12_11 
ROOT
ATOM      1  N8  <0> d   1      18.324  -0.506  10.486  0.00  0.00    -0.229 N 
ATOM      2  N9  <0> d   1      18.708  -0.072   9.216  0.00  0.00    -0.173 NA
ATOM      3  C10 <0> d   1      18.711   1.182   8.875  0.00  0.00     0.070 A 
ATOM      4  C19 <0> d   1      18.301   2.205   9.838  0.00  0.00     0.006 A 
ATOM      5  C20 <0> d   1      18.293   3.561   9.511  0.00  0.00     0.014 A 
ATOM      6  C21 <0> d   1      17.899   4.485  10.454  0.00  0.00     0.001 A 
ATOM      7  C22 <0> d   1      17.513   4.081  11.725  0.00  0.00     0.001 A 
ATOM      8  C23 <0> d   1      17.514   2.747  12.071  0.00  0.00     0.018 A 
ATOM      9  C24 <0> d   1      17.908   1.796  11.132  0.00  0.00     0.046 A 
ATOM     10  C25 <0> d   1      17.925   0.359  11.441  0.00  0.00     0.275 A 
ATOM     11  O26 <0> d   1      17.590  -0.042  12.541  0.00  0.00    -0.266 OA
ENDROOT
BRANCH   1  12
ATOM     12  C6  <0> d   1      18.348  -1.939  10.787  0.00  0.00     0.115 C 
ATOM     13  C5  <0> d   1      19.737  -2.306  11.347  0.00  0.00     0.029 C 
ATOM     14  C4  <0> d   1      20.003  -3.820  11.280  0.00  0.00     0.032 C 
ATOM     15  C3  <0> d   1      18.780  -4.617  11.658  0.00  0.00     0.272 C 
ATOM     16  N2  <0> d   1      18.065  -4.975  10.418  0.00  0.00     0.084 N 
ATOM     17  C1  <0> d   1      17.342  -6.244  10.574  0.00  0.00     0.309 C 
ATOM     18  C28 <0> d   1      17.223  -3.977   9.918  0.00  0.00     0.274 C 
ATOM     19  C27 <0> d   1      18.009  -2.704   9.534  0.00  0.00     0.057 C 
ENDBRANCH   1  12
BRANCH   3  20
ATOM     20  C11 <0> d   1      19.137   1.583   7.486  0.00  0.00     0.100 C 
BRANCH  20  21
ATOM     21  C12 <0> d   1      18.618   0.577   6.491  0.00  0.00    -0.052 A 
ATOM     22  C18 <0> d   1      19.448   0.097   5.497  0.00  0.00     0.009 A 
ATOM     23  C17 <0> d   1      18.974  -0.831   4.587  0.00  0.00     0.024 A 
ATOM     24  C15 <0> d   1      17.664  -1.269   4.667  0.00  0.00     0.034 A 
ATOM     25  C14 <0> d   1      16.831  -0.784   5.660  0.00  0.00     0.024 A 
ATOM     26 Cl16 <0> d   1      17.065  -2.427   3.521  0.00  0.00    -0.084 Cl
ATOM     27  C13 <0> d   1      17.308   0.138   6.571  0.00  0.00     0.009 A 
ENDBRANCH  20  21
ENDBRANCH   3  20
TORSDOF 3
ENDMDL
MODEL 2
REMARK VINA RESULT:      -9.1      3.633      6.319
REMARK  3 active torsions:
REMARK  status: ('A' for Active; 'I' for Inactive)
REMARK    1  A    between atoms: C6_6  and  N8_7 
REMARK    2  A    between atoms: C10_9  and  C11_10 
REMARK    3  A    between atoms: C11_10  and  C12_11 
ROOT
ATOM      1  N8  <0> d   1      18.457   0.069  11.495  0.00  0.00    -0.229 N 
ATOM      2  N9  <0> d   1      18.430   1.410  11.110  0.00  0.00    -0.173 NA
ATOM      3  C10 <0> d   1      18.543   1.787   9.871  0.00  0.00     0.070 A 
ATOM      4  C19 <0> d   1      18.707   0.789   8.814  0.00  0.00     0.006 A 
ATOM      5  C20 <0> d   1      18.830   1.153   7.472  0.00  0.00     0.014 A 
ATOM      6  C21 <0> d   1      18.981   0.175   6.514  0.00  0.00     0.001 A 
ATOM      7  C22 <0> d   1      19.010  -1.167   6.868  0.00  0.00     0.001 A 
ATOM      8  C23 <0> d   1      18.890  -1.550   8.187  0.00  0.00     0.018 A 
ATOM      9  C24 <0> d   1      18.736  -0.578   9.172  0.00  0.00     0.046 A 
ATOM     10  C25 <0> d   1      18.609  -0.925  10.594  0.00  0.00     0.275 A 
ATOM     11  O26 <0> d   1      18.634  -2.089  10.953  0.00  0.00    -0.266 OA
ENDROOT
BRANCH   1  12
ATOM     12  C6  <0> d   1      18.323  -0.269  12.914  0.00  0.00     0.115 C 
ATOM     13  C5  <0> d   1      17.366   0.741  13.578  0.00  0.00     0.029 C 
ATOM     14  C4  <0> d   1      17.504   0.741  15.110  0.00  0.00     0.032 C 
ATOM     15  C3  <0> d   1      17.655  -0.657  15.655  0.00  0.00     0.272 C 
ATOM     16  N2  <0> d   1      19.096  -0.934  15.811  0.00  0.00     0.084 N 
ATOM     17  C1  <0> d   1      19.334  -1.877  16.911  0.00  0.00     0.309 C 
ATOM     18  C28 <0> d   1      19.741  -1.353  14.643  0.00  0.00     0.274 C 
ATOM     19  C27 <0> d   1      19.693  -0.270  13.543  0.00  0.00     0.057 C 
ENDBRANCH   1  12
BRANCH   3  20
ATOM     20  C11 <0> d   1      18.507   3.253   9.525  0.00  0.00     0.100 C 
BRANCH  20  21
ATOM     21  C12 <0> d   1      18.132   4.050  10.748  0.00  0.00    -0.052 A 
ATOM     22  C18 <0> d   1      16.883   4.636  10.834  0.00  0.00     0.009 A 
ATOM     23  C17 <0> d   1      16.536   5.362  11.958  0.00  0.00     0.024 A 
ATOM     24  C15 <0> d   1      17.443   5.511  12.992  0.00  0.00     0.034 A 
ATOM     25  C14 <0> d   1      18.695   4.928  12.903  0.00  0.00     0.024 A 
ATOM     26 Cl16 <0> d   1      17.011   6.429  14.400  0.00  0.00    -0.084 Cl
ATOM     27  C13 <0> d   1      19.039   4.198  11.782  0.00  0.00     0.009 A 
ENDBRANCH  20  21
ENDBRANCH   3  20
TORSDOF 3
ENDMDL
MODEL 3
REMARK VINA RESULT:      -9.0      4.106      7.207
REMARK  3 active torsions:
REMARK  status: ('A' for Active; 'I' for Inactive)
REMARK    1  A    between atoms: C6_6  and  N8_7 
REMARK    2  A    between atoms: C10_9  and  C11_10 
REMARK    3  A    between atoms: C11_10  and  C12_11 
ROOT
ATOM      1  N8  <0> d   1      17.859   2.776  11.699  0.00  0.00    -0.229 N 
ATOM      2  N9  <0> d   1      18.571   2.283  12.793  0.00  0.00    -0.173 NA
ATOM      3  C10 <0> d   1      18.639   2.913  13.928  0.00  0.00     0.070 A 
ATOM      4  C19 <0> d   1      17.951   4.193  14.097  0.00  0.00     0.006 A 
ATOM      5  C20 <0> d   1      17.998   4.900  15.299  0.00  0.00     0.014 A 
ATOM      6  C21 <0> d   1      17.332   6.101  15.408  0.00  0.00     0.001 A 
ATOM      7  C22 <0> d   1      16.614   6.614  14.336  0.00  0.00     0.001 A 
ATOM      8  C23 <0> d   1      16.554   5.934  13.139  0.00  0.00     0.018 A 
ATOM      9  C24 <0> d   1      17.220   4.717  13.007  0.00  0.00     0.046 A 
ATOM     10  C25 <0> d   1      17.196   3.949  11.755  0.00  0.00     0.275 A 
ATOM     11  O26 <0> d   1      16.583   4.362  10.786  0.00  0.00    -0.266 OA
ENDROOT
BRANCH   1  12
ATOM     12  C6  <0> d   1      17.835   2.001  10.456  0.00  0.00     0.115 C 
ATOM     13  C5  <0> d   1      17.305   0.586  10.762  0.00  0.00     0.029 C 
ATOM     14  C4  <0> d   1      17.651  -0.411   9.642  0.00  0.00     0.032 C 
ATOM     15  C3  <0> d   1      17.475   0.203   8.276  0.00  0.00     0.272 C 
ATOM     16  N2  <0> d   1      18.786   0.717   7.834  0.00  0.00     0.084 N 
ATOM     17  C1  <0> d   1      18.900   0.676   6.370  0.00  0.00     0.309 C 
ATOM     18  C28 <0> d   1      19.116   1.982   8.327  0.00  0.00     0.274 C 
ATOM     19  C27 <0> d   1      19.222   1.986   9.868  0.00  0.00     0.057 C 
ENDBRANCH   1  12
BRANCH   3  20
ATOM     20  C11 <0> d   1      19.428   2.325  15.070  0.00  0.00     0.100 C 
BRANCH  20  21
ATOM     21  C12 <0> d   1      18.740   1.080  15.567  0.00  0.00    -0.052 A 
ATOM     22  C18 <0> d   1      17.814   1.164  16.589  0.00  0.00     0.009 A 
ATOM     23  C17 <0> d   1      17.178   0.022  17.043  0.00  0.00     0.024 A 
ATOM     24  C15 <0> d   1      17.478  -1.205  16.479  0.00  0.00     0.034 A 
ATOM     25  C14 <0> d   1      18.409  -1.289  15.459  0.00  0.00     0.024 A 
ATOM     26 Cl16 <0> d   1      16.687  -2.640  17.053  0.00  0.00    -0.084 Cl
ATOM     27  C13 <0> d   1      19.040  -0.147  15.004  0.00  0.00     0.009 A 
ENDBRANCH  20  21
ENDBRANCH   3  20
TORSDOF 3
ENDMDL
MODEL 4
REMARK VINA RESULT:      -8.9      3.852      6.119
REMARK  3 active torsions:
REMARK  status: ('A' for Active; 'I' for Inactive)
REMARK    1  A    between atoms: C6_6  and  N8_7 
REMARK    2  A    between atoms: C10_9  and  C11_10 
REMARK    3  A    between atoms: C11_10  and  C12_11 
ROOT
ATOM      1  N8  <0> d   1      18.372  -1.733  10.560  0.00  0.00    -0.229 N 
ATOM      2  N9  <0> d   1      19.153  -1.532  11.698  0.00  0.00    -0.173 NA
ATOM      3  C10 <0> d   1      19.580  -0.358  12.058  0.00  0.00     0.070 A 
ATOM      4  C19 <0> d   1      19.246   0.820  11.257  0.00  0.00     0.006 A 
ATOM      5  C20 <0> d   1      19.684   2.097  11.609  0.00  0.00     0.014 A 
ATOM      6  C21 <0> d   1      19.340   3.174  10.821  0.00  0.00     0.001 A 
ATOM      7  C22 <0> d   1      18.564   3.003   9.683  0.00  0.00     0.001 A 
ATOM      8  C23 <0> d   1      18.120   1.751   9.316  0.00  0.00     0.018 A 
ATOM      9  C24 <0> d   1      18.455   0.648  10.098  0.00  0.00     0.046 A 
ATOM     10  C25 <0> d   1      18.015  -0.712   9.754  0.00  0.00     0.275 A 
ATOM     11  O26 <0> d   1      17.336  -0.911   8.763  0.00  0.00    -0.266 OA
ENDROOT
BRANCH   1  12
ATOM     12  C6  <0> d   1      17.933  -3.090  10.227  0.00  0.00     0.115 C 
ATOM     13  C5  <0> d   1      17.355  -3.751  11.495  0.00  0.00     0.029 C 
ATOM     14  C4  <0> d   1      17.278  -5.282  11.361  0.00  0.00     0.032 C 
ATOM     15  C3  <0> d   1      16.810  -5.698   9.989  0.00  0.00     0.272 C 
ATOM     16  N2  <0> d   1      18.002  -5.970   9.163  0.00  0.00     0.084 N 
ATOM     17  C1  <0> d   1      17.715  -6.990   8.145  0.00  0.00     0.309 C 
ATOM     18  C28 <0> d   1      18.587  -4.839   8.587  0.00  0.00     0.274 C 
ATOM     19  C27 <0> d   1      19.102  -3.853   9.659  0.00  0.00     0.057 C 
ENDBRANCH   1  12
BRANCH   3  20
ATOM     20  C11 <0> d   1      20.422  -0.210  13.299  0.00  0.00     0.100 C 
BRANCH  20  21
ATOM     21  C12 <0> d   1      19.524  -0.019  14.495  0.00  0.00    -0.052 A 
ATOM     22  C18 <0> d   1      19.280   1.252  14.978  0.00  0.00     0.009 A 
ATOM     23  C17 <0> d   1      18.453   1.429  16.072  0.00  0.00     0.024 A 
ATOM     24  C15 <0> d   1      17.878   0.332  16.688  0.00  0.00     0.034 A 
ATOM     25  C14 <0> d   1      18.127  -0.941  16.206  0.00  0.00     0.024 A 
ATOM     26 Cl16 <0> d   1      16.845   0.552  18.066  0.00  0.00    -0.084 Cl
ATOM     27  C13 <0> d   1      18.950  -1.116  15.111  0.00  0.00     0.009 A 
ENDBRANCH  20  21
ENDBRANCH   3  20
TORSDOF 3
ENDMDL
MODEL 5
REMARK VINA RESULT:      -8.9      2.020      5.849
REMARK  3 active torsions:
REMARK  status: ('A' for Active; 'I' for Inactive)
REMARK    1  A    between atoms: C6_6  and  N8_7 
REMARK    2  A    between atoms: C10_9  and  C11_10 
REMARK    3  A    between atoms: C11_10  and  C12_11 
ROOT
ATOM      1  N8  <0> d   1      18.387  -1.276   9.780  0.00  0.00    -0.229 N 
ATOM      2  N9  <0> d   1      19.033  -1.796   8.658  0.00  0.00    -0.173 NA
ATOM      3  C10 <0> d   1      19.028  -3.064   8.370  0.00  0.00     0.070 A 
ATOM      4  C19 <0> d   1      18.327  -4.009   9.239  0.00  0.00     0.006 A 
ATOM      5  C20 <0> d   1      18.297  -5.377   8.965  0.00  0.00     0.014 A 
ATOM      6  C21 <0> d   1      17.621  -6.226   9.814  0.00  0.00     0.001 A 
ATOM      7  C22 <0> d   1      16.970  -5.735  10.938  0.00  0.00     0.001 A 
ATOM      8  C23 <0> d   1      16.985  -4.388  11.229  0.00  0.00     0.018 A 
ATOM      9  C24 <0> d   1      17.662  -3.512  10.383  0.00  0.00     0.046 A 
ATOM     10  C25 <0> d   1      17.718  -2.067  10.644  0.00  0.00     0.275 A 
ATOM     11  O26 <0> d   1      17.165  -1.592  11.620  0.00  0.00    -0.266 OA
ENDROOT
BRANCH   1  12
ATOM     12  C6  <0> d   1      18.443   0.166  10.030  0.00  0.00     0.115 C 
ATOM     13  C5  <0> d   1      18.360   0.908   8.681  0.00  0.00     0.029 C 
ATOM     14  C4  <0> d   1      18.843   2.365   8.796  0.00  0.00     0.032 C 
ATOM     15  C3  <0> d   1      18.357   3.013  10.068  0.00  0.00     0.272 C 
ATOM     16  N2  <0> d   1      19.420   2.880  11.084  0.00  0.00     0.084 N 
ATOM     17  C1  <0> d   1      19.380   3.999  12.036  0.00  0.00     0.309 C 
ATOM     18  C28 <0> d   1      19.440   1.654  11.753  0.00  0.00     0.274 C 
ATOM     19  C27 <0> d   1      19.708   0.479  10.787  0.00  0.00     0.057 C 
ENDBRANCH   1  12
BRANCH   3  20
ATOM     20  C11 <0> d   1      19.746  -3.560   7.142  0.00  0.00     0.100 C 
BRANCH  20  21
ATOM     21  C12 <0> d   1      18.775  -3.649   5.993  0.00  0.00    -0.052 A 
ATOM     22  C18 <0> d   1      18.308  -4.881   5.578  0.00  0.00     0.009 A 
ATOM     23  C17 <0> d   1      17.412  -4.963   4.527  0.00  0.00     0.024 A 
ATOM     24  C15 <0> d   1      16.993  -3.812   3.885  0.00  0.00     0.034 A 
ATOM     25  C14 <0> d   1      17.466  -2.578   4.298  0.00  0.00     0.024 A 
ATOM     26 Cl16 <0> d   1      15.876  -3.914   2.560  0.00  0.00    -0.084 Cl
ATOM     27  C13 <0> d   1      18.356  -2.497   5.351  0.00  0.00     0.009 A 
ENDBRANCH  20  21
ENDBRANCH   3  20
TORSDOF 3
ENDMDL
MODEL 6
REMARK VINA RESULT:      -8.7      2.728      5.529
REMARK  3 active torsions:
REMARK  status: ('A' for Active; 'I' for Inactive)
REMARK    1  A    between atoms: C6_6  and  N8_7 
REMARK    2  A    between atoms: C10_9  and  C11_10 
REMARK    3  A    between atoms: C11_10  and  C12_11 
ROOT
ATOM      1  N8  <0> d   1      18.949  -1.327   9.554  0.00  0.00    -0.229 N 
ATOM      2  N9  <0> d   1      18.983  -2.676   9.200  0.00  0.00    -0.173 NA
ATOM      3  C10 <0> d   1      19.018  -3.077   7.964  0.00  0.00     0.070 A 
ATOM      4  C19 <0> d   1      19.023  -2.098   6.877  0.00  0.00     0.006 A 
ATOM      5  C20 <0> d   1      19.061  -2.486   5.537  0.00  0.00     0.014 A 
ATOM      6  C21 <0> d   1      19.065  -1.524   4.551  0.00  0.00     0.001 A 
ATOM      7  C22 <0> d   1      19.032  -0.175   4.875  0.00  0.00     0.001 A 
ATOM      8  C23 <0> d   1      18.994   0.233   6.191  0.00  0.00     0.018 A 
ATOM      9  C24 <0> d   1      18.990  -0.723   7.205  0.00  0.00     0.046 A 
ATOM     10  C25 <0> d   1      18.945  -0.349   8.625  0.00  0.00     0.275 A 
ATOM     11  O26 <0> d   1      18.910   0.822   8.957  0.00  0.00    -0.266 OA
ENDROOT
BRANCH   1  12
ATOM     12  C6  <0> d   1      18.910  -0.963  10.973  0.00  0.00     0.115 C 
ATOM     13  C5  <0> d   1      19.702  -2.013  11.778  0.00  0.00     0.029 C 
ATOM     14  C4  <0> d   1      19.358  -1.967  13.277  0.00  0.00     0.032 C 
ATOM     15  C3  <0> d   1      19.224  -0.549  13.773  0.00  0.00     0.272 C 
ATOM     16  N2  <0> d   1      17.796  -0.181  13.725  0.00  0.00     0.084 N 
ATOM     17  C1  <0> d   1      17.470   0.802  14.768  0.00  0.00     0.309 C 
ATOM     18  C28 <0> d   1      17.343   0.248  12.474  0.00  0.00     0.274 C 
ATOM     19  C27 <0> d   1      17.471  -0.863  11.408  0.00  0.00     0.057 C 
ENDBRANCH   1  12
BRANCH   3  20
ATOM     20  C11 <0> d   1      19.053  -4.550   7.650  0.00  0.00     0.100 C 
BRANCH  20  21
ATOM     21  C12 <0> d   1      17.652  -5.105   7.687  0.00  0.00    -0.052 A 
ATOM     22  C18 <0> d   1      16.934  -5.092   8.868  0.00  0.00     0.009 A 
ATOM     23  C17 <0> d   1      15.647  -5.596   8.901  0.00  0.00     0.024 A 
ATOM     24  C15 <0> d   1      15.082  -6.123   7.753  0.00  0.00     0.034 A 
ATOM     25  C14 <0> d   1      15.803  -6.140   6.572  0.00  0.00     0.024 A 
ATOM     26 Cl16 <0> d   1      13.469  -6.763   7.795  0.00  0.00    -0.084 Cl
ATOM     27  C13 <0> d   1      17.087  -5.632   6.539  0.00  0.00     0.009 A 
ENDBRANCH  20  21
ENDBRANCH   3  20
TORSDOF 3
ENDMDL
MODEL 7
REMARK VINA RESULT:      -8.6      4.742      8.028
REMARK  3 active torsions:
REMARK  status: ('A' for Active; 'I' for Inactive)
REMARK    1  A    between atoms: C6_6  and  N8_7 
REMARK    2  A    between atoms: C10_9  and  C11_10 
REMARK    3  A    between atoms: C11_10  and  C12_11 
ROOT
ATOM      1  N8  <0> d   1      18.882   1.464  13.232  0.00  0.00    -0.229 N 
ATOM      2  N9  <0> d   1      18.953   2.776  13.699  0.00  0.00    -0.173 NA
ATOM      3  C10 <0> d   1      18.989   3.069  14.965  0.00  0.00     0.070 A 
ATOM      4  C19 <0> d   1      18.955   2.002  15.966  0.00  0.00     0.006 A 
ATOM      5  C20 <0> d   1      18.993   2.275  17.334  0.00  0.00     0.014 A 
ATOM      6  C21 <0> d   1      18.960   1.234  18.235  0.00  0.00     0.001 A 
ATOM      7  C22 <0> d   1      18.890  -0.082  17.798  0.00  0.00     0.001 A 
ATOM      8  C23 <0> d   1      18.852  -0.375  16.452  0.00  0.00     0.018 A 
ATOM      9  C24 <0> d   1      18.885   0.662  15.522  0.00  0.00     0.046 A 
ATOM     10  C25 <0> d   1      18.841   0.411  14.075  0.00  0.00     0.275 A 
ATOM     11  O26 <0> d   1      18.776  -0.726  13.645  0.00  0.00    -0.266 OA
ENDROOT
BRANCH   1  12
ATOM     12  C6  <0> d   1      18.846   1.222  11.788  0.00  0.00     0.115 C 
ATOM     13  C5  <0> d   1      19.573   2.377  11.071  0.00  0.00     0.029 C 
ATOM     14  C4  <0> d   1      19.214   2.443   9.577  0.00  0.00     0.032 C 
ATOM     15  C3  <0> d   1      19.147   1.069   8.959  0.00  0.00     0.272 C 
ATOM     16  N2  <0> d   1      17.740   0.624   8.986  0.00  0.00     0.084 N 
ATOM     17  C1  <0> d   1      17.453  -0.281   7.864  0.00  0.00     0.309 C 
ATOM     18  C28 <0> d   1      17.325   0.066  10.198  0.00  0.00     0.274 C 
ATOM     19  C27 <0> d   1      17.408   1.086  11.355  0.00  0.00     0.057 C 
ENDBRANCH   1  12
BRANCH   3  20
ATOM     20  C11 <0> d   1      19.064   4.510  15.403  0.00  0.00     0.100 C 
BRANCH  20  21
ATOM     21  C12 <0> d   1      17.687   5.121  15.358  0.00  0.00    -0.052 A 
ATOM     22  C18 <0> d   1      17.059   5.495  16.530  0.00  0.00     0.009 A 
ATOM     23  C17 <0> d   1      15.798   6.061  16.489  0.00  0.00     0.024 A 
ATOM     24  C15 <0> d   1      15.161   6.242  15.275  0.00  0.00     0.034 A 
ATOM     25  C14 <0> d   1      15.788   5.863  14.101  0.00  0.00     0.024 A 
ATOM     26 Cl16 <0> d   1      13.574   6.945  15.222  0.00  0.00    -0.084 Cl
ATOM     27  C13 <0> d   1      17.050   5.302  14.143  0.00  0.00     0.009 A 
ENDBRANCH  20  21
ENDBRANCH   3  20
TORSDOF 3
ENDMDL
MODEL 8
REMARK VINA RESULT:      -8.6      4.538      8.499
REMARK  3 active torsions:
REMARK  status: ('A' for Active; 'I' for Inactive)
REMARK    1  A    between atoms: C6_6  and  N8_7 
REMARK    2  A    between atoms: C10_9  and  C11_10 
REMARK    3  A    between atoms: C11_10  and  C12_11 
ROOT
ATOM      1  N8  <0> d   1      18.105   3.372  12.177  0.00  0.00    -0.229 N 
ATOM      2  N9  <0> d   1      17.764   2.114  12.677  0.00  0.00    -0.173 NA
ATOM      3  C10 <0> d   1      17.772   1.042  11.942  0.00  0.00     0.070 A 
ATOM      4  C19 <0> d   1      18.148   1.123  10.531  0.00  0.00     0.006 A 
ATOM      5  C20 <0> d   1      18.170  -0.005   9.709  0.00  0.00     0.014 A 
ATOM      6  C21 <0> d   1      18.533   0.125   8.387  0.00  0.00     0.001 A 
ATOM      7  C22 <0> d   1      18.877   1.364   7.863  0.00  0.00     0.001 A 
ATOM      8  C23 <0> d   1      18.863   2.492   8.655  0.00  0.00     0.018 A 
ATOM      9  C24 <0> d   1      18.499   2.383   9.996  0.00  0.00     0.046 A 
ATOM     10  C25 <0> d   1      18.461   3.550  10.888  0.00  0.00     0.275 A 
ATOM     11  O26 <0> d   1      18.750   4.658  10.472  0.00  0.00    -0.266 OA
ENDROOT
BRANCH   1  12
ATOM     12  C6  <0> d   1      18.069   4.529  13.074  0.00  0.00     0.115 C 
ATOM     13  C5  <0> d   1      18.692   4.129  14.427  0.00  0.00     0.029 C 
ATOM     14  C4  <0> d   1      18.309   5.112  15.547  0.00  0.00     0.032 C 
ATOM     15  C3  <0> d   1      18.346   6.542  15.070  0.00  0.00     0.272 C 
ATOM     16  N2  <0> d   1      16.980   6.922  14.661  0.00  0.00     0.084 N 
ATOM     17  C1  <0> d   1      16.753   8.360  14.857  0.00  0.00     0.309 C 
ATOM     18  C28 <0> d   1      16.627   6.532  13.366  0.00  0.00     0.274 C 
ATOM     19  C27 <0> d   1      16.642   4.995  13.208  0.00  0.00     0.057 C 
ENDBRANCH   1  12
BRANCH   3  20
ATOM     20  C11 <0> d   1      17.391  -0.286  12.545  0.00  0.00     0.100 C 
BRANCH  20  21
ATOM     21  C12 <0> d   1      17.863  -0.342  13.975  0.00  0.00    -0.052 A 
ATOM     22  C18 <0> d   1      17.344   0.534  14.909  0.00  0.00     0.009 A 
ATOM     23  C17 <0> d   1      17.772   0.480  16.222  0.00  0.00     0.024 A 
ATOM     24  C15 <0> d   1      18.729  -0.446  16.599  0.00  0.00     0.034 A 
ATOM     25  C14 <0> d   1      19.252  -1.320  15.663  0.00  0.00     0.024 A 
ATOM     26 Cl16 <0> d   1      19.274  -0.510  18.246  0.00  0.00    -0.084 Cl
ATOM     27  C13 <0> d   1      18.820  -1.268  14.352  0.00  0.00     0.009 A 
ENDBRANCH  20  21
ENDBRANCH   3  20
TORSDOF 3
ENDMDL
MODEL 9
REMARK VINA RESULT:      -8.4      3.218      6.529
REMARK  3 active torsions:
REMARK  status: ('A' for Active; 'I' for Inactive)
REMARK    1  A    between atoms: C6_6  and  N8_7 
REMARK    2  A    between atoms: C10_9  and  C11_10 
REMARK    3  A    between atoms: C11_10  and  C12_11 
ROOT
ATOM      1  N8  <0> d   1      18.695   1.924  12.560  0.00  0.00    -0.229 N 
ATOM      2  N9  <0> d   1      18.025   0.701  12.618  0.00  0.00    -0.173 NA
ATOM      3  C10 <0> d   1      17.744   0.005  11.557  0.00  0.00     0.070 A 
ATOM      4  C19 <0> d   1      18.129   0.496  10.235  0.00  0.00     0.006 A 
ATOM      5  C20 <0> d   1      17.846  -0.222   9.072  0.00  0.00     0.014 A 
ATOM      6  C21 <0> d   1      18.233   0.284   7.850  0.00  0.00     0.001 A 
ATOM      7  C22 <0> d   1      18.900   1.499   7.763  0.00  0.00     0.001 A 
ATOM      8  C23 <0> d   1      19.191   2.225   8.898  0.00  0.00     0.018 A 
ATOM      9  C24 <0> d   1      18.810   1.732  10.144  0.00  0.00     0.046 A 
ATOM     10  C25 <0> d   1      19.087   2.464  11.388  0.00  0.00     0.275 A 
ATOM     11  O26 <0> d   1      19.666   3.535  11.361  0.00  0.00    -0.266 OA
ENDROOT
BRANCH   1  12
ATOM     12  C6  <0> d   1      18.972   2.645  13.805  0.00  0.00     0.115 C 
ATOM     13  C5  <0> d   1      19.246   1.619  14.923  0.00  0.00     0.029 C 
ATOM     14  C4  <0> d   1      19.114   2.245  16.322  0.00  0.00     0.032 C 
ATOM     15  C3  <0> d   1      19.718   3.626  16.373  0.00  0.00     0.272 C 
ATOM     16  N2  <0> d   1      18.638   4.606  16.145  0.00  0.00     0.084 N 
ATOM     17  C1  <0> d   1      18.923   5.872  16.834  0.00  0.00     0.309 C 
ATOM     18  C28 <0> d   1      18.323   4.827  14.801  0.00  0.00     0.274 C 
ATOM     19  C27 <0> d   1      17.804   3.543  14.117  0.00  0.00     0.057 C 
ENDBRANCH   1  12
BRANCH   3  20
ATOM     20  C11 <0> d   1      17.017  -1.309  11.691  0.00  0.00     0.100 C 
BRANCH  20  21
ATOM     21  C12 <0> d   1      17.882  -2.418  11.148  0.00  0.00    -0.052 A 
ATOM     22  C18 <0> d   1      17.410  -3.228  10.133  0.00  0.00     0.009 A 
ATOM     23  C17 <0> d   1      18.204  -4.243   9.631  0.00  0.00     0.024 A 
ATOM     24  C15 <0> d   1      19.467  -4.453  10.155  0.00  0.00     0.034 A 
ATOM     25  C14 <0> d   1      19.937  -3.646  11.175  0.00  0.00     0.024 A 
ATOM     26 Cl16 <0> d   1      20.463  -5.732   9.531  0.00  0.00    -0.084 Cl
ATOM     27  C13 <0> d   1      19.145  -2.629  11.672  0.00  0.00     0.009 A 
ENDBRANCH  20  21
ENDBRANCH   3  20
TORSDOF 3
ENDMDL
