MODEL 1
REMARK VINA RESULT:      -7.6      0.000      0.000
REMARK  16 active torsions:
REMARK  status: ('A' for Active; 'I' for Inactive)
REMARK    1  A    between atoms: C2_2  and  C4_4 
REMARK    2  A    between atoms: C4_4  and  N5_5 
REMARK    3  A    between atoms: N5_5  and  C6_6 
REMARK    4  A    between atoms: N5_5  and  S33_30 
REMARK    5  A    between atoms: C6_6  and  C7_7 
REMARK    6  A    between atoms: C7_7  and  O9_8 
REMARK    7  A    between atoms: C7_7  and  C14_13 
REMARK    8  A    between atoms: O9_8  and  P10_9 
REMARK    9  A    between atoms: P10_9  and  O13_12 
REMARK   10  A    between atoms: C14_13  and  C16_14 
REMARK   11  A    between atoms: C14_13  and  N23_21 
REMARK   12  A    between atoms: C16_14  and  C17_15 
REMARK       I    between atoms: N23_21  and  C24_22 
REMARK   13  A    between atoms: C24_22  and  O26_24 
REMARK   14  A    between atoms: O26_24  and  C27_25 
REMARK   15  A    between atoms: S33_30  and  C36_33 
REMARK   16  A    between atoms: C39_36  and  N40_37 
ROOT
ATOM      1  C7  ZIN A   1      18.541  -1.666   8.158  0.00  0.00     0.176 C 
ENDROOT
BRANCH   1   2
ATOM      2  C6  ZIN A   1      17.743  -2.962   8.310  0.00  0.00     0.170 C 
BRANCH   2   3
ATOM      3  N5  ZIN A   1      18.665  -4.099   8.359  0.00  0.00    -0.304 N 
BRANCH   3   4
ATOM      4  C4  ZIN A   1      18.968  -4.743   9.640  0.00  0.00     0.139 C 
BRANCH   4   5
ATOM      5  C2  ZIN A   1      17.663  -5.160  10.322  0.00  0.00    -0.004 C 
ATOM      6  C1  ZIN A   1      17.154  -6.461   9.699  0.00  0.00     0.011 C 
ATOM      7  C3  ZIN A   1      17.914  -5.375  11.816  0.00  0.00     0.011 C 
ENDBRANCH   4   5
ENDBRANCH   3   4
BRANCH   3   8
ATOM      8  S33 ZIN A   1      19.366  -4.658   6.967  0.00  0.00     0.260 S 
ATOM      9  O34 ZIN A   1      20.301  -3.666   6.562  0.00  0.00    -0.200 OA
ATOM     10  O35 ZIN A   1      19.726  -6.010   7.213  0.00  0.00    -0.200 OA
BRANCH   8  11
ATOM     11  C36 ZIN A   1      18.112  -4.693   5.729  0.00  0.00     0.079 A 
ATOM     12  C42 ZIN A   1      17.047  -5.567   5.851  0.00  0.00     0.027 A 
ATOM     13  C41 ZIN A   1      16.060  -5.593   4.885  0.00  0.00     0.030 A 
ATOM     14  C39 ZIN A   1      16.143  -4.747   3.787  0.00  0.00     0.025 A 
ATOM     15  C38 ZIN A   1      17.216  -3.874   3.665  0.00  0.00     0.030 A 
ATOM     16  C37 ZIN A   1      18.197  -3.850   4.637  0.00  0.00     0.027 A 
BRANCH  14  17
ATOM     17  N40 ZIN A   1      15.149  -4.776   2.806  0.00  0.00    -0.399 N 
ATOM     18  H71 ZIN A   1      14.489  -5.487   2.804  0.00  0.00     0.156 HD
ATOM     19  H72 ZIN A   1      15.118  -4.084   2.125  0.00  0.00     0.156 HD
ENDBRANCH  14  17
ENDBRANCH   8  11
ENDBRANCH   3   8
ENDBRANCH   2   3
ENDBRANCH   1   2
BRANCH   1  20
ATOM     20  O9  ZIN A   1      17.898  -0.820   7.203  0.00  0.00    -0.281 OA
BRANCH  20  21
ATOM     21  P10 ZIN A   1      18.655  -0.210   5.920  0.00  0.00     0.406 P 
ATOM     22  O11 ZIN A   1      19.197   1.196   6.261  0.00  0.00    -0.624 OA
ATOM     23  O12 ZIN A   1      17.664  -0.106   4.738  0.00  0.00    -0.624 OA
BRANCH  21  24
ATOM     24  O13 ZIN A   1      19.879  -1.172   5.511  0.00  0.00    -0.300 OA
ATOM     25  H54 ZIN A   1      20.196  -1.733   6.233  0.00  0.00     0.223 HD
ENDBRANCH  21  24
ENDBRANCH  20  21
ENDBRANCH   1  20
BRANCH   1  26
ATOM     26  C14 ZIN A   1      18.612  -0.949   9.508  0.00  0.00     0.122 C 
BRANCH  26  27
ATOM     27  C16 ZIN A   1      17.544  -1.518  10.443  0.00  0.00     0.066 C 
BRANCH  27  28
ATOM     28  C17 ZIN A   1      17.943  -1.266  11.874  0.00  0.00    -0.056 A 
ATOM     29  C22 ZIN A   1      17.245  -0.344  12.634  0.00  0.00     0.007 A 
ATOM     30  C21 ZIN A   1      17.609  -0.117  13.949  0.00  0.00     0.001 A 
ATOM     31  C20 ZIN A   1      18.675  -0.801  14.501  0.00  0.00     0.000 A 
ATOM     32  C19 ZIN A   1      19.376  -1.718  13.739  0.00  0.00     0.001 A 
ATOM     33  C18 ZIN A   1      19.010  -1.950  12.427  0.00  0.00     0.007 A 
ENDBRANCH  27  28
ENDBRANCH  26  27
BRANCH  26  34
ATOM     34  N23 ZIN A   1      18.378   0.484   9.314  0.00  0.00    -0.329 N 
ATOM     35  C24 ZIN A   1      19.164   1.385   9.936  0.00  0.00     0.361 C 
ATOM     36  O25 ZIN A   1      20.066   1.009  10.659  0.00  0.00    -0.238 OA
ATOM     37  H62 ZIN A   1      17.659   0.784   8.737  0.00  0.00     0.165 HD
BRANCH  35  38
ATOM     38  O26 ZIN A   1      18.950   2.702   9.757  0.00  0.00    -0.296 OA
BRANCH  38  39
ATOM     39  C27 ZIN A   1      17.771   3.270  10.386  0.00  0.00     0.159 C 
ATOM     40  C32 ZIN A   1      17.630   4.767  10.038  0.00  0.00     0.200 C 
ATOM     41  O31 ZIN A   1      17.209   5.448  11.230  0.00  0.00    -0.389 OA
ATOM     42  C30 ZIN A   1      17.025   4.504  12.296  0.00  0.00     0.170 C 
ATOM     43  C29 ZIN A   1      17.929   3.299  11.932  0.00  0.00     0.061 C 
ENDBRANCH  38  39
ENDBRANCH  35  38
ENDBRANCH  26  34
ENDBRANCH   1  26
TORSDOF 16
ENDMDL
MODEL 2
REMARK VINA RESULT:      -7.5      5.444      9.711
REMARK  16 active torsions:
REMARK  status: ('A' for Active; 'I' for Inactive)
REMARK    1  A    between atoms: C2_2  and  C4_4 
REMARK    2  A    between atoms: C4_4  and  N5_5 
REMARK    3  A    between atoms: N5_5  and  C6_6 
REMARK    4  A    between atoms: N5_5  and  S33_30 
REMARK    5  A    between atoms: C6_6  and  C7_7 
REMARK    6  A    between atoms: C7_7  and  O9_8 
REMARK    7  A    between atoms: C7_7  and  C14_13 
REMARK    8  A    between atoms: O9_8  and  P10_9 
REMARK    9  A    between atoms: P10_9  and  O13_12 
REMARK   10  A    between atoms: C14_13  and  C16_14 
REMARK   11  A    between atoms: C14_13  and  N23_21 
REMARK   12  A    between atoms: C16_14  and  C17_15 
REMARK       I    between atoms: N23_21  and  C24_22 
REMARK   13  A    between atoms: C24_22  and  O26_24 
REMARK   14  A    between atoms: O26_24  and  C27_25 
REMARK   15  A    between atoms: S33_30  and  C36_33 
REMARK   16  A    between atoms: C39_36  and  N40_37 
ROOT
ATOM      1  C7  ZIN A   1      18.626   1.843  13.172  0.00  0.00     0.176 C 
ENDROOT
BRANCH   1   2
ATOM      2  C6  ZIN A   1      17.777   2.089  14.421  0.00  0.00     0.170 C 
BRANCH   2   3
ATOM      3  N5  ZIN A   1      18.642   2.114  15.602  0.00  0.00    -0.304 N 
BRANCH   3   4
ATOM      4  C4  ZIN A   1      19.080   0.858  16.217  0.00  0.00     0.139 C 
BRANCH   4   5
ATOM      5  C2  ZIN A   1      17.935  -0.156  16.176  0.00  0.00    -0.004 C 
ATOM      6  C1  ZIN A   1      18.494  -1.566  16.373  0.00  0.00     0.011 C 
ATOM      7  C3  ZIN A   1      16.936   0.157  17.292  0.00  0.00     0.011 C 
ENDBRANCH   4   5
ENDBRANCH   3   4
BRANCH   3   8
ATOM      8  S33 ZIN A   1      19.126   3.562  16.244  0.00  0.00     0.260 S 
ATOM      9  O34 ZIN A   1      20.361   3.316  16.905  0.00  0.00    -0.200 OA
ATOM     10  O35 ZIN A   1      18.976   4.528  15.213  0.00  0.00    -0.200 OA
BRANCH   8  11
ATOM     11  C36 ZIN A   1      17.967   3.989  17.500  0.00  0.00     0.079 A 
ATOM     12  C42 ZIN A   1      17.827   3.182  18.614  0.00  0.00     0.027 A 
ATOM     13  C41 ZIN A   1      16.923   3.517  19.603  0.00  0.00     0.030 A 
ATOM     14  C39 ZIN A   1      16.146   4.661  19.472  0.00  0.00     0.025 A 
ATOM     15  C38 ZIN A   1      16.285   5.467  18.350  0.00  0.00     0.030 A 
ATOM     16  C37 ZIN A   1      17.195   5.129  17.368  0.00  0.00     0.027 A 
BRANCH  14  17
ATOM     17  N40 ZIN A   1      15.227   5.000  20.468  0.00  0.00    -0.399 N 
ATOM     18  H71 ZIN A   1      15.345   5.815  20.980  0.00  0.00     0.156 HD
ATOM     19  H72 ZIN A   1      14.469   4.420  20.646  0.00  0.00     0.156 HD
ENDBRANCH  14  17
ENDBRANCH   8  11
ENDBRANCH   3   8
ENDBRANCH   2   3
ENDBRANCH   1   2
BRANCH   1  20
ATOM     20  O9  ZIN A   1      18.535   0.467  12.798  0.00  0.00    -0.281 OA
BRANCH  20  21
ATOM     21  P10 ZIN A   1      19.820  -0.493  12.666  0.00  0.00     0.406 P 
ATOM     22  O11 ZIN A   1      20.122  -0.746  11.172  0.00  0.00    -0.624 OA
ATOM     23  O12 ZIN A   1      19.532  -1.839  13.368  0.00  0.00    -0.624 OA
BRANCH  21  24
ATOM     24  O13 ZIN A   1      21.091   0.212  13.358  0.00  0.00    -0.300 OA
ATOM     25  H54 ZIN A   1      21.937  -0.210  13.151  0.00  0.00     0.223 HD
ENDBRANCH  21  24
ENDBRANCH  20  21
ENDBRANCH   1  20
BRANCH   1  26
ATOM     26  C14 ZIN A   1      18.114   2.718  12.026  0.00  0.00     0.122 C 
BRANCH  26  27
ATOM     27  C16 ZIN A   1      19.179   2.798  10.931  0.00  0.00     0.066 C 
BRANCH  27  28
ATOM     28  C17 ZIN A   1      18.758   1.953   9.757  0.00  0.00    -0.056 A 
ATOM     29  C22 ZIN A   1      17.682   1.092   9.876  0.00  0.00     0.007 A 
ATOM     30  C21 ZIN A   1      17.293   0.320   8.797  0.00  0.00     0.001 A 
ATOM     31  C20 ZIN A   1      17.986   0.399   7.604  0.00  0.00     0.000 A 
ATOM     32  C19 ZIN A   1      19.066   1.255   7.488  0.00  0.00     0.001 A 
ATOM     33  C18 ZIN A   1      19.451   2.031   8.564  0.00  0.00     0.007 A 
ENDBRANCH  27  28
ENDBRANCH  26  27
BRANCH  26  34
ATOM     34  N23 ZIN A   1      17.828   4.064  12.529  0.00  0.00    -0.329 N 
ATOM     35  C24 ZIN A   1      16.910   4.833  11.911  0.00  0.00     0.361 C 
ATOM     36  O25 ZIN A   1      16.320   4.411  10.936  0.00  0.00    -0.238 OA
ATOM     37  H62 ZIN A   1      18.298   4.401  13.307  0.00  0.00     0.165 HD
BRANCH  35  38
ATOM     38  O26 ZIN A   1      16.647   6.070  12.373  0.00  0.00    -0.296 OA
BRANCH  38  39
ATOM     39  C27 ZIN A   1      16.533   6.227  13.811  0.00  0.00     0.159 C 
ATOM     40  C32 ZIN A   1      15.070   6.051  14.270  0.00  0.00     0.200 C 
ATOM     41  O31 ZIN A   1      14.812   7.042  15.276  0.00  0.00    -0.389 OA
ATOM     42  C30 ZIN A   1      16.003   7.804  15.532  0.00  0.00     0.170 C 
ATOM     43  C29 ZIN A   1      16.843   7.689  14.235  0.00  0.00     0.061 C 
ENDBRANCH  38  39
ENDBRANCH  35  38
ENDBRANCH  26  34
ENDBRANCH   1  26
TORSDOF 16
ENDMDL
MODEL 3
REMARK VINA RESULT:      -7.5      1.436      3.085
REMARK  16 active torsions:
REMARK  status: ('A' for Active; 'I' for Inactive)
REMARK    1  A    between atoms: C2_2  and  C4_4 
REMARK    2  A    between atoms: C4_4  and  N5_5 
REMARK    3  A    between atoms: N5_5  and  C6_6 
REMARK    4  A    between atoms: N5_5  and  S33_30 
REMARK    5  A    between atoms: C6_6  and  C7_7 
REMARK    6  A    between atoms: C7_7  and  O9_8 
REMARK    7  A    between atoms: C7_7  and  C14_13 
REMARK    8  A    between atoms: O9_8  and  P10_9 
REMARK    9  A    between atoms: P10_9  and  O13_12 
REMARK   10  A    between atoms: C14_13  and  C16_14 
REMARK   11  A    between atoms: C14_13  and  N23_21 
REMARK   12  A    between atoms: C16_14  and  C17_15 
REMARK       I    between atoms: N23_21  and  C24_22 
REMARK   13  A    between atoms: C24_22  and  O26_24 
REMARK   14  A    between atoms: O26_24  and  C27_25 
REMARK   15  A    between atoms: S33_30  and  C36_33 
REMARK   16  A    between atoms: C39_36  and  N40_37 
ROOT
ATOM      1  C7  ZIN A   1      18.537  -1.458   7.714  0.00  0.00     0.176 C 
ENDROOT
BRANCH   1   2
ATOM      2  C6  ZIN A   1      17.845  -2.783   8.044  0.00  0.00     0.170 C 
BRANCH   2   3
ATOM      3  N5  ZIN A   1      18.848  -3.847   8.132  0.00  0.00    -0.304 N 
BRANCH   3   4
ATOM      4  C4  ZIN A   1      19.305  -4.317   9.443  0.00  0.00     0.139 C 
BRANCH   4   5
ATOM      5  C2  ZIN A   1      18.097  -4.730  10.286  0.00  0.00    -0.004 C 
ATOM      6  C1  ZIN A   1      17.645  -6.133   9.876  0.00  0.00     0.011 C 
ATOM      7  C3  ZIN A   1      18.485  -4.732  11.766  0.00  0.00     0.011 C 
ENDBRANCH   4   5
ENDBRANCH   3   4
BRANCH   3   8
ATOM      8  S33 ZIN A   1      19.465  -4.520   6.751  0.00  0.00     0.260 S 
ATOM      9  O34 ZIN A   1      20.379  -3.572   6.216  0.00  0.00    -0.200 OA
ATOM     10  O35 ZIN A   1      19.831  -5.852   7.082  0.00  0.00    -0.200 OA
BRANCH   8  11
ATOM     11  C36 ZIN A   1      18.141  -4.641   5.594  0.00  0.00     0.079 A 
ATOM     12  C42 ZIN A   1      17.096  -5.517   5.830  0.00  0.00     0.027 A 
ATOM     13  C41 ZIN A   1      16.055  -5.610   4.927  0.00  0.00     0.030 A 
ATOM     14  C39 ZIN A   1      16.062  -4.831   3.777  0.00  0.00     0.025 A 
ATOM     15  C38 ZIN A   1      17.115  -3.956   3.541  0.00  0.00     0.030 A 
ATOM     16  C37 ZIN A   1      18.151  -3.864   4.450  0.00  0.00     0.027 A 
BRANCH  14  17
ATOM     17  N40 ZIN A   1      15.013  -4.927   2.860  0.00  0.00    -0.399 N 
ATOM     18  H71 ZIN A   1      14.896  -5.738   2.341  0.00  0.00     0.156 HD
ATOM     19  H72 ZIN A   1      14.402  -4.183   2.742  0.00  0.00     0.156 HD
ENDBRANCH  14  17
ENDBRANCH   8  11
ENDBRANCH   3   8
ENDBRANCH   2   3
ENDBRANCH   1   2
BRANCH   1  20
ATOM     20  O9  ZIN A   1      17.947  -0.890   6.544  0.00  0.00    -0.281 OA
BRANCH  20  21
ATOM     21  P10 ZIN A   1      18.811  -0.227   5.359  0.00  0.00     0.406 P 
ATOM     22  O11 ZIN A   1      19.320   1.161   5.807  0.00  0.00    -0.624 OA
ATOM     23  O12 ZIN A   1      17.925  -0.069   4.102  0.00  0.00    -0.624 OA
BRANCH  21  24
ATOM     24  O13 ZIN A   1      20.066  -1.174   5.015  0.00  0.00    -0.300 OA
ATOM     25  H54 ZIN A   1      20.576  -0.887   4.244  0.00  0.00     0.223 HD
ENDBRANCH  21  24
ENDBRANCH  20  21
ENDBRANCH   1  20
BRANCH   1  26
ATOM     26  C14 ZIN A   1      18.372  -0.491   8.888  0.00  0.00     0.122 C 
BRANCH  26  27
ATOM     27  C16 ZIN A   1      19.647   0.338   9.049  0.00  0.00     0.066 C 
BRANCH  27  28
ATOM     28  C17 ZIN A   1      19.319   1.639   9.735  0.00  0.00    -0.056 A 
ATOM     29  C22 ZIN A   1      18.501   2.563   9.110  0.00  0.00     0.007 A 
ATOM     30  C21 ZIN A   1      18.196   3.754   9.742  0.00  0.00     0.001 A 
ATOM     31  C20 ZIN A   1      18.716   4.027  10.992  0.00  0.00     0.000 A 
ATOM     32  C19 ZIN A   1      19.539   3.106  11.614  0.00  0.00     0.001 A 
ATOM     33  C18 ZIN A   1      19.840   1.913  10.986  0.00  0.00     0.007 A 
ENDBRANCH  27  28
ENDBRANCH  26  27
BRANCH  26  34
ATOM     34  N23 ZIN A   1      18.126  -1.251  10.117  0.00  0.00    -0.329 N 
ATOM     35  C24 ZIN A   1      17.200  -0.826  10.998  0.00  0.00     0.361 C 
ATOM     36  O25 ZIN A   1      16.567   0.188  10.774  0.00  0.00    -0.238 OA
ATOM     37  H62 ZIN A   1      18.630  -2.060  10.295  0.00  0.00     0.165 HD
BRANCH  35  38
ATOM     38  O26 ZIN A   1      16.973  -1.524  12.126  0.00  0.00    -0.296 OA
BRANCH  38  39
ATOM     39  C27 ZIN A   1      17.801  -1.206  13.276  0.00  0.00     0.159 C 
ATOM     40  C32 ZIN A   1      17.563   0.247  13.740  0.00  0.00     0.200 C 
ATOM     41  O31 ZIN A   1      18.841   0.802  14.087  0.00  0.00    -0.389 OA
ATOM     42  C30 ZIN A   1      19.868  -0.190  13.927  0.00  0.00     0.170 C 
ATOM     43  C29 ZIN A   1      19.305  -1.191  12.887  0.00  0.00     0.061 C 
ENDBRANCH  38  39
ENDBRANCH  35  38
ENDBRANCH  26  34
ENDBRANCH   1  26
TORSDOF 16
ENDMDL
MODEL 4
REMARK VINA RESULT:      -7.5      4.749      9.736
REMARK  16 active torsions:
REMARK  status: ('A' for Active; 'I' for Inactive)
REMARK    1  A    between atoms: C2_2  and  C4_4 
REMARK    2  A    between atoms: C4_4  and  N5_5 
REMARK    3  A    between atoms: N5_5  and  C6_6 
REMARK    4  A    between atoms: N5_5  and  S33_30 
REMARK    5  A    between atoms: C6_6  and  C7_7 
REMARK    6  A    between atoms: C7_7  and  O9_8 
REMARK    7  A    between atoms: C7_7  and  C14_13 
REMARK    8  A    between atoms: O9_8  and  P10_9 
REMARK    9  A    between atoms: P10_9  and  O13_12 
REMARK   10  A    between atoms: C14_13  and  C16_14 
REMARK   11  A    between atoms: C14_13  and  N23_21 
REMARK   12  A    between atoms: C16_14  and  C17_15 
REMARK       I    between atoms: N23_21  and  C24_22 
REMARK   13  A    between atoms: C24_22  and  O26_24 
REMARK   14  A    between atoms: O26_24  and  C27_25 
REMARK   15  A    between atoms: S33_30  and  C36_33 
REMARK   16  A    between atoms: C39_36  and  N40_37 
ROOT
ATOM      1  C7  ZIN A   1      18.571   1.543  13.846  0.00  0.00     0.176 C 
ENDROOT
BRANCH   1   2
ATOM      2  C6  ZIN A   1      19.478   1.134  15.009  0.00  0.00     0.170 C 
BRANCH   2   3
ATOM      3  N5  ZIN A   1      18.785   1.376  16.276  0.00  0.00    -0.304 N 
BRANCH   3   4
ATOM      4  C4  ZIN A   1      17.519   0.695  16.562  0.00  0.00     0.139 C 
BRANCH   4   5
ATOM      5  C2  ZIN A   1      17.701  -0.814  16.383  0.00  0.00    -0.004 C 
ATOM      6  C1  ZIN A   1      19.028  -1.246  17.009  0.00  0.00     0.011 C 
ATOM      7  C3  ZIN A   1      16.549  -1.551  17.068  0.00  0.00     0.011 C 
ENDBRANCH   4   5
ENDBRANCH   3   4
BRANCH   3   8
ATOM      8  S33 ZIN A   1      19.431   2.420  17.387  0.00  0.00     0.260 S 
ATOM      9  O34 ZIN A   1      19.905   1.620  18.462  0.00  0.00    -0.200 OA
ATOM     10  O35 ZIN A   1      20.261   3.316  16.661  0.00  0.00    -0.200 OA
BRANCH   8  11
ATOM     11  C36 ZIN A   1      18.103   3.383  18.032  0.00  0.00     0.079 A 
ATOM     12  C42 ZIN A   1      17.824   4.624  17.490  0.00  0.00     0.027 A 
ATOM     13  C41 ZIN A   1      16.780   5.378  17.990  0.00  0.00     0.030 A 
ATOM     14  C39 ZIN A   1      16.018   4.893  19.045  0.00  0.00     0.025 A 
ATOM     15  C38 ZIN A   1      16.304   3.649  19.591  0.00  0.00     0.030 A 
ATOM     16  C37 ZIN A   1      17.346   2.897  19.083  0.00  0.00     0.027 A 
BRANCH  14  17
ATOM     17  N40 ZIN A   1      14.966   5.657  19.557  0.00  0.00    -0.399 N 
ATOM     18  H71 ZIN A   1      14.573   6.362  19.019  0.00  0.00     0.156 HD
ATOM     19  H72 ZIN A   1      14.629   5.481  20.449  0.00  0.00     0.156 HD
ENDBRANCH  14  17
ENDBRANCH   8  11
ENDBRANCH   3   8
ENDBRANCH   2   3
ENDBRANCH   1   2
BRANCH   1  20
ATOM     20  O9  ZIN A   1      19.150   2.650  13.155  0.00  0.00    -0.281 OA
BRANCH  20  21
ATOM     21  P10 ZIN A   1      18.702   4.175  13.409  0.00  0.00     0.406 P 
ATOM     22  O11 ZIN A   1      17.362   4.197  14.178  0.00  0.00    -0.624 OA
ATOM     23  O12 ZIN A   1      18.528   4.894  12.052  0.00  0.00    -0.624 OA
BRANCH  21  24
ATOM     24  O13 ZIN A   1      19.830   4.930  14.275  0.00  0.00    -0.300 OA
ATOM     25  H54 ZIN A   1      20.657   4.435  14.360  0.00  0.00     0.223 HD
ENDBRANCH  21  24
ENDBRANCH  20  21
ENDBRANCH   1  20
BRANCH   1  26
ATOM     26  C14 ZIN A   1      18.416   0.365  12.882  0.00  0.00     0.122 C 
BRANCH  26  27
ATOM     27  C16 ZIN A   1      19.395  -0.744  13.271  0.00  0.00     0.066 C 
BRANCH  27  28
ATOM     28  C17 ZIN A   1      19.081  -1.991  12.485  0.00  0.00    -0.056 A 
ATOM     29  C22 ZIN A   1      17.768  -2.403  12.340  0.00  0.00     0.007 A 
ATOM     30  C21 ZIN A   1      17.480  -3.545  11.616  0.00  0.00     0.001 A 
ATOM     31  C20 ZIN A   1      18.502  -4.280  11.046  0.00  0.00     0.000 A 
ATOM     32  C19 ZIN A   1      19.813  -3.871  11.197  0.00  0.00     0.001 A 
ATOM     33  C18 ZIN A   1      20.102  -2.727  11.916  0.00  0.00     0.007 A 
ENDBRANCH  27  28
ENDBRANCH  26  27
BRANCH  26  34
ATOM     34  N23 ZIN A   1      18.701   0.811  11.516  0.00  0.00    -0.329 N 
ATOM     35  C24 ZIN A   1      17.709   0.865  10.605  0.00  0.00     0.361 C 
ATOM     36  O25 ZIN A   1      16.579   0.544  10.916  0.00  0.00    -0.238 OA
ATOM     37  H62 ZIN A   1      19.602   1.068  11.268  0.00  0.00     0.165 HD
BRANCH  35  38
ATOM     38  O26 ZIN A   1      17.970   1.275   9.349  0.00  0.00    -0.296 OA
BRANCH  38  39
ATOM     39  C27 ZIN A   1      18.917   0.487   8.581  0.00  0.00     0.159 C 
ATOM     40  C32 ZIN A   1      18.771   0.772   7.071  0.00  0.00     0.200 C 
ATOM     41  O31 ZIN A   1      18.893  -0.482   6.382  0.00  0.00    -0.389 OA
ATOM     42  C30 ZIN A   1      19.151  -1.536   7.324  0.00  0.00     0.170 C 
ATOM     43  C29 ZIN A   1      18.577  -1.026   8.670  0.00  0.00     0.061 C 
ENDBRANCH  38  39
ENDBRANCH  35  38
ENDBRANCH  26  34
ENDBRANCH   1  26
TORSDOF 16
ENDMDL
MODEL 5
REMARK VINA RESULT:      -7.5      3.129      8.366
REMARK  16 active torsions:
REMARK  status: ('A' for Active; 'I' for Inactive)
REMARK    1  A    between atoms: C2_2  and  C4_4 
REMARK    2  A    between atoms: C4_4  and  N5_5 
REMARK    3  A    between atoms: N5_5  and  C6_6 
REMARK    4  A    between atoms: N5_5  and  S33_30 
REMARK    5  A    between atoms: C6_6  and  C7_7 
REMARK    6  A    between atoms: C7_7  and  O9_8 
REMARK    7  A    between atoms: C7_7  and  C14_13 
REMARK    8  A    between atoms: O9_8  and  P10_9 
REMARK    9  A    between atoms: P10_9  and  O13_12 
REMARK   10  A    between atoms: C14_13  and  C16_14 
REMARK   11  A    between atoms: C14_13  and  N23_21 
REMARK   12  A    between atoms: C16_14  and  C17_15 
REMARK       I    between atoms: N23_21  and  C24_22 
REMARK   13  A    between atoms: C24_22  and  O26_24 
REMARK   14  A    between atoms: O26_24  and  C27_25 
REMARK   15  A    between atoms: S33_30  and  C36_33 
REMARK   16  A    between atoms: C39_36  and  N40_37 
ROOT
ATOM      1  C7  ZIN A   1      18.139  -2.431  10.918  0.00  0.00     0.176 C 
ENDROOT
BRANCH   1   2
ATOM      2  C6  ZIN A   1      17.910  -1.081  11.601  0.00  0.00     0.170 C 
BRANCH   2   3
ATOM      3  N5  ZIN A   1      19.110  -0.704  12.351  0.00  0.00    -0.304 N 
BRANCH   3   4
ATOM      4  C4  ZIN A   1      19.328  -1.233  13.700  0.00  0.00     0.139 C 
BRANCH   4   5
ATOM      5  C2  ZIN A   1      18.133  -0.876  14.587  0.00  0.00    -0.004 C 
ATOM      6  C1  ZIN A   1      18.251  -1.611  15.923  0.00  0.00     0.011 C 
ATOM      7  C3  ZIN A   1      18.115   0.634  14.835  0.00  0.00     0.011 C 
ENDBRANCH   4   5
ENDBRANCH   3   4
BRANCH   3   8
ATOM      8  S33 ZIN A   1      20.221   0.321  11.675  0.00  0.00     0.260 S 
ATOM      9  O34 ZIN A   1      21.085   0.728  12.727  0.00  0.00    -0.200 OA
ATOM     10  O35 ZIN A   1      20.684  -0.314  10.490  0.00  0.00    -0.200 OA
BRANCH   8  11
ATOM     11  C36 ZIN A   1      19.352   1.765  11.159  0.00  0.00     0.079 A 
ATOM     12  C42 ZIN A   1      19.195   2.031   9.811  0.00  0.00     0.027 A 
ATOM     13  C41 ZIN A   1      18.509   3.159   9.404  0.00  0.00     0.030 A 
ATOM     14  C39 ZIN A   1      17.988   4.032  10.350  0.00  0.00     0.025 A 
ATOM     15  C38 ZIN A   1      18.152   3.765  11.703  0.00  0.00     0.030 A 
ATOM     16  C37 ZIN A   1      18.833   2.632  12.103  0.00  0.00     0.027 A 
BRANCH  14  17
ATOM     17  N40 ZIN A   1      17.299   5.176   9.941  0.00  0.00    -0.399 N 
ATOM     18  H71 ZIN A   1      16.537   5.097   9.347  0.00  0.00     0.156 HD
ATOM     19  H72 ZIN A   1      17.585   6.051  10.251  0.00  0.00     0.156 HD
ENDBRANCH  14  17
ENDBRANCH   8  11
ENDBRANCH   3   8
ENDBRANCH   2   3
ENDBRANCH   1   2
BRANCH   1  20
ATOM     20  O9  ZIN A   1      17.089  -3.331  11.277  0.00  0.00    -0.281 OA
BRANCH  20  21
ATOM     21  P10 ZIN A   1      17.286  -4.927  11.346  0.00  0.00     0.406 P 
ATOM     22  O11 ZIN A   1      17.030  -5.416  12.790  0.00  0.00    -0.624 OA
ATOM     23  O12 ZIN A   1      18.731  -5.286  10.931  0.00  0.00    -0.624 OA
BRANCH  21  24
ATOM     24  O13 ZIN A   1      16.247  -5.641  10.346  0.00  0.00    -0.300 OA
ATOM     25  H54 ZIN A   1      16.614  -5.839   9.473  0.00  0.00     0.223 HD
ENDBRANCH  21  24
ENDBRANCH  20  21
ENDBRANCH   1  20
BRANCH   1  26
ATOM     26  C14 ZIN A   1      18.150  -2.240   9.400  0.00  0.00     0.122 C 
BRANCH  26  27
ATOM     27  C16 ZIN A   1      17.545  -0.879   9.053  0.00  0.00     0.066 C 
BRANCH  27  28
ATOM     28  C17 ZIN A   1      17.849  -0.545   7.616  0.00  0.00    -0.056 A 
ATOM     29  C22 ZIN A   1      19.150  -0.611   7.152  0.00  0.00     0.007 A 
ATOM     30  C21 ZIN A   1      19.428  -0.309   5.832  0.00  0.00     0.001 A 
ATOM     31  C20 ZIN A   1      18.409   0.069   4.978  0.00  0.00     0.000 A 
ATOM     32  C19 ZIN A   1      17.109   0.141   5.445  0.00  0.00     0.001 A 
ATOM     33  C18 ZIN A   1      16.830  -0.167   6.762  0.00  0.00     0.007 A 
ENDBRANCH  27  28
ENDBRANCH  26  27
BRANCH  26  34
ATOM     34  N23 ZIN A   1      17.361  -3.301   8.769  0.00  0.00    -0.329 N 
ATOM     35  C24 ZIN A   1      17.946  -4.148   7.899  0.00  0.00     0.361 C 
ATOM     36  O25 ZIN A   1      19.127  -4.032   7.637  0.00  0.00    -0.238 OA
ATOM     37  H62 ZIN A   1      16.419  -3.394   8.977  0.00  0.00     0.165 HD
BRANCH  35  38
ATOM     38  O26 ZIN A   1      17.221  -5.123   7.318  0.00  0.00    -0.296 OA
BRANCH  38  39
ATOM     39  C27 ZIN A   1      17.867  -6.412   7.148  0.00  0.00     0.159 C 
ATOM     40  C32 ZIN A   1      18.001  -6.767   5.652  0.00  0.00     0.200 C 
ATOM     41  O31 ZIN A   1      17.702  -8.165   5.513  0.00  0.00    -0.389 OA
ATOM     42  C30 ZIN A   1      17.435  -8.741   6.801  0.00  0.00     0.170 C 
ATOM     43  C29 ZIN A   1      16.964  -7.558   7.684  0.00  0.00     0.061 C 
ENDBRANCH  38  39
ENDBRANCH  35  38
ENDBRANCH  26  34
ENDBRANCH   1  26
TORSDOF 16
ENDMDL
MODEL 6
REMARK VINA RESULT:      -7.4      3.865      6.060
REMARK  16 active torsions:
REMARK  status: ('A' for Active; 'I' for Inactive)
REMARK    1  A    between atoms: C2_2  and  C4_4 
REMARK    2  A    between atoms: C4_4  and  N5_5 
REMARK    3  A    between atoms: N5_5  and  C6_6 
REMARK    4  A    between atoms: N5_5  and  S33_30 
REMARK    5  A    between atoms: C6_6  and  C7_7 
REMARK    6  A    between atoms: C7_7  and  O9_8 
REMARK    7  A    between atoms: C7_7  and  C14_13 
REMARK    8  A    between atoms: O9_8  and  P10_9 
REMARK    9  A    between atoms: P10_9  and  O13_12 
REMARK   10  A    between atoms: C14_13  and  C16_14 
REMARK   11  A    between atoms: C14_13  and  N23_21 
REMARK   12  A    between atoms: C16_14  and  C17_15 
REMARK       I    between atoms: N23_21  and  C24_22 
REMARK   13  A    between atoms: C24_22  and  O26_24 
REMARK   14  A    between atoms: O26_24  and  C27_25 
REMARK   15  A    between atoms: S33_30  and  C36_33 
REMARK   16  A    between atoms: C39_36  and  N40_37 
ROOT
ATOM      1  C7  ZIN A   1      18.100   2.206  11.732  0.00  0.00     0.176 C 
ENDROOT
BRANCH   1   2
ATOM      2  C6  ZIN A   1      17.898   0.908  10.947  0.00  0.00     0.170 C 
BRANCH   2   3
ATOM      3  N5  ZIN A   1      19.118   0.595  10.199  0.00  0.00    -0.304 N 
BRANCH   3   4
ATOM      4  C4  ZIN A   1      19.350   1.203   8.886  0.00  0.00     0.139 C 
BRANCH   4   5
ATOM      5  C2  ZIN A   1      18.300   0.695   7.897  0.00  0.00    -0.004 C 
ATOM      6  C1  ZIN A   1      18.572   1.289   6.513  0.00  0.00     0.011 C 
ATOM      7  C3  ZIN A   1      18.369  -0.832   7.818  0.00  0.00     0.011 C 
ENDBRANCH   4   5
ENDBRANCH   3   4
BRANCH   3   8
ATOM      8  S33 ZIN A   1      20.235  -0.446  10.837  0.00  0.00     0.260 S 
ATOM      9  O34 ZIN A   1      21.181  -0.702   9.807  0.00  0.00    -0.200 OA
ATOM     10  O35 ZIN A   1      20.594   0.078  12.108  0.00  0.00    -0.200 OA
BRANCH   8  11
ATOM     11  C36 ZIN A   1      19.410  -1.973  11.144  0.00  0.00     0.079 A 
ATOM     12  C42 ZIN A   1      18.028  -2.023  11.143  0.00  0.00     0.027 A 
ATOM     13  C41 ZIN A   1      17.378  -3.219  11.378  0.00  0.00     0.030 A 
ATOM     14  C39 ZIN A   1      18.115  -4.370  11.625  0.00  0.00     0.025 A 
ATOM     15  C38 ZIN A   1      19.502  -4.317  11.630  0.00  0.00     0.030 A 
ATOM     16  C37 ZIN A   1      20.146  -3.118  11.390  0.00  0.00     0.027 A 
BRANCH  14  17
ATOM     17  N40 ZIN A   1      17.460  -5.580  11.868  0.00  0.00    -0.399 N 
ATOM     18  H71 ZIN A   1      16.605  -5.585  12.325  0.00  0.00     0.156 HD
ATOM     19  H72 ZIN A   1      17.862  -6.415  11.581  0.00  0.00     0.156 HD
ENDBRANCH  14  17
ENDBRANCH   8  11
ENDBRANCH   3   8
ENDBRANCH   2   3
ENDBRANCH   1   2
BRANCH   1  20
ATOM     20  O9  ZIN A   1      17.063   3.130  11.402  0.00  0.00    -0.281 OA
BRANCH  20  21
ATOM     21  P10 ZIN A   1      17.299   4.720  11.312  0.00  0.00     0.406 P 
ATOM     22  O11 ZIN A   1      16.226   5.448  12.152  0.00  0.00    -0.624 OA
ATOM     23  O12 ZIN A   1      17.194   5.174   9.838  0.00  0.00    -0.624 OA
BRANCH  21  24
ATOM     24  O13 ZIN A   1      18.761   5.078  11.881  0.00  0.00    -0.300 OA
ATOM     25  H54 ZIN A   1      19.420   5.251  11.193  0.00  0.00     0.223 HD
ENDBRANCH  21  24
ENDBRANCH  20  21
ENDBRANCH   1  20
BRANCH   1  26
ATOM     26  C14 ZIN A   1      18.058   1.906  13.232  0.00  0.00     0.122 C 
BRANCH  26  27
ATOM     27  C16 ZIN A   1      17.239   0.637  13.476  0.00  0.00     0.066 C 
BRANCH  27  28
ATOM     28  C17 ZIN A   1      17.766  -0.076  14.693  0.00  0.00    -0.056 A 
ATOM     29  C22 ZIN A   1      17.183   0.141  15.928  0.00  0.00     0.007 A 
ATOM     30  C21 ZIN A   1      17.664  -0.517  17.045  0.00  0.00     0.001 A 
ATOM     31  C20 ZIN A   1      18.735  -1.384  16.930  0.00  0.00     0.000 A 
ATOM     32  C19 ZIN A   1      19.321  -1.595  15.696  0.00  0.00     0.001 A 
ATOM     33  C18 ZIN A   1      18.837  -0.942  14.579  0.00  0.00     0.007 A 
ENDBRANCH  27  28
ENDBRANCH  26  27
BRANCH  26  34
ATOM     34  N23 ZIN A   1      17.437   3.030  13.937  0.00  0.00    -0.329 N 
ATOM     35  C24 ZIN A   1      18.077   3.614  14.970  0.00  0.00     0.361 C 
ATOM     36  O25 ZIN A   1      19.169   3.208  15.316  0.00  0.00    -0.238 OA
ATOM     37  H62 ZIN A   1      16.566   3.355  13.661  0.00  0.00     0.165 HD
BRANCH  35  38
ATOM     38  O26 ZIN A   1      17.508   4.647  15.618  0.00  0.00    -0.296 OA
BRANCH  38  39
ATOM     39  C27 ZIN A   1      17.898   5.982  15.202  0.00  0.00     0.159 C 
ATOM     40  C32 ZIN A   1      18.764   6.664  16.283  0.00  0.00     0.200 C 
ATOM     41  O31 ZIN A   1      18.347   8.035  16.368  0.00  0.00    -0.389 OA
ATOM     42  C30 ZIN A   1      17.319   8.296  15.399  0.00  0.00     0.170 C 
ATOM     43  C29 ZIN A   1      16.662   6.920  15.125  0.00  0.00     0.061 C 
ENDBRANCH  38  39
ENDBRANCH  35  38
ENDBRANCH  26  34
ENDBRANCH   1  26
TORSDOF 16
ENDMDL
MODEL 7
REMARK VINA RESULT:      -7.4      3.617      5.490
REMARK  16 active torsions:
REMARK  status: ('A' for Active; 'I' for Inactive)
REMARK    1  A    between atoms: C2_2  and  C4_4 
REMARK    2  A    between atoms: C4_4  and  N5_5 
REMARK    3  A    between atoms: N5_5  and  C6_6 
REMARK    4  A    between atoms: N5_5  and  S33_30 
REMARK    5  A    between atoms: C6_6  and  C7_7 
REMARK    6  A    between atoms: C7_7  and  O9_8 
REMARK    7  A    between atoms: C7_7  and  C14_13 
REMARK    8  A    between atoms: O9_8  and  P10_9 
REMARK    9  A    between atoms: P10_9  and  O13_12 
REMARK   10  A    between atoms: C14_13  and  C16_14 
REMARK   11  A    between atoms: C14_13  and  N23_21 
REMARK   12  A    between atoms: C16_14  and  C17_15 
REMARK       I    between atoms: N23_21  and  C24_22 
REMARK   13  A    between atoms: C24_22  and  O26_24 
REMARK   14  A    between atoms: O26_24  and  C27_25 
REMARK   15  A    between atoms: S33_30  and  C36_33 
REMARK   16  A    between atoms: C39_36  and  N40_37 
ROOT
ATOM      1  C7  ZIN A   1      18.116   1.244  12.360  0.00  0.00     0.176 C 
ENDROOT
BRANCH   1   2
ATOM      2  C6  ZIN A   1      17.624  -0.160  12.000  0.00  0.00     0.170 C 
BRANCH   2   3
ATOM      3  N5  ZIN A   1      18.639  -0.841  11.193  0.00  0.00    -0.304 N 
BRANCH   3   4
ATOM      4  C4  ZIN A   1      18.995  -0.319   9.871  0.00  0.00     0.139 C 
BRANCH   4   5
ATOM      5  C2  ZIN A   1      18.209  -1.073   8.797  0.00  0.00    -0.004 C 
ATOM      6  C1  ZIN A   1      17.235  -0.114   8.109  0.00  0.00     0.011 C 
ATOM      7  C3  ZIN A   1      19.178  -1.645   7.761  0.00  0.00     0.011 C 
ENDBRANCH   4   5
ENDBRANCH   3   4
BRANCH   3   8
ATOM      8  S33 ZIN A   1      19.384  -2.200  11.775  0.00  0.00     0.260 S 
ATOM      9  O34 ZIN A   1      20.721  -2.163  11.293  0.00  0.00    -0.200 OA
ATOM     10  O35 ZIN A   1      19.057  -2.278  13.155  0.00  0.00    -0.200 OA
BRANCH   8  11
ATOM     11  C36 ZIN A   1      18.616  -3.586  11.003  0.00  0.00     0.079 A 
ATOM     12  C42 ZIN A   1      19.362  -4.429  10.200  0.00  0.00     0.027 A 
ATOM     13  C41 ZIN A   1      18.764  -5.520   9.598  0.00  0.00     0.030 A 
ATOM     14  C39 ZIN A   1      17.410  -5.762   9.792  0.00  0.00     0.025 A 
ATOM     15  C38 ZIN A   1      16.663  -4.910  10.594  0.00  0.00     0.030 A 
ATOM     16  C37 ZIN A   1      17.268  -3.825  11.198  0.00  0.00     0.027 A 
BRANCH  14  17
ATOM     17  N40 ZIN A   1      16.802  -6.860   9.179  0.00  0.00    -0.399 N 
ATOM     18  H71 ZIN A   1      16.419  -6.770   8.292  0.00  0.00     0.156 HD
ATOM     19  H72 ZIN A   1      16.762  -7.712   9.641  0.00  0.00     0.156 HD
ENDBRANCH  14  17
ENDBRANCH   8  11
ENDBRANCH   3   8
ENDBRANCH   2   3
ENDBRANCH   1   2
BRANCH   1  20
ATOM     20  O9  ZIN A   1      17.237   2.217  11.795  0.00  0.00    -0.281 OA
BRANCH  20  21
ATOM     21  P10 ZIN A   1      17.759   3.510  10.990  0.00  0.00     0.406 P 
ATOM     22  O11 ZIN A   1      18.907   4.178  11.780  0.00  0.00    -0.624 OA
ATOM     23  O12 ZIN A   1      16.597   4.515  10.821  0.00  0.00    -0.624 OA
BRANCH  21  24
ATOM     24  O13 ZIN A   1      18.295   3.060   9.541  0.00  0.00    -0.300 OA
ATOM     25  H54 ZIN A   1      18.530   3.799   8.962  0.00  0.00     0.223 HD
ENDBRANCH  21  24
ENDBRANCH  20  21
ENDBRANCH   1  20
BRANCH   1  26
ATOM     26  C14 ZIN A   1      18.140   1.401  13.882  0.00  0.00     0.122 C 
BRANCH  26  27
ATOM     27  C16 ZIN A   1      17.416   0.219  14.528  0.00  0.00     0.066 C 
BRANCH  27  28
ATOM     28  C17 ZIN A   1      17.985  -0.029  15.902  0.00  0.00    -0.056 A 
ATOM     29  C22 ZIN A   1      19.013  -0.939  16.070  0.00  0.00     0.007 A 
ATOM     30  C21 ZIN A   1      19.537  -1.163  17.329  0.00  0.00     0.001 A 
ATOM     31  C20 ZIN A   1      19.028  -0.487  18.421  0.00  0.00     0.000 A 
ATOM     32  C19 ZIN A   1      17.996   0.418  18.253  0.00  0.00     0.001 A 
ATOM     33  C18 ZIN A   1      17.475   0.647  16.994  0.00  0.00     0.007 A 
ENDBRANCH  27  28
ENDBRANCH  26  27
BRANCH  26  34
ATOM     34  N23 ZIN A   1      17.468   2.648  14.255  0.00  0.00    -0.329 N 
ATOM     35  C24 ZIN A   1      18.107   3.554  15.021  0.00  0.00     0.361 C 
ATOM     36  O25 ZIN A   1      19.241   3.338  15.403  0.00  0.00    -0.238 OA
ATOM     37  H62 ZIN A   1      16.564   2.822  13.950  0.00  0.00     0.165 HD
BRANCH  35  38
ATOM     38  O26 ZIN A   1      17.490   4.701  15.363  0.00  0.00    -0.296 OA
BRANCH  38  39
ATOM     39  C27 ZIN A   1      17.923   5.911  14.688  0.00  0.00     0.159 C 
ATOM     40  C32 ZIN A   1      18.803   6.775  15.617  0.00  0.00     0.200 C 
ATOM     41  O31 ZIN A   1      18.426   8.145  15.414  0.00  0.00    -0.389 OA
ATOM     42  C30 ZIN A   1      17.414   8.232  14.399  0.00  0.00     0.170 C 
ATOM     43  C29 ZIN A   1      16.717   6.848  14.403  0.00  0.00     0.061 C 
ENDBRANCH  38  39
ENDBRANCH  35  38
ENDBRANCH  26  34
ENDBRANCH   1  26
TORSDOF 16
ENDMDL
MODEL 8
REMARK VINA RESULT:      -7.3      2.723      4.725
REMARK  16 active torsions:
REMARK  status: ('A' for Active; 'I' for Inactive)
REMARK    1  A    between atoms: C2_2  and  C4_4 
REMARK    2  A    between atoms: C4_4  and  N5_5 
REMARK    3  A    between atoms: N5_5  and  C6_6 
REMARK    4  A    between atoms: N5_5  and  S33_30 
REMARK    5  A    between atoms: C6_6  and  C7_7 
REMARK    6  A    between atoms: C7_7  and  O9_8 
REMARK    7  A    between atoms: C7_7  and  C14_13 
REMARK    8  A    between atoms: O9_8  and  P10_9 
REMARK    9  A    between atoms: P10_9  and  O13_12 
REMARK   10  A    between atoms: C14_13  and  C16_14 
REMARK   11  A    between atoms: C14_13  and  N23_21 
REMARK   12  A    between atoms: C16_14  and  C17_15 
REMARK       I    between atoms: N23_21  and  C24_22 
REMARK   13  A    between atoms: C24_22  and  O26_24 
REMARK   14  A    between atoms: O26_24  and  C27_25 
REMARK   15  A    between atoms: S33_30  and  C36_33 
REMARK   16  A    between atoms: C39_36  and  N40_37 
ROOT
ATOM      1  C7  ZIN A   1      18.743  -1.528   9.614  0.00  0.00     0.176 C 
ENDROOT
BRANCH   1   2
ATOM      2  C6  ZIN A   1      19.628  -1.395   8.374  0.00  0.00     0.170 C 
BRANCH   2   3
ATOM      3  N5  ZIN A   1      18.991  -2.077   7.244  0.00  0.00    -0.304 N 
BRANCH   3   4
ATOM      4  C4  ZIN A   1      18.085  -1.339   6.360  0.00  0.00     0.139 C 
BRANCH   4   5
ATOM      5  C2  ZIN A   1      18.833  -0.161   5.731  0.00  0.00    -0.004 C 
ATOM      6  C1  ZIN A   1      18.633  -0.181   4.214  0.00  0.00     0.011 C 
ATOM      7  C3  ZIN A   1      18.289   1.151   6.300  0.00  0.00     0.011 C 
ENDBRANCH   4   5
ENDBRANCH   3   4
BRANCH   3   8
ATOM      8  S33 ZIN A   1      19.294  -3.680   6.967  0.00  0.00     0.260 S 
ATOM      9  O34 ZIN A   1      20.627  -3.759   6.480  0.00  0.00    -0.200 OA
ATOM     10  O35 ZIN A   1      18.844  -4.379   8.119  0.00  0.00    -0.200 OA
BRANCH   8  11
ATOM     11  C36 ZIN A   1      18.250  -4.186   5.639  0.00  0.00     0.079 A 
ATOM     12  C42 ZIN A   1      17.178  -5.025   5.886  0.00  0.00     0.027 A 
ATOM     13  C41 ZIN A   1      16.355  -5.418   4.848  0.00  0.00     0.030 A 
ATOM     14  C39 ZIN A   1      16.612  -4.979   3.556  0.00  0.00     0.025 A 
ATOM     15  C38 ZIN A   1      17.692  -4.141   3.311  0.00  0.00     0.030 A 
ATOM     16  C37 ZIN A   1      18.507  -3.747   4.354  0.00  0.00     0.027 A 
BRANCH  14  17
ATOM     17  N40 ZIN A   1      15.785  -5.380   2.504  0.00  0.00    -0.399 N 
ATOM     18  H71 ZIN A   1      14.823  -5.408   2.626  0.00  0.00     0.156 HD
ATOM     19  H72 ZIN A   1      16.173  -5.631   1.650  0.00  0.00     0.156 HD
ENDBRANCH  14  17
ENDBRANCH   8  11
ENDBRANCH   3   8
ENDBRANCH   2   3
ENDBRANCH   1   2
BRANCH   1  20
ATOM     20  O9  ZIN A   1      19.464  -2.206  10.644  0.00  0.00    -0.281 OA
BRANCH  20  21
ATOM     21  P10 ZIN A   1      18.850  -3.437  11.481  0.00  0.00     0.406 P 
ATOM     22  O11 ZIN A   1      18.518  -2.970  12.916  0.00  0.00    -0.624 OA
ATOM     23  O12 ZIN A   1      19.882  -4.585  11.540  0.00  0.00    -0.624 OA
BRANCH  21  24
ATOM     24  O13 ZIN A   1      17.508  -3.959  10.762  0.00  0.00    -0.300 OA
ATOM     25  H54 ZIN A   1      16.997  -3.261  10.327  0.00  0.00     0.223 HD
ENDBRANCH  21  24
ENDBRANCH  20  21
ENDBRANCH   1  20
BRANCH   1  26
ATOM     26  C14 ZIN A   1      18.341  -0.136  10.105  0.00  0.00     0.122 C 
BRANCH  26  27
ATOM     27  C16 ZIN A   1      19.404   0.880   9.684  0.00  0.00     0.066 C 
BRANCH  27  28
ATOM     28  C17 ZIN A   1      19.129   2.202  10.352  0.00  0.00    -0.056 A 
ATOM     29  C22 ZIN A   1      18.052   2.970   9.946  0.00  0.00     0.007 A 
ATOM     30  C21 ZIN A   1      17.798   4.182  10.562  0.00  0.00     0.001 A 
ATOM     31  C20 ZIN A   1      18.623   4.630  11.575  0.00  0.00     0.000 A 
ATOM     32  C19 ZIN A   1      19.703   3.865  11.976  0.00  0.00     0.001 A 
ATOM     33  C18 ZIN A   1      19.955   2.652  11.365  0.00  0.00     0.007 A 
ENDBRANCH  27  28
ENDBRANCH  26  27
BRANCH  26  34
ATOM     34  N23 ZIN A   1      18.227  -0.146  11.566  0.00  0.00    -0.329 N 
ATOM     35  C24 ZIN A   1      17.022   0.004  12.148  0.00  0.00     0.361 C 
ATOM     36  O25 ZIN A   1      16.028   0.149  11.463  0.00  0.00    -0.238 OA
ATOM     37  H62 ZIN A   1      19.019  -0.263  12.113  0.00  0.00     0.165 HD
BRANCH  35  38
ATOM     38  O26 ZIN A   1      16.917  -0.006  13.491  0.00  0.00    -0.296 OA
BRANCH  38  39
ATOM     39  C27 ZIN A   1      18.116   0.300  14.249  0.00  0.00     0.159 C 
ATOM     40  C32 ZIN A   1      18.087  -0.393  15.628  0.00  0.00     0.200 C 
ATOM     41  O31 ZIN A   1      18.603   0.540  16.590  0.00  0.00    -0.389 OA
ATOM     42  C30 ZIN A   1      19.002   1.753  15.932  0.00  0.00     0.170 C 
ATOM     43  C29 ZIN A   1      18.160   1.805  14.632  0.00  0.00     0.061 C 
ENDBRANCH  38  39
ENDBRANCH  35  38
ENDBRANCH  26  34
ENDBRANCH   1  26
TORSDOF 16
ENDMDL
MODEL 9
REMARK VINA RESULT:      -7.3      4.770     10.494
REMARK  16 active torsions:
REMARK  status: ('A' for Active; 'I' for Inactive)
REMARK    1  A    between atoms: C2_2  and  C4_4 
REMARK    2  A    between atoms: C4_4  and  N5_5 
REMARK    3  A    between atoms: N5_5  and  C6_6 
REMARK    4  A    between atoms: N5_5  and  S33_30 
REMARK    5  A    between atoms: C6_6  and  C7_7 
REMARK    6  A    between atoms: C7_7  and  O9_8 
REMARK    7  A    between atoms: C7_7  and  C14_13 
REMARK    8  A    between atoms: O9_8  and  P10_9 
REMARK    9  A    between atoms: P10_9  and  O13_12 
REMARK   10  A    between atoms: C14_13  and  C16_14 
REMARK   11  A    between atoms: C14_13  and  N23_21 
REMARK   12  A    between atoms: C16_14  and  C17_15 
REMARK       I    between atoms: N23_21  and  C24_22 
REMARK   13  A    between atoms: C24_22  and  O26_24 
REMARK   14  A    between atoms: O26_24  and  C27_25 
REMARK   15  A    between atoms: S33_30  and  C36_33 
REMARK   16  A    between atoms: C39_36  and  N40_37 
ROOT
ATOM      1  C7  ZIN A   1      18.405   1.426  14.017  0.00  0.00     0.176 C 
ENDROOT
BRANCH   1   2
ATOM      2  C6  ZIN A   1      17.568   2.706  13.964  0.00  0.00     0.170 C 
BRANCH   2   3
ATOM      3  N5  ZIN A   1      18.458   3.869  13.938  0.00  0.00    -0.304 N 
BRANCH   3   4
ATOM      4  C4  ZIN A   1      18.671   4.601  12.686  0.00  0.00     0.139 C 
BRANCH   4   5
ATOM      5  C2  ZIN A   1      17.324   4.846  12.003  0.00  0.00    -0.004 C 
ATOM      6  C1  ZIN A   1      16.595   5.992  12.707  0.00  0.00     0.011 C 
ATOM      7  C3  ZIN A   1      17.555   5.213  10.536  0.00  0.00     0.011 C 
ENDBRANCH   4   5
ENDBRANCH   3   4
BRANCH   3   8
ATOM      8  S33 ZIN A   1      19.223   4.358  15.322  0.00  0.00     0.260 S 
ATOM      9  O34 ZIN A   1      19.861   3.205  15.857  0.00  0.00    -0.200 OA
ATOM     10  O35 ZIN A   1      19.922   5.551  14.995  0.00  0.00    -0.200 OA
BRANCH   8  11
ATOM     11  C36 ZIN A   1      17.972   4.813  16.477  0.00  0.00     0.079 A 
ATOM     12  C42 ZIN A   1      16.998   5.725  16.114  0.00  0.00     0.027 A 
ATOM     13  C41 ZIN A   1      16.012   6.080  17.015  0.00  0.00     0.030 A 
ATOM     14  C39 ZIN A   1      16.008   5.528  18.290  0.00  0.00     0.025 A 
ATOM     15  C38 ZIN A   1      16.990   4.617  18.653  0.00  0.00     0.030 A 
ATOM     16  C37 ZIN A   1      17.969   4.262  17.745  0.00  0.00     0.027 A 
BRANCH  14  17
ATOM     17  N40 ZIN A   1      15.016   5.890  19.205  0.00  0.00    -0.399 N 
ATOM     18  H71 ZIN A   1      14.772   6.822  19.312  0.00  0.00     0.156 HD
ATOM     19  H72 ZIN A   1      14.572   5.208  19.733  0.00  0.00     0.156 HD
ENDBRANCH  14  17
ENDBRANCH   8  11
ENDBRANCH   3   8
ENDBRANCH   2   3
ENDBRANCH   1   2
BRANCH   1  20
ATOM     20  O9  ZIN A   1      17.715   0.436  14.782  0.00  0.00    -0.281 OA
BRANCH  20  21
ATOM     21  P10 ZIN A   1      18.356  -0.281  16.072  0.00  0.00     0.406 P 
ATOM     22  O11 ZIN A   1      19.309  -1.408  15.614  0.00  0.00    -0.624 OA
ATOM     23  O12 ZIN A   1      17.229  -0.883  16.941  0.00  0.00    -0.624 OA
BRANCH  21  24
ATOM     24  O13 ZIN A   1      19.179   0.800  16.934  0.00  0.00    -0.300 OA
ATOM     25  H54 ZIN A   1      19.502   0.464  17.783  0.00  0.00     0.223 HD
ENDBRANCH  21  24
ENDBRANCH  20  21
ENDBRANCH   1  20
BRANCH   1  26
ATOM     26  C14 ZIN A   1      18.631   0.906  12.596  0.00  0.00     0.122 C 
BRANCH  26  27
ATOM     27  C16 ZIN A   1      17.486   1.371  11.695  0.00  0.00     0.066 C 
BRANCH  27  28
ATOM     28  C17 ZIN A   1      17.892   1.226  10.251  0.00  0.00    -0.056 A 
ATOM     29  C22 ZIN A   1      18.858   2.060   9.717  0.00  0.00     0.007 A 
ATOM     30  C21 ZIN A   1      19.234   1.924   8.394  0.00  0.00     0.001 A 
ATOM     31  C20 ZIN A   1      18.638   0.961   7.601  0.00  0.00     0.000 A 
ATOM     32  C19 ZIN A   1      17.668   0.132   8.133  0.00  0.00     0.001 A 
ATOM     33  C18 ZIN A   1      17.296   0.264   9.457  0.00  0.00     0.007 A 
ENDBRANCH  27  28
ENDBRANCH  26  27
BRANCH  26  34
ATOM     34  N23 ZIN A   1      18.674  -0.559  12.613  0.00  0.00    -0.329 N 
ATOM     35  C24 ZIN A   1      19.660  -1.211  11.966  0.00  0.00     0.361 C 
ATOM     36  O25 ZIN A   1      20.514  -0.585  11.368  0.00  0.00    -0.238 OA
ATOM     37  H62 ZIN A   1      17.994  -1.058  13.090  0.00  0.00     0.165 HD
BRANCH  35  38
ATOM     38  O26 ZIN A   1      19.701  -2.556  11.981  0.00  0.00    -0.296 OA
BRANCH  38  39
ATOM     39  C27 ZIN A   1      19.392  -3.240  10.739  0.00  0.00     0.159 C 
ATOM     40  C32 ZIN A   1      17.869  -3.269  10.490  0.00  0.00     0.200 C 
ATOM     41  O31 ZIN A   1      17.542  -4.567   9.972  0.00  0.00    -0.389 OA
ATOM     42  C30 ZIN A   1      18.736  -5.352   9.825  0.00  0.00     0.170 C 
ATOM     43  C29 ZIN A   1      19.744  -4.750  10.836  0.00  0.00     0.061 C 
ENDBRANCH  38  39
ENDBRANCH  35  38
ENDBRANCH  26  34
ENDBRANCH   1  26
TORSDOF 16
ENDMDL
