MODEL 1
REMARK VINA RESULT:      -7.5      0.000      0.000
REMARK  4 active torsions:
REMARK  status: ('A' for Active; 'I' for Inactive)
REMARK    1  A    between atoms: C2_2  and  C3_3 
REMARK    2  A    between atoms: C3_3  and  N4_4 
REMARK    3  A    between atoms: C13_13  and  O14_14 
REMARK    4  A    between atoms: C23_22  and  O24_23 
ROOT
ATOM      1  N4  ZIN A   1      18.493  -1.181   8.604  0.00  0.00    -0.060 N 
ATOM      2  H5  ZIN A   1      18.022  -1.035   7.723  0.00  0.00     0.280 HD
ATOM      3  C6  ZIN A   1      19.715  -0.373   8.637  0.00  0.00     0.237 C 
ATOM      4  C7  ZIN A   1      20.464  -0.605   9.955  0.00  0.00     0.048 C 
ATOM      5  C8  ZIN A   1      19.528  -0.245  11.107  0.00  0.00     0.058 C 
ATOM      6  C9  ZIN A   1      19.064   1.182  10.953  0.00  0.00    -0.001 A 
ATOM      7  C10 ZIN A   1      17.980   1.621  10.227  0.00  0.00    -0.046 A 
ATOM      8  C11 ZIN A   1      17.766   2.987  10.228  0.00  0.00     0.011 A 
ATOM      9  C12 ZIN A   1      18.581   3.821  10.976  0.00  0.00     0.040 A 
ATOM     10  C13 ZIN A   1      19.627   3.354  11.770  0.00  0.00     0.099 A 
ATOM     11  C15 ZIN A   1      19.858   1.974  11.770  0.00  0.00     0.110 A 
ATOM     12  O16 ZIN A   1      20.726   1.207  12.464  0.00  0.00    -0.334 OA
ATOM     13  C17 ZIN A   1      20.259  -0.175  12.440  0.00  0.00     0.214 C 
ATOM     14  C19 ZIN A   1      19.346  -0.358  13.617  0.00  0.00     0.157 C 
ATOM     15  O20 ZIN A   1      19.677   0.111  14.679  0.00  0.00    -0.295 OA
ATOM     16  C21 ZIN A   1      18.044  -1.095  13.537  0.00  0.00     0.084 C 
ATOM     17  C22 ZIN A   1      17.329  -0.751  12.228  0.00  0.00     0.048 C 
ATOM     18  C23 ZIN A   1      18.272  -1.100  11.039  0.00  0.00     0.102 C 
ATOM     19  C25 ZIN A   1      17.591  -0.811   9.700  0.00  0.00     0.228 C 
ATOM     20  C27 ZIN A   1      17.110   0.620   9.538  0.00  0.00     0.075 C 
ENDROOT
BRANCH   1  21
ATOM     21  C3  ZIN A   1      18.850  -2.601   8.730  0.00  0.00     0.262 C 
BRANCH  21  22
ATOM     22  C2  ZIN A   1      18.725  -3.271   7.386  0.00  0.00    -0.010 C 
ATOM     23  C1  ZIN A   1      19.800  -3.647   6.739  0.00  0.00     0.008 C 
ENDBRANCH  21  22
ENDBRANCH   1  21
BRANCH  18  24
ATOM     24  O24 ZIN A   1      18.631  -2.481  11.102  0.00  0.00    -0.386 OA
ATOM     25  H44 ZIN A   1      18.383  -2.989  10.318  0.00  0.00     0.210 HD
ENDBRANCH  18  24
BRANCH  10  26
ATOM     26  O14 ZIN A   1      20.387   4.202  12.514  0.00  0.00    -0.358 OA
ATOM     27  H39 ZIN A   1      20.151   5.134  12.413  0.00  0.00     0.217 HD
ENDBRANCH  10  26
TORSDOF 4
ENDMDL
MODEL 2
REMARK VINA RESULT:      -7.2      2.377      5.484
REMARK  4 active torsions:
REMARK  status: ('A' for Active; 'I' for Inactive)
REMARK    1  A    between atoms: C2_2  and  C3_3 
REMARK    2  A    between atoms: C3_3  and  N4_4 
REMARK    3  A    between atoms: C13_13  and  O14_14 
REMARK    4  A    between atoms: C23_22  and  O24_23 
ROOT
ATOM      1  N4  ZIN A   1      18.006   2.766  12.401  0.00  0.00    -0.060 N 
ATOM      2  H5  ZIN A   1      17.550   2.988  13.274  0.00  0.00     0.280 HD
ATOM      3  C6  ZIN A   1      19.361   2.281  12.673  0.00  0.00     0.237 C 
ATOM      4  C7  ZIN A   1      20.083   1.969  11.356  0.00  0.00     0.048 C 
ATOM      5  C8  ZIN A   1      19.262   0.928  10.597  0.00  0.00     0.058 C 
ATOM      6  C9  ZIN A   1      19.080  -0.297  11.457  0.00  0.00    -0.001 A 
ATOM      7  C10 ZIN A   1      18.085  -0.511  12.383  0.00  0.00    -0.046 A 
ATOM      8  C11 ZIN A   1      18.140  -1.716  13.061  0.00  0.00     0.011 A 
ATOM      9  C12 ZIN A   1      19.119  -2.646  12.752  0.00  0.00     0.040 A 
ATOM     10  C13 ZIN A   1      20.073  -2.448  11.757  0.00  0.00     0.099 A 
ATOM     11  C15 ZIN A   1      20.032  -1.229  11.070  0.00  0.00     0.110 A 
ATOM     12  O16 ZIN A   1      20.752  -0.759  10.029  0.00  0.00    -0.334 OA
ATOM     13  C17 ZIN A   1      20.025   0.347   9.414  0.00  0.00     0.214 C 
ATOM     14  C19 ZIN A   1      19.123  -0.239   8.368  0.00  0.00     0.157 C 
ATOM     15  O20 ZIN A   1      19.564  -1.099   7.646  0.00  0.00    -0.295 OA
ATOM     16  C21 ZIN A   1      17.700   0.194   8.178  0.00  0.00     0.084 C 
ATOM     17  C22 ZIN A   1      17.034   0.413   9.538  0.00  0.00     0.048 C 
ATOM     18  C23 ZIN A   1      17.863   1.464  10.335  0.00  0.00     0.102 C 
ATOM     19  C25 ZIN A   1      17.218   1.751  11.693  0.00  0.00     0.228 C 
ATOM     20  C27 ZIN A   1      17.021   0.522  12.564  0.00  0.00     0.075 C 
ENDROOT
BRANCH   1  21
ATOM     21  C3  ZIN A   1      18.083   3.979  11.576  0.00  0.00     0.262 C 
BRANCH  21  22
ATOM     22  C2  ZIN A   1      16.948   4.903  11.935  0.00  0.00    -0.010 C 
ATOM     23  C1  ZIN A   1      16.782   5.287  13.176  0.00  0.00     0.008 C 
ENDBRANCH  21  22
ENDBRANCH   1  21
BRANCH  18  24
ATOM     24  O24 ZIN A   1      17.949   2.675   9.583  0.00  0.00    -0.386 OA
ATOM     25  H44 ZIN A   1      18.712   2.717   8.990  0.00  0.00     0.210 HD
ENDBRANCH  18  24
BRANCH  10  26
ATOM     26  O14 ZIN A   1      21.001  -3.398  11.463  0.00  0.00    -0.358 OA
ATOM     27  H39 ZIN A   1      20.659  -4.134  10.937  0.00  0.00     0.217 HD
ENDBRANCH  10  26
TORSDOF 4
ENDMDL
MODEL 3
REMARK VINA RESULT:      -7.2      1.992      3.982
REMARK  4 active torsions:
REMARK  status: ('A' for Active; 'I' for Inactive)
REMARK    1  A    between atoms: C2_2  and  C3_3 
REMARK    2  A    between atoms: C3_3  and  N4_4 
REMARK    3  A    between atoms: C13_13  and  O14_14 
REMARK    4  A    between atoms: C23_22  and  O24_23 
ROOT
ATOM      1  N4  ZIN A   1      19.006  -0.732   9.345  0.00  0.00    -0.060 N 
ATOM      2  H5  ZIN A   1      19.322  -1.648   9.058  0.00  0.00     0.280 HD
ATOM      3  C6  ZIN A   1      17.709  -0.858  10.015  0.00  0.00     0.237 C 
ATOM      4  C7  ZIN A   1      17.195   0.526  10.429  0.00  0.00     0.048 C 
ATOM      5  C8  ZIN A   1      18.236   1.167  11.346  0.00  0.00     0.058 C 
ATOM      6  C9  ZIN A   1      18.486   0.268  12.531  0.00  0.00    -0.001 A 
ATOM      7  C10 ZIN A   1      19.388  -0.769  12.600  0.00  0.00    -0.046 A 
ATOM      8  C11 ZIN A   1      19.424  -1.459  13.799  0.00  0.00     0.011 A 
ATOM      9  C12 ZIN A   1      18.627  -1.059  14.858  0.00  0.00     0.040 A 
ATOM     10  C13 ZIN A   1      17.775   0.042  14.800  0.00  0.00     0.099 A 
ATOM     11  C15 ZIN A   1      17.725   0.743  13.589  0.00  0.00     0.110 A 
ATOM     12  O16 ZIN A   1      17.072   1.868  13.228  0.00  0.00    -0.334 OA
ATOM     13  C17 ZIN A   1      17.703   2.417  12.032  0.00  0.00     0.214 C 
ATOM     14  C19 ZIN A   1      18.793   3.343  12.488  0.00  0.00     0.157 C 
ATOM     15  O20 ZIN A   1      18.563   4.094  13.404  0.00  0.00    -0.295 OA
ATOM     16  C21 ZIN A   1      20.153   3.378  11.860  0.00  0.00     0.084 C 
ATOM     17  C22 ZIN A   1      20.621   1.955  11.545  0.00  0.00     0.048 C 
ATOM     18  C23 ZIN A   1      19.567   1.278  10.619  0.00  0.00     0.102 C 
ATOM     19  C25 ZIN A   1      20.004  -0.138  10.241  0.00  0.00     0.228 C 
ATOM     20  C27 ZIN A   1      20.270  -1.050  11.427  0.00  0.00     0.075 C 
ENDROOT
BRANCH   1  21
ATOM     21  C3  ZIN A   1      18.856   0.119   8.156  0.00  0.00     0.262 C 
BRANCH  21  22
ATOM     22  C2  ZIN A   1      18.157  -0.656   7.069  0.00  0.00    -0.010 C 
ATOM     23  C1  ZIN A   1      17.213  -0.086   6.362  0.00  0.00     0.008 C 
ENDBRANCH  21  22
ENDBRANCH   1  21
BRANCH  18  24
ATOM     24  O24 ZIN A   1      19.400   2.058   9.434  0.00  0.00    -0.386 OA
ATOM     25  H44 ZIN A   1      20.228   2.269   8.983  0.00  0.00     0.210 HD
ENDBRANCH  18  24
BRANCH  10  26
ATOM     26  O14 ZIN A   1      17.029   0.422  15.872  0.00  0.00    -0.358 OA
ATOM     27  H39 ZIN A   1      17.479   1.038  16.466  0.00  0.00     0.217 HD
ENDBRANCH  10  26
TORSDOF 4
ENDMDL
MODEL 4
REMARK VINA RESULT:      -7.2      2.390      4.232
REMARK  4 active torsions:
REMARK  status: ('A' for Active; 'I' for Inactive)
REMARK    1  A    between atoms: C2_2  and  C3_3 
REMARK    2  A    between atoms: C3_3  and  N4_4 
REMARK    3  A    between atoms: C13_13  and  O14_14 
REMARK    4  A    between atoms: C23_22  and  O24_23 
ROOT
ATOM      1  N4  ZIN A   1      19.090  -4.286  10.968  0.00  0.00    -0.060 N 
ATOM      2  H5  ZIN A   1      19.646  -5.044  11.335  0.00  0.00     0.280 HD
ATOM      3  C6  ZIN A   1      17.891  -4.123  11.795  0.00  0.00     0.237 C 
ATOM      4  C7  ZIN A   1      17.015  -2.996  11.235  0.00  0.00     0.048 C 
ATOM      5  C8  ZIN A   1      17.846  -1.715  11.201  0.00  0.00     0.058 C 
ATOM      6  C9  ZIN A   1      18.358  -1.410  12.588  0.00  0.00    -0.001 A 
ATOM      7  C10 ZIN A   1      19.517  -1.885  13.159  0.00  0.00    -0.046 A 
ATOM      8  C11 ZIN A   1      19.765  -1.470  14.455  0.00  0.00     0.011 A 
ATOM      9  C12 ZIN A   1      18.903  -0.584  15.081  0.00  0.00     0.040 A 
ATOM     10  C13 ZIN A   1      17.775  -0.050  14.462  0.00  0.00     0.099 A 
ATOM     11  C15 ZIN A   1      17.510  -0.469  13.153  0.00  0.00     0.110 A 
ATOM     12  O16 ZIN A   1      16.561  -0.101  12.265  0.00  0.00    -0.334 OA
ATOM     13  C17 ZIN A   1      16.993  -0.485  10.925  0.00  0.00     0.214 C 
ATOM     14  C19 ZIN A   1      17.786   0.661  10.367  0.00  0.00     0.157 C 
ATOM     15  O20 ZIN A   1      17.367   1.782  10.529  0.00  0.00    -0.295 OA
ATOM     16  C21 ZIN A   1      19.071   0.480   9.617  0.00  0.00     0.084 C 
ATOM     17  C22 ZIN A   1      19.915  -0.609  10.284  0.00  0.00     0.048 C 
ATOM     18  C23 ZIN A   1      19.080  -1.923  10.338  0.00  0.00     0.102 C 
ATOM     19  C25 ZIN A   1      19.893  -3.059  10.962  0.00  0.00     0.228 C 
ATOM     20  C27 ZIN A   1      20.423  -2.759  12.354  0.00  0.00     0.075 C 
ENDROOT
BRANCH   1  21
ATOM     21  C3  ZIN A   1      18.687  -4.606   9.592  0.00  0.00     0.262 C 
BRANCH  21  22
ATOM     22  C2  ZIN A   1      18.311  -6.063   9.505  0.00  0.00    -0.010 C 
ATOM     23  C1  ZIN A   1      17.178  -6.415   8.950  0.00  0.00     0.008 C 
ENDBRANCH  21  22
ENDBRANCH   1  21
BRANCH  18  24
ATOM     24  O24 ZIN A   1      18.682  -2.291   9.017  0.00  0.00    -0.386 OA
ATOM     25  H44 ZIN A   1      18.285  -1.570   8.510  0.00  0.00     0.210 HD
ENDBRANCH  18  24
BRANCH  10  26
ATOM     26  O14 ZIN A   1      16.970   0.841  15.099  0.00  0.00    -0.358 OA
ATOM     27  H39 ZIN A   1      16.803   0.627  16.027  0.00  0.00     0.217 HD
ENDBRANCH  10  26
TORSDOF 4
ENDMDL
MODEL 5
REMARK VINA RESULT:      -7.1      2.292      5.284
REMARK  4 active torsions:
REMARK  status: ('A' for Active; 'I' for Inactive)
REMARK    1  A    between atoms: C2_2  and  C3_3 
REMARK    2  A    between atoms: C3_3  and  N4_4 
REMARK    3  A    between atoms: C13_13  and  O14_14 
REMARK    4  A    between atoms: C23_22  and  O24_23 
ROOT
ATOM      1  N4  ZIN A   1      19.038  -2.138  13.036  0.00  0.00    -0.060 N 
ATOM      2  H5  ZIN A   1      18.792  -2.993  13.514  0.00  0.00     0.280 HD
ATOM      3  C6  ZIN A   1      20.171  -2.395  12.143  0.00  0.00     0.237 C 
ATOM      4  C7  ZIN A   1      20.582  -1.101  11.430  0.00  0.00     0.048 C 
ATOM      5  C8  ZIN A   1      19.373  -0.575  10.658  0.00  0.00     0.058 C 
ATOM      6  C9  ZIN A   1      18.890  -1.633   9.696  0.00  0.00    -0.001 A 
ATOM      7  C10 ZIN A   1      17.998  -2.645   9.968  0.00  0.00    -0.046 A 
ATOM      8  C11 ZIN A   1      17.721  -3.503   8.919  0.00  0.00     0.011 A 
ATOM      9  C12 ZIN A   1      18.283  -3.284   7.672  0.00  0.00     0.040 A 
ATOM     10  C13 ZIN A   1      19.122  -2.209   7.391  0.00  0.00     0.099 A 
ATOM     11  C15 ZIN A   1      19.416  -1.339   8.447  0.00  0.00     0.110 A 
ATOM     12  O16 ZIN A   1      20.124  -0.190   8.496  0.00  0.00    -0.334 OA
ATOM     13  C17 ZIN A   1      19.748   0.546   9.699  0.00  0.00     0.214 C 
ATOM     14  C19 ZIN A   1      18.583   1.422   9.340  0.00  0.00     0.157 C 
ATOM     15  O20 ZIN A   1      18.617   2.023   8.295  0.00  0.00    -0.295 OA
ATOM     16  C21 ZIN A   1      17.380   1.585  10.219  0.00  0.00     0.084 C 
ATOM     17  C22 ZIN A   1      16.994   0.236  10.832  0.00  0.00     0.048 C 
ATOM     18  C23 ZIN A   1      18.219  -0.324  11.615  0.00  0.00     0.102 C 
ATOM     19  C25 ZIN A   1      17.875  -1.657  12.282  0.00  0.00     0.228 C 
ATOM     20  C27 ZIN A   1      17.377  -2.726  11.325  0.00  0.00     0.075 C 
ENDROOT
BRANCH   1  21
ATOM     21  C3  ZIN A   1      19.424  -1.125  14.028  0.00  0.00     0.262 C 
BRANCH  21  22
ATOM     22  C2  ZIN A   1      18.834  -1.484  15.367  0.00  0.00    -0.010 C 
ATOM     23  C1  ZIN A   1      17.969  -0.683  15.938  0.00  0.00     0.008 C 
ENDBRANCH  21  22
ENDBRANCH   1  21
BRANCH  18  24
ATOM     24  O24 ZIN A   1      18.620   0.618  12.611  0.00  0.00    -0.386 OA
ATOM     25  H44 ZIN A   1      18.867   0.216  13.455  0.00  0.00     0.210 HD
ENDBRANCH  18  24
BRANCH  10  26
ATOM     26  O14 ZIN A   1      19.631  -2.011   6.146  0.00  0.00    -0.358 OA
ATOM     27  H39 ZIN A   1      19.242  -1.261   5.675  0.00  0.00     0.217 HD
ENDBRANCH  10  26
TORSDOF 4
ENDMDL
MODEL 6
REMARK VINA RESULT:      -7.1      2.400      5.673
REMARK  4 active torsions:
REMARK  status: ('A' for Active; 'I' for Inactive)
REMARK    1  A    between atoms: C2_2  and  C3_3 
REMARK    2  A    between atoms: C3_3  and  N4_4 
REMARK    3  A    between atoms: C13_13  and  O14_14 
REMARK    4  A    between atoms: C23_22  and  O24_23 
ROOT
ATOM      1  N4  ZIN A   1      18.755   0.567  14.465  0.00  0.00    -0.060 N 
ATOM      2  H5  ZIN A   1      18.309   0.130  15.259  0.00  0.00     0.280 HD
ATOM      3  C6  ZIN A   1      19.839  -0.296  13.987  0.00  0.00     0.237 C 
ATOM      4  C7  ZIN A   1      20.552   0.365  12.801  0.00  0.00     0.048 C 
ATOM      5  C8  ZIN A   1      19.519   0.621  11.705  0.00  0.00     0.058 C 
ATOM      6  C9  ZIN A   1      18.854  -0.679  11.324  0.00  0.00    -0.001 A 
ATOM      7  C10 ZIN A   1      17.752  -1.244  11.924  0.00  0.00    -0.046 A 
ATOM      8  C11 ZIN A   1      17.335  -2.456  11.400  0.00  0.00     0.011 A 
ATOM      9  C12 ZIN A   1      17.980  -3.000  10.302  0.00  0.00     0.040 A 
ATOM     10  C13 ZIN A   1      19.046  -2.377   9.656  0.00  0.00     0.099 A 
ATOM     11  C15 ZIN A   1      19.482  -1.155  10.182  0.00  0.00     0.110 A 
ATOM     12  O16 ZIN A   1      20.421  -0.280   9.765  0.00  0.00    -0.334 OA
ATOM     13  C17 ZIN A   1      20.169   1.016  10.386  0.00  0.00     0.214 C 
ATOM     14  C19 ZIN A   1      19.239   1.771   9.480  0.00  0.00     0.157 C 
ATOM     15  O20 ZIN A   1      19.446   1.741   8.291  0.00  0.00    -0.295 OA
ATOM     16  C21 ZIN A   1      18.067   2.559   9.982  0.00  0.00     0.084 C 
ATOM     17  C22 ZIN A   1      17.371   1.797  11.113  0.00  0.00     0.048 C 
ATOM     18  C23 ZIN A   1      18.411   1.515  12.238  0.00  0.00     0.102 C 
ATOM     19  C25 ZIN A   1      17.757   0.787  13.414  0.00  0.00     0.228 C 
ATOM     20  C27 ZIN A   1      17.075  -0.518  13.041  0.00  0.00     0.075 C 
ENDROOT
BRANCH   1  21
ATOM     21  C3  ZIN A   1      19.314   1.861  14.879  0.00  0.00     0.262 C 
BRANCH  21  22
ATOM     22  C2  ZIN A   1      18.880   2.167  16.289  0.00  0.00    -0.010 C 
ATOM     23  C1  ZIN A   1      19.238   1.378  17.272  0.00  0.00     0.008 C 
ENDBRANCH  21  22
ENDBRANCH   1  21
BRANCH  18  24
ATOM     24  O24 ZIN A   1      18.969   2.748  12.692  0.00  0.00    -0.386 OA
ATOM     25  H44 ZIN A   1      18.525   3.120  13.466  0.00  0.00     0.210 HD
ENDBRANCH  18  24
BRANCH  10  26
ATOM     26  O14 ZIN A   1      19.635  -2.929   8.562  0.00  0.00    -0.358 OA
ATOM     27  H39 ZIN A   1      20.601  -2.948   8.602  0.00  0.00     0.217 HD
ENDBRANCH  10  26
TORSDOF 4
ENDMDL
MODEL 7
REMARK VINA RESULT:      -7.0      2.320      5.152
REMARK  4 active torsions:
REMARK  status: ('A' for Active; 'I' for Inactive)
REMARK    1  A    between atoms: C2_2  and  C3_3 
REMARK    2  A    between atoms: C3_3  and  N4_4 
REMARK    3  A    between atoms: C13_13  and  O14_14 
REMARK    4  A    between atoms: C23_22  and  O24_23 
ROOT
ATOM      1  N4  ZIN A   1      18.252   1.998  12.277  0.00  0.00    -0.060 N 
ATOM      2  H5  ZIN A   1      18.381   2.998  12.340  0.00  0.00     0.280 HD
ATOM      3  C6  ZIN A   1      17.065   1.715  11.467  0.00  0.00     0.237 C 
ATOM      4  C7  ZIN A   1      16.832   0.201  11.386  0.00  0.00     0.048 C 
ATOM      5  C8  ZIN A   1      18.081  -0.444  10.789  0.00  0.00     0.058 C 
ATOM      6  C9  ZIN A   1      18.367   0.166   9.439  0.00  0.00    -0.001 A 
ATOM      7  C10 ZIN A   1      19.103   1.301   9.190  0.00  0.00    -0.046 A 
ATOM      8  C11 ZIN A   1      19.214   1.669   7.861  0.00  0.00     0.011 A 
ATOM      9  C12 ZIN A   1      18.651   0.882   6.870  0.00  0.00     0.040 A 
ATOM     10  C13 ZIN A   1      17.976  -0.308   7.132  0.00  0.00     0.099 A 
ATOM     11  C15 ZIN A   1      17.851  -0.686   8.474  0.00  0.00     0.110 A 
ATOM     12  O16 ZIN A   1      17.328  -1.788   9.053  0.00  0.00    -0.334 OA
ATOM     13  C17 ZIN A   1      17.850  -1.900  10.411  0.00  0.00     0.214 C 
ATOM     14  C19 ZIN A   1      19.122  -2.693  10.336  0.00  0.00     0.157 C 
ATOM     15  O20 ZIN A   1      19.146  -3.676   9.636  0.00  0.00    -0.295 OA
ATOM     16  C21 ZIN A   1      20.364  -2.323  11.090  0.00  0.00     0.084 C 
ATOM     17  C22 ZIN A   1      20.560  -0.805  11.059  0.00  0.00     0.048 C 
ATOM     18  C23 ZIN A   1      19.291  -0.126  11.654  0.00  0.00     0.102 C 
ATOM     19  C25 ZIN A   1      19.449   1.395  11.683  0.00  0.00     0.228 C 
ATOM     20  C27 ZIN A   1      19.749   2.019  10.331  0.00  0.00     0.075 C 
ENDROOT
BRANCH   1  21
ATOM     21  C3  ZIN A   1      18.056   1.453  13.628  0.00  0.00     0.262 C 
BRANCH  21  22
ATOM     22  C2  ZIN A   1      18.502   2.468  14.648  0.00  0.00    -0.010 C 
ATOM     23  C1  ZIN A   1      19.158   2.082  15.714  0.00  0.00     0.008 C 
ENDBRANCH  21  22
ENDBRANCH   1  21
BRANCH  18  24
ATOM     24  O24 ZIN A   1      19.068  -0.607  12.981  0.00  0.00    -0.386 OA
ATOM     25  H44 ZIN A   1      18.341  -0.168  13.441  0.00  0.00     0.210 HD
ENDBRANCH  18  24
BRANCH  10  26
ATOM     26  O14 ZIN A   1      17.463  -1.070   6.129  0.00  0.00    -0.358 OA
ATOM     27  H39 ZIN A   1      17.460  -0.634   5.265  0.00  0.00     0.217 HD
ENDBRANCH  10  26
TORSDOF 4
ENDMDL
MODEL 8
REMARK VINA RESULT:      -6.8      2.297      5.827
REMARK  4 active torsions:
REMARK  status: ('A' for Active; 'I' for Inactive)
REMARK    1  A    between atoms: C2_2  and  C3_3 
REMARK    2  A    between atoms: C3_3  and  N4_4 
REMARK    3  A    between atoms: C13_13  and  O14_14 
REMARK    4  A    between atoms: C23_22  and  O24_23 
ROOT
ATOM      1  N4  ZIN A   1      19.228   0.727  11.891  0.00  0.00    -0.060 N 
ATOM      2  H5  ZIN A   1      19.017   0.850  12.871  0.00  0.00     0.280 HD
ATOM      3  C6  ZIN A   1      20.235  -0.327  11.744  0.00  0.00     0.237 C 
ATOM      4  C7  ZIN A   1      20.595  -0.508  10.264  0.00  0.00     0.048 C 
ATOM      5  C8  ZIN A   1      19.316  -0.848   9.500  0.00  0.00     0.058 C 
ATOM      6  C9  ZIN A   1      18.688  -2.084  10.094  0.00  0.00    -0.001 A 
ATOM      7  C10 ZIN A   1      17.806  -2.132  11.149  0.00  0.00    -0.046 A 
ATOM      8  C11 ZIN A   1      17.377  -3.393  11.521  0.00  0.00     0.011 A 
ATOM      9  C12 ZIN A   1      17.788  -4.508  10.809  0.00  0.00     0.040 A 
ATOM     10  C13 ZIN A   1      18.619  -4.437   9.693  0.00  0.00     0.099 A 
ATOM     11  C15 ZIN A   1      19.066  -3.166   9.312  0.00  0.00     0.110 A 
ATOM     12  O16 ZIN A   1      19.808  -2.750   8.264  0.00  0.00    -0.334 OA
ATOM     13  C17 ZIN A   1      19.605  -1.317   8.080  0.00  0.00     0.214 C 
ATOM     14  C19 ZIN A   1      18.431  -1.148   7.160  0.00  0.00     0.157 C 
ATOM     15  O20 ZIN A   1      18.355  -1.861   6.189  0.00  0.00    -0.295 OA
ATOM     16  C21 ZIN A   1      17.350  -0.135   7.389  0.00  0.00     0.084 C 
ATOM     17  C22 ZIN A   1      17.002  -0.070   8.878  0.00  0.00     0.048 C 
ATOM     18  C23 ZIN A   1      18.296   0.265   9.678  0.00  0.00     0.102 C 
ATOM     19  C25 ZIN A   1      17.997   0.380  11.174  0.00  0.00     0.228 C 
ATOM     20  C27 ZIN A   1      17.353  -0.855  11.781  0.00  0.00     0.075 C 
ENDROOT
BRANCH   1  21
ATOM     21  C3  ZIN A   1      19.763   1.985  11.352  0.00  0.00     0.262 C 
BRANCH  21  22
ATOM     22  C2  ZIN A   1      19.258   3.140  12.178  0.00  0.00    -0.010 C 
ATOM     23  C1  ZIN A   1      18.534   4.078  11.620  0.00  0.00     0.008 C 
ENDBRANCH  21  22
ENDBRANCH   1  21
BRANCH  18  24
ATOM     24  O24 ZIN A   1      18.845   1.496   9.206  0.00  0.00    -0.386 OA
ATOM     25  H44 ZIN A   1      19.796   1.463   9.035  0.00  0.00     0.210 HD
ENDBRANCH  18  24
BRANCH  10  26
ATOM     26  O14 ZIN A   1      18.977  -5.552   9.002  0.00  0.00    -0.358 OA
ATOM     27  H39 ZIN A   1      18.998  -6.358   9.537  0.00  0.00     0.217 HD
ENDBRANCH  10  26
TORSDOF 4
ENDMDL
MODEL 9
REMARK VINA RESULT:      -6.8      1.625      5.012
REMARK  4 active torsions:
REMARK  status: ('A' for Active; 'I' for Inactive)
REMARK    1  A    between atoms: C2_2  and  C3_3 
REMARK    2  A    between atoms: C3_3  and  N4_4 
REMARK    3  A    between atoms: C13_13  and  O14_14 
REMARK    4  A    between atoms: C23_22  and  O24_23 
ROOT
ATOM      1  N4  ZIN A   1      18.863   2.288   9.912  0.00  0.00    -0.060 N 
ATOM      2  H5  ZIN A   1      19.144   2.542   8.976  0.00  0.00     0.280 HD
ATOM      3  C6  ZIN A   1      17.552   1.635   9.860  0.00  0.00     0.237 C 
ATOM      4  C7  ZIN A   1      17.091   1.269  11.277  0.00  0.00     0.048 C 
ATOM      5  C8  ZIN A   1      18.144   0.355  11.901  0.00  0.00     0.058 C 
ATOM      6  C9  ZIN A   1      18.338  -0.860  11.028  0.00  0.00    -0.001 A 
ATOM      7  C10 ZIN A   1      19.195  -0.973   9.957  0.00  0.00    -0.046 A 
ATOM      8  C11 ZIN A   1      19.184  -2.192   9.302  0.00  0.00     0.011 A 
ATOM      9  C12 ZIN A   1      18.388  -3.226   9.766  0.00  0.00     0.040 A 
ATOM     10  C13 ZIN A   1      17.585  -3.122  10.900  0.00  0.00     0.099 A 
ATOM     11  C15 ZIN A   1      17.582  -1.891  11.566  0.00  0.00     0.110 A 
ATOM     12  O16 ZIN A   1      16.983  -1.486  12.706  0.00  0.00    -0.334 OA
ATOM     13  C17 ZIN A   1      17.654  -0.285  13.192  0.00  0.00     0.214 C 
ATOM     14  C19 ZIN A   1      18.775  -0.732  14.084  0.00  0.00     0.157 C 
ATOM     15  O20 ZIN A   1      18.564  -1.622  14.872  0.00  0.00    -0.295 OA
ATOM     16  C21 ZIN A   1      20.145  -0.125  14.044  0.00  0.00     0.084 C 
ATOM     17  C22 ZIN A   1      20.557   0.141  12.594  0.00  0.00     0.048 C 
ATOM     18  C23 ZIN A   1      19.489   1.063  11.934  0.00  0.00     0.102 C 
ATOM     19  C25 ZIN A   1      19.872   1.393  10.490  0.00  0.00     0.228 C 
ATOM     20  C27 ZIN A   1      20.081   0.177   9.604  0.00  0.00     0.075 C 
ENDROOT
BRANCH   1  21
ATOM     21  C3  ZIN A   1      18.767   3.502  10.733  0.00  0.00     0.262 C 
BRANCH  21  22
ATOM     22  C2  ZIN A   1      17.814   4.473  10.083  0.00  0.00    -0.010 C 
ATOM     23  C1  ZIN A   1      16.962   5.145  10.816  0.00  0.00     0.008 C 
ENDBRANCH  21  22
ENDBRANCH   1  21
BRANCH  18  24
ATOM     24  O24 ZIN A   1      19.373   2.273  12.685  0.00  0.00    -0.386 OA
ATOM     25  H44 ZIN A   1      18.816   2.196  13.471  0.00  0.00     0.210 HD
ENDBRANCH  18  24
BRANCH  10  26
ATOM     26  O14 ZIN A   1      16.840  -4.170  11.342  0.00  0.00    -0.358 OA
ATOM     27  H39 ZIN A   1      16.575  -4.101  12.269  0.00  0.00     0.217 HD
ENDBRANCH  10  26
TORSDOF 4
ENDMDL
