MODEL 1
REMARK VINA RESULT:      -6.9      0.000      0.000
REMARK  7 active torsions:
REMARK  status: ('A' for Active; 'I' for Inactive)
REMARK    1  A    between atoms: C6_6  and  N7_7 
REMARK       I    between atoms: N7_7  and  C8_8 
REMARK    2  A    between atoms: C8_8  and  C10_10 
REMARK    3  A    between atoms: C10_10  and  N11_11 
REMARK    4  A    between atoms: N11_11  and  C12_12 
REMARK    5  A    between atoms: N11_11  and  C16_16 
REMARK    6  A    between atoms: C12_12  and  C13_13 
REMARK    7  A    between atoms: C16_16  and  C17_17 
ROOT
ATOM      1  N7  <0> d   1      18.627   1.150  13.072  0.00  0.00    -0.325 N 
ATOM      2  C8  <0> d   1      19.745   1.107  12.321  0.00  0.00     0.250 C 
ATOM      3  O9  <0> d   1      20.785   0.708  12.802  0.00  0.00    -0.271 OA
ATOM      4  H31 <0> d   1      17.780   1.394  12.667  0.00  0.00     0.169 HD
ENDROOT
BRANCH   1   5
ATOM      5  C6  <0> d   1      18.687   0.842  14.435  0.00  0.00     0.048 A 
ATOM      6  C4  <0> d   1      18.621  -0.480  14.853  0.00  0.00    -0.034 A 
ATOM      7  C3  <0> d   1      18.681  -0.782  16.200  0.00  0.00     0.017 A 
ATOM      8  C5  <0> d   1      18.485  -1.586  13.838  0.00  0.00     0.050 C 
ATOM      9  C2  <0> d   1      18.805   0.230  17.132  0.00  0.00    -0.043 A 
ATOM     10  C1  <0> d   1      18.869  -0.102  18.600  0.00  0.00     0.049 C 
ATOM     11  C22 <0> d   1      18.865   1.551  16.719  0.00  0.00     0.025 A 
ATOM     12  C20 <0> d   1      18.812   1.858  15.373  0.00  0.00    -0.017 A 
ATOM     13 Br23 <0> d   1      19.036   2.933  17.999  0.00  0.00    -0.050 Br
ATOM     14  C21 <0> d   1      18.884   3.295  14.924  0.00  0.00     0.052 C 
ENDBRANCH   1   5
BRANCH   2  15
ATOM     15  C10 <0> d   1      19.705   1.555  10.882  0.00  0.00     0.376 C 
BRANCH  15  16
ATOM     16  N11 <0> d   1      18.330   1.923  10.521  0.00  0.00     0.117 N 
BRANCH  16  17
ATOM     17  C12 <0> d   1      18.283   3.264   9.923  0.00  0.00     0.386 C 
BRANCH  17  18
ATOM     18  C13 <0> d   1      17.340   4.134  10.713  0.00  0.00     0.202 C 
ATOM     19  O14 <0> d   1      16.982   3.790  11.826  0.00  0.00    -0.647 OA
ATOM     20  O15 <0> d   1      16.935   5.181  10.239  0.00  0.00    -0.647 OA
ENDBRANCH  17  18
ENDBRANCH  16  17
BRANCH  16  21
ATOM     21  C16 <0> d   1      17.737   0.924   9.622  0.00  0.00     0.386 C 
BRANCH  21  22
ATOM     22  C17 <0> d   1      17.092  -0.166  10.439  0.00  0.00     0.202 C 
ATOM     23  O18 <0> d   1      16.229   0.112  11.255  0.00  0.00    -0.647 OA
ATOM     24  O19 <0> d   1      17.432  -1.327  10.284  0.00  0.00    -0.647 OA
ENDBRANCH  21  22
ENDBRANCH  16  21
ENDBRANCH  15  16
ENDBRANCH   2  15
TORSDOF 7
ENDMDL
MODEL 2
REMARK VINA RESULT:      -6.8      3.273      6.624
REMARK  7 active torsions:
REMARK  status: ('A' for Active; 'I' for Inactive)
REMARK    1  A    between atoms: C6_6  and  N7_7 
REMARK       I    between atoms: N7_7  and  C8_8 
REMARK    2  A    between atoms: C8_8  and  C10_10 
REMARK    3  A    between atoms: C10_10  and  N11_11 
REMARK    4  A    between atoms: N11_11  and  C12_12 
REMARK    5  A    between atoms: N11_11  and  C16_16 
REMARK    6  A    between atoms: C12_12  and  C13_13 
REMARK    7  A    between atoms: C16_16  and  C17_17 
ROOT
ATOM      1  N7  <0> d   1      17.535   2.221  12.694  0.00  0.00    -0.325 N 
ATOM      2  C8  <0> d   1      18.446   2.113  13.681  0.00  0.00     0.250 C 
ATOM      3  O9  <0> d   1      19.601   1.852  13.416  0.00  0.00    -0.271 OA
ATOM      4  H31 <0> d   1      16.631   2.506  12.899  0.00  0.00     0.169 HD
ENDROOT
BRANCH   1   5
ATOM      5  C6  <0> d   1      17.893   1.922  11.376  0.00  0.00     0.048 A 
ATOM      6  C4  <0> d   1      18.372   2.922  10.541  0.00  0.00    -0.034 A 
ATOM      7  C3  <0> d   1      18.724   2.624   9.238  0.00  0.00     0.017 A 
ATOM      8  C5  <0> d   1      18.507   4.332  11.055  0.00  0.00     0.050 C 
ATOM      9  C2  <0> d   1      18.600   1.332   8.765  0.00  0.00    -0.043 A 
ATOM     10  C1  <0> d   1      18.984   1.010   7.344  0.00  0.00     0.049 C 
ATOM     11  C22 <0> d   1      18.117   0.332   9.593  0.00  0.00     0.025 A 
ATOM     12  C20 <0> d   1      17.768   0.624  10.898  0.00  0.00    -0.017 A 
ATOM     13 Br23 <0> d   1      17.949  -1.435   8.941  0.00  0.00    -0.050 Br
ATOM     14  C21 <0> d   1      17.248  -0.466  11.801  0.00  0.00     0.052 C 
ENDBRANCH   1   5
BRANCH   2  15
ATOM     15  C10 <0> d   1      18.032   2.317  15.116  0.00  0.00     0.376 C 
BRANCH  15  16
ATOM     16  N11 <0> d   1      18.402   1.136  15.906  0.00  0.00     0.117 N 
BRANCH  16  17
ATOM     17  C12 <0> d   1      18.048   1.316  17.321  0.00  0.00     0.386 C 
BRANCH  17  18
ATOM     18  C13 <0> d   1      19.306   1.385  18.148  0.00  0.00     0.202 C 
ATOM     19  O14 <0> d   1      19.966   0.379  18.338  0.00  0.00    -0.647 OA
ATOM     20  O15 <0> d   1      19.662   2.448  18.628  0.00  0.00    -0.647 OA
ENDBRANCH  17  18
ENDBRANCH  16  17
BRANCH  16  21
ATOM     21  C16 <0> d   1      17.783  -0.078  15.358  0.00  0.00     0.386 C 
BRANCH  21  22
ATOM     22  C17 <0> d   1      18.757  -1.225  15.450  0.00  0.00     0.202 C 
ATOM     23  O18 <0> d   1      19.600  -1.379  14.581  0.00  0.00    -0.647 OA
ATOM     24  O19 <0> d   1      18.702  -1.998  16.390  0.00  0.00    -0.647 OA
ENDBRANCH  21  22
ENDBRANCH  16  21
ENDBRANCH  15  16
ENDBRANCH   2  15
TORSDOF 7
ENDMDL
MODEL 3
REMARK VINA RESULT:      -6.7      1.515      2.600
REMARK  7 active torsions:
REMARK  status: ('A' for Active; 'I' for Inactive)
REMARK    1  A    between atoms: C6_6  and  N7_7 
REMARK       I    between atoms: N7_7  and  C8_8 
REMARK    2  A    between atoms: C8_8  and  C10_10 
REMARK    3  A    between atoms: C10_10  and  N11_11 
REMARK    4  A    between atoms: N11_11  and  C12_12 
REMARK    5  A    between atoms: N11_11  and  C16_16 
REMARK    6  A    between atoms: C12_12  and  C13_13 
REMARK    7  A    between atoms: C16_16  and  C17_17 
ROOT
ATOM      1  N7  <0> d   1      18.836   0.858  13.118  0.00  0.00    -0.325 N 
ATOM      2  C8  <0> d   1      19.970   0.548  12.460  0.00  0.00     0.250 C 
ATOM      3  O9  <0> d   1      21.037   0.590  13.036  0.00  0.00    -0.271 OA
ATOM      4  H31 <0> d   1      17.977   0.749  12.681  0.00  0.00     0.169 HD
ENDROOT
BRANCH   1   5
ATOM      5  C6  <0> d   1      18.897   1.335  14.431  0.00  0.00     0.048 A 
ATOM      6  C4  <0> d   1      18.950   2.701  14.674  0.00  0.00    -0.034 A 
ATOM      7  C3  <0> d   1      19.010   3.170  15.972  0.00  0.00     0.017 A 
ATOM      8  C5  <0> d   1      18.941   3.672  13.521  0.00  0.00     0.050 C 
ATOM      9  C2  <0> d   1      19.020   2.281  17.030  0.00  0.00    -0.043 A 
ATOM     10  C1  <0> d   1      19.087   2.796  18.444  0.00  0.00     0.049 C 
ATOM     11  C22 <0> d   1      18.973   0.918  16.792  0.00  0.00     0.025 A 
ATOM     12  C20 <0> d   1      18.906   0.444  15.496  0.00  0.00    -0.017 A 
ATOM     13 Br23 <0> d   1      18.985  -0.294  18.243  0.00  0.00    -0.050 Br
ATOM     14  C21 <0> d   1      18.849  -1.040  15.238  0.00  0.00     0.052 C 
ENDBRANCH   1   5
BRANCH   2  15
ATOM     15  C10 <0> d   1      19.915   0.149  11.007  0.00  0.00     0.376 C 
BRANCH  15  16
ATOM     16  N11 <0> d   1      18.514   0.042  10.581  0.00  0.00     0.117 N 
BRANCH  16  17
ATOM     17  C12 <0> d   1      18.227   0.963   9.473  0.00  0.00     0.386 C 
BRANCH  17  18
ATOM     18  C13 <0> d   1      17.929   2.333  10.023  0.00  0.00     0.202 C 
ATOM     19  O14 <0> d   1      18.491   3.311   9.561  0.00  0.00    -0.647 OA
ATOM     20  O15 <0> d   1      17.125   2.463  10.931  0.00  0.00    -0.647 OA
ENDBRANCH  17  18
ENDBRANCH  16  17
BRANCH  16  21
ATOM     21  C16 <0> d   1      18.179  -1.341  10.217  0.00  0.00     0.386 C 
BRANCH  21  22
ATOM     22  C17 <0> d   1      17.349  -1.962  11.312  0.00  0.00     0.202 C 
ATOM     23  O18 <0> d   1      17.133  -3.163  11.306  0.00  0.00    -0.647 OA
ATOM     24  O19 <0> d   1      16.894  -1.266  12.203  0.00  0.00    -0.647 OA
ENDBRANCH  21  22
ENDBRANCH  16  21
ENDBRANCH  15  16
ENDBRANCH   2  15
TORSDOF 7
ENDMDL
MODEL 4
REMARK VINA RESULT:      -6.7      3.919      7.567
REMARK  7 active torsions:
REMARK  status: ('A' for Active; 'I' for Inactive)
REMARK    1  A    between atoms: C6_6  and  N7_7 
REMARK       I    between atoms: N7_7  and  C8_8 
REMARK    2  A    between atoms: C8_8  and  C10_10 
REMARK    3  A    between atoms: C10_10  and  N11_11 
REMARK    4  A    between atoms: N11_11  and  C12_12 
REMARK    5  A    between atoms: N11_11  and  C16_16 
REMARK    6  A    between atoms: C12_12  and  C13_13 
REMARK    7  A    between atoms: C16_16  and  C17_17 
ROOT
ATOM      1  N7  <0> d   1      18.924  -0.146   9.928  0.00  0.00    -0.325 N 
ATOM      2  C8  <0> d   1      20.094  -0.271  10.585  0.00  0.00     0.250 C 
ATOM      3  O9  <0> d   1      21.139  -0.281   9.970  0.00  0.00    -0.271 OA
ATOM      4  H31 <0> d   1      18.096  -0.059  10.425  0.00  0.00     0.169 HD
ENDROOT
BRANCH   1   5
ATOM      5  C6  <0> d   1      18.905  -0.140   8.529  0.00  0.00     0.048 A 
ATOM      6  C4  <0> d   1      18.903   1.063   7.838  0.00  0.00    -0.034 A 
ATOM      7  C3  <0> d   1      18.884   1.066   6.457  0.00  0.00     0.017 A 
ATOM      8  C5  <0> d   1      18.923   2.366   8.595  0.00  0.00     0.050 C 
ATOM      9  C2  <0> d   1      18.865  -0.128   5.762  0.00  0.00    -0.043 A 
ATOM     10  C1  <0> d   1      18.843  -0.122   4.255  0.00  0.00     0.049 C 
ATOM     11  C22 <0> d   1      18.861  -1.331   6.448  0.00  0.00     0.025 A 
ATOM     12  C20 <0> d   1      18.886  -1.340   7.829  0.00  0.00    -0.017 A 
ATOM     13 Br23 <0> d   1      18.836  -2.962   5.492  0.00  0.00    -0.050 Br
ATOM     14  C21 <0> d   1      18.887  -2.649   8.575  0.00  0.00     0.052 C 
ENDBRANCH   1   5
BRANCH   2  15
ATOM     15  C10 <0> d   1      20.105  -0.399  12.088  0.00  0.00     0.376 C 
BRANCH  15  16
ATOM     16  N11 <0> d   1      18.725  -0.417  12.589  0.00  0.00     0.117 N 
BRANCH  16  17
ATOM     17  C12 <0> d   1      18.412  -1.702  13.227  0.00  0.00     0.386 C 
BRANCH  17  18
ATOM     18  C13 <0> d   1      17.877  -2.659  12.193  0.00  0.00     0.202 C 
ATOM     19  O14 <0> d   1      17.023  -2.291  11.406  0.00  0.00    -0.647 OA
ATOM     20  O15 <0> d   1      18.298  -3.802  12.145  0.00  0.00    -0.647 OA
ENDBRANCH  17  18
ENDBRANCH  16  17
BRANCH  16  21
ATOM     21  C16 <0> d   1      18.485   0.701  13.511  0.00  0.00     0.386 C 
BRANCH  21  22
ATOM     22  C17 <0> d   1      17.785   1.817  12.777  0.00  0.00     0.202 C 
ATOM     23  O18 <0> d   1      17.151   1.576  11.764  0.00  0.00    -0.647 OA
ATOM     24  O19 <0> d   1      17.853   2.960  13.196  0.00  0.00    -0.647 OA
ENDBRANCH  21  22
ENDBRANCH  16  21
ENDBRANCH  15  16
ENDBRANCH   2  15
TORSDOF 7
ENDMDL
MODEL 5
REMARK VINA RESULT:      -6.5      1.517      3.239
REMARK  7 active torsions:
REMARK  status: ('A' for Active; 'I' for Inactive)
REMARK    1  A    between atoms: C6_6  and  N7_7 
REMARK       I    between atoms: N7_7  and  C8_8 
REMARK    2  A    between atoms: C8_8  and  C10_10 
REMARK    3  A    between atoms: C10_10  and  N11_11 
REMARK    4  A    between atoms: N11_11  and  C12_12 
REMARK    5  A    between atoms: N11_11  and  C16_16 
REMARK    6  A    between atoms: C12_12  and  C13_13 
REMARK    7  A    between atoms: C16_16  and  C17_17 
ROOT
ATOM      1  N7  <0> d   1      18.737   0.770  12.512  0.00  0.00    -0.325 N 
ATOM      2  C8  <0> d   1      17.559   0.695  11.862  0.00  0.00     0.250 C 
ATOM      3  O9  <0> d   1      16.548   0.408  12.467  0.00  0.00    -0.271 OA
ATOM      4  H31 <0> d   1      19.530   1.075  12.045  0.00  0.00     0.169 HD
ENDROOT
BRANCH   1   5
ATOM      5  C6  <0> d   1      18.815   0.407  13.861  0.00  0.00     0.048 A 
ATOM      6  C4  <0> d   1      19.009  -0.921  14.215  0.00  0.00    -0.034 A 
ATOM      7  C3  <0> d   1      19.086  -1.277  15.548  0.00  0.00     0.017 A 
ATOM      8  C5  <0> d   1      19.137  -1.975  13.145  0.00  0.00     0.050 C 
ATOM      9  C2  <0> d   1      18.968  -0.311  16.530  0.00  0.00    -0.043 A 
ATOM     10  C1  <0> d   1      19.052  -0.702  17.983  0.00  0.00     0.049 C 
ATOM     11  C22 <0> d   1      18.769   1.014  16.181  0.00  0.00     0.025 A 
ATOM     12  C20 <0> d   1      18.697   1.375  14.850  0.00  0.00    -0.017 A 
ATOM     13 Br23 <0> d   1      18.609   2.331  17.529  0.00  0.00    -0.050 Br
ATOM     14  C21 <0> d   1      18.485   2.819  14.470  0.00  0.00     0.052 C 
ENDBRANCH   1   5
BRANCH   2  15
ATOM     15  C10 <0> d   1      17.497   0.969  10.380  0.00  0.00     0.376 C 
BRANCH  15  16
ATOM     16  N11 <0> d   1      18.713   1.676   9.961  0.00  0.00     0.117 N 
BRANCH  16  17
ATOM     17  C12 <0> d   1      19.293   1.061   8.760  0.00  0.00     0.386 C 
BRANCH  17  18
ATOM     18  C13 <0> d   1      19.845  -0.298   9.108  0.00  0.00     0.202 C 
ATOM     19  O14 <0> d   1      20.519  -0.443  10.113  0.00  0.00    -0.647 OA
ATOM     20  O15 <0> d   1      19.616  -1.252   8.384  0.00  0.00    -0.647 OA
ENDBRANCH  17  18
ENDBRANCH  16  17
BRANCH  16  21
ATOM     21  C16 <0> d   1      18.444   3.104   9.744  0.00  0.00     0.386 C 
BRANCH  21  22
ATOM     22  C17 <0> d   1      18.889   3.889  10.951  0.00  0.00     0.202 C 
ATOM     23  O18 <0> d   1      18.226   4.835  11.341  0.00  0.00    -0.647 OA
ATOM     24  O19 <0> d   1      19.912   3.579  11.538  0.00  0.00    -0.647 OA
ENDBRANCH  21  22
ENDBRANCH  16  21
ENDBRANCH  15  16
ENDBRANCH   2  15
TORSDOF 7
ENDMDL
MODEL 6
REMARK VINA RESULT:      -6.5      3.344      6.624
REMARK  7 active torsions:
REMARK  status: ('A' for Active; 'I' for Inactive)
REMARK    1  A    between atoms: C6_6  and  N7_7 
REMARK       I    between atoms: N7_7  and  C8_8 
REMARK    2  A    between atoms: C8_8  and  C10_10 
REMARK    3  A    between atoms: C10_10  and  N11_11 
REMARK    4  A    between atoms: N11_11  and  C12_12 
REMARK    5  A    between atoms: N11_11  and  C16_16 
REMARK    6  A    between atoms: C12_12  and  C13_13 
REMARK    7  A    between atoms: C16_16  and  C17_17 
ROOT
ATOM      1  N7  <0> d   1      18.710   0.563  10.855  0.00  0.00    -0.325 N 
ATOM      2  C8  <0> d   1      17.488   0.572  11.424  0.00  0.00     0.250 C 
ATOM      3  O9  <0> d   1      16.500   0.398  10.742  0.00  0.00    -0.271 OA
ATOM      4  H31 <0> d   1      19.503   0.623  11.410  0.00  0.00     0.169 HD
ENDROOT
BRANCH   1   5
ATOM      5  C6  <0> d   1      18.834   0.465   9.465  0.00  0.00     0.048 A 
ATOM      6  C4  <0> d   1      18.821   1.612   8.683  0.00  0.00    -0.034 A 
ATOM      7  C3  <0> d   1      18.944   1.513   7.311  0.00  0.00     0.017 A 
ATOM      8  C5  <0> d   1      18.674   2.964   9.331  0.00  0.00     0.050 C 
ATOM      9  C2  <0> d   1      19.078   0.273   6.715  0.00  0.00    -0.043 A 
ATOM     10  C1  <0> d   1      19.211   0.168   5.218  0.00  0.00     0.049 C 
ATOM     11  C22 <0> d   1      19.086  -0.873   7.491  0.00  0.00     0.025 A 
ATOM     12  C20 <0> d   1      18.969  -0.780   8.865  0.00  0.00    -0.017 A 
ATOM     13 Br23 <0> d   1      19.271  -2.567   6.671  0.00  0.00    -0.050 Br
ATOM     14  C21 <0> d   1      18.983  -2.028   9.710  0.00  0.00     0.052 C 
ENDBRANCH   1   5
BRANCH   2  15
ATOM     15  C10 <0> d   1      17.348   0.798  12.908  0.00  0.00     0.376 C 
BRANCH  15  16
ATOM     16  N11 <0> d   1      18.367   1.756  13.356  0.00  0.00     0.117 N 
BRANCH  16  17
ATOM     17  C12 <0> d   1      17.753   3.025  13.768  0.00  0.00     0.386 C 
BRANCH  17  18
ATOM     18  C13 <0> d   1      18.008   4.071  12.714  0.00  0.00     0.202 C 
ATOM     19  O14 <0> d   1      19.144   4.452  12.496  0.00  0.00    -0.647 OA
ATOM     20  O15 <0> d   1      17.076   4.537  12.080  0.00  0.00    -0.647 OA
ENDBRANCH  17  18
ENDBRANCH  16  17
BRANCH  16  21
ATOM     21  C16 <0> d   1      19.182   1.188  14.439  0.00  0.00     0.386 C 
BRANCH  21  22
ATOM     22  C17 <0> d   1      19.999   0.040  13.904  0.00  0.00     0.202 C 
ATOM     23  O18 <0> d   1      20.818   0.234  13.021  0.00  0.00    -0.647 OA
ATOM     24  O19 <0> d   1      19.843  -1.082  14.354  0.00  0.00    -0.647 OA
ENDBRANCH  21  22
ENDBRANCH  16  21
ENDBRANCH  15  16
ENDBRANCH   2  15
TORSDOF 7
ENDMDL
MODEL 7
REMARK VINA RESULT:      -6.4      3.872      6.791
REMARK  7 active torsions:
REMARK  status: ('A' for Active; 'I' for Inactive)
REMARK    1  A    between atoms: C6_6  and  N7_7 
REMARK       I    between atoms: N7_7  and  C8_8 
REMARK    2  A    between atoms: C8_8  and  C10_10 
REMARK    3  A    between atoms: C10_10  and  N11_11 
REMARK    4  A    between atoms: N11_11  and  C12_12 
REMARK    5  A    between atoms: N11_11  and  C16_16 
REMARK    6  A    between atoms: C12_12  and  C13_13 
REMARK    7  A    between atoms: C16_16  and  C17_17 
ROOT
ATOM      1  N7  <0> d   1      19.049  -0.200  10.410  0.00  0.00    -0.325 N 
ATOM      2  C8  <0> d   1      20.207  -0.025  11.075  0.00  0.00     0.250 C 
ATOM      3  O9  <0> d   1      21.248  -0.426  10.599  0.00  0.00    -0.271 OA
ATOM      4  H31 <0> d   1      18.229   0.189  10.752  0.00  0.00     0.169 HD
ENDROOT
BRANCH   1   5
ATOM      5  C6  <0> d   1      19.029  -0.943   9.224  0.00  0.00     0.048 A 
ATOM      6  C4  <0> d   1      18.931  -2.327   9.272  0.00  0.00    -0.034 A 
ATOM      7  C3  <0> d   1      18.911  -3.058   8.100  0.00  0.00     0.017 A 
ATOM      8  C5  <0> d   1      18.845  -3.031  10.601  0.00  0.00     0.050 C 
ATOM      9  C2  <0> d   1      18.990  -2.413   6.880  0.00  0.00    -0.043 A 
ATOM     10  C1  <0> d   1      18.970  -3.214   5.603  0.00  0.00     0.049 C 
ATOM     11  C22 <0> d   1      19.094  -1.034   6.828  0.00  0.00     0.025 A 
ATOM     12  C20 <0> d   1      19.108  -0.297   7.997  0.00  0.00    -0.017 A 
ATOM     13 Br23 <0> d   1      19.201  -0.157   5.156  0.00  0.00    -0.050 Br
ATOM     14  C21 <0> d   1      19.215   1.205   7.941  0.00  0.00     0.052 C 
ENDBRANCH   1   5
BRANCH   2  15
ATOM     15  C10 <0> d   1      20.210   0.671  12.413  0.00  0.00     0.376 C 
BRANCH  15  16
ATOM     16  N11 <0> d   1      18.878   1.227  12.680  0.00  0.00     0.117 N 
BRANCH  16  17
ATOM     17  C12 <0> d   1      18.439   0.911  14.046  0.00  0.00     0.386 C 
BRANCH  17  18
ATOM     18  C13 <0> d   1      17.982  -0.523  14.108  0.00  0.00     0.202 C 
ATOM     19  O14 <0> d   1      18.105  -1.158  15.140  0.00  0.00    -0.647 OA
ATOM     20  O15 <0> d   1      17.488  -1.048  13.124  0.00  0.00    -0.647 OA
ENDBRANCH  17  18
ENDBRANCH  16  17
BRANCH  16  21
ATOM     21  C16 <0> d   1      18.854   2.676  12.440  0.00  0.00     0.386 C 
BRANCH  21  22
ATOM     22  C17 <0> d   1      17.626   3.033  11.642  0.00  0.00     0.202 C 
ATOM     23  O18 <0> d   1      17.283   2.332  10.705  0.00  0.00    -0.647 OA
ATOM     24  O19 <0> d   1      16.977   4.024  11.931  0.00  0.00    -0.647 OA
ENDBRANCH  21  22
ENDBRANCH  16  21
ENDBRANCH  15  16
ENDBRANCH   2  15
TORSDOF 7
ENDMDL
MODEL 8
REMARK VINA RESULT:      -6.3      3.780      6.260
REMARK  7 active torsions:
REMARK  status: ('A' for Active; 'I' for Inactive)
REMARK    1  A    between atoms: C6_6  and  N7_7 
REMARK       I    between atoms: N7_7  and  C8_8 
REMARK    2  A    between atoms: C8_8  and  C10_10 
REMARK    3  A    between atoms: C10_10  and  N11_11 
REMARK    4  A    between atoms: N11_11  and  C12_12 
REMARK    5  A    between atoms: N11_11  and  C16_16 
REMARK    6  A    between atoms: C12_12  and  C13_13 
REMARK    7  A    between atoms: C16_16  and  C17_17 
ROOT
ATOM      1  N7  <0> d   1      17.593  -0.198   9.346  0.00  0.00    -0.325 N 
ATOM      2  C8  <0> d   1      18.415  -1.228   9.065  0.00  0.00     0.250 C 
ATOM      3  O9  <0> d   1      19.522  -1.274   9.557  0.00  0.00    -0.271 OA
ATOM      4  H31 <0> d   1      16.681  -0.201   9.017  0.00  0.00     0.169 HD
ENDROOT
BRANCH   1   5
ATOM      5  C6  <0> d   1      18.055   0.875  10.115  0.00  0.00     0.048 A 
ATOM      6  C4  <0> d   1      18.745   1.918   9.512  0.00  0.00    -0.034 A 
ATOM      7  C3  <0> d   1      19.200   2.977  10.274  0.00  0.00     0.017 A 
ATOM      8  C5  <0> d   1      18.997   1.895   8.027  0.00  0.00     0.050 C 
ATOM      9  C2  <0> d   1      18.970   2.999  11.637  0.00  0.00    -0.043 A 
ATOM     10  C1  <0> d   1      19.469   4.155  12.465  0.00  0.00     0.049 C 
ATOM     11  C22 <0> d   1      18.287   1.958  12.243  0.00  0.00     0.025 A 
ATOM     12  C20 <0> d   1      17.825   0.900  11.485  0.00  0.00    -0.017 A 
ATOM     13 Br23 <0> d   1      17.975   1.994  14.108  0.00  0.00    -0.050 Br
ATOM     14  C21 <0> d   1      17.076  -0.231  12.145  0.00  0.00     0.052 C 
ENDBRANCH   1   5
BRANCH   2  15
ATOM     15  C10 <0> d   1      17.958  -2.326   8.137  0.00  0.00     0.376 C 
BRANCH  15  16
ATOM     16  N11 <0> d   1      18.470  -3.616   8.616  0.00  0.00     0.117 N 
BRANCH  16  17
ATOM     17  C12 <0> d   1      17.640  -4.139   9.709  0.00  0.00     0.386 C 
BRANCH  17  18
ATOM     18  C13 <0> d   1      18.489  -4.327  10.939  0.00  0.00     0.202 C 
ATOM     19  O14 <0> d   1      19.623  -4.760  10.836  0.00  0.00    -0.647 OA
ATOM     20  O15 <0> d   1      18.041  -4.045  12.038  0.00  0.00    -0.647 OA
ENDBRANCH  17  18
ENDBRANCH  16  17
BRANCH  16  21
ATOM     21  C16 <0> d   1      18.564  -4.585   7.516  0.00  0.00     0.386 C 
BRANCH  21  22
ATOM     22  C17 <0> d   1      19.998  -4.692   7.062  0.00  0.00     0.202 C 
ATOM     23  O18 <0> d   1      20.503  -3.786   6.420  0.00  0.00    -0.647 OA
ATOM     24  O19 <0> d   1      20.652  -5.683   7.335  0.00  0.00    -0.647 OA
ENDBRANCH  21  22
ENDBRANCH  16  21
ENDBRANCH  15  16
ENDBRANCH   2  15
TORSDOF 7
ENDMDL
MODEL 9
REMARK VINA RESULT:      -6.3      3.864      7.395
REMARK  7 active torsions:
REMARK  status: ('A' for Active; 'I' for Inactive)
REMARK    1  A    between atoms: C6_6  and  N7_7 
REMARK       I    between atoms: N7_7  and  C8_8 
REMARK    2  A    between atoms: C8_8  and  C10_10 
REMARK    3  A    between atoms: C10_10  and  N11_11 
REMARK    4  A    between atoms: N11_11  and  C12_12 
REMARK    5  A    between atoms: N11_11  and  C16_16 
REMARK    6  A    between atoms: C12_12  and  C13_13 
REMARK    7  A    between atoms: C16_16  and  C17_17 
ROOT
ATOM      1  N7  <0> d   1      18.683  -0.149  10.122  0.00  0.00    -0.325 N 
ATOM      2  C8  <0> d   1      19.788  -0.334  10.870  0.00  0.00     0.250 C 
ATOM      3  O9  <0> d   1      20.877  -0.398  10.339  0.00  0.00    -0.271 OA
ATOM      4  H31 <0> d   1      17.823  -0.018  10.551  0.00  0.00     0.169 HD
ENDROOT
BRANCH   1   5
ATOM      5  C6  <0> d   1      18.776  -0.143   8.726  0.00  0.00     0.048 A 
ATOM      6  C4  <0> d   1      18.934   1.055   8.044  0.00  0.00    -0.034 A 
ATOM      7  C3  <0> d   1      19.025   1.059   6.665  0.00  0.00     0.017 A 
ATOM      8  C5  <0> d   1      19.006   2.353   8.807  0.00  0.00     0.050 C 
ATOM      9  C2  <0> d   1      18.957  -0.130   5.964  0.00  0.00    -0.043 A 
ATOM     10  C1  <0> d   1      19.056  -0.124   4.460  0.00  0.00     0.049 C 
ATOM     11  C22 <0> d   1      18.794  -1.327   6.640  0.00  0.00     0.025 A 
ATOM     12  C20 <0> d   1      18.708  -1.337   8.019  0.00  0.00    -0.017 A 
ATOM     13 Br23 <0> d   1      18.703  -2.951   5.676  0.00  0.00    -0.050 Br
ATOM     14  C21 <0> d   1      18.536  -2.641   8.755  0.00  0.00     0.052 C 
ENDBRANCH   1   5
BRANCH   2  15
ATOM     15  C10 <0> d   1      19.672  -0.461  12.368  0.00  0.00     0.376 C 
BRANCH  15  16
ATOM     16  N11 <0> d   1      18.476   0.254  12.830  0.00  0.00     0.117 N 
BRANCH  16  17
ATOM     17  C12 <0> d   1      17.884  -0.410  13.999  0.00  0.00     0.386 C 
BRANCH  17  18
ATOM     18  C13 <0> d   1      18.921  -0.536  15.084  0.00  0.00     0.202 C 
ATOM     19  O14 <0> d   1      19.086   0.373  15.879  0.00  0.00    -0.647 OA
ATOM     20  O15 <0> d   1      19.597  -1.548  15.166  0.00  0.00    -0.647 OA
ENDBRANCH  17  18
ENDBRANCH  16  17
BRANCH  16  21
ATOM     21  C16 <0> d   1      18.784   1.660  13.121  0.00  0.00     0.386 C 
BRANCH  21  22
ATOM     22  C17 <0> d   1      17.799   2.549  12.406  0.00  0.00     0.202 C 
ATOM     23  O18 <0> d   1      17.069   2.083  11.547  0.00  0.00    -0.647 OA
ATOM     24  O19 <0> d   1      17.731   3.734  12.686  0.00  0.00    -0.647 OA
ENDBRANCH  21  22
ENDBRANCH  16  21
ENDBRANCH  15  16
ENDBRANCH   2  15
TORSDOF 7
ENDMDL
