MODEL 1
REMARK VINA RESULT:      -5.9      0.000      0.000
REMARK  4 active torsions:
REMARK  status: ('A' for Active; 'I' for Inactive)
REMARK    1  A    between atoms: C3_3  and  N4_4 
REMARK    2  A    between atoms: N4_4  and  C7_7 
REMARK    3  A    between atoms: C7_7  and  C10_9 
REMARK    4  A    between atoms: C10_9  and  C11_10 
ROOT
ATOM      1  C1  <0> d   1      16.978   5.029  10.975  0.00  0.00     0.013 C 
ATOM      2  C2  <0> d   1      17.672   4.171  10.573  0.00  0.00    -0.090 C 
ATOM      3  C3  <0> d   1      18.540   3.095  10.069  0.00  0.00     0.327 C 
ENDROOT
BRANCH   3   4
ATOM      4  N4  <0> d   1      17.814   1.819  10.111  0.00  0.00    -0.061 N 
ATOM      5  H5  <0> d   1      16.868   1.959   9.788  0.00  0.00     0.281 HD
ATOM      6  C6  <0> d   1      17.789   1.315  11.491  0.00  0.00     0.271 C 
BRANCH   4   7
ATOM      7  C7  <0> d   1      18.488   0.843   9.245  0.00  0.00     0.189 C 
ATOM      8  C9  <0> d   1      19.665   0.218   9.999  0.00  0.00     0.040 C 
BRANCH   7   9
ATOM      9  C10 <0> d   1      19.003   1.546   7.988  0.00  0.00     0.071 C 
BRANCH   9  10
ATOM     10  C11 <0> d   1      18.635   0.735   6.772  0.00  0.00    -0.056 A 
ATOM     11  C16 <0> d   1      17.453   0.018   6.750  0.00  0.00     0.007 A 
ATOM     12  C15 <0> d   1      17.114  -0.723   5.634  0.00  0.00     0.001 A 
ATOM     13  C14 <0> d   1      17.961  -0.754   4.542  0.00  0.00     0.000 A 
ATOM     14  C13 <0> d   1      19.146  -0.041   4.565  0.00  0.00     0.001 A 
ATOM     15  C12 <0> d   1      19.483   0.703   5.681  0.00  0.00     0.007 A 
ENDBRANCH   9  10
ENDBRANCH   7   9
ENDBRANCH   4   7
ENDBRANCH   3   4
TORSDOF 4
ENDMDL
MODEL 2
REMARK VINA RESULT:      -5.8      1.240      2.378
REMARK  4 active torsions:
REMARK  status: ('A' for Active; 'I' for Inactive)
REMARK    1  A    between atoms: C3_3  and  N4_4 
REMARK    2  A    between atoms: N4_4  and  C7_7 
REMARK    3  A    between atoms: C7_7  and  C10_9 
REMARK    4  A    between atoms: C10_9  and  C11_10 
ROOT
ATOM      1  C1  <0> d   1      17.628   4.390  10.289  0.00  0.00     0.013 C 
ATOM      2  C2  <0> d   1      18.479   3.692  10.699  0.00  0.00    -0.090 C 
ATOM      3  C3  <0> d   1      19.545   2.816  11.213  0.00  0.00     0.327 C 
ENDROOT
BRANCH   3   4
ATOM      4  N4  <0> d   1      18.945   1.669  11.905  0.00  0.00    -0.061 N 
ATOM      5  H5  <0> d   1      18.447   1.991  12.722  0.00  0.00     0.281 HD
ATOM      6  C6  <0> d   1      20.002   0.735  12.314  0.00  0.00     0.271 C 
BRANCH   4   7
ATOM      7  C7  <0> d   1      18.011   0.985  11.001  0.00  0.00     0.189 C 
ATOM      8  C9  <0> d   1      16.952   0.246  11.823  0.00  0.00     0.040 C 
BRANCH   7   9
ATOM      9  C10 <0> d   1      18.779  -0.018  10.138  0.00  0.00     0.071 C 
BRANCH   9  10
ATOM     10  C11 <0> d   1      18.461   0.222   8.684  0.00  0.00    -0.056 A 
ATOM     11  C16 <0> d   1      19.256   1.066   7.933  0.00  0.00     0.007 A 
ATOM     12  C15 <0> d   1      18.967   1.284   6.599  0.00  0.00     0.001 A 
ATOM     13  C14 <0> d   1      17.876   0.663   6.018  0.00  0.00     0.000 A 
ATOM     14  C13 <0> d   1      17.078  -0.178   6.771  0.00  0.00     0.001 A 
ATOM     15  C12 <0> d   1      17.370  -0.398   8.104  0.00  0.00     0.007 A 
ENDBRANCH   9  10
ENDBRANCH   7   9
ENDBRANCH   4   7
ENDBRANCH   3   4
TORSDOF 4
ENDMDL
MODEL 3
REMARK VINA RESULT:      -5.7      1.460      5.933
REMARK  4 active torsions:
REMARK  status: ('A' for Active; 'I' for Inactive)
REMARK    1  A    between atoms: C3_3  and  N4_4 
REMARK    2  A    between atoms: N4_4  and  C7_7 
REMARK    3  A    between atoms: C7_7  and  C10_9 
REMARK    4  A    between atoms: C10_9  and  C11_10 
ROOT
ATOM      1  C1  <0> d   1      19.296  -0.247   4.621  0.00  0.00     0.013 C 
ATOM      2  C2  <0> d   1      19.110   0.354   5.612  0.00  0.00    -0.090 C 
ATOM      3  C3  <0> d   1      18.878   1.108   6.856  0.00  0.00     0.327 C 
ENDROOT
BRANCH   3   4
ATOM      4  N4  <0> d   1      19.055   0.216   8.009  0.00  0.00    -0.061 N 
ATOM      5  H5  <0> d   1      19.984  -0.178   7.990  0.00  0.00     0.281 HD
ATOM      6  C6  <0> d   1      18.064  -0.867   7.948  0.00  0.00     0.271 C 
BRANCH   4   7
ATOM      7  C7  <0> d   1      18.871   0.979   9.251  0.00  0.00     0.189 C 
ATOM      8  C9  <0> d   1      17.570   0.543   9.929  0.00  0.00     0.040 C 
BRANCH   7   9
ATOM      9  C10 <0> d   1      18.803   2.472   8.926  0.00  0.00     0.071 C 
BRANCH   9  10
ATOM     10  C11 <0> d   1      18.685   3.259  10.207  0.00  0.00    -0.056 A 
ATOM     11  C16 <0> d   1      19.622   3.093  11.209  0.00  0.00     0.007 A 
ATOM     12  C15 <0> d   1      19.517   3.817  12.381  0.00  0.00     0.001 A 
ATOM     13  C14 <0> d   1      18.469   4.702  12.555  0.00  0.00     0.000 A 
ATOM     14  C13 <0> d   1      17.530   4.865  11.554  0.00  0.00     0.001 A 
ATOM     15  C12 <0> d   1      17.637   4.143  10.380  0.00  0.00     0.007 A 
ENDBRANCH   9  10
ENDBRANCH   7   9
ENDBRANCH   4   7
ENDBRANCH   3   4
TORSDOF 4
ENDMDL
MODEL 4
REMARK VINA RESULT:      -5.7      2.627      4.353
REMARK  4 active torsions:
REMARK  status: ('A' for Active; 'I' for Inactive)
REMARK    1  A    between atoms: C3_3  and  N4_4 
REMARK    2  A    between atoms: N4_4  and  C7_7 
REMARK    3  A    between atoms: C7_7  and  C10_9 
REMARK    4  A    between atoms: C10_9  and  C11_10 
ROOT
ATOM      1  C1  <0> d   1      18.867  -1.288  15.907  0.00  0.00     0.013 C 
ATOM      2  C2  <0> d   1      19.018  -1.328  14.743  0.00  0.00    -0.090 C 
ATOM      3  C3  <0> d   1      19.207  -1.377  13.284  0.00  0.00     0.327 C 
ENDROOT
BRANCH   3   4
ATOM      4  N4  <0> d   1      17.928  -1.102  12.616  0.00  0.00    -0.061 N 
ATOM      5  H5  <0> d   1      17.199  -1.010  13.308  0.00  0.00     0.281 HD
ATOM      6  C6  <0> d   1      17.602  -2.209  11.707  0.00  0.00     0.271 C 
BRANCH   4   7
ATOM      7  C7  <0> d   1      18.035   0.146  11.849  0.00  0.00     0.189 C 
ATOM      8  C9  <0> d   1      17.790   1.338  12.777  0.00  0.00     0.040 C 
BRANCH   7   9
ATOM      9  C10 <0> d   1      16.992   0.148  10.730  0.00  0.00     0.071 C 
BRANCH   9  10
ATOM     10  C11 <0> d   1      17.656   0.505   9.424  0.00  0.00    -0.056 A 
ATOM     11  C16 <0> d   1      17.341  -0.195   8.275  0.00  0.00     0.007 A 
ATOM     12  C15 <0> d   1      17.947   0.135   7.077  0.00  0.00     0.001 A 
ATOM     13  C14 <0> d   1      18.874   1.159   7.030  0.00  0.00     0.000 A 
ATOM     14  C13 <0> d   1      19.193   1.855   8.181  0.00  0.00     0.001 A 
ATOM     15  C12 <0> d   1      18.584   1.528   9.378  0.00  0.00     0.007 A 
ENDBRANCH   9  10
ENDBRANCH   7   9
ENDBRANCH   4   7
ENDBRANCH   3   4
TORSDOF 4
ENDMDL
MODEL 5
REMARK VINA RESULT:      -5.7      2.205      4.245
REMARK  4 active torsions:
REMARK  status: ('A' for Active; 'I' for Inactive)
REMARK    1  A    between atoms: C3_3  and  N4_4 
REMARK    2  A    between atoms: N4_4  and  C7_7 
REMARK    3  A    between atoms: C7_7  and  C10_9 
REMARK    4  A    between atoms: C10_9  and  C11_10 
ROOT
ATOM      1  C1  <0> d   1      20.267  -3.788  11.504  0.00  0.00     0.013 C 
ATOM      2  C2  <0> d   1      19.291  -3.138  11.445  0.00  0.00    -0.090 C 
ATOM      3  C3  <0> d   1      18.067  -2.322  11.370  0.00  0.00     0.327 C 
ENDROOT
BRANCH   3   4
ATOM      4  N4  <0> d   1      18.333  -0.989  11.924  0.00  0.00    -0.061 N 
ATOM      5  H5  <0> d   1      18.861  -1.079  12.779  0.00  0.00     0.281 HD
ATOM      6  C6  <0> d   1      17.060  -0.313  12.206  0.00  0.00     0.271 C 
BRANCH   4   7
ATOM      7  C7  <0> d   1      19.102  -0.199  10.953  0.00  0.00     0.189 C 
ATOM      8  C9  <0> d   1      20.307   0.436  11.653  0.00  0.00     0.040 C 
BRANCH   7   9
ATOM      9  C10 <0> d   1      18.213   0.900  10.370  0.00  0.00     0.071 C 
BRANCH   9  10
ATOM     10  C11 <0> d   1      18.203   0.794   8.866  0.00  0.00    -0.056 A 
ATOM     11  C16 <0> d   1      19.059   1.574   8.113  0.00  0.00     0.007 A 
ATOM     12  C15 <0> d   1      19.054   1.474   6.735  0.00  0.00     0.001 A 
ATOM     13  C14 <0> d   1      18.185   0.600   6.109  0.00  0.00     0.000 A 
ATOM     14  C13 <0> d   1      17.325  -0.177   6.862  0.00  0.00     0.001 A 
ATOM     15  C12 <0> d   1      17.334  -0.080   8.241  0.00  0.00     0.007 A 
ENDBRANCH   9  10
ENDBRANCH   7   9
ENDBRANCH   4   7
ENDBRANCH   3   4
TORSDOF 4
ENDMDL
MODEL 6
REMARK VINA RESULT:      -5.7      1.984      3.889
REMARK  4 active torsions:
REMARK  status: ('A' for Active; 'I' for Inactive)
REMARK    1  A    between atoms: C3_3  and  N4_4 
REMARK    2  A    between atoms: N4_4  and  C7_7 
REMARK    3  A    between atoms: C7_7  and  C10_9 
REMARK    4  A    between atoms: C10_9  and  C11_10 
ROOT
ATOM      1  C1  <0> d   1      20.635  -0.553  10.935  0.00  0.00     0.013 C 
ATOM      2  C2  <0> d   1      20.387  -0.017  11.950  0.00  0.00    -0.090 C 
ATOM      3  C3  <0> d   1      20.075   0.656  13.222  0.00  0.00     0.327 C 
ENDROOT
BRANCH   3   4
ATOM      4  N4  <0> d   1      18.974   1.606  13.016  0.00  0.00    -0.061 N 
ATOM      5  H5  <0> d   1      18.961   2.274  13.772  0.00  0.00     0.281 HD
ATOM      6  C6  <0> d   1      17.698   0.878  12.985  0.00  0.00     0.271 C 
BRANCH   4   7
ATOM      7  C7  <0> d   1      19.167   2.310  11.741  0.00  0.00     0.189 C 
ATOM      8  C9  <0> d   1      19.581   3.758  12.016  0.00  0.00     0.040 C 
BRANCH   7   9
ATOM      9  C10 <0> d   1      17.859   2.295  10.948  0.00  0.00     0.071 C 
BRANCH   9  10
ATOM     10  C11 <0> d   1      18.083   1.614   9.622  0.00  0.00    -0.056 A 
ATOM     11  C16 <0> d   1      18.971   2.153   8.710  0.00  0.00     0.007 A 
ATOM     12  C15 <0> d   1      19.180   1.526   7.496  0.00  0.00     0.001 A 
ATOM     13  C14 <0> d   1      18.494   0.365   7.190  0.00  0.00     0.000 A 
ATOM     14  C13 <0> d   1      17.602  -0.170   8.100  0.00  0.00     0.001 A 
ATOM     15  C12 <0> d   1      17.397   0.455   9.316  0.00  0.00     0.007 A 
ENDBRANCH   9  10
ENDBRANCH   7   9
ENDBRANCH   4   7
ENDBRANCH   3   4
TORSDOF 4
ENDMDL
MODEL 7
REMARK VINA RESULT:      -5.6      4.723      8.141
REMARK  4 active torsions:
REMARK  status: ('A' for Active; 'I' for Inactive)
REMARK    1  A    between atoms: C3_3  and  N4_4 
REMARK    2  A    between atoms: N4_4  and  C7_7 
REMARK    3  A    between atoms: C7_7  and  C10_9 
REMARK    4  A    between atoms: C10_9  and  C11_10 
ROOT
ATOM      1  C1  <0> d   1      17.660  -4.737  11.860  0.00  0.00     0.013 C 
ATOM      2  C2  <0> d   1      18.561  -3.993  11.750  0.00  0.00    -0.090 C 
ATOM      3  C3  <0> d   1      19.691  -3.058  11.612  0.00  0.00     0.327 C 
ENDROOT
BRANCH   3   4
ATOM      4  N4  <0> d   1      19.201  -1.768  11.110  0.00  0.00    -0.061 N 
ATOM      5  H5  <0> d   1      18.737  -1.906  10.225  0.00  0.00     0.281 HD
ATOM      6  C6  <0> d   1      20.333  -0.850  10.931  0.00  0.00     0.271 C 
BRANCH   4   7
ATOM      7  C7  <0> d   1      18.253  -1.195  12.076  0.00  0.00     0.189 C 
ATOM      8  C9  <0> d   1      17.116  -0.500  11.324  0.00  0.00     0.040 C 
BRANCH   7   9
ATOM      9  C10 <0> d   1      18.978  -0.178  12.959  0.00  0.00     0.071 C 
BRANCH   9  10
ATOM     10  C11 <0> d   1      18.612  -0.414  14.402  0.00  0.00    -0.056 A 
ATOM     11  C16 <0> d   1      19.298  -1.357  15.144  0.00  0.00     0.007 A 
ATOM     12  C15 <0> d   1      18.965  -1.571  16.469  0.00  0.00     0.001 A 
ATOM     13  C14 <0> d   1      17.939  -0.849  17.049  0.00  0.00     0.000 A 
ATOM     14  C13 <0> d   1      17.249   0.091  16.305  0.00  0.00     0.001 A 
ATOM     15  C12 <0> d   1      17.585   0.307  14.981  0.00  0.00     0.007 A 
ENDBRANCH   9  10
ENDBRANCH   7   9
ENDBRANCH   4   7
ENDBRANCH   3   4
TORSDOF 4
ENDMDL
MODEL 8
REMARK VINA RESULT:      -5.5      2.404      3.937
REMARK  4 active torsions:
REMARK  status: ('A' for Active; 'I' for Inactive)
REMARK    1  A    between atoms: C3_3  and  N4_4 
REMARK    2  A    between atoms: N4_4  and  C7_7 
REMARK    3  A    between atoms: C7_7  and  C10_9 
REMARK    4  A    between atoms: C10_9  and  C11_10 
ROOT
ATOM      1  C1  <0> d   1      20.355   6.298  14.485  0.00  0.00     0.013 C 
ATOM      2  C2  <0> d   1      20.107   5.520  13.642  0.00  0.00    -0.090 C 
ATOM      3  C3  <0> d   1      19.795   4.545  12.584  0.00  0.00     0.327 C 
ENDROOT
BRANCH   3   4
ATOM      4  N4  <0> d   1      18.347   4.303  12.553  0.00  0.00    -0.061 N 
ATOM      5  H5  <0> d   1      17.858   5.148  12.807  0.00  0.00     0.281 HD
ATOM      6  C6  <0> d   1      18.008   3.238  13.506  0.00  0.00     0.271 C 
BRANCH   4   7
ATOM      7  C7  <0> d   1      17.947   3.894  11.200  0.00  0.00     0.189 C 
ATOM      8  C9  <0> d   1      16.752   4.734  10.745  0.00  0.00     0.040 C 
BRANCH   7   9
ATOM      9  C10 <0> d   1      17.557   2.414  11.208  0.00  0.00     0.071 C 
BRANCH   9  10
ATOM     10  C11 <0> d   1      17.997   1.771   9.918  0.00  0.00    -0.056 A 
ATOM     11  C16 <0> d   1      19.014   2.339   9.174  0.00  0.00     0.007 A 
ATOM     12  C15 <0> d   1      19.419   1.747   7.992  0.00  0.00     0.001 A 
ATOM     13  C14 <0> d   1      18.802   0.592   7.551  0.00  0.00     0.000 A 
ATOM     14  C13 <0> d   1      17.782   0.027   8.293  0.00  0.00     0.001 A 
ATOM     15  C12 <0> d   1      17.379   0.617   9.476  0.00  0.00     0.007 A 
ENDBRANCH   9  10
ENDBRANCH   7   9
ENDBRANCH   4   7
ENDBRANCH   3   4
TORSDOF 4
ENDMDL
MODEL 9
REMARK VINA RESULT:      -5.5      2.393      4.260
REMARK  4 active torsions:
REMARK  status: ('A' for Active; 'I' for Inactive)
REMARK    1  A    between atoms: C3_3  and  N4_4 
REMARK    2  A    between atoms: N4_4  and  C7_7 
REMARK    3  A    between atoms: C7_7  and  C10_9 
REMARK    4  A    between atoms: C10_9  and  C11_10 
ROOT
ATOM      1  C1  <0> d   1      18.993  -1.195  14.844  0.00  0.00     0.013 C 
ATOM      2  C2  <0> d   1      18.585  -0.239  14.298  0.00  0.00    -0.090 C 
ATOM      3  C3  <0> d   1      18.074   0.960  13.612  0.00  0.00     0.327 C 
ENDROOT
BRANCH   3   4
ATOM      4  N4  <0> d   1      19.133   1.975  13.547  0.00  0.00    -0.061 N 
ATOM      5  H5  <0> d   1      20.015   1.558  13.801  0.00  0.00     0.281 HD
ATOM      6  C6  <0> d   1      18.822   3.067  14.479  0.00  0.00     0.271 C 
BRANCH   4   7
ATOM      7  C7  <0> d   1      19.218   2.507  12.180  0.00  0.00     0.189 C 
ATOM      8  C9  <0> d   1      19.575   3.994  12.233  0.00  0.00     0.040 C 
BRANCH   7   9
ATOM      9  C10 <0> d   1      17.870   2.330  11.479  0.00  0.00     0.071 C 
BRANCH   9  10
ATOM     10  C11 <0> d   1      18.087   1.714  10.120  0.00  0.00    -0.056 A 
ATOM     11  C16 <0> d   1      17.424   0.552   9.774  0.00  0.00     0.007 A 
ATOM     12  C15 <0> d   1      17.620  -0.011   8.527  0.00  0.00     0.001 A 
ATOM     13  C14 <0> d   1      18.486   0.584   7.629  0.00  0.00     0.000 A 
ATOM     14  C13 <0> d   1      19.153   1.744   7.977  0.00  0.00     0.001 A 
ATOM     15  C12 <0> d   1      18.954   2.309   9.223  0.00  0.00     0.007 A 
ENDBRANCH   9  10
ENDBRANCH   7   9
ENDBRANCH   4   7
ENDBRANCH   3   4
TORSDOF 4
ENDMDL
