MODEL 1
REMARK VINA RESULT:      -9.3      0.000      0.000
REMARK  7 active torsions:
REMARK  status: ('A' for Active; 'I' for Inactive)
REMARK    1  A    between atoms: C2_2  and  C4_4 
REMARK    2  A    between atoms: C4_4  and  O6_6 
REMARK    3  A    between atoms: O6_6  and  C7_7 
REMARK    4  A    between atoms: C7_7  and  C8_8 
REMARK    5  A    between atoms: C8_8  and  C10_10 
REMARK    6  A    between atoms: C12_12  and  C14_13 
REMARK    7  A    between atoms: C40_35  and  O42_36 
ROOT
ATOM      1  C10 ZIN A   1      19.172  -0.546  12.355  0.00  0.00     0.160 C 
ATOM      2  O11 ZIN A   1      18.145   0.450  12.176  0.00  0.00    -0.339 OA
ATOM      3  C12 ZIN A   1      18.863   1.655  11.833  0.00  0.00     0.266 C 
ATOM      4  O20 ZIN A   1      19.909   1.214  10.943  0.00  0.00    -0.352 OA
ATOM      5  C21 ZIN A   1      20.365  -0.039  11.493  0.00  0.00     0.168 C 
ATOM      6  C23 ZIN A   1      20.527  -1.045  10.321  0.00  0.00     0.041 C 
ATOM      7  C24 ZIN A   1      19.132  -1.668  10.203  0.00  0.00     0.004 C 
ATOM      8  C26 ZIN A   1      19.073  -3.023   9.520  0.00  0.00    -0.001 C 
ATOM      9  C28 ZIN A   1      19.535  -2.892   8.068  0.00  0.00     0.010 C 
ATOM     10  C29 ZIN A   1      19.510  -4.267   7.391  0.00  0.00     0.036 C 
ATOM     11  C30 ZIN A   1      18.114  -4.841   7.545  0.00  0.00    -0.064 A 
ATOM     12  C31 ZIN A   1      17.480  -5.283   6.468  0.00  0.00     0.058 A 
ATOM     13  C32 ZIN A   1      16.118  -5.828   6.574  0.00  0.00     0.172 A 
ATOM     14  O33 ZIN A   1      15.546  -6.271   5.594  0.00  0.00    -0.289 OA
ATOM     15  C34 ZIN A   1      15.460  -5.826   7.891  0.00  0.00     0.052 A 
ATOM     16  C35 ZIN A   1      16.115  -5.386   8.954  0.00  0.00    -0.009 A 
ATOM     17  C36 ZIN A   1      17.517  -4.882   8.921  0.00  0.00     0.004 A 
ATOM     18  C37 ZIN A   1      18.372  -5.821   9.774  0.00  0.00     0.025 C 
ATOM     19  C38 ZIN A   1      17.614  -3.503   9.576  0.00  0.00     0.035 C 
ATOM     20  C40 ZIN A   1      17.107  -3.589  11.013  0.00  0.00     0.124 C 
ATOM     21  C43 ZIN A   1      17.296  -2.261  11.762  0.00  0.00     0.045 C 
ATOM     22  C44 ZIN A   1      18.759  -1.872  11.728  0.00  0.00     0.004 C 
ATOM     23  C45 ZIN A   1      19.612  -3.017  12.278  0.00  0.00     0.019 C 
ENDROOT
BRANCH   1  24
ATOM     24  C8  ZIN A   1      19.550  -0.706  13.804  0.00  0.00     0.188 C 
ATOM     25  O9  ZIN A   1      20.638  -0.347  14.187  0.00  0.00    -0.292 OA
BRANCH  24  26
ATOM     26  C7  ZIN A   1      18.572  -1.313  14.776  0.00  0.00     0.260 C 
BRANCH  26  27
ATOM     27  O6  ZIN A   1      17.684  -0.279  15.278  0.00  0.00    -0.314 OA
BRANCH  27  28
ATOM     28  C4  ZIN A   1      17.431  -0.281  16.596  0.00  0.00     0.262 C 
ATOM     29  O5  ZIN A   1      16.618  -1.048  17.054  0.00  0.00    -0.265 OA
BRANCH  28  30
ATOM     30  C2  ZIN A   1      18.161   0.674  17.505  0.00  0.00     0.077 C 
ATOM     31  C1  ZIN A   1      19.278  -0.072  18.236  0.00  0.00     0.020 C 
ATOM     32  C3  ZIN A   1      18.763   1.809  16.675  0.00  0.00     0.020 C 
ENDBRANCH  28  30
ENDBRANCH  27  28
ENDBRANCH  26  27
ENDBRANCH  24  26
ENDBRANCH   1  24
BRANCH   3  33
ATOM     33  C14 ZIN A   1      17.936   2.644  11.124  0.00  0.00     0.041 C 
ATOM     34  C19 ZIN A   1      18.689   3.312   9.972  0.00  0.00     0.009 C 
ATOM     35  C18 ZIN A   1      17.761   4.300   9.262  0.00  0.00     0.001 C 
ATOM     36  C17 ZIN A   1      17.299   5.368  10.256  0.00  0.00     0.000 C 
ATOM     37  C16 ZIN A   1      16.546   4.701  11.409  0.00  0.00     0.001 C 
ATOM     38  C15 ZIN A   1      17.474   3.711  12.118  0.00  0.00     0.009 C 
ENDBRANCH   3  33
BRANCH  20  39
ATOM     39  O42 ZIN A   1      17.825  -4.616  11.699  0.00  0.00    -0.395 OA
ATOM     40  H78 ZIN A   1      18.622  -4.305  12.151  0.00  0.00     0.210 HD
ENDBRANCH  20  39
TORSDOF 7
ENDMDL
MODEL 2
REMARK VINA RESULT:      -8.9      4.807     11.126
REMARK  7 active torsions:
REMARK  status: ('A' for Active; 'I' for Inactive)
REMARK    1  A    between atoms: C2_2  and  C4_4 
REMARK    2  A    between atoms: C4_4  and  O6_6 
REMARK    3  A    between atoms: O6_6  and  C7_7 
REMARK    4  A    between atoms: C7_7  and  C8_8 
REMARK    5  A    between atoms: C8_8  and  C10_10 
REMARK    6  A    between atoms: C12_12  and  C14_13 
REMARK    7  A    between atoms: C40_35  and  O42_36 
ROOT
ATOM      1  C10 ZIN A   1      18.563   4.421  14.375  0.00  0.00     0.160 C 
ATOM      2  O11 ZIN A   1      17.908   3.150  14.190  0.00  0.00    -0.339 OA
ATOM      3  C12 ZIN A   1      18.876   2.174  14.630  0.00  0.00     0.266 C 
ATOM      4  O20 ZIN A   1      19.475   2.760  15.806  0.00  0.00    -0.352 OA
ATOM      5  C21 ZIN A   1      19.613   4.162  15.495  0.00  0.00     0.168 C 
ATOM      6  C23 ZIN A   1      19.150   4.975  16.735  0.00  0.00     0.041 C 
ATOM      7  C24 ZIN A   1      17.644   5.130  16.506  0.00  0.00     0.004 C 
ATOM      8  C26 ZIN A   1      16.981   6.282  17.241  0.00  0.00    -0.001 C 
ATOM      9  C28 ZIN A   1      17.098   6.068  18.751  0.00  0.00     0.010 C 
ATOM     10  C29 ZIN A   1      16.462   7.250  19.491  0.00  0.00     0.036 C 
ATOM     11  C30 ZIN A   1      15.036   7.401  18.998  0.00  0.00    -0.064 A 
ATOM     12  C31 ZIN A   1      14.053   7.461  19.886  0.00  0.00     0.058 A 
ATOM     13  C32 ZIN A   1      12.655   7.587  19.446  0.00  0.00     0.172 A 
ATOM     14  O33 ZIN A   1      11.752   7.682  20.258  0.00  0.00    -0.289 OA
ATOM     15  C34 ZIN A   1      12.371   7.596  18.000  0.00  0.00     0.052 A 
ATOM     16  C35 ZIN A   1      13.369   7.542  17.132  0.00  0.00    -0.009 A 
ATOM     17  C36 ZIN A   1      14.807   7.478  17.517  0.00  0.00     0.004 A 
ATOM     18  C37 ZIN A   1      15.486   8.750  17.004  0.00  0.00     0.025 C 
ATOM     19  C38 ZIN A   1      15.505   6.310  16.817  0.00  0.00     0.035 C 
ATOM     20  C40 ZIN A   1      15.358   6.466  15.306  0.00  0.00     0.124 C 
ATOM     21  C43 ZIN A   1      16.145   5.387  14.546  0.00  0.00     0.045 C 
ATOM     22  C44 ZIN A   1      17.602   5.450  14.956  0.00  0.00     0.004 C 
ATOM     23  C45 ZIN A   1      18.138   6.867  14.748  0.00  0.00     0.019 C 
ENDROOT
BRANCH   1  24
ATOM     24  C8  ZIN A   1      19.205   4.911  13.102  0.00  0.00     0.188 C 
ATOM     25  O9  ZIN A   1      20.284   5.452  13.140  0.00  0.00    -0.292 OA
BRANCH  24  26
ATOM     26  C7  ZIN A   1      18.501   4.725  11.783  0.00  0.00     0.260 C 
BRANCH  26  27
ATOM     27  O6  ZIN A   1      19.064   3.578  11.092  0.00  0.00    -0.314 OA
BRANCH  27  28
ATOM     28  C4  ZIN A   1      18.206   2.624  10.697  0.00  0.00     0.262 C 
ATOM     29  O5  ZIN A   1      17.046   2.680  11.029  0.00  0.00    -0.265 OA
BRANCH  28  30
ATOM     30  C2  ZIN A   1      18.691   1.485   9.838  0.00  0.00     0.077 C 
ATOM     31  C1  ZIN A   1      17.554   0.482   9.634  0.00  0.00     0.020 C 
ATOM     32  C3  ZIN A   1      19.144   2.025   8.481  0.00  0.00     0.020 C 
ENDBRANCH  28  30
ENDBRANCH  27  28
ENDBRANCH  26  27
ENDBRANCH  24  26
ENDBRANCH   1  24
BRANCH   3  33
ATOM     33  C14 ZIN A   1      18.183   0.857  14.982  0.00  0.00     0.041 C 
ATOM     34  C19 ZIN A   1      17.875   0.826  16.480  0.00  0.00     0.009 C 
ATOM     35  C18 ZIN A   1      17.181  -0.491  16.831  0.00  0.00     0.001 C 
ATOM     36  C17 ZIN A   1      18.101  -1.661  16.477  0.00  0.00     0.000 C 
ATOM     37  C16 ZIN A   1      18.410  -1.632  14.979  0.00  0.00     0.001 C 
ATOM     38  C15 ZIN A   1      19.103  -0.313  14.627  0.00  0.00     0.009 C 
ENDBRANCH   3  33
BRANCH  20  39
ATOM     39  O42 ZIN A   1      15.843   7.754  14.921  0.00  0.00    -0.395 OA
ATOM     40  H78 ZIN A   1      16.525   8.109  15.509  0.00  0.00     0.210 HD
ENDBRANCH  20  39
TORSDOF 7
ENDMDL
MODEL 3
REMARK VINA RESULT:      -8.7      2.531      9.090
REMARK  7 active torsions:
REMARK  status: ('A' for Active; 'I' for Inactive)
REMARK    1  A    between atoms: C2_2  and  C4_4 
REMARK    2  A    between atoms: C4_4  and  O6_6 
REMARK    3  A    between atoms: O6_6  and  C7_7 
REMARK    4  A    between atoms: C7_7  and  C8_8 
REMARK    5  A    between atoms: C8_8  and  C10_10 
REMARK    6  A    between atoms: C12_12  and  C14_13 
REMARK    7  A    between atoms: C40_35  and  O42_36 
ROOT
ATOM      1  C10 ZIN A   1      17.909  -5.460   7.373  0.00  0.00     0.160 C 
ATOM      2  O11 ZIN A   1      16.479  -5.635   7.328  0.00  0.00    -0.339 OA
ATOM      3  C12 ZIN A   1      16.273  -7.031   7.633  0.00  0.00     0.266 C 
ATOM      4  O20 ZIN A   1      17.221  -7.318   8.682  0.00  0.00    -0.352 OA
ATOM      5  C21 ZIN A   1      18.412  -6.591   8.317  0.00  0.00     0.168 C 
ATOM      6  C23 ZIN A   1      18.957  -5.895   9.594  0.00  0.00     0.041 C 
ATOM      7  C24 ZIN A   1      18.211  -4.557   9.605  0.00  0.00     0.004 C 
ATOM      8  C26 ZIN A   1      18.865  -3.445  10.407  0.00  0.00    -0.001 C 
ATOM      9  C28 ZIN A   1      18.925  -3.839  11.884  0.00  0.00     0.010 C 
ATOM     10  C29 ZIN A   1      19.620  -2.732  12.686  0.00  0.00     0.036 C 
ATOM     11  C30 ZIN A   1      18.886  -1.431  12.423  0.00  0.00    -0.064 A 
ATOM     12  C31 ZIN A   1      18.482  -0.702  13.455  0.00  0.00     0.058 A 
ATOM     13  C32 ZIN A   1      17.750   0.555  13.241  0.00  0.00     0.172 A 
ATOM     14  O33 ZIN A   1      17.411   1.247  14.184  0.00  0.00    -0.289 OA
ATOM     15  C34 ZIN A   1      17.435   0.960  11.860  0.00  0.00     0.052 A 
ATOM     16  C35 ZIN A   1      17.855   0.220  10.845  0.00  0.00    -0.009 A 
ATOM     17  C36 ZIN A   1      18.654  -1.028  10.997  0.00  0.00     0.004 A 
ATOM     18  C37 ZIN A   1      20.020  -0.790  10.350  0.00  0.00     0.025 C 
ATOM     19  C38 ZIN A   1      18.011  -2.182  10.224  0.00  0.00     0.035 C 
ATOM     20  C40 ZIN A   1      17.886  -1.797   8.752  0.00  0.00     0.124 C 
ATOM     21  C43 ZIN A   1      17.360  -2.965   7.904  0.00  0.00     0.045 C 
ATOM     22  C44 ZIN A   1      18.276  -4.158   8.075  0.00  0.00     0.004 C 
ATOM     23  C45 ZIN A   1      19.716  -3.757   7.747  0.00  0.00     0.019 C 
ENDROOT
BRANCH   1  24
ATOM     24  C8  ZIN A   1      18.528  -5.552   6.002  0.00  0.00     0.188 C 
ATOM     25  O9  ZIN A   1      19.574  -6.135   5.851  0.00  0.00    -0.292 OA
BRANCH  24  26
ATOM     26  C7  ZIN A   1      17.841  -4.916   4.821  0.00  0.00     0.260 C 
BRANCH  26  27
ATOM     27  O6  ZIN A   1      18.392  -3.591   4.597  0.00  0.00    -0.314 OA
BRANCH  27  28
ATOM     28  C4  ZIN A   1      17.522  -2.611   4.307  0.00  0.00     0.262 C 
ATOM     29  O5  ZIN A   1      16.393  -2.885   3.976  0.00  0.00    -0.265 OA
BRANCH  28  30
ATOM     30  C2  ZIN A   1      17.953  -1.170   4.396  0.00  0.00     0.077 C 
ATOM     31  C1  ZIN A   1      17.093  -0.443   5.431  0.00  0.00     0.020 C 
ATOM     32  C3  ZIN A   1      19.423  -1.102   4.815  0.00  0.00     0.020 C 
ENDBRANCH  28  30
ENDBRANCH  27  28
ENDBRANCH  26  27
ENDBRANCH  24  26
ENDBRANCH   1  24
BRANCH   3  33
ATOM     33  C14 ZIN A   1      14.843  -7.264   8.124  0.00  0.00     0.041 C 
ATOM     34  C19 ZIN A   1      14.300  -8.559   7.517  0.00  0.00     0.009 C 
ATOM     35  C18 ZIN A   1      12.870  -8.792   8.010  0.00  0.00     0.001 C 
ATOM     36  C17 ZIN A   1      11.986  -7.620   7.582  0.00  0.00     0.000 C 
ATOM     37  C16 ZIN A   1      12.529  -6.324   8.188  0.00  0.00     0.001 C 
ATOM     38  C15 ZIN A   1      13.960  -6.091   7.696  0.00  0.00     0.009 C 
ENDBRANCH   3  33
BRANCH  20  39
ATOM     39  O42 ZIN A   1      19.171  -1.408   8.263  0.00  0.00    -0.395 OA
ATOM     40  H78 ZIN A   1      19.137  -0.820   7.494  0.00  0.00     0.210 HD
ENDBRANCH  20  39
TORSDOF 7
ENDMDL
MODEL 4
REMARK VINA RESULT:      -8.6      2.689      8.806
REMARK  7 active torsions:
REMARK  status: ('A' for Active; 'I' for Inactive)
REMARK    1  A    between atoms: C2_2  and  C4_4 
REMARK    2  A    between atoms: C4_4  and  O6_6 
REMARK    3  A    between atoms: O6_6  and  C7_7 
REMARK    4  A    between atoms: C7_7  and  C8_8 
REMARK    5  A    between atoms: C8_8  and  C10_10 
REMARK    6  A    between atoms: C12_12  and  C14_13 
REMARK    7  A    between atoms: C40_35  and  O42_36 
ROOT
ATOM      1  C10 ZIN A   1      18.486  -4.865   8.987  0.00  0.00     0.160 C 
ATOM      2  O11 ZIN A   1      17.406  -4.850   8.032  0.00  0.00    -0.339 OA
ATOM      3  C12 ZIN A   1      16.540  -5.929   8.445  0.00  0.00     0.266 C 
ATOM      4  O20 ZIN A   1      16.522  -5.850   9.886  0.00  0.00    -0.352 OA
ATOM      5  C21 ZIN A   1      17.876  -5.522  10.260  0.00  0.00     0.168 C 
ATOM      6  C23 ZIN A   1      17.817  -4.415  11.348  0.00  0.00     0.041 C 
ATOM      7  C24 ZIN A   1      17.790  -3.122  10.526  0.00  0.00     0.004 C 
ATOM      8  C26 ZIN A   1      18.241  -1.869  11.256  0.00  0.00    -0.001 C 
ATOM      9  C28 ZIN A   1      17.294  -1.579  12.421  0.00  0.00     0.010 C 
ATOM     10  C29 ZIN A   1      17.773  -0.336  13.179  0.00  0.00     0.036 C 
ATOM     11  C30 ZIN A   1      17.895   0.803  12.184  0.00  0.00    -0.064 A 
ATOM     12  C31 ZIN A   1      17.300   1.957  12.454  0.00  0.00     0.058 A 
ATOM     13  C32 ZIN A   1      17.378   3.078  11.505  0.00  0.00     0.172 A 
ATOM     14  O33 ZIN A   1      16.866   4.152  11.765  0.00  0.00    -0.289 OA
ATOM     15  C34 ZIN A   1      18.091   2.873  10.232  0.00  0.00     0.052 A 
ATOM     16  C35 ZIN A   1      18.684   1.715   9.988  0.00  0.00    -0.009 A 
ATOM     17  C36 ZIN A   1      18.693   0.565  10.936  0.00  0.00     0.004 A 
ATOM     18  C37 ZIN A   1      20.144   0.311  11.350  0.00  0.00     0.025 C 
ATOM     19  C38 ZIN A   1      18.216  -0.713  10.245  0.00  0.00     0.035 C 
ATOM     20  C40 ZIN A   1      19.110  -1.000   9.041  0.00  0.00     0.124 C 
ATOM     21  C43 ZIN A   1      18.756  -2.341   8.379  0.00  0.00     0.045 C 
ATOM     22  C44 ZIN A   1      18.860  -3.448   9.407  0.00  0.00     0.004 C 
ATOM     23  C45 ZIN A   1      20.247  -3.427  10.053  0.00  0.00     0.019 C 
ENDROOT
BRANCH   1  24
ATOM     24  C8  ZIN A   1      19.677  -5.630   8.472  0.00  0.00     0.188 C 
ATOM     25  O9  ZIN A   1      20.123  -6.553   9.110  0.00  0.00    -0.292 OA
BRANCH  24  26
ATOM     26  C7  ZIN A   1      20.312  -5.243   7.161  0.00  0.00     0.260 C 
BRANCH  26  27
ATOM     27  O6  ZIN A   1      19.279  -5.071   6.155  0.00  0.00    -0.314 OA
BRANCH  27  28
ATOM     28  C4  ZIN A   1      19.266  -3.906   5.489  0.00  0.00     0.262 C 
ATOM     29  O5  ZIN A   1      20.061  -3.041   5.770  0.00  0.00    -0.265 OA
BRANCH  28  30
ATOM     30  C2  ZIN A   1      18.260  -3.677   4.391  0.00  0.00     0.077 C 
ATOM     31  C1  ZIN A   1      17.093  -4.652   4.557  0.00  0.00     0.020 C 
ATOM     32  C3  ZIN A   1      17.740  -2.241   4.466  0.00  0.00     0.020 C 
ENDBRANCH  28  30
ENDBRANCH  27  28
ENDBRANCH  26  27
ENDBRANCH  24  26
ENDBRANCH   1  24
BRANCH   3  33
ATOM     33  C14 ZIN A   1      15.133  -5.731   7.880  0.00  0.00     0.041 C 
ATOM     34  C19 ZIN A   1      14.099  -6.167   8.919  0.00  0.00     0.009 C 
ATOM     35  C18 ZIN A   1      12.692  -5.968   8.353  0.00  0.00     0.001 C 
ATOM     36  C17 ZIN A   1      12.528  -6.811   7.087  0.00  0.00     0.000 C 
ATOM     37  C16 ZIN A   1      13.562  -6.376   6.047  0.00  0.00     0.001 C 
ATOM     38  C15 ZIN A   1      14.970  -6.574   6.613  0.00  0.00     0.009 C 
ENDBRANCH   3  33
BRANCH  20  39
ATOM     39  O42 ZIN A   1      20.472  -1.040   9.473  0.00  0.00    -0.395 OA
ATOM     40  H78 ZIN A   1      20.607  -1.510  10.308  0.00  0.00     0.210 HD
ENDBRANCH  20  39
TORSDOF 7
ENDMDL
MODEL 5
REMARK VINA RESULT:      -8.6      3.286      5.461
REMARK  7 active torsions:
REMARK  status: ('A' for Active; 'I' for Inactive)
REMARK    1  A    between atoms: C2_2  and  C4_4 
REMARK    2  A    between atoms: C4_4  and  O6_6 
REMARK    3  A    between atoms: O6_6  and  C7_7 
REMARK    4  A    between atoms: C7_7  and  C8_8 
REMARK    5  A    between atoms: C8_8  and  C10_10 
REMARK    6  A    between atoms: C12_12  and  C14_13 
REMARK    7  A    between atoms: C40_35  and  O42_36 
ROOT
ATOM      1  C10 ZIN A   1      18.708   4.014  15.049  0.00  0.00     0.160 C 
ATOM      2  O11 ZIN A   1      17.373   4.540  15.186  0.00  0.00    -0.339 OA
ATOM      3  C12 ZIN A   1      17.549   5.972  15.238  0.00  0.00     0.266 C 
ATOM      4  O20 ZIN A   1      18.571   6.248  14.257  0.00  0.00    -0.352 OA
ATOM      5  C21 ZIN A   1      19.519   5.169  14.392  0.00  0.00     0.168 C 
ATOM      6  C23 ZIN A   1      19.901   4.688  12.965  0.00  0.00     0.041 C 
ATOM      7  C24 ZIN A   1      18.832   3.636  12.656  0.00  0.00     0.004 C 
ATOM      8  C26 ZIN A   1      19.196   2.623  11.584  0.00  0.00    -0.001 C 
ATOM      9  C28 ZIN A   1      19.402   3.334  10.247  0.00  0.00     0.010 C 
ATOM     10  C29 ZIN A   1      19.807   2.315   9.176  0.00  0.00     0.036 C 
ATOM     11  C30 ZIN A   1      18.750   1.227   9.139  0.00  0.00    -0.064 A 
ATOM     12  C31 ZIN A   1      18.201   0.904   7.976  0.00  0.00     0.058 A 
ATOM     13  C32 ZIN A   1      17.159  -0.131   7.904  0.00  0.00     0.172 A 
ATOM     14  O33 ZIN A   1      16.680  -0.459   6.833  0.00  0.00    -0.289 OA
ATOM     15  C34 ZIN A   1      16.707  -0.763   9.155  0.00  0.00     0.052 A 
ATOM     16  C35 ZIN A   1      17.274  -0.430  10.304  0.00  0.00    -0.009 A 
ATOM     17  C36 ZIN A   1      18.377   0.564  10.433  0.00  0.00     0.004 A 
ATOM     18  C37 ZIN A   1      19.613  -0.173  10.954  0.00  0.00     0.025 C 
ATOM     19  C38 ZIN A   1      18.035   1.621  11.484  0.00  0.00     0.035 C 
ATOM     20  C40 ZIN A   1      17.769   0.935  12.822  0.00  0.00     0.124 C 
ATOM     21  C43 ZIN A   1      17.541   1.956  13.947  0.00  0.00     0.045 C 
ATOM     22  C44 ZIN A   1      18.743   2.873  14.040  0.00  0.00     0.004 C 
ATOM     23  C45 ZIN A   1      20.016   2.043  14.209  0.00  0.00     0.019 C 
ENDROOT
BRANCH   1  24
ATOM     24  C8  ZIN A   1      19.287   3.603  16.379  0.00  0.00     0.188 C 
ATOM     25  O9  ZIN A   1      20.372   4.013  16.716  0.00  0.00    -0.292 OA
BRANCH  24  26
ATOM     26  C7  ZIN A   1      18.513   2.683  17.286  0.00  0.00     0.260 C 
BRANCH  26  27
ATOM     27  O6  ZIN A   1      19.396   1.649  17.794  0.00  0.00    -0.314 OA
BRANCH  27  28
ATOM     28  C4  ZIN A   1      18.898   0.405  17.869  0.00  0.00     0.262 C 
ATOM     29  O5  ZIN A   1      18.840  -0.159  18.936  0.00  0.00    -0.265 OA
BRANCH  28  30
ATOM     30  C2  ZIN A   1      18.409  -0.288  16.623  0.00  0.00     0.077 C 
ATOM     31  C1  ZIN A   1      19.184  -1.592  16.428  0.00  0.00     0.020 C 
ATOM     32  C3  ZIN A   1      16.918  -0.596  16.762  0.00  0.00     0.020 C 
ENDBRANCH  28  30
ENDBRANCH  27  28
ENDBRANCH  26  27
ENDBRANCH  24  26
ENDBRANCH   1  24
BRANCH   3  33
ATOM     33  C14 ZIN A   1      16.246   6.684  14.868  0.00  0.00     0.041 C 
ATOM     34  C19 ZIN A   1      16.147   8.000  15.641  0.00  0.00     0.009 C 
ATOM     35  C18 ZIN A   1      14.844   8.712  15.270  0.00  0.00     0.001 C 
ATOM     36  C17 ZIN A   1      13.656   7.819  15.632  0.00  0.00     0.000 C 
ATOM     37  C16 ZIN A   1      13.754   6.501  14.860  0.00  0.00     0.001 C 
ATOM     38  C15 ZIN A   1      15.058   5.790  15.229  0.00  0.00     0.009 C 
ENDBRANCH   3  33
BRANCH  20  39
ATOM     39  O42 ZIN A   1      18.891   0.116  13.157  0.00  0.00    -0.395 OA
ATOM     40  H78 ZIN A   1      18.928  -0.137  14.090  0.00  0.00     0.210 HD
ENDBRANCH  20  39
TORSDOF 7
ENDMDL
MODEL 6
REMARK VINA RESULT:      -8.1      2.611      9.696
REMARK  7 active torsions:
REMARK  status: ('A' for Active; 'I' for Inactive)
REMARK    1  A    between atoms: C2_2  and  C4_4 
REMARK    2  A    between atoms: C4_4  and  O6_6 
REMARK    3  A    between atoms: O6_6  and  C7_7 
REMARK    4  A    between atoms: C7_7  and  C8_8 
REMARK    5  A    between atoms: C8_8  and  C10_10 
REMARK    6  A    between atoms: C12_12  and  C14_13 
REMARK    7  A    between atoms: C40_35  and  O42_36 
ROOT
ATOM      1  C10 ZIN A   1      17.570  -5.548   7.023  0.00  0.00     0.160 C 
ATOM      2  O11 ZIN A   1      16.167  -5.432   6.712  0.00  0.00    -0.339 OA
ATOM      3  C12 ZIN A   1      15.639  -6.762   6.909  0.00  0.00     0.266 C 
ATOM      4  O20 ZIN A   1      16.301  -7.243   8.097  0.00  0.00    -0.352 OA
ATOM      5  C21 ZIN A   1      17.658  -6.767   7.988  0.00  0.00     0.168 C 
ATOM      6  C23 ZIN A   1      18.081  -6.206   9.374  0.00  0.00     0.041 C 
ATOM      7  C24 ZIN A   1      17.622  -4.746   9.313  0.00  0.00     0.004 C 
ATOM      8  C26 ZIN A   1      18.320  -3.797  10.271  0.00  0.00    -0.001 C 
ATOM      9  C28 ZIN A   1      18.026  -4.209  11.714  0.00  0.00     0.010 C 
ATOM     10  C29 ZIN A   1      18.762  -3.272  12.679  0.00  0.00     0.036 C 
ATOM     11  C30 ZIN A   1      18.358  -1.847  12.350  0.00  0.00    -0.064 A 
ATOM     12  C31 ZIN A   1      17.919  -1.063  13.325  0.00  0.00     0.058 A 
ATOM     13  C32 ZIN A   1      17.499   0.318  13.042  0.00  0.00     0.172 A 
ATOM     14  O33 ZIN A   1      17.133   1.054  13.940  0.00  0.00    -0.289 OA
ATOM     15  C34 ZIN A   1      17.532   0.791  11.647  0.00  0.00     0.052 A 
ATOM     16  C35 ZIN A   1      17.981  -0.007  10.691  0.00  0.00    -0.009 A 
ATOM     17  C36 ZIN A   1      18.478  -1.392  10.925  0.00  0.00     0.004 A 
ATOM     18  C37 ZIN A   1      19.961  -1.427  10.547  0.00  0.00     0.025 C 
ATOM     19  C38 ZIN A   1      17.777  -2.385   9.996  0.00  0.00     0.035 C 
ATOM     20  C40 ZIN A   1      18.006  -1.969   8.546  0.00  0.00     0.124 C 
ATOM     21  C43 ZIN A   1      17.429  -2.999   7.562  0.00  0.00     0.045 C 
ATOM     22  C44 ZIN A   1      18.047  -4.354   7.839  0.00  0.00     0.004 C 
ATOM     23  C45 ZIN A   1      19.572  -4.246   7.796  0.00  0.00     0.019 C 
ENDROOT
BRANCH   1  24
ATOM     24  C8  ZIN A   1      18.403  -5.748   5.783  0.00  0.00     0.188 C 
ATOM     25  O9  ZIN A   1      19.196  -6.657   5.730  0.00  0.00    -0.292 OA
BRANCH  24  26
ATOM     26  C7  ZIN A   1      18.246  -4.815   4.611  0.00  0.00     0.260 C 
BRANCH  26  27
ATOM     27  O6  ZIN A   1      17.413  -5.444   3.600  0.00  0.00    -0.314 OA
BRANCH  27  28
ATOM     28  C4  ZIN A   1      16.203  -4.905   3.386  0.00  0.00     0.262 C 
ATOM     29  O5  ZIN A   1      15.940  -3.815   3.835  0.00  0.00    -0.265 OA
BRANCH  28  30
ATOM     30  C2  ZIN A   1      15.174  -5.658   2.584  0.00  0.00     0.077 C 
ATOM     31  C1  ZIN A   1      13.973  -5.984   3.474  0.00  0.00     0.020 C 
ATOM     32  C3  ZIN A   1      14.716  -4.799   1.404  0.00  0.00     0.020 C 
ENDBRANCH  28  30
ENDBRANCH  27  28
ENDBRANCH  26  27
ENDBRANCH  24  26
ENDBRANCH   1  24
BRANCH   3  33
ATOM     33  C14 ZIN A   1      14.125  -6.708   7.124  0.00  0.00     0.041 C 
ATOM     34  C19 ZIN A   1      13.821  -5.975   8.431  0.00  0.00     0.009 C 
ATOM     35  C18 ZIN A   1      12.307  -5.921   8.644  0.00  0.00     0.001 C 
ATOM     36  C17 ZIN A   1      11.752  -7.345   8.719  0.00  0.00     0.000 C 
ATOM     37  C16 ZIN A   1      12.057  -8.080   7.412  0.00  0.00     0.001 C 
ATOM     38  C15 ZIN A   1      13.571  -8.133   7.197  0.00  0.00     0.009 C 
ENDBRANCH   3  33
BRANCH  20  39
ATOM     39  O42 ZIN A   1      19.411  -1.840   8.314  0.00  0.00    -0.395 OA
ATOM     40  H78 ZIN A   1      19.922  -1.625   9.107  0.00  0.00     0.210 HD
ENDBRANCH  20  39
TORSDOF 7
ENDMDL
MODEL 7
REMARK VINA RESULT:      -8.1      2.811      8.788
REMARK  7 active torsions:
REMARK  status: ('A' for Active; 'I' for Inactive)
REMARK    1  A    between atoms: C2_2  and  C4_4 
REMARK    2  A    between atoms: C4_4  and  O6_6 
REMARK    3  A    between atoms: O6_6  and  C7_7 
REMARK    4  A    between atoms: C7_7  and  C8_8 
REMARK    5  A    between atoms: C8_8  and  C10_10 
REMARK    6  A    between atoms: C12_12  and  C14_13 
REMARK    7  A    between atoms: C40_35  and  O42_36 
ROOT
ATOM      1  C10 ZIN A   1      18.078  -0.995   8.298  0.00  0.00     0.160 C 
ATOM      2  O11 ZIN A   1      17.520  -2.324   8.343  0.00  0.00    -0.339 OA
ATOM      3  C12 ZIN A   1      18.476  -3.144   7.636  0.00  0.00     0.266 C 
ATOM      4  O20 ZIN A   1      19.764  -2.650   8.062  0.00  0.00    -0.352 OA
ATOM      5  C21 ZIN A   1      19.610  -1.218   8.133  0.00  0.00     0.168 C 
ATOM      6  C23 ZIN A   1      20.274  -0.730   9.449  0.00  0.00     0.041 C 
ATOM      7  C24 ZIN A   1      19.142  -0.847  10.474  0.00  0.00     0.004 C 
ATOM      8  C26 ZIN A   1      19.289   0.011  11.719  0.00  0.00    -0.001 C 
ATOM      9  C28 ZIN A   1      20.531  -0.420  12.501  0.00  0.00     0.010 C 
ATOM     10  C29 ZIN A   1      20.699   0.471  13.736  0.00  0.00     0.036 C 
ATOM     11  C30 ZIN A   1      19.413   0.410  14.538  0.00  0.00    -0.064 A 
ATOM     12  C31 ZIN A   1      19.476   0.124  15.831  0.00  0.00     0.058 A 
ATOM     13  C32 ZIN A   1      18.249   0.036  16.638  0.00  0.00     0.172 A 
ATOM     14  O33 ZIN A   1      18.304  -0.188  17.834  0.00  0.00    -0.289 OA
ATOM     15  C34 ZIN A   1      16.951   0.224  15.967  0.00  0.00     0.052 A 
ATOM     16  C35 ZIN A   1      16.913   0.517  14.677  0.00  0.00    -0.009 A 
ATOM     17  C36 ZIN A   1      18.122   0.681  13.822  0.00  0.00     0.004 A 
ATOM     18  C37 ZIN A   1      18.155   2.131  13.333  0.00  0.00     0.025 C 
ATOM     19  C38 ZIN A   1      18.025  -0.190  12.569  0.00  0.00     0.035 C 
ATOM     20  C40 ZIN A   1      16.763   0.179  11.793  0.00  0.00     0.124 C 
ATOM     21  C43 ZIN A   1      16.675  -0.579  10.459  0.00  0.00     0.045 C 
ATOM     22  C44 ZIN A   1      17.917  -0.291   9.640  0.00  0.00     0.004 C 
ATOM     23  C45 ZIN A   1      18.094   1.220   9.481  0.00  0.00     0.019 C 
ENDROOT
BRANCH   1  24
ATOM     24  C8  ZIN A   1      17.500  -0.184   7.167  0.00  0.00     0.188 C 
ATOM     25  O9  ZIN A   1      16.302  -0.096   7.038  0.00  0.00    -0.292 OA
BRANCH  24  26
ATOM     26  C7  ZIN A   1      18.416   0.519   6.200  0.00  0.00     0.260 C 
BRANCH  26  27
ATOM     27  O6  ZIN A   1      18.233  -0.036   4.870  0.00  0.00    -0.314 OA
BRANCH  27  28
ATOM     28  C4  ZIN A   1      18.772  -1.242   4.634  0.00  0.00     0.262 C 
ATOM     29  O5  ZIN A   1      19.960  -1.346   4.445  0.00  0.00    -0.265 OA
BRANCH  28  30
ATOM     30  C2  ZIN A   1      17.894  -2.467   4.605  0.00  0.00     0.077 C 
ATOM     31  C1  ZIN A   1      16.597  -2.147   3.860  0.00  0.00     0.020 C 
ATOM     32  C3  ZIN A   1      18.627  -3.602   3.888  0.00  0.00     0.020 C 
ENDBRANCH  28  30
ENDBRANCH  27  28
ENDBRANCH  26  27
ENDBRANCH  24  26
ENDBRANCH   1  24
BRANCH   3  33
ATOM     33  C14 ZIN A   1      18.310  -4.613   8.026  0.00  0.00     0.041 C 
ATOM     34  C19 ZIN A   1      17.458  -5.327   6.975  0.00  0.00     0.009 C 
ATOM     35  C18 ZIN A   1      17.293  -6.797   7.364  0.00  0.00     0.001 C 
ATOM     36  C17 ZIN A   1      16.602  -6.888   8.726  0.00  0.00     0.000 C 
ATOM     37  C16 ZIN A   1      17.453  -6.174   9.779  0.00  0.00     0.001 C 
ATOM     38  C15 ZIN A   1      17.619  -4.704   9.388  0.00  0.00     0.009 C 
ENDBRANCH   3  33
BRANCH  20  39
ATOM     39  O42 ZIN A   1      16.772   1.584  11.531  0.00  0.00    -0.395 OA
ATOM     40  H78 ZIN A   1      16.826   2.132  12.326  0.00  0.00     0.210 HD
ENDBRANCH  20  39
TORSDOF 7
ENDMDL
MODEL 8
REMARK VINA RESULT:      -7.9      2.926      4.140
REMARK  7 active torsions:
REMARK  status: ('A' for Active; 'I' for Inactive)
REMARK    1  A    between atoms: C2_2  and  C4_4 
REMARK    2  A    between atoms: C4_4  and  O6_6 
REMARK    3  A    between atoms: O6_6  and  C7_7 
REMARK    4  A    between atoms: C7_7  and  C8_8 
REMARK    5  A    between atoms: C8_8  and  C10_10 
REMARK    6  A    between atoms: C12_12  and  C14_13 
REMARK    7  A    between atoms: C40_35  and  O42_36 
ROOT
ATOM      1  C10 ZIN A   1      18.102   0.927  14.745  0.00  0.00     0.160 C 
ATOM      2  O11 ZIN A   1      17.487   2.231  14.724  0.00  0.00    -0.339 OA
ATOM      3  C12 ZIN A   1      18.423   3.087  15.413  0.00  0.00     0.266 C 
ATOM      4  O20 ZIN A   1      19.720   2.653  14.953  0.00  0.00    -0.352 OA
ATOM      5  C21 ZIN A   1      19.627   1.216  14.874  0.00  0.00     0.168 C 
ATOM      6  C23 ZIN A   1      20.279   0.766  13.539  0.00  0.00     0.041 C 
ATOM      7  C24 ZIN A   1      19.118   0.840  12.542  0.00  0.00     0.004 C 
ATOM      8  C26 ZIN A   1      19.272  -0.002  11.288  0.00  0.00    -0.001 C 
ATOM      9  C28 ZIN A   1      20.475   0.488  10.480  0.00  0.00     0.010 C 
ATOM     10  C29 ZIN A   1      20.651  -0.387   9.234  0.00  0.00     0.036 C 
ATOM     11  C30 ZIN A   1      19.344  -0.377   8.464  0.00  0.00    -0.064 A 
ATOM     12  C31 ZIN A   1      19.363  -0.080   7.171  0.00  0.00     0.058 A 
ATOM     13  C32 ZIN A   1      18.115  -0.039   6.395  0.00  0.00     0.172 A 
ATOM     14  O33 ZIN A   1      18.131   0.195   5.200  0.00  0.00    -0.289 OA
ATOM     15  C34 ZIN A   1      16.843  -0.289   7.095  0.00  0.00     0.052 A 
ATOM     16  C35 ZIN A   1      16.849  -0.591   8.384  0.00  0.00    -0.009 A 
ATOM     17  C36 ZIN A   1      18.085  -0.709   9.208  0.00  0.00     0.004 A 
ATOM     18  C37 ZIN A   1      18.192  -2.159   9.686  0.00  0.00     0.025 C 
ATOM     19  C38 ZIN A   1      17.980   0.149  10.470  0.00  0.00     0.035 C 
ATOM     20  C40 ZIN A   1      16.755  -0.280  11.273  0.00  0.00     0.124 C 
ATOM     21  C43 ZIN A   1      16.667   0.465  12.615  0.00  0.00     0.045 C 
ATOM     22  C44 ZIN A   1      17.939   0.226  13.402  0.00  0.00     0.004 C 
ATOM     23  C45 ZIN A   1      18.186  -1.277  13.545  0.00  0.00     0.019 C 
ENDROOT
BRANCH   1  24
ATOM     24  C8  ZIN A   1      17.588   0.084  15.883  0.00  0.00     0.188 C 
ATOM     25  O9  ZIN A   1      16.401  -0.104  16.006  0.00  0.00    -0.292 OA
BRANCH  24  26
ATOM     26  C7  ZIN A   1      18.554  -0.525  16.865  0.00  0.00     0.260 C 
BRANCH  26  27
ATOM     27  O6  ZIN A   1      18.310   0.025  18.187  0.00  0.00    -0.314 OA
BRANCH  27  28
ATOM     28  C4  ZIN A   1      18.812   1.244  18.442  0.00  0.00     0.262 C 
ATOM     29  O5  ZIN A   1      20.000   1.386  18.604  0.00  0.00    -0.265 OA
BRANCH  28  30
ATOM     30  C2  ZIN A   1      17.893   2.435  18.524  0.00  0.00     0.077 C 
ATOM     31  C1  ZIN A   1      16.665   2.074  19.361  0.00  0.00     0.020 C 
ATOM     32  C3  ZIN A   1      18.630   3.605  19.178  0.00  0.00     0.020 C 
ENDBRANCH  28  30
ENDBRANCH  27  28
ENDBRANCH  26  27
ENDBRANCH  24  26
ENDBRANCH   1  24
BRANCH   3  33
ATOM     33  C14 ZIN A   1      18.183   4.550  15.039  0.00  0.00     0.041 C 
ATOM     34  C19 ZIN A   1      17.454   5.257  16.183  0.00  0.00     0.009 C 
ATOM     35  C18 ZIN A   1      17.216   6.721  15.808  0.00  0.00     0.001 C 
ATOM     36  C17 ZIN A   1      16.362   6.790  14.541  0.00  0.00     0.000 C 
ATOM     37  C16 ZIN A   1      17.090   6.083  13.396  0.00  0.00     0.001 C 
ATOM     38  C15 ZIN A   1      17.330   4.618  13.771  0.00  0.00     0.009 C 
ENDBRANCH   3  33
BRANCH  20  39
ATOM     39  O42 ZIN A   1      16.831  -1.684  11.524  0.00  0.00    -0.395 OA
ATOM     40  H78 ZIN A   1      16.691  -1.926  12.451  0.00  0.00     0.210 HD
ENDBRANCH  20  39
TORSDOF 7
ENDMDL
MODEL 9
REMARK VINA RESULT:      -7.4      2.112      4.994
REMARK  7 active torsions:
REMARK  status: ('A' for Active; 'I' for Inactive)
REMARK    1  A    between atoms: C2_2  and  C4_4 
REMARK    2  A    between atoms: C4_4  and  O6_6 
REMARK    3  A    between atoms: O6_6  and  C7_7 
REMARK    4  A    between atoms: C7_7  and  C8_8 
REMARK    5  A    between atoms: C8_8  and  C10_10 
REMARK    6  A    between atoms: C12_12  and  C14_13 
REMARK    7  A    between atoms: C40_35  and  O42_36 
ROOT
ATOM      1  C10 ZIN A   1      18.647   1.289  11.971  0.00  0.00     0.160 C 
ATOM      2  O11 ZIN A   1      19.520   1.076  13.099  0.00  0.00    -0.339 OA
ATOM      3  C12 ZIN A   1      18.704   1.375  14.252  0.00  0.00     0.266 C 
ATOM      4  O20 ZIN A   1      17.414   0.807  13.942  0.00  0.00    -0.352 OA
ATOM      5  C21 ZIN A   1      17.213   1.079  12.540  0.00  0.00     0.168 C 
ATOM      6  C23 ZIN A   1      16.656  -0.211  11.878  0.00  0.00     0.041 C 
ATOM      7  C24 ZIN A   1      17.924  -0.977  11.490  0.00  0.00     0.004 C 
ATOM      8  C26 ZIN A   1      17.758  -2.011  10.390  0.00  0.00    -0.001 C 
ATOM      9  C28 ZIN A   1      16.798  -3.109  10.851  0.00  0.00     0.010 C 
ATOM     10  C29 ZIN A   1      16.602  -4.130   9.726  0.00  0.00     0.036 C 
ATOM     11  C30 ZIN A   1      17.969  -4.641   9.312  0.00  0.00    -0.064 A 
ATOM     12  C31 ZIN A   1      18.177  -5.950   9.261  0.00  0.00     0.058 A 
ATOM     13  C32 ZIN A   1      19.495  -6.482   8.884  0.00  0.00     0.172 A 
ATOM     14  O33 ZIN A   1      19.681  -7.683   8.798  0.00  0.00    -0.289 OA
ATOM     15  C34 ZIN A   1      20.586  -5.532   8.611  0.00  0.00     0.052 A 
ATOM     16  C35 ZIN A   1      20.353  -4.229   8.660  0.00  0.00    -0.009 A 
ATOM     17  C36 ZIN A   1      19.026  -3.630   8.974  0.00  0.00     0.004 A 
ATOM     18  C37 ZIN A   1      18.556  -2.859   7.739  0.00  0.00     0.025 C 
ATOM     19  C38 ZIN A   1      19.146  -2.602  10.100  0.00  0.00     0.035 C 
ATOM     20  C40 ZIN A   1      20.142  -1.520   9.691  0.00  0.00     0.124 C 
ATOM     21  C43 ZIN A   1      20.213  -0.391  10.732  0.00  0.00     0.045 C 
ATOM     22  C44 ZIN A   1      18.829   0.193  10.928  0.00  0.00     0.004 C 
ATOM     23  C45 ZIN A   1      18.257   0.633   9.579  0.00  0.00     0.019 C 
ENDROOT
BRANCH   1  24
ATOM     24  C8  ZIN A   1      18.824   2.662  11.378  0.00  0.00     0.188 C 
ATOM     25  O9  ZIN A   1      19.931   3.067  11.111  0.00  0.00    -0.292 OA
BRANCH  24  26
ATOM     26  C7  ZIN A   1      17.621   3.531  11.116  0.00  0.00     0.260 C 
BRANCH  26  27
ATOM     27  O6  ZIN A   1      17.800   4.815  11.770  0.00  0.00    -0.314 OA
BRANCH  27  28
ATOM     28  C4  ZIN A   1      17.073   5.043  12.875  0.00  0.00     0.262 C 
ATOM     29  O5  ZIN A   1      15.939   5.450  12.778  0.00  0.00    -0.265 OA
BRANCH  28  30
ATOM     30  C2  ZIN A   1      17.670   4.792  14.235  0.00  0.00     0.077 C 
ATOM     31  C1  ZIN A   1      19.168   5.094  14.198  0.00  0.00     0.020 C 
ATOM     32  C3  ZIN A   1      16.992   5.698  15.265  0.00  0.00     0.020 C 
ENDBRANCH  28  30
ENDBRANCH  27  28
ENDBRANCH  26  27
ENDBRANCH  24  26
ENDBRANCH   1  24
BRANCH   3  33
ATOM     33  C14 ZIN A   1      19.291   0.722  15.505  0.00  0.00     0.041 C 
ATOM     34  C19 ZIN A   1      18.753  -0.704  15.635  0.00  0.00     0.009 C 
ATOM     35  C18 ZIN A   1      19.341  -1.358  16.888  0.00  0.00     0.001 C 
ATOM     36  C17 ZIN A   1      18.939  -0.547  18.121  0.00  0.00     0.000 C 
ATOM     37  C16 ZIN A   1      19.476   0.880  17.991  0.00  0.00     0.001 C 
ATOM     38  C15 ZIN A   1      18.889   1.533  16.738  0.00  0.00     0.009 C 
ENDBRANCH   3  33
BRANCH  20  39
ATOM     39  O42 ZIN A   1      19.742  -0.969   8.434  0.00  0.00    -0.395 OA
ATOM     40  H78 ZIN A   1      20.445  -0.952   7.770  0.00  0.00     0.210 HD
ENDBRANCH  20  39
TORSDOF 7
ENDMDL
