MODEL 1
REMARK VINA RESULT:      -7.8      0.000      0.000
REMARK  5 active torsions:
REMARK  status: ('A' for Active; 'I' for Inactive)
REMARK    1  A    between atoms: C2_2  and  C3_3 
REMARK    2  A    between atoms: C13_11  and  C15_12 
REMARK    3  A    between atoms: C15_12  and  O17_13 
REMARK    4  A    between atoms: C15_12  and  C18_14 
REMARK    5  A    between atoms: C21_17  and  O22_18 
ROOT
ATOM      1  C15 ZIN A   1      20.038  -0.586  10.632  0.00  0.00     0.183 C 
ENDROOT
BRANCH   1   2
ATOM      2  C13 ZIN A   1      19.407   0.299  11.709  0.00  0.00     0.221 C 
ATOM      3  N6  ZIN A   1      18.092  -0.235  12.072  0.00  0.00    -0.063 N 
ATOM      4  C5  ZIN A   1      17.450   0.614  13.079  0.00  0.00     0.244 C 
ATOM      5  H7  ZIN A   1      17.512  -0.245  11.246  0.00  0.00     0.280 HD
ATOM      6  C8  ZIN A   1      18.223  -1.610  12.564  0.00  0.00     0.236 C 
ATOM      7  C3  ZIN A   1      18.306   0.660  14.347  0.00  0.00     0.037 C 
ATOM      8  C10 ZIN A   1      19.554  -0.205  14.137  0.00  0.00    -0.002 C 
ATOM      9  C9  ZIN A   1      19.103  -1.636  13.815  0.00  0.00     0.033 C 
ATOM     10  C12 ZIN A   1      20.321   0.344  12.927  0.00  0.00     0.041 C 
BRANCH   7  11
ATOM     11  C2  ZIN A   1      18.717   2.083  14.626  0.00  0.00    -0.030 C 
ATOM     12  C1  ZIN A   1      18.045   3.075  14.098  0.00  0.00     0.007 C 
ENDBRANCH   7  11
ENDBRANCH   1   2
BRANCH   1  13
ATOM     13  O17 ZIN A   1      21.460  -0.538  10.749  0.00  0.00    -0.389 OA
ATOM     14  H41 ZIN A   1      21.919  -1.242  10.273  0.00  0.00     0.210 HD
ENDBRANCH   1  13
BRANCH   1  15
ATOM     15  C18 ZIN A   1      19.629  -0.087   9.269  0.00  0.00    -0.014 A 
ATOM     16  C29 ZIN A   1      19.569   1.250   9.001  0.00  0.00     0.030 A 
ATOM     17  C28 ZIN A   1      19.193   1.688   7.733  0.00  0.00     0.118 A 
ATOM     18  N27 ZIN A   1      18.880   0.847   6.777  0.00  0.00    -0.260 NA
ATOM     19  C26 ZIN A   1      18.913  -0.473   6.976  0.00  0.00     0.067 A 
ATOM     20  C19 ZIN A   1      19.292  -0.988   8.241  0.00  0.00     0.004 A 
ATOM     21  C25 ZIN A   1      18.576  -1.369   5.945  0.00  0.00     0.035 A 
ATOM     22  C20 ZIN A   1      19.325  -2.376   8.445  0.00  0.00     0.051 A 
ATOM     23  C21 ZIN A   1      18.991  -3.216   7.422  0.00  0.00     0.069 A 
ATOM     24  C24 ZIN A   1      18.617  -2.709   6.173  0.00  0.00     0.039 A 
BRANCH  23  25
ATOM     25  O22 ZIN A   1      19.022  -4.560   7.620  0.00  0.00    -0.356 OA
ATOM     26  C23 ZIN A   1      20.116  -5.276   7.042  0.00  0.00     0.210 C 
ENDBRANCH  23  25
ENDBRANCH   1  15
TORSDOF 5
ENDMDL
MODEL 2
REMARK VINA RESULT:      -7.7      2.491      7.626
REMARK  5 active torsions:
REMARK  status: ('A' for Active; 'I' for Inactive)
REMARK    1  A    between atoms: C2_2  and  C3_3 
REMARK    2  A    between atoms: C13_11  and  C15_12 
REMARK    3  A    between atoms: C15_12  and  O17_13 
REMARK    4  A    between atoms: C15_12  and  C18_14 
REMARK    5  A    between atoms: C21_17  and  O22_18 
ROOT
ATOM      1  C15 ZIN A   1      20.104   0.907  12.482  0.00  0.00     0.183 C 
ENDROOT
BRANCH   1   2
ATOM      2  C13 ZIN A   1      19.235   0.290  11.384  0.00  0.00     0.221 C 
ATOM      3  N6  ZIN A   1      17.894   0.877  11.435  0.00  0.00    -0.063 N 
ATOM      4  C5  ZIN A   1      17.029   0.279  10.415  0.00  0.00     0.244 C 
ATOM      5  H7  ZIN A   1      17.496   0.686  12.342  0.00  0.00     0.280 HD
ATOM      6  C8  ZIN A   1      17.971   2.330  11.259  0.00  0.00     0.236 C 
ATOM      7  C3  ZIN A   1      17.606   0.541   9.022  0.00  0.00     0.037 C 
ATOM      8  C10 ZIN A   1      18.901   1.350   9.162  0.00  0.00    -0.002 C 
ATOM      9  C9  ZIN A   1      18.577   2.660   9.893  0.00  0.00     0.033 C 
ATOM     10  C12 ZIN A   1      19.879   0.544  10.027  0.00  0.00     0.041 C 
BRANCH   7  11
ATOM     11  C2  ZIN A   1      17.900  -0.771   8.341  0.00  0.00    -0.030 C 
ATOM     12  C1  ZIN A   1      18.016  -0.822   7.037  0.00  0.00     0.007 C 
ENDBRANCH   7  11
ENDBRANCH   1   2
BRANCH   1  13
ATOM     13  O17 ZIN A   1      21.475   0.590  12.238  0.00  0.00    -0.389 OA
ATOM     14  H41 ZIN A   1      21.617   0.020  11.470  0.00  0.00     0.210 HD
ENDBRANCH   1  13
BRANCH   1  15
ATOM     15  C18 ZIN A   1      19.691   0.352  13.821  0.00  0.00    -0.014 A 
ATOM     16  C29 ZIN A   1      19.649  -0.995  14.040  0.00  0.00     0.030 A 
ATOM     17  C28 ZIN A   1      19.268  -1.485  15.287  0.00  0.00     0.118 A 
ATOM     18  N27 ZIN A   1      18.934  -0.685  16.270  0.00  0.00    -0.260 NA
ATOM     19  C26 ZIN A   1      18.948   0.643  16.120  0.00  0.00     0.067 A 
ATOM     20  C19 ZIN A   1      19.331   1.209  14.879  0.00  0.00     0.004 A 
ATOM     21  C25 ZIN A   1      18.588   1.495  17.180  0.00  0.00     0.035 A 
ATOM     22  C20 ZIN A   1      19.345   2.604  14.726  0.00  0.00     0.051 A 
ATOM     23  C21 ZIN A   1      18.988   3.401  15.776  0.00  0.00     0.069 A 
ATOM     24  C24 ZIN A   1      18.611   2.843  17.002  0.00  0.00     0.039 A 
BRANCH  23  25
ATOM     25  O22 ZIN A   1      19.001   4.752  15.628  0.00  0.00    -0.356 OA
ATOM     26  C23 ZIN A   1      20.252   5.415  15.827  0.00  0.00     0.210 C 
ENDBRANCH  23  25
ENDBRANCH   1  15
TORSDOF 5
ENDMDL
MODEL 3
REMARK VINA RESULT:      -7.5      2.607      6.893
REMARK  5 active torsions:
REMARK  status: ('A' for Active; 'I' for Inactive)
REMARK    1  A    between atoms: C2_2  and  C3_3 
REMARK    2  A    between atoms: C13_11  and  C15_12 
REMARK    3  A    between atoms: C15_12  and  O17_13 
REMARK    4  A    between atoms: C15_12  and  C18_14 
REMARK    5  A    between atoms: C21_17  and  O22_18 
ROOT
ATOM      1  C15 ZIN A   1      17.450   0.668  11.309  0.00  0.00     0.183 C 
ENDROOT
BRANCH   1   2
ATOM      2  C13 ZIN A   1      17.800   0.912   9.840  0.00  0.00     0.221 C 
ATOM      3  N6  ZIN A   1      19.256   0.991   9.692  0.00  0.00    -0.063 N 
ATOM      4  C5  ZIN A   1      19.618   1.258   8.297  0.00  0.00     0.244 C 
ATOM      5  H7  ZIN A   1      19.594   1.752  10.261  0.00  0.00     0.280 HD
ATOM      6  C8  ZIN A   1      19.880  -0.250  10.159  0.00  0.00     0.236 C 
ATOM      7  C3  ZIN A   1      19.114   0.126   7.400  0.00  0.00     0.037 C 
ATOM      8  C10 ZIN A   1      18.397  -0.916   8.267  0.00  0.00    -0.002 C 
ATOM      9  C9  ZIN A   1      19.385  -1.432   9.321  0.00  0.00     0.033 C 
ATOM     10  C12 ZIN A   1      17.237  -0.221   8.991  0.00  0.00     0.041 C 
BRANCH   7  11
ATOM     11  C2  ZIN A   1      18.156   0.680   6.377  0.00  0.00    -0.030 C 
ATOM     12  C1  ZIN A   1      17.908   0.009   5.280  0.00  0.00     0.007 C 
ENDBRANCH   7  11
ENDBRANCH   1   2
BRANCH   1  13
ATOM     13  O17 ZIN A   1      16.088   0.249  11.410  0.00  0.00    -0.389 OA
ATOM     14  H41 ZIN A   1      15.554   0.787  12.009  0.00  0.00     0.210 HD
ENDBRANCH   1  13
BRANCH   1  15
ATOM     15  C18 ZIN A   1      17.642   1.944  12.090  0.00  0.00    -0.014 A 
ATOM     16  C29 ZIN A   1      17.376   3.158  11.524  0.00  0.00     0.030 A 
ATOM     17  C28 ZIN A   1      17.556   4.324  12.266  0.00  0.00     0.118 A 
ATOM     18  N27 ZIN A   1      17.989   4.295  13.503  0.00  0.00    -0.260 NA
ATOM     19  C26 ZIN A   1      18.272   3.140  14.113  0.00  0.00     0.067 A 
ATOM     20  C19 ZIN A   1      18.106   1.916  13.418  0.00  0.00     0.004 A 
ATOM     21  C25 ZIN A   1      18.736   3.117  15.441  0.00  0.00     0.035 A 
ATOM     22  C20 ZIN A   1      18.406   0.705  14.062  0.00  0.00     0.051 A 
ATOM     23  C21 ZIN A   1      18.854   0.721  15.352  0.00  0.00     0.069 A 
ATOM     24  C24 ZIN A   1      19.018   1.928  16.038  0.00  0.00     0.039 A 
BRANCH  23  25
ATOM     25  O22 ZIN A   1      19.144  -0.452  15.976  0.00  0.00    -0.356 OA
ATOM     26  C23 ZIN A   1      18.058  -1.352  16.204  0.00  0.00     0.210 C 
ENDBRANCH  23  25
ENDBRANCH   1  15
TORSDOF 5
ENDMDL
MODEL 4
REMARK VINA RESULT:      -7.4      2.334      3.684
REMARK  5 active torsions:
REMARK  status: ('A' for Active; 'I' for Inactive)
REMARK    1  A    between atoms: C2_2  and  C3_3 
REMARK    2  A    between atoms: C13_11  and  C15_12 
REMARK    3  A    between atoms: C15_12  and  O17_13 
REMARK    4  A    between atoms: C15_12  and  C18_14 
REMARK    5  A    between atoms: C21_17  and  O22_18 
ROOT
ATOM      1  C15 ZIN A   1      17.530  -0.514  11.297  0.00  0.00     0.183 C 
ENDROOT
BRANCH   1   2
ATOM      2  C13 ZIN A   1      17.848  -0.700  12.782  0.00  0.00     0.221 C 
ATOM      3  N6  ZIN A   1      19.300  -0.689  12.976  0.00  0.00    -0.063 N 
ATOM      4  C5  ZIN A   1      19.634  -0.899  14.387  0.00  0.00     0.244 C 
ATOM      5  H7  ZIN A   1      19.700  -1.442  12.438  0.00  0.00     0.280 HD
ATOM      6  C8  ZIN A   1      19.865   0.576  12.494  0.00  0.00     0.236 C 
ATOM      7  C3  ZIN A   1      19.037   0.224  15.238  0.00  0.00     0.037 C 
ATOM      8  C10 ZIN A   1      18.287   1.199  14.323  0.00  0.00    -0.002 C 
ATOM      9  C9  ZIN A   1      19.275   1.746  13.285  0.00  0.00     0.033 C 
ATOM     10  C12 ZIN A   1      17.193   0.418  13.583  0.00  0.00     0.041 C 
BRANCH   7  11
ATOM     11  C2  ZIN A   1      18.080  -0.361  16.246  0.00  0.00    -0.030 C 
ATOM     12  C1  ZIN A   1      18.082  -1.650  16.479  0.00  0.00     0.007 C 
ENDBRANCH   7  11
ENDBRANCH   1   2
BRANCH   1  13
ATOM     13  O17 ZIN A   1      16.193  -0.033  11.153  0.00  0.00    -0.389 OA
ATOM     14  H41 ZIN A   1      15.848   0.413  11.938  0.00  0.00     0.210 HD
ENDBRANCH   1  13
BRANCH   1  15
ATOM     15  C18 ZIN A   1      17.668  -1.836  10.585  0.00  0.00    -0.014 A 
ATOM     16  C29 ZIN A   1      17.387  -3.009  11.224  0.00  0.00     0.030 A 
ATOM     17  C28 ZIN A   1      17.518  -4.219  10.545  0.00  0.00     0.118 A 
ATOM     18  N27 ZIN A   1      17.916  -4.270   9.297  0.00  0.00    -0.260 NA
ATOM     19  C26 ZIN A   1      18.212  -3.159   8.616  0.00  0.00     0.067 A 
ATOM     20  C19 ZIN A   1      18.096  -1.894   9.245  0.00  0.00     0.004 A 
ATOM     21  C25 ZIN A   1      18.638  -3.222   7.277  0.00  0.00     0.035 A 
ATOM     22  C20 ZIN A   1      18.407  -0.729   8.526  0.00  0.00     0.051 A 
ATOM     23  C21 ZIN A   1      18.819  -0.828   7.228  0.00  0.00     0.069 A 
ATOM     24  C24 ZIN A   1      18.934  -2.076   6.607  0.00  0.00     0.039 A 
BRANCH  23  25
ATOM     25  O22 ZIN A   1      19.122   0.299   6.532  0.00  0.00    -0.356 OA
ATOM     26  C23 ZIN A   1      19.255   0.170   5.115  0.00  0.00     0.210 C 
ENDBRANCH  23  25
ENDBRANCH   1  15
TORSDOF 5
ENDMDL
MODEL 5
REMARK VINA RESULT:      -7.3      2.401      4.047
REMARK  5 active torsions:
REMARK  status: ('A' for Active; 'I' for Inactive)
REMARK    1  A    between atoms: C2_2  and  C3_3 
REMARK    2  A    between atoms: C13_11  and  C15_12 
REMARK    3  A    between atoms: C15_12  and  O17_13 
REMARK    4  A    between atoms: C15_12  and  C18_14 
REMARK    5  A    between atoms: C21_17  and  O22_18 
ROOT
ATOM      1  C15 ZIN A   1      17.175   0.213  10.862  0.00  0.00     0.183 C 
ENDROOT
BRANCH   1   2
ATOM      2  C13 ZIN A   1      18.041   1.202  11.646  0.00  0.00     0.221 C 
ATOM      3  N6  ZIN A   1      19.327   1.371  10.966  0.00  0.00    -0.063 N 
ATOM      4  C5  ZIN A   1      20.190   2.288  11.715  0.00  0.00     0.244 C 
ATOM      5  H7  ZIN A   1      19.783   0.472  10.917  0.00  0.00     0.280 HD
ATOM      6  C8  ZIN A   1      19.117   1.860   9.600  0.00  0.00     0.236 C 
ATOM      7  C3  ZIN A   1      19.527   3.664  11.817  0.00  0.00     0.037 C 
ATOM      8  C10 ZIN A   1      18.175   3.620  11.095  0.00  0.00    -0.002 C 
ATOM      9  C9  ZIN A   1      18.420   3.222   9.633  0.00  0.00     0.033 C 
ATOM     10  C12 ZIN A   1      17.313   2.536  11.754  0.00  0.00     0.041 C 
BRANCH   7  11
ATOM     11  C2  ZIN A   1      19.315   4.015  13.267  0.00  0.00    -0.030 C 
ATOM     12  C1  ZIN A   1      19.545   5.235  13.686  0.00  0.00     0.007 C 
ENDBRANCH   7  11
ENDBRANCH   1   2
BRANCH   1  13
ATOM     13  O17 ZIN A   1      15.861   0.183  11.422  0.00  0.00    -0.389 OA
ATOM     14  H41 ZIN A   1      15.361  -0.615  11.208  0.00  0.00     0.210 HD
ENDBRANCH   1  13
BRANCH   1  15
ATOM     15  C18 ZIN A   1      17.787  -1.162  10.941  0.00  0.00    -0.014 A 
ATOM     16  C29 ZIN A   1      18.008  -1.763  12.147  0.00  0.00     0.030 A 
ATOM     17  C28 ZIN A   1      18.571  -3.037  12.196  0.00  0.00     0.118 A 
ATOM     18  N27 ZIN A   1      18.908  -3.684  11.107  0.00  0.00    -0.260 NA
ATOM     19  C26 ZIN A   1      18.723  -3.151   9.897  0.00  0.00     0.067 A 
ATOM     20  C19 ZIN A   1      18.151  -1.860   9.774  0.00  0.00     0.004 A 
ATOM     21  C25 ZIN A   1      19.088  -3.852   8.733  0.00  0.00     0.035 A 
ATOM     22  C20 ZIN A   1      17.958  -1.304   8.500  0.00  0.00     0.051 A 
ATOM     23  C21 ZIN A   1      18.325  -2.013   7.392  0.00  0.00     0.069 A 
ATOM     24  C24 ZIN A   1      18.890  -3.286   7.513  0.00  0.00     0.039 A 
BRANCH  23  25
ATOM     25  O22 ZIN A   1      18.139  -1.474   6.158  0.00  0.00    -0.356 OA
ATOM     26  C23 ZIN A   1      17.922  -0.062   6.092  0.00  0.00     0.210 C 
ENDBRANCH  23  25
ENDBRANCH   1  15
TORSDOF 5
ENDMDL
MODEL 6
REMARK VINA RESULT:      -7.1      2.410      3.760
REMARK  5 active torsions:
REMARK  status: ('A' for Active; 'I' for Inactive)
REMARK    1  A    between atoms: C2_2  and  C3_3 
REMARK    2  A    between atoms: C13_11  and  C15_12 
REMARK    3  A    between atoms: C15_12  and  O17_13 
REMARK    4  A    between atoms: C15_12  and  C18_14 
REMARK    5  A    between atoms: C21_17  and  O22_18 
ROOT
ATOM      1  C15 ZIN A   1      18.174  -1.418  10.916  0.00  0.00     0.183 C 
ENDROOT
BRANCH   1   2
ATOM      2  C13 ZIN A   1      18.221  -1.337  12.443  0.00  0.00     0.221 C 
ATOM      3  N6  ZIN A   1      19.610  -1.190  12.883  0.00  0.00    -0.063 N 
ATOM      4  C5  ZIN A   1      19.687  -1.143  14.345  0.00  0.00     0.244 C 
ATOM      5  H7  ZIN A   1      20.133  -1.991  12.562  0.00  0.00     0.280 HD
ATOM      6  C8  ZIN A   1      20.202   0.016  12.297  0.00  0.00     0.236 C 
ATOM      7  C3  ZIN A   1      18.897   0.057  14.872  0.00  0.00     0.037 C 
ATOM      8  C10 ZIN A   1      18.290   0.814  13.685  0.00  0.00    -0.002 C 
ATOM      9  C9  ZIN A   1      19.429   1.255  12.757  0.00  0.00     0.033 C 
ATOM     10  C12 ZIN A   1      17.384  -0.153  12.912  0.00  0.00     0.041 C 
BRANCH   7  11
ATOM     11  C2  ZIN A   1      17.796  -0.423  15.783  0.00  0.00    -0.030 C 
ATOM     12  C1  ZIN A   1      17.931  -1.551  16.436  0.00  0.00     0.007 C 
ENDBRANCH   7  11
ENDBRANCH   1   2
BRANCH   1  13
ATOM     13  O17 ZIN A   1      17.209  -0.491  10.419  0.00  0.00    -0.389 OA
ATOM     14  H41 ZIN A   1      16.663  -0.085  11.105  0.00  0.00     0.210 HD
ENDBRANCH   1  13
BRANCH   1  15
ATOM     15  C18 ZIN A   1      17.790  -2.815  10.499  0.00  0.00    -0.014 A 
ATOM     16  C29 ZIN A   1      17.127  -3.645  11.357  0.00  0.00     0.030 A 
ATOM     17  C28 ZIN A   1      16.778  -4.931  10.949  0.00  0.00     0.118 A 
ATOM     18  N27 ZIN A   1      17.078  -5.381   9.755  0.00  0.00    -0.260 NA
ATOM     19  C26 ZIN A   1      17.730  -4.622   8.870  0.00  0.00     0.067 A 
ATOM     20  C19 ZIN A   1      18.111  -3.302   9.218  0.00  0.00     0.004 A 
ATOM     21  C25 ZIN A   1      18.049  -5.112   7.591  0.00  0.00     0.035 A 
ATOM     22  C20 ZIN A   1      18.797  -2.508   8.285  0.00  0.00     0.051 A 
ATOM     23  C21 ZIN A   1      19.089  -3.017   7.053  0.00  0.00     0.069 A 
ATOM     24  C24 ZIN A   1      18.714  -4.319   6.709  0.00  0.00     0.039 A 
BRANCH  23  25
ATOM     25  O22 ZIN A   1      19.754  -2.248   6.150  0.00  0.00    -0.356 OA
ATOM     26  C23 ZIN A   1      19.021  -1.818   5.000  0.00  0.00     0.210 C 
ENDBRANCH  23  25
ENDBRANCH   1  15
TORSDOF 5
ENDMDL
MODEL 7
REMARK VINA RESULT:      -7.1      2.604      6.915
REMARK  5 active torsions:
REMARK  status: ('A' for Active; 'I' for Inactive)
REMARK    1  A    between atoms: C2_2  and  C3_3 
REMARK    2  A    between atoms: C13_11  and  C15_12 
REMARK    3  A    between atoms: C15_12  and  O17_13 
REMARK    4  A    between atoms: C15_12  and  C18_14 
REMARK    5  A    between atoms: C21_17  and  O22_18 
ROOT
ATOM      1  C15 ZIN A   1      17.296  -0.532  11.910  0.00  0.00     0.183 C 
ENDROOT
BRANCH   1   2
ATOM      2  C13 ZIN A   1      18.125   0.001  10.740  0.00  0.00     0.221 C 
ATOM      3  N6  ZIN A   1      19.275  -0.879  10.514  0.00  0.00    -0.063 N 
ATOM      4  C5  ZIN A   1      20.105  -0.372   9.419  0.00  0.00     0.244 C 
ATOM      5  H7  ZIN A   1      19.832  -0.898  11.355  0.00  0.00     0.280 HD
ATOM      6  C8  ZIN A   1      18.820  -2.242  10.228  0.00  0.00     0.236 C 
ATOM      7  C3  ZIN A   1      19.290  -0.321   8.124  0.00  0.00     0.037 C 
ATOM      8  C10 ZIN A   1      17.870  -0.824   8.410  0.00  0.00    -0.002 C 
ATOM      9  C9  ZIN A   1      17.963  -2.253   8.960  0.00  0.00     0.033 C 
ATOM     10  C12 ZIN A   1      17.253   0.071   9.492  0.00  0.00     0.041 C 
BRANCH   7  11
ATOM     11  C2  ZIN A   1      19.233   1.098   7.619  0.00  0.00    -0.030 C 
ATOM     12  C1  ZIN A   1      18.879   1.338   6.381  0.00  0.00     0.007 C 
ENDBRANCH   7  11
ENDBRANCH   1   2
BRANCH   1  13
ATOM     13  O17 ZIN A   1      15.967  -0.018  11.825  0.00  0.00    -0.389 OA
ATOM     14  H41 ZIN A   1      15.827   0.591  11.088  0.00  0.00     0.210 HD
ENDBRANCH   1  13
BRANCH   1  15
ATOM     15  C18 ZIN A   1      17.922  -0.094  13.209  0.00  0.00    -0.014 A 
ATOM     16  C29 ZIN A   1      18.331  -1.011  14.135  0.00  0.00     0.030 A 
ATOM     17  C28 ZIN A   1      18.912  -0.583  15.327  0.00  0.00     0.118 A 
ATOM     18  N27 ZIN A   1      19.072   0.689  15.599  0.00  0.00    -0.260 NA
ATOM     19  C26 ZIN A   1      18.689   1.637  14.739  0.00  0.00     0.067 A 
ATOM     20  C19 ZIN A   1      18.096   1.271  13.504  0.00  0.00     0.004 A 
ATOM     21  C25 ZIN A   1      18.865   3.000  15.037  0.00  0.00     0.035 A 
ATOM     22  C20 ZIN A   1      17.695   2.270  12.603  0.00  0.00     0.051 A 
ATOM     23  C21 ZIN A   1      17.880   3.584  12.927  0.00  0.00     0.069 A 
ATOM     24  C24 ZIN A   1      18.466   3.945  14.145  0.00  0.00     0.039 A 
BRANCH  23  25
ATOM     25  O22 ZIN A   1      17.492   4.551  12.055  0.00  0.00    -0.356 OA
ATOM     26  C23 ZIN A   1      17.355   4.172  10.684  0.00  0.00     0.210 C 
ENDBRANCH  23  25
ENDBRANCH   1  15
TORSDOF 5
ENDMDL
MODEL 8
REMARK VINA RESULT:      -6.9      1.916      2.777
REMARK  5 active torsions:
REMARK  status: ('A' for Active; 'I' for Inactive)
REMARK    1  A    between atoms: C2_2  and  C3_3 
REMARK    2  A    between atoms: C13_11  and  C15_12 
REMARK    3  A    between atoms: C15_12  and  O17_13 
REMARK    4  A    between atoms: C15_12  and  C18_14 
REMARK    5  A    between atoms: C21_17  and  O22_18 
ROOT
ATOM      1  C15 ZIN A   1      17.315   0.870  11.198  0.00  0.00     0.183 C 
ENDROOT
BRANCH   1   2
ATOM      2  C13 ZIN A   1      18.140   0.182  12.288  0.00  0.00     0.221 C 
ATOM      3  N6  ZIN A   1      19.332   0.982  12.576  0.00  0.00    -0.063 N 
ATOM      4  C5  ZIN A   1      20.159   0.328  13.594  0.00  0.00     0.244 C 
ATOM      5  H7  ZIN A   1      19.875   1.065  11.730  0.00  0.00     0.280 HD
ATOM      6  C8  ZIN A   1      18.945   2.327  13.012  0.00  0.00     0.236 C 
ATOM      7  C3  ZIN A   1      19.366   0.178  14.895  0.00  0.00     0.037 C 
ATOM      8  C10 ZIN A   1      17.965   0.769  14.695  0.00  0.00    -0.002 C 
ATOM      9  C9  ZIN A   1      18.113   2.243  14.294  0.00  0.00     0.033 C 
ATOM     10  C12 ZIN A   1      17.288   0.020  13.541  0.00  0.00     0.041 C 
BRANCH   7  11
ATOM     11  C2  ZIN A   1      19.253  -1.282  15.252  0.00  0.00    -0.030 C 
ATOM     12  C1  ZIN A   1      18.844  -1.635  16.446  0.00  0.00     0.007 C 
ENDBRANCH   7  11
ENDBRANCH   1   2
BRANCH   1  13
ATOM     13  O17 ZIN A   1      16.037   0.240  11.100  0.00  0.00    -0.389 OA
ATOM     14  H41 ZIN A   1      15.892  -0.230  10.268  0.00  0.00     0.210 HD
ENDBRANCH   1  13
BRANCH   1  15
ATOM     15  C18 ZIN A   1      18.034   0.757   9.878  0.00  0.00    -0.014 A 
ATOM     16  C29 ZIN A   1      18.503   1.868   9.238  0.00  0.00     0.030 A 
ATOM     17  C28 ZIN A   1      19.168   1.740   8.020  0.00  0.00     0.118 A 
ATOM     18  N27 ZIN A   1      19.354   0.572   7.455  0.00  0.00    -0.260 NA
ATOM     19  C26 ZIN A   1      18.915  -0.553   8.026  0.00  0.00     0.067 A 
ATOM     20  C19 ZIN A   1      18.234  -0.496   9.268  0.00  0.00     0.004 A 
ATOM     21  C25 ZIN A   1      19.118  -1.803   7.414  0.00  0.00     0.035 A 
ATOM     22  C20 ZIN A   1      17.775  -1.681   9.864  0.00  0.00     0.051 A 
ATOM     23  C21 ZIN A   1      17.990  -2.876   9.241  0.00  0.00     0.069 A 
ATOM     24  C24 ZIN A   1      18.661  -2.934   8.015  0.00  0.00     0.039 A 
BRANCH  23  25
ATOM     25  O22 ZIN A   1      17.544  -4.024   9.818  0.00  0.00    -0.356 OA
ATOM     26  C23 ZIN A   1      18.519  -5.033  10.090  0.00  0.00     0.210 C 
ENDBRANCH  23  25
ENDBRANCH   1  15
TORSDOF 5
ENDMDL
MODEL 9
REMARK VINA RESULT:      -6.9      2.767      3.919
REMARK  5 active torsions:
REMARK  status: ('A' for Active; 'I' for Inactive)
REMARK    1  A    between atoms: C2_2  and  C3_3 
REMARK    2  A    between atoms: C13_11  and  C15_12 
REMARK    3  A    between atoms: C15_12  and  O17_13 
REMARK    4  A    between atoms: C15_12  and  C18_14 
REMARK    5  A    between atoms: C21_17  and  O22_18 
ROOT
ATOM      1  C15 ZIN A   1      18.865   0.330  13.981  0.00  0.00     0.183 C 
ENDROOT
BRANCH   1   2
ATOM      2  C13 ZIN A   1      18.203   0.851  15.258  0.00  0.00     0.221 C 
ATOM      3  N6  ZIN A   1      17.393  -0.212  15.858  0.00  0.00    -0.063 N 
ATOM      4  C5  ZIN A   1      16.719   0.272  17.066  0.00  0.00     0.244 C 
ATOM      5  H7  ZIN A   1      16.690  -0.493  15.191  0.00  0.00     0.280 HD
ATOM      6  C8  ZIN A   1      18.232  -1.374  16.165  0.00  0.00     0.236 C 
ATOM      7  C3  ZIN A   1      17.756   0.715  18.101  0.00  0.00     0.037 C 
ATOM      8  C10 ZIN A   1      19.160   0.500  17.524  0.00  0.00    -0.002 C 
ATOM      9  C9  ZIN A   1      19.317  -0.985  17.171  0.00  0.00     0.033 C 
ATOM     10  C12 ZIN A   1      19.278   1.318  16.232  0.00  0.00     0.041 C 
BRANCH   7  11
ATOM     11  C2  ZIN A   1      17.558   2.174  18.421  0.00  0.00    -0.030 C 
ATOM     12  C1  ZIN A   1      16.795   2.527  19.426  0.00  0.00     0.007 C 
ENDBRANCH   7  11
ENDBRANCH   1   2
BRANCH   1  13
ATOM     13  O17 ZIN A   1      20.279   0.505  14.073  0.00  0.00    -0.389 OA
ATOM     14  H41 ZIN A   1      20.566   0.986  14.860  0.00  0.00     0.210 HD
ENDBRANCH   1  13
BRANCH   1  15
ATOM     15  C18 ZIN A   1      18.340   1.096  12.794  0.00  0.00    -0.014 A 
ATOM     16  C29 ZIN A   1      18.045   2.426  12.893  0.00  0.00     0.030 A 
ATOM     17  C28 ZIN A   1      17.565   3.116  11.781  0.00  0.00     0.118 A 
ATOM     18  N27 ZIN A   1      17.375   2.520  10.629  0.00  0.00    -0.260 NA
ATOM     19  C26 ZIN A   1      17.639   1.221  10.467  0.00  0.00     0.067 A 
ATOM     20  C19 ZIN A   1      18.134   0.460  11.556  0.00  0.00     0.004 A 
ATOM     21  C25 ZIN A   1      17.432   0.589   9.227  0.00  0.00     0.035 A 
ATOM     22  C20 ZIN A   1      18.410  -0.905  11.381  0.00  0.00     0.051 A 
ATOM     23  C21 ZIN A   1      18.197  -1.485  10.163  0.00  0.00     0.069 A 
ATOM     24  C24 ZIN A   1      17.708  -0.735   9.089  0.00  0.00     0.039 A 
BRANCH  23  25
ATOM     25  O22 ZIN A   1      18.463  -2.808   9.994  0.00  0.00    -0.356 OA
ATOM     26  C23 ZIN A   1      19.485  -3.374  10.817  0.00  0.00     0.210 C 
ENDBRANCH  23  25
ENDBRANCH   1  15
TORSDOF 5
ENDMDL
