MODEL 1
REMARK VINA RESULT:      -6.1      0.000      0.000
REMARK  8 active torsions:
REMARK  status: ('A' for Active; 'I' for Inactive)
REMARK    1  A    between atoms: O2_2  and  C3_3 
REMARK    2  A    between atoms: C6_6  and  O7_7 
REMARK    3  A    between atoms: C9_9  and  C10_10 
REMARK    4  A    between atoms: C10_10  and  O12_11 
REMARK    5  A    between atoms: C10_10  and  C13_12 
REMARK    6  A    between atoms: C13_12  and  N14_13 
REMARK       I    between atoms: N14_13  and  C15_14 
REMARK    7  A    between atoms: C15_14  and  C17_16 
REMARK    8  A    between atoms: C17_16  and  N18_17 
ROOT
ATOM      1  C10 ZIN A   1      18.128  -1.806   9.033  0.00  0.00     0.171 C 
ENDROOT
BRANCH   1   2
ATOM      2  C9  ZIN A   1      18.521  -1.040   7.798  0.00  0.00     0.008 A 
ATOM      3  C6  ZIN A   1      18.507   0.347   7.808  0.00  0.00     0.077 A 
ATOM      4  C5  ZIN A   1      18.867   1.053   6.669  0.00  0.00     0.040 A 
ATOM      5  C4  ZIN A   1      19.239   0.374   5.524  0.00  0.00     0.039 A 
ATOM      6  C3  ZIN A   1      19.253  -1.013   5.515  0.00  0.00     0.069 A 
ATOM      7  C22 ZIN A   1      18.888  -1.718   6.652  0.00  0.00     0.049 A 
BRANCH   3   8
ATOM      8  O7  ZIN A   1      18.141   1.015   8.934  0.00  0.00    -0.355 OA
ATOM      9  C8  ZIN A   1      18.877   2.196   9.257  0.00  0.00     0.210 C 
ENDBRANCH   3   8
BRANCH   6  10
ATOM     10  O2  ZIN A   1      19.620  -1.680   4.388  0.00  0.00    -0.356 OA
ATOM     11  C1  ZIN A   1      18.957  -2.918   4.122  0.00  0.00     0.210 C 
ENDBRANCH   6  10
ENDBRANCH   1   2
BRANCH   1  12
ATOM     12  O12 ZIN A   1      17.378  -2.963   8.659  0.00  0.00    -0.389 OA
ATOM     13  H31 ZIN A   1      17.087  -2.962   7.737  0.00  0.00     0.210 HD
ENDBRANCH   1  12
BRANCH   1  14
ATOM     14  C13 ZIN A   1      19.389  -2.238   9.787  0.00  0.00     0.159 C 
BRANCH  14  15
ATOM     15  N14 ZIN A   1      19.965  -1.081  10.477  0.00  0.00    -0.357 N 
ATOM     16  C15 ZIN A   1      19.583  -0.788  11.736  0.00  0.00     0.243 C 
ATOM     17  O16 ZIN A   1      18.763  -1.482  12.298  0.00  0.00    -0.272 OA
ATOM     18  H34 ZIN A   1      20.622  -0.525  10.028  0.00  0.00     0.162 HD
BRANCH  16  19
ATOM     19  C17 ZIN A   1      20.175   0.402  12.445  0.00  0.00     0.332 C 
BRANCH  19  20
ATOM     20  N18 ZIN A   1      21.585   0.551  12.057  0.00  0.00    -0.071 N 
ATOM     21  H19 ZIN A   1      21.639   0.958  11.135  0.00  0.00     0.274 HD
ATOM     22  H20 ZIN A   1      22.054   1.152  12.718  0.00  0.00     0.274 HD
ATOM     23  H21 ZIN A   1      22.030  -0.355  12.051  0.00  0.00     0.274 HD
ENDBRANCH  19  20
ENDBRANCH  16  19
ENDBRANCH  14  15
ENDBRANCH   1  14
TORSDOF 8
ENDMDL
MODEL 2
REMARK VINA RESULT:      -6.0      2.806      5.114
REMARK  8 active torsions:
REMARK  status: ('A' for Active; 'I' for Inactive)
REMARK    1  A    between atoms: O2_2  and  C3_3 
REMARK    2  A    between atoms: C6_6  and  O7_7 
REMARK    3  A    between atoms: C9_9  and  C10_10 
REMARK    4  A    between atoms: C10_10  and  O12_11 
REMARK    5  A    between atoms: C10_10  and  C13_12 
REMARK    6  A    between atoms: C13_12  and  N14_13 
REMARK       I    between atoms: N14_13  and  C15_14 
REMARK    7  A    between atoms: C15_14  and  C17_16 
REMARK    8  A    between atoms: C17_16  and  N18_17 
ROOT
ATOM      1  C10 ZIN A   1      20.365  -0.242  11.518  0.00  0.00     0.171 C 
ENDROOT
BRANCH   1   2
ATOM      2  C9  ZIN A   1      19.746   0.836  10.668  0.00  0.00     0.008 A 
ATOM      3  C6  ZIN A   1      19.555   0.627   9.310  0.00  0.00     0.077 A 
ATOM      4  C5  ZIN A   1      18.986   1.621   8.528  0.00  0.00     0.040 A 
ATOM      5  C4  ZIN A   1      18.610   2.820   9.101  0.00  0.00     0.039 A 
ATOM      6  C3  ZIN A   1      18.799   3.029  10.459  0.00  0.00     0.069 A 
ATOM      7  C22 ZIN A   1      19.373   2.037  11.240  0.00  0.00     0.049 A 
BRANCH   3   8
ATOM      8  O7  ZIN A   1      19.927  -0.553   8.746  0.00  0.00    -0.355 OA
ATOM      9  C8  ZIN A   1      18.886  -1.372   8.208  0.00  0.00     0.210 C 
ENDBRANCH   3   8
BRANCH   6  10
ATOM     10  O2  ZIN A   1      18.428   4.210  11.023  0.00  0.00    -0.356 OA
ATOM     11  C1  ZIN A   1      17.112   4.684  10.730  0.00  0.00     0.210 C 
ENDBRANCH   6  10
ENDBRANCH   1   2
BRANCH   1  12
ATOM     12  O12 ZIN A   1      21.653  -0.579  10.999  0.00  0.00    -0.389 OA
ATOM     13  H31 ZIN A   1      22.260   0.172  10.938  0.00  0.00     0.210 HD
ENDBRANCH   1  12
BRANCH   1  14
ATOM     14  C13 ZIN A   1      20.510   0.262  12.956  0.00  0.00     0.159 C 
BRANCH  14  15
ATOM     15  N14 ZIN A   1      19.946  -0.726  13.879  0.00  0.00    -0.357 N 
ATOM     16  C15 ZIN A   1      19.029  -0.348  14.791  0.00  0.00     0.243 C 
ATOM     17  O16 ZIN A   1      18.671   0.810  14.849  0.00  0.00    -0.272 OA
ATOM     18  H34 ZIN A   1      20.231  -1.652  13.833  0.00  0.00     0.162 HD
BRANCH  16  19
ATOM     19  C17 ZIN A   1      18.448  -1.364  15.741  0.00  0.00     0.332 C 
BRANCH  19  20
ATOM     20  N18 ZIN A   1      17.321  -0.765  16.469  0.00  0.00    -0.071 N 
ATOM     21  H19 ZIN A   1      17.482   0.225  16.583  0.00  0.00     0.274 HD
ATOM     22  H20 ZIN A   1      16.469  -0.910  15.948  0.00  0.00     0.274 HD
ATOM     23  H21 ZIN A   1      17.239  -1.198  17.377  0.00  0.00     0.274 HD
ENDBRANCH  19  20
ENDBRANCH  16  19
ENDBRANCH  14  15
ENDBRANCH   1  14
TORSDOF 8
ENDMDL
MODEL 3
REMARK VINA RESULT:      -5.9      2.432      3.761
REMARK  8 active torsions:
REMARK  status: ('A' for Active; 'I' for Inactive)
REMARK    1  A    between atoms: O2_2  and  C3_3 
REMARK    2  A    between atoms: C6_6  and  O7_7 
REMARK    3  A    between atoms: C9_9  and  C10_10 
REMARK    4  A    between atoms: C10_10  and  O12_11 
REMARK    5  A    between atoms: C10_10  and  C13_12 
REMARK    6  A    between atoms: C13_12  and  N14_13 
REMARK       I    between atoms: N14_13  and  C15_14 
REMARK    7  A    between atoms: C15_14  and  C17_16 
REMARK    8  A    between atoms: C17_16  and  N18_17 
ROOT
ATOM      1  C10 ZIN A   1      18.748   3.237  10.635  0.00  0.00     0.171 C 
ENDROOT
BRANCH   1   2
ATOM      2  C9  ZIN A   1      18.469   2.128   9.655  0.00  0.00     0.008 A 
ATOM      3  C6  ZIN A   1      17.621   1.088  10.006  0.00  0.00     0.077 A 
ATOM      4  C5  ZIN A   1      17.366   0.066   9.104  0.00  0.00     0.040 A 
ATOM      5  C4  ZIN A   1      17.956   0.083   7.856  0.00  0.00     0.039 A 
ATOM      6  C3  ZIN A   1      18.803   1.123   7.504  0.00  0.00     0.069 A 
ATOM      7  C22 ZIN A   1      19.063   2.142   8.408  0.00  0.00     0.049 A 
BRANCH   3   8
ATOM      8  O7  ZIN A   1      17.040   1.071  11.236  0.00  0.00    -0.355 OA
ATOM      9  C8  ZIN A   1      16.785  -0.211  11.816  0.00  0.00     0.210 C 
ENDBRANCH   3   8
BRANCH   6  10
ATOM     10  O2  ZIN A   1      19.384   1.140   6.275  0.00  0.00    -0.356 OA
ATOM     11  C1  ZIN A   1      19.009   0.103   5.365  0.00  0.00     0.210 C 
ENDBRANCH   6  10
ENDBRANCH   1   2
BRANCH   1  12
ATOM     12  O12 ZIN A   1      17.636   3.383  11.521  0.00  0.00    -0.389 OA
ATOM     13  H31 ZIN A   1      17.638   2.759  12.260  0.00  0.00     0.210 HD
ENDBRANCH   1  12
BRANCH   1  14
ATOM     14  C13 ZIN A   1      20.003   2.899  11.444  0.00  0.00     0.159 C 
BRANCH  14  15
ATOM     15  N14 ZIN A   1      19.622   2.157  12.648  0.00  0.00    -0.357 N 
ATOM     16  C15 ZIN A   1      20.103   0.914  12.853  0.00  0.00     0.243 C 
ATOM     17  O16 ZIN A   1      20.851   0.411  12.042  0.00  0.00    -0.272 OA
ATOM     18  H34 ZIN A   1      19.024   2.559  13.298  0.00  0.00     0.162 HD
BRANCH  16  19
ATOM     19  C17 ZIN A   1      19.711   0.150  14.092  0.00  0.00     0.332 C 
BRANCH  19  20
ATOM     20  N18 ZIN A   1      19.965  -1.282  13.884  0.00  0.00    -0.071 N 
ATOM     21  H19 ZIN A   1      20.924  -1.492  14.123  0.00  0.00     0.274 HD
ATOM     22  H20 ZIN A   1      19.346  -1.822  14.471  0.00  0.00     0.274 HD
ATOM     23  H21 ZIN A   1      19.802  -1.516  12.916  0.00  0.00     0.274 HD
ENDBRANCH  19  20
ENDBRANCH  16  19
ENDBRANCH  14  15
ENDBRANCH   1  14
TORSDOF 8
ENDMDL
MODEL 4
REMARK VINA RESULT:      -5.9      2.563      3.732
REMARK  8 active torsions:
REMARK  status: ('A' for Active; 'I' for Inactive)
REMARK    1  A    between atoms: O2_2  and  C3_3 
REMARK    2  A    between atoms: C6_6  and  O7_7 
REMARK    3  A    between atoms: C9_9  and  C10_10 
REMARK    4  A    between atoms: C10_10  and  O12_11 
REMARK    5  A    between atoms: C10_10  and  C13_12 
REMARK    6  A    between atoms: C13_12  and  N14_13 
REMARK       I    between atoms: N14_13  and  C15_14 
REMARK    7  A    between atoms: C15_14  and  C17_16 
REMARK    8  A    between atoms: C17_16  and  N18_17 
ROOT
ATOM      1  C10 ZIN A   1      20.556  -0.119  11.764  0.00  0.00     0.171 C 
ENDROOT
BRANCH   1   2
ATOM      2  C9  ZIN A   1      19.951   0.430  10.499  0.00  0.00     0.008 A 
ATOM      3  C6  ZIN A   1      19.579   1.765  10.431  0.00  0.00     0.077 A 
ATOM      4  C5  ZIN A   1      19.020   2.270   9.266  0.00  0.00     0.040 A 
ATOM      5  C4  ZIN A   1      18.835   1.445   8.174  0.00  0.00     0.039 A 
ATOM      6  C3  ZIN A   1      19.209   0.111   8.242  0.00  0.00     0.069 A 
ATOM      7  C22 ZIN A   1      19.762  -0.396   9.409  0.00  0.00     0.049 A 
BRANCH   3   8
ATOM      8  O7  ZIN A   1      19.760   2.577  11.506  0.00  0.00    -0.355 OA
ATOM      9  C8  ZIN A   1      18.879   3.696  11.630  0.00  0.00     0.210 C 
ENDBRANCH   3   8
BRANCH   6  10
ATOM     10  O2  ZIN A   1      19.027  -0.701   7.166  0.00  0.00    -0.356 OA
ATOM     11  C1  ZIN A   1      19.285  -2.094   7.354  0.00  0.00     0.210 C 
ENDBRANCH   6  10
ENDBRANCH   1   2
BRANCH   1  12
ATOM     12  O12 ZIN A   1      21.635   0.719  12.182  0.00  0.00    -0.389 OA
ATOM     13  H31 ZIN A   1      21.363   1.461  12.741  0.00  0.00     0.210 HD
ENDBRANCH   1  12
BRANCH   1  14
ATOM     14  C13 ZIN A   1      19.490  -0.163  12.862  0.00  0.00     0.159 C 
BRANCH  14  15
ATOM     15  N14 ZIN A   1      19.850   0.774  13.929  0.00  0.00    -0.357 N 
ATOM     16  C15 ZIN A   1      18.889   1.300  14.715  0.00  0.00     0.243 C 
ATOM     17  O16 ZIN A   1      17.728   0.999  14.539  0.00  0.00    -0.272 OA
ATOM     18  H34 ZIN A   1      20.778   1.015  14.071  0.00  0.00     0.162 HD
BRANCH  16  19
ATOM     19  C17 ZIN A   1      19.259   2.264  15.813  0.00  0.00     0.332 C 
BRANCH  19  20
ATOM     20  N18 ZIN A   1      19.621   3.561  15.223  0.00  0.00    -0.071 N 
ATOM     21  H19 ZIN A   1      20.170   4.090  15.885  0.00  0.00     0.274 HD
ATOM     22  H20 ZIN A   1      20.160   3.410  14.383  0.00  0.00     0.274 HD
ATOM     23  H21 ZIN A   1      18.782   4.074  14.997  0.00  0.00     0.274 HD
ENDBRANCH  19  20
ENDBRANCH  16  19
ENDBRANCH  14  15
ENDBRANCH   1  14
TORSDOF 8
ENDMDL
MODEL 5
REMARK VINA RESULT:      -5.9      3.386      6.437
REMARK  8 active torsions:
REMARK  status: ('A' for Active; 'I' for Inactive)
REMARK    1  A    between atoms: O2_2  and  C3_3 
REMARK    2  A    between atoms: C6_6  and  O7_7 
REMARK    3  A    between atoms: C9_9  and  C10_10 
REMARK    4  A    between atoms: C10_10  and  O12_11 
REMARK    5  A    between atoms: C10_10  and  C13_12 
REMARK    6  A    between atoms: C13_12  and  N14_13 
REMARK       I    between atoms: N14_13  and  C15_14 
REMARK    7  A    between atoms: C15_14  and  C17_16 
REMARK    8  A    between atoms: C17_16  and  N18_17 
ROOT
ATOM      1  C10 ZIN A   1      18.814  -0.437   4.966  0.00  0.00     0.171 C 
ENDROOT
BRANCH   1   2
ATOM      2  C9  ZIN A   1      18.973  -0.154   6.437  0.00  0.00     0.008 A 
ATOM      3  C6  ZIN A   1      19.261  -1.188   7.316  0.00  0.00     0.077 A 
ATOM      4  C5  ZIN A   1      19.405  -0.927   8.670  0.00  0.00     0.040 A 
ATOM      5  C4  ZIN A   1      19.261   0.363   9.145  0.00  0.00     0.039 A 
ATOM      6  C3  ZIN A   1      18.975   1.396   8.266  0.00  0.00     0.069 A 
ATOM      7  C22 ZIN A   1      18.825   1.135   6.912  0.00  0.00     0.049 A 
BRANCH   3   8
ATOM      8  O7  ZIN A   1      19.401  -2.457   6.849  0.00  0.00    -0.355 OA
ATOM      9  C8  ZIN A   1      19.134  -3.520   7.767  0.00  0.00     0.210 C 
ENDBRANCH   3   8
BRANCH   6  10
ATOM     10  O2  ZIN A   1      18.834   2.666   8.733  0.00  0.00    -0.356 OA
ATOM     11  C1  ZIN A   1      18.283   2.819  10.043  0.00  0.00     0.210 C 
ENDBRANCH   6  10
ENDBRANCH   1   2
BRANCH   1  12
ATOM     12  O12 ZIN A   1      19.990  -1.084   4.475  0.00  0.00    -0.389 OA
ATOM     13  H31 ZIN A   1      20.479  -1.574   5.150  0.00  0.00     0.210 HD
ENDBRANCH   1  12
BRANCH   1  14
ATOM     14  C13 ZIN A   1      17.602  -1.347   4.749  0.00  0.00     0.159 C 
BRANCH  14  15
ATOM     15  N14 ZIN A   1      18.050  -2.637   4.220  0.00  0.00    -0.357 N 
ATOM     16  C15 ZIN A   1      17.147  -3.523   3.753  0.00  0.00     0.243 C 
ATOM     17  O16 ZIN A   1      15.965  -3.251   3.771  0.00  0.00    -0.272 OA
ATOM     18  H34 ZIN A   1      18.995  -2.855   4.205  0.00  0.00     0.162 HD
BRANCH  16  19
ATOM     19  C17 ZIN A   1      17.607  -4.850   3.209  0.00  0.00     0.332 C 
BRANCH  19  20
ATOM     20  N18 ZIN A   1      18.531  -4.626   2.089  0.00  0.00    -0.071 N 
ATOM     21  H19 ZIN A   1      19.481  -4.766   2.402  0.00  0.00     0.274 HD
ATOM     22  H20 ZIN A   1      18.323  -5.277   1.345  0.00  0.00     0.274 HD
ATOM     23  H21 ZIN A   1      18.425  -3.682   1.748  0.00  0.00     0.274 HD
ENDBRANCH  19  20
ENDBRANCH  16  19
ENDBRANCH  14  15
ENDBRANCH   1  14
TORSDOF 8
ENDMDL
MODEL 6
REMARK VINA RESULT:      -5.8      2.669      5.561
REMARK  8 active torsions:
REMARK  status: ('A' for Active; 'I' for Inactive)
REMARK    1  A    between atoms: O2_2  and  C3_3 
REMARK    2  A    between atoms: C6_6  and  O7_7 
REMARK    3  A    between atoms: C9_9  and  C10_10 
REMARK    4  A    between atoms: C10_10  and  O12_11 
REMARK    5  A    between atoms: C10_10  and  C13_12 
REMARK    6  A    between atoms: C13_12  and  N14_13 
REMARK       I    between atoms: N14_13  and  C15_14 
REMARK    7  A    between atoms: C15_14  and  C17_16 
REMARK    8  A    between atoms: C17_16  and  N18_17 
ROOT
ATOM      1  C10 ZIN A   1      20.396   0.135  11.574  0.00  0.00     0.171 C 
ENDROOT
BRANCH   1   2
ATOM      2  C9  ZIN A   1      19.674   1.341  11.033  0.00  0.00     0.008 A 
ATOM      3  C6  ZIN A   1      19.205   1.342   9.728  0.00  0.00     0.077 A 
ATOM      4  C5  ZIN A   1      18.541   2.454   9.230  0.00  0.00     0.040 A 
ATOM      5  C4  ZIN A   1      18.346   3.559  10.034  0.00  0.00     0.039 A 
ATOM      6  C3  ZIN A   1      18.813   3.557  11.340  0.00  0.00     0.069 A 
ATOM      7  C22 ZIN A   1      19.482   2.448  11.836  0.00  0.00     0.049 A 
BRANCH   3   8
ATOM      8  O7  ZIN A   1      19.399   0.254   8.936  0.00  0.00    -0.355 OA
ATOM      9  C8  ZIN A   1      18.233  -0.367   8.390  0.00  0.00     0.210 C 
ENDBRANCH   3   8
BRANCH   6  10
ATOM     10  O2  ZIN A   1      18.620   4.646  12.132  0.00  0.00    -0.356 OA
ATOM     11  C1  ZIN A   1      19.650   4.955  13.073  0.00  0.00     0.210 C 
ENDBRANCH   6  10
ENDBRANCH   1   2
BRANCH   1  12
ATOM     12  O12 ZIN A   1      21.634   0.543  12.161  0.00  0.00    -0.389 OA
ATOM     13  H31 ZIN A   1      21.571   0.755  13.102  0.00  0.00     0.210 HD
ENDBRANCH   1  12
BRANCH   1  14
ATOM     14  C13 ZIN A   1      19.529  -0.547  12.635  0.00  0.00     0.159 C 
BRANCH  14  15
ATOM     15  N14 ZIN A   1      19.097  -1.858  12.144  0.00  0.00    -0.357 N 
ATOM     16  C15 ZIN A   1      17.810  -2.057  11.799  0.00  0.00     0.243 C 
ATOM     17  O16 ZIN A   1      17.008  -1.152  11.895  0.00  0.00    -0.272 OA
ATOM     18  H34 ZIN A   1      19.738  -2.582  12.068  0.00  0.00     0.162 HD
BRANCH  16  19
ATOM     19  C17 ZIN A   1      17.366  -3.406  11.295  0.00  0.00     0.332 C 
BRANCH  19  20
ATOM     20  N18 ZIN A   1      17.777  -3.564   9.893  0.00  0.00    -0.071 N 
ATOM     21  H19 ZIN A   1      18.779  -3.460   9.822  0.00  0.00     0.274 HD
ATOM     22  H20 ZIN A   1      17.510  -4.481   9.565  0.00  0.00     0.274 HD
ATOM     23  H21 ZIN A   1      17.326  -2.860   9.329  0.00  0.00     0.274 HD
ENDBRANCH  19  20
ENDBRANCH  16  19
ENDBRANCH  14  15
ENDBRANCH   1  14
TORSDOF 8
ENDMDL
MODEL 7
REMARK VINA RESULT:      -5.7      2.630      7.301
REMARK  8 active torsions:
REMARK  status: ('A' for Active; 'I' for Inactive)
REMARK    1  A    between atoms: O2_2  and  C3_3 
REMARK    2  A    between atoms: C6_6  and  O7_7 
REMARK    3  A    between atoms: C9_9  and  C10_10 
REMARK    4  A    between atoms: C10_10  and  O12_11 
REMARK    5  A    between atoms: C10_10  and  C13_12 
REMARK    6  A    between atoms: C13_12  and  N14_13 
REMARK       I    between atoms: N14_13  and  C15_14 
REMARK    7  A    between atoms: C15_14  and  C17_16 
REMARK    8  A    between atoms: C17_16  and  N18_17 
ROOT
ATOM      1  C10 ZIN A   1      20.452   1.051  12.224  0.00  0.00     0.171 C 
ENDROOT
BRANCH   1   2
ATOM      2  C9  ZIN A   1      19.734   0.395  13.374  0.00  0.00     0.008 A 
ATOM      3  C6  ZIN A   1      19.337  -0.930  13.280  0.00  0.00     0.077 A 
ATOM      4  C5  ZIN A   1      18.674  -1.533  14.339  0.00  0.00     0.040 A 
ATOM      5  C4  ZIN A   1      18.410  -0.814  15.488  0.00  0.00     0.039 A 
ATOM      6  C3  ZIN A   1      18.808   0.511  15.583  0.00  0.00     0.069 A 
ATOM      7  C22 ZIN A   1      19.466   1.116  14.522  0.00  0.00     0.049 A 
BRANCH   3   8
ATOM      8  O7  ZIN A   1      19.596  -1.638  12.148  0.00  0.00    -0.355 OA
ATOM      9  C8  ZIN A   1      18.617  -2.598  11.744  0.00  0.00     0.210 C 
ENDBRANCH   3   8
BRANCH   6  10
ATOM     10  O2  ZIN A   1      18.549   1.219  16.715  0.00  0.00    -0.356 OA
ATOM     11  C1  ZIN A   1      19.246   2.455  16.882  0.00  0.00     0.210 C 
ENDBRANCH   6  10
ENDBRANCH   1   2
BRANCH   1  12
ATOM     12  O12 ZIN A   1      21.513   0.204  11.778  0.00  0.00    -0.389 OA
ATOM     13  H31 ZIN A   1      21.728   0.304  10.840  0.00  0.00     0.210 HD
ENDBRANCH   1  12
BRANCH   1  14
ATOM     14  C13 ZIN A   1      19.468   1.284  11.075  0.00  0.00     0.159 C 
BRANCH  14  15
ATOM     15  N14 ZIN A   1      19.829   0.428   9.942  0.00  0.00    -0.357 N 
ATOM     16  C15 ZIN A   1      18.910   0.132   9.002  0.00  0.00     0.243 C 
ATOM     17  O16 ZIN A   1      17.784   0.572   9.094  0.00  0.00    -0.272 OA
ATOM     18  H34 ZIN A   1      20.730   0.075   9.868  0.00  0.00     0.162 HD
BRANCH  16  19
ATOM     19  C17 ZIN A   1      19.281  -0.749   7.837  0.00  0.00     0.332 C 
BRANCH  19  20
ATOM     20  N18 ZIN A   1      19.653  -2.082   8.331  0.00  0.00    -0.071 N 
ATOM     21  H19 ZIN A   1      18.818  -2.600   8.562  0.00  0.00     0.274 HD
ATOM     22  H20 ZIN A   1      20.167  -2.575   7.615  0.00  0.00     0.274 HD
ATOM     23  H21 ZIN A   1      20.229  -1.988   9.154  0.00  0.00     0.274 HD
ENDBRANCH  19  20
ENDBRANCH  16  19
ENDBRANCH  14  15
ENDBRANCH   1  14
TORSDOF 8
ENDMDL
MODEL 8
REMARK VINA RESULT:      -5.6      3.822      7.011
REMARK  8 active torsions:
REMARK  status: ('A' for Active; 'I' for Inactive)
REMARK    1  A    between atoms: O2_2  and  C3_3 
REMARK    2  A    between atoms: C6_6  and  O7_7 
REMARK    3  A    between atoms: C9_9  and  C10_10 
REMARK    4  A    between atoms: C10_10  and  O12_11 
REMARK    5  A    between atoms: C10_10  and  C13_12 
REMARK    6  A    between atoms: C13_12  and  N14_13 
REMARK       I    between atoms: N14_13  and  C15_14 
REMARK    7  A    between atoms: C15_14  and  C17_16 
REMARK    8  A    between atoms: C17_16  and  N18_17 
ROOT
ATOM      1  C10 ZIN A   1      20.603   0.449  11.550  0.00  0.00     0.171 C 
ENDROOT
BRANCH   1   2
ATOM      2  C9  ZIN A   1      19.889  -0.103  12.756  0.00  0.00     0.008 A 
ATOM      3  C6  ZIN A   1      19.308  -1.361  12.703  0.00  0.00     0.077 A 
ATOM      4  C5  ZIN A   1      18.650  -1.869  13.814  0.00  0.00     0.040 A 
ATOM      5  C4  ZIN A   1      18.572  -1.121  14.972  0.00  0.00     0.039 A 
ATOM      6  C3  ZIN A   1      19.153   0.137  15.025  0.00  0.00     0.069 A 
ATOM      7  C22 ZIN A   1      19.807   0.647  13.913  0.00  0.00     0.049 A 
BRANCH   3   8
ATOM      8  O7  ZIN A   1      19.384  -2.097  11.562  0.00  0.00    -0.355 OA
ATOM      9  C8  ZIN A   1      18.161  -2.633  11.052  0.00  0.00     0.210 C 
ENDBRANCH   3   8
BRANCH   6  10
ATOM     10  O2  ZIN A   1      19.077   0.873  16.166  0.00  0.00    -0.356 OA
ATOM     11  C1  ZIN A   1      18.987   0.154  17.398  0.00  0.00     0.210 C 
ENDBRANCH   6  10
ENDBRANCH   1   2
BRANCH   1  12
ATOM     12  O12 ZIN A   1      21.522  -0.525  11.052  0.00  0.00    -0.389 OA
ATOM     13  H31 ZIN A   1      21.851  -1.136  11.725  0.00  0.00     0.210 HD
ENDBRANCH   1  12
BRANCH   1  14
ATOM     14  C13 ZIN A   1      19.579   0.788  10.463  0.00  0.00     0.159 C 
BRANCH  14  15
ATOM     15  N14 ZIN A   1      19.122   2.169  10.637  0.00  0.00    -0.357 N 
ATOM     16  C15 ZIN A   1      17.850   2.414  11.011  0.00  0.00     0.243 C 
ATOM     17  O16 ZIN A   1      17.085   1.493  11.204  0.00  0.00    -0.272 OA
ATOM     18  H34 ZIN A   1      19.733   2.906  10.483  0.00  0.00     0.162 HD
BRANCH  16  19
ATOM     19  C17 ZIN A   1      17.379   3.835  11.189  0.00  0.00     0.332 C 
BRANCH  19  20
ATOM     20  N18 ZIN A   1      17.727   4.618   9.996  0.00  0.00    -0.071 N 
ATOM     21  H19 ZIN A   1      18.478   4.161   9.500  0.00  0.00     0.274 HD
ATOM     22  H20 ZIN A   1      16.920   4.689   9.393  0.00  0.00     0.274 HD
ATOM     23  H21 ZIN A   1      18.021   5.543  10.274  0.00  0.00     0.274 HD
ENDBRANCH  19  20
ENDBRANCH  16  19
ENDBRANCH  14  15
ENDBRANCH   1  14
TORSDOF 8
ENDMDL
MODEL 9
REMARK VINA RESULT:      -5.5      2.597      6.564
REMARK  8 active torsions:
REMARK  status: ('A' for Active; 'I' for Inactive)
REMARK    1  A    between atoms: O2_2  and  C3_3 
REMARK    2  A    between atoms: C6_6  and  O7_7 
REMARK    3  A    between atoms: C9_9  and  C10_10 
REMARK    4  A    between atoms: C10_10  and  O12_11 
REMARK    5  A    between atoms: C10_10  and  C13_12 
REMARK    6  A    between atoms: C13_12  and  N14_13 
REMARK       I    between atoms: N14_13  and  C15_14 
REMARK    7  A    between atoms: C15_14  and  C17_16 
REMARK    8  A    between atoms: C17_16  and  N18_17 
ROOT
ATOM      1  C10 ZIN A   1      20.641   0.373  11.556  0.00  0.00     0.171 C 
ENDROOT
BRANCH   1   2
ATOM      2  C9  ZIN A   1      19.509   0.411  12.548  0.00  0.00     0.008 A 
ATOM      3  C6  ZIN A   1      18.241   0.799  12.140  0.00  0.00     0.077 A 
ATOM      4  C5  ZIN A   1      17.199   0.836  13.055  0.00  0.00     0.040 A 
ATOM      5  C4  ZIN A   1      17.423   0.485  14.372  0.00  0.00     0.039 A 
ATOM      6  C3  ZIN A   1      18.690   0.095  14.779  0.00  0.00     0.069 A 
ATOM      7  C22 ZIN A   1      19.734   0.064  13.866  0.00  0.00     0.049 A 
BRANCH   3   8
ATOM      8  O7  ZIN A   1      18.021   1.146  10.844  0.00  0.00    -0.355 OA
ATOM      9  C8  ZIN A   1      17.751   2.524  10.577  0.00  0.00     0.210 C 
ENDBRANCH   3   8
BRANCH   6  10
ATOM     10  O2  ZIN A   1      18.911  -0.251  16.076  0.00  0.00    -0.356 OA
ATOM     11  C1  ZIN A   1      17.773  -0.290  16.940  0.00  0.00     0.210 C 
ENDBRANCH   6  10
ENDBRANCH   1   2
BRANCH   1  12
ATOM     12  O12 ZIN A   1      21.877   0.614  12.231  0.00  0.00    -0.389 OA
ATOM     13  H31 ZIN A   1      22.423   1.298  11.820  0.00  0.00     0.210 HD
ENDBRANCH   1  12
BRANCH   1  14
ATOM     14  C13 ZIN A   1      20.686  -1.003  10.886  0.00  0.00     0.159 C 
BRANCH  14  15
ATOM     15  N14 ZIN A   1      20.000  -0.939   9.593  0.00  0.00    -0.357 N 
ATOM     16  C15 ZIN A   1      18.886  -1.670   9.385  0.00  0.00     0.243 C 
ATOM     17  O16 ZIN A   1      18.453  -2.380  10.268  0.00  0.00    -0.272 OA
ATOM     18  H34 ZIN A   1      20.347  -0.372   8.887  0.00  0.00     0.162 HD
BRANCH  16  19
ATOM     19  C17 ZIN A   1      18.181  -1.605   8.055  0.00  0.00     0.332 C 
BRANCH  19  20
ATOM     20  N18 ZIN A   1      17.201  -0.510   8.075  0.00  0.00    -0.071 N 
ATOM     21  H19 ZIN A   1      17.520   0.216   8.700  0.00  0.00     0.274 HD
ATOM     22  H20 ZIN A   1      17.100  -0.132   7.144  0.00  0.00     0.274 HD
ATOM     23  H21 ZIN A   1      16.310  -0.861   8.394  0.00  0.00     0.274 HD
ENDBRANCH  19  20
ENDBRANCH  16  19
ENDBRANCH  14  15
ENDBRANCH   1  14
TORSDOF 8
ENDMDL
