MODEL 1
REMARK VINA RESULT:      -7.8      0.000      0.000
REMARK  2 active torsions:
REMARK  status: ('A' for Active; 'I' for Inactive)
REMARK    1  A    between atoms: C5_5  and  C6_6 
REMARK    2  A    between atoms: C15_15  and  N16_16 
ROOT
ATOM      1  O1  ZIN A   1      19.253   3.762  11.627  0.00  0.00    -0.271 OA
ATOM      2  C2  ZIN A   1      18.816   2.875  10.925  0.00  0.00     0.242 C 
ATOM      3  C3  ZIN A   1      17.537   2.189  11.322  0.00  0.00     0.252 C 
ATOM      4  N4  ZIN A   1      17.818   0.781  11.592  0.00  0.00    -0.279 NA
ATOM      5  C5  ZIN A   1      18.242  -0.016  10.674  0.00  0.00     0.076 C 
ATOM      6  C13 ZIN A   1      18.485   0.367   9.274  0.00  0.00     0.022 A 
ATOM      7  C14 ZIN A   1      18.104  -0.542   8.276  0.00  0.00     0.052 A 
ATOM      8  C15 ZIN A   1      18.303  -0.244   6.948  0.00  0.00     0.103 A 
ATOM      9  C19 ZIN A   1      18.881   0.961   6.587  0.00  0.00     0.038 A 
ATOM     10  C20 ZIN A   1      19.260   1.864   7.555  0.00  0.00     0.033 A 
ATOM     11  C21 ZIN A   1      19.069   1.578   8.908  0.00  0.00     0.047 A 
ATOM     12  N22 ZIN A   1      19.478   2.537   9.822  0.00  0.00    -0.325 N 
ATOM     13  H32 ZIN A   1      20.317   2.992   9.646  0.00  0.00     0.169 HD
ENDROOT
BRANCH   5  14
ATOM     14  C6  ZIN A   1      18.504  -1.423  11.056  0.00  0.00     0.015 A 
ATOM     15  C11 ZIN A   1      19.817  -1.875  11.209  0.00  0.00     0.046 A 
ATOM     16  C10 ZIN A   1      20.054  -3.186  11.569  0.00  0.00     0.025 A 
ATOM     17 Cl12 ZIN A   1      21.146  -0.786  10.959  0.00  0.00    -0.083 Cl
ATOM     18  C9  ZIN A   1      18.995  -4.054  11.768  0.00  0.00     0.002 A 
ATOM     19  C8  ZIN A   1      17.693  -3.613  11.612  0.00  0.00     0.001 A 
ATOM     20  C7  ZIN A   1      17.442  -2.303  11.257  0.00  0.00     0.015 A 
ENDBRANCH   5  14
BRANCH   8  21
ATOM     21  N16 ZIN A   1      17.898  -1.213   5.904  0.00  0.00    -0.116 N 
ATOM     22  O17 ZIN A   1      18.353  -2.342   5.912  0.00  0.00    -0.532 OA
ATOM     23  O18 ZIN A   1      17.109  -0.881   5.038  0.00  0.00    -0.532 OA
ENDBRANCH   8  21
TORSDOF 2
ENDMDL
MODEL 2
REMARK VINA RESULT:      -7.5      3.458      4.928
REMARK  2 active torsions:
REMARK  status: ('A' for Active; 'I' for Inactive)
REMARK    1  A    between atoms: C5_5  and  C6_6 
REMARK    2  A    between atoms: C15_15  and  N16_16 
ROOT
ATOM      1  O1  ZIN A   1      19.270  -0.107  15.378  0.00  0.00    -0.271 OA
ATOM      2  C2  ZIN A   1      18.785   0.531  14.467  0.00  0.00     0.242 C 
ATOM      3  C3  ZIN A   1      17.468   0.094  13.886  0.00  0.00     0.252 C 
ATOM      4  N4  ZIN A   1      17.668  -0.281  12.488  0.00  0.00    -0.279 NA
ATOM      5  C5  ZIN A   1      18.048   0.573  11.603  0.00  0.00     0.076 C 
ATOM      6  C13 ZIN A   1      18.316   1.996  11.867  0.00  0.00     0.022 A 
ATOM      7  C14 ZIN A   1      17.886   2.927  10.910  0.00  0.00     0.052 A 
ATOM      8  C15 ZIN A   1      18.105   4.272  11.098  0.00  0.00     0.103 A 
ATOM      9  C19 ZIN A   1      18.752   4.717  12.238  0.00  0.00     0.038 A 
ATOM     10  C20 ZIN A   1      19.179   3.815  13.187  0.00  0.00     0.033 A 
ATOM     11  C21 ZIN A   1      18.968   2.446  13.013  0.00  0.00     0.047 A 
ATOM     12  N22 ZIN A   1      19.430   1.602  14.012  0.00  0.00    -0.325 N 
ATOM     13  H32 ZIN A   1      20.293   1.806  14.405  0.00  0.00     0.169 HD
ENDROOT
BRANCH   5  14
ATOM     14  C6  ZIN A   1      18.228   0.088  10.216  0.00  0.00     0.015 A 
ATOM     15  C11 ZIN A   1      19.473  -0.386   9.795  0.00  0.00     0.046 A 
ATOM     16  C10 ZIN A   1      19.633  -0.841   8.502  0.00  0.00     0.025 A 
ATOM     17 Cl12 ZIN A   1      20.812  -0.414  10.900  0.00  0.00    -0.083 Cl
ATOM     18  C9  ZIN A   1      18.567  -0.819   7.620  0.00  0.00     0.002 A 
ATOM     19  C8  ZIN A   1      17.334  -0.346   8.030  0.00  0.00     0.001 A 
ATOM     20  C7  ZIN A   1      17.158   0.107   9.322  0.00  0.00     0.015 A 
ENDBRANCH   5  14
BRANCH   8  21
ATOM     21  N16 ZIN A   1      17.647   5.244  10.079  0.00  0.00    -0.116 N 
ATOM     22  O17 ZIN A   1      17.062   6.255  10.422  0.00  0.00    -0.532 OA
ATOM     23  O18 ZIN A   1      17.858   5.033   8.898  0.00  0.00    -0.532 OA
ENDBRANCH   8  21
TORSDOF 2
ENDMDL
MODEL 3
REMARK VINA RESULT:      -7.5      4.097      7.685
REMARK  2 active torsions:
REMARK  status: ('A' for Active; 'I' for Inactive)
REMARK    1  A    between atoms: C5_5  and  C6_6 
REMARK    2  A    between atoms: C15_15  and  N16_16 
ROOT
ATOM      1  O1  ZIN A   1      17.904  -1.333  10.417  0.00  0.00    -0.271 OA
ATOM      2  C2  ZIN A   1      17.810  -0.835  11.520  0.00  0.00     0.242 C 
ATOM      3  C3  ZIN A   1      16.634   0.049  11.827  0.00  0.00     0.252 C 
ATOM      4  N4  ZIN A   1      17.117   1.399  12.110  0.00  0.00    -0.279 NA
ATOM      5  C5  ZIN A   1      17.875   1.653  13.118  0.00  0.00     0.076 C 
ATOM      6  C13 ZIN A   1      18.338   0.654  14.094  0.00  0.00     0.022 A 
ATOM      7  C14 ZIN A   1      18.367   1.030  15.445  0.00  0.00     0.052 A 
ATOM      8  C15 ZIN A   1      18.788   0.143  16.408  0.00  0.00     0.103 A 
ATOM      9  C19 ZIN A   1      19.187  -1.134  16.048  0.00  0.00     0.038 A 
ATOM     10  C20 ZIN A   1      19.164  -1.518  14.726  0.00  0.00     0.033 A 
ATOM     11  C21 ZIN A   1      18.742  -0.631  13.734  0.00  0.00     0.047 A 
ATOM     12  N22 ZIN A   1      18.750  -1.092  12.427  0.00  0.00    -0.325 N 
ATOM     13  H32 ZIN A   1      19.502  -1.638  12.151  0.00  0.00     0.169 HD
ENDROOT
BRANCH   5  14
ATOM     14  C6  ZIN A   1      18.316   3.054  13.309  0.00  0.00     0.015 A 
ATOM     15  C11 ZIN A   1      19.426   3.541  12.615  0.00  0.00     0.046 A 
ATOM     16  C10 ZIN A   1      19.827   4.849  12.795  0.00  0.00     0.025 A 
ATOM     17 Cl12 ZIN A   1      20.289   2.507  11.520  0.00  0.00    -0.083 Cl
ATOM     18  C9  ZIN A   1      19.140   5.674  13.668  0.00  0.00     0.002 A 
ATOM     19  C8  ZIN A   1      18.043   5.194  14.362  0.00  0.00     0.001 A 
ATOM     20  C7  ZIN A   1      17.627   3.890  14.187  0.00  0.00     0.015 A 
ENDBRANCH   5  14
BRANCH   8  21
ATOM     21  N16 ZIN A   1      18.815   0.553  17.831  0.00  0.00    -0.116 N 
ATOM     22  O17 ZIN A   1      17.772   0.696  18.442  0.00  0.00    -0.532 OA
ATOM     23  O18 ZIN A   1      19.880   0.746  18.389  0.00  0.00    -0.532 OA
ENDBRANCH   8  21
TORSDOF 2
ENDMDL
MODEL 4
REMARK VINA RESULT:      -7.5      2.577      4.713
REMARK  2 active torsions:
REMARK  status: ('A' for Active; 'I' for Inactive)
REMARK    1  A    between atoms: C5_5  and  C6_6 
REMARK    2  A    between atoms: C15_15  and  N16_16 
ROOT
ATOM      1  O1  ZIN A   1      18.313  -4.432  12.011  0.00  0.00    -0.271 OA
ATOM      2  C2  ZIN A   1      18.704  -3.714  11.115  0.00  0.00     0.242 C 
ATOM      3  C3  ZIN A   1      19.926  -2.866  11.335  0.00  0.00     0.252 C 
ATOM      4  N4  ZIN A   1      19.547  -1.457  11.251  0.00  0.00    -0.279 NA
ATOM      5  C5  ZIN A   1      19.090  -0.940  10.165  0.00  0.00     0.076 C 
ATOM      6  C13 ZIN A   1      18.900  -1.669   8.901  0.00  0.00     0.022 A 
ATOM      7  C14 ZIN A   1      19.239  -1.007   7.711  0.00  0.00     0.052 A 
ATOM      8  C15 ZIN A   1      19.087  -1.633   6.496  0.00  0.00     0.103 A 
ATOM      9  C19 ZIN A   1      18.597  -2.927   6.439  0.00  0.00     0.038 A 
ATOM     10  C20 ZIN A   1      18.260  -3.590   7.598  0.00  0.00     0.033 A 
ATOM     11  C21 ZIN A   1      18.406  -2.970   8.841  0.00  0.00     0.047 A 
ATOM     12  N22 ZIN A   1      18.043  -3.703   9.960  0.00  0.00    -0.325 N 
ATOM     13  H32 ZIN A   1      17.239  -4.244   9.899  0.00  0.00     0.169 HD
ENDROOT
BRANCH   5  14
ATOM     14  C6  ZIN A   1      18.727   0.496  10.189  0.00  0.00     0.015 A 
ATOM     15  C11 ZIN A   1      17.663   0.937  10.979  0.00  0.00     0.046 A 
ATOM     16  C10 ZIN A   1      17.333   2.277  11.000  0.00  0.00     0.025 A 
ATOM     17 Cl12 ZIN A   1      16.765  -0.196  11.941  0.00  0.00    -0.083 Cl
ATOM     18  C9  ZIN A   1      18.048   3.181  10.234  0.00  0.00     0.002 A 
ATOM     19  C8  ZIN A   1      19.099   2.748   9.446  0.00  0.00     0.001 A 
ATOM     20  C7  ZIN A   1      19.443   1.412   9.419  0.00  0.00     0.015 A 
ENDBRANCH   5  14
BRANCH   8  21
ATOM     21  N16 ZIN A   1      19.448  -0.922   5.248  0.00  0.00    -0.116 N 
ATOM     22  O17 ZIN A   1      19.435   0.294   5.215  0.00  0.00    -0.532 OA
ATOM     23  O18 ZIN A   1      19.757  -1.556   4.255  0.00  0.00    -0.532 OA
ENDBRANCH   8  21
TORSDOF 2
ENDMDL
MODEL 5
REMARK VINA RESULT:      -7.3      3.628      4.437
REMARK  2 active torsions:
REMARK  status: ('A' for Active; 'I' for Inactive)
REMARK    1  A    between atoms: C5_5  and  C6_6 
REMARK    2  A    between atoms: C15_15  and  N16_16 
ROOT
ATOM      1  O1  ZIN A   1      20.341   5.778  14.608  0.00  0.00    -0.271 OA
ATOM      2  C2  ZIN A   1      19.601   4.936  14.144  0.00  0.00     0.242 C 
ATOM      3  C3  ZIN A   1      18.284   4.667  14.817  0.00  0.00     0.252 C 
ATOM      4  N4  ZIN A   1      18.275   3.290  15.309  0.00  0.00    -0.279 NA
ATOM      5  C5  ZIN A   1      18.345   2.284  14.511  0.00  0.00     0.076 C 
ATOM      6  C13 ZIN A   1      18.433   2.376  13.045  0.00  0.00     0.022 A 
ATOM      7  C14 ZIN A   1      17.693   1.455  12.289  0.00  0.00     0.052 A 
ATOM      8  C15 ZIN A   1      17.731   1.489  10.915  0.00  0.00     0.103 A 
ATOM      9  C19 ZIN A   1      18.502   2.438  10.266  0.00  0.00     0.038 A 
ATOM     10  C20 ZIN A   1      19.234   3.349  10.993  0.00  0.00     0.033 A 
ATOM     11  C21 ZIN A   1      19.210   3.329  12.389  0.00  0.00     0.047 A 
ATOM     12  N22 ZIN A   1      19.975   4.278  13.049  0.00  0.00    -0.325 N 
ATOM     13  H32 ZIN A   1      20.855   4.472  12.688  0.00  0.00     0.169 HD
ENDROOT
BRANCH   5  14
ATOM     14  C6  ZIN A   1      18.336   0.930  15.113  0.00  0.00     0.015 A 
ATOM     15  C11 ZIN A   1      19.308  -0.005  14.749  0.00  0.00     0.046 A 
ATOM     16  C10 ZIN A   1      19.297  -1.263  15.318  0.00  0.00     0.025 A 
ATOM     17 Cl12 ZIN A   1      20.534   0.418  13.595  0.00  0.00    -0.083 Cl
ATOM     18  C9  ZIN A   1      18.320  -1.601  16.238  0.00  0.00     0.002 A 
ATOM     19  C8  ZIN A   1      17.353  -0.680  16.597  0.00  0.00     0.001 A 
ATOM     20  C7  ZIN A   1      17.355   0.583  16.041  0.00  0.00     0.015 A 
ENDBRANCH   5  14
BRANCH   8  21
ATOM     21  N16 ZIN A   1      16.945   0.509  10.129  0.00  0.00    -0.116 N 
ATOM     22  O17 ZIN A   1      16.018  -0.084  10.649  0.00  0.00    -0.532 OA
ATOM     23  O18 ZIN A   1      17.228   0.298   8.963  0.00  0.00    -0.532 OA
ENDBRANCH   8  21
TORSDOF 2
ENDMDL
MODEL 6
REMARK VINA RESULT:      -7.3      3.893      6.363
REMARK  2 active torsions:
REMARK  status: ('A' for Active; 'I' for Inactive)
REMARK    1  A    between atoms: C5_5  and  C6_6 
REMARK    2  A    between atoms: C15_15  and  N16_16 
ROOT
ATOM      1  O1  ZIN A   1      18.300   4.555  10.901  0.00  0.00    -0.271 OA
ATOM      2  C2  ZIN A   1      18.690   3.776  11.745  0.00  0.00     0.242 C 
ATOM      3  C3  ZIN A   1      19.962   3.011  11.504  0.00  0.00     0.252 C 
ATOM      4  N4  ZIN A   1      19.653   1.584  11.441  0.00  0.00    -0.279 NA
ATOM      5  C5  ZIN A   1      19.179   0.946  12.453  0.00  0.00     0.076 C 
ATOM      6  C13 ZIN A   1      18.901   1.544  13.769  0.00  0.00     0.022 A 
ATOM      7  C14 ZIN A   1      19.225   0.790  14.907  0.00  0.00     0.052 A 
ATOM      8  C15 ZIN A   1      18.991   1.292  16.166  0.00  0.00     0.103 A 
ATOM      9  C19 ZIN A   1      18.433   2.550  16.319  0.00  0.00     0.038 A 
ATOM     10  C20 ZIN A   1      18.110   3.302  15.212  0.00  0.00     0.033 A 
ATOM     11  C21 ZIN A   1      18.338   2.809  13.926  0.00  0.00     0.047 A 
ATOM     12  N22 ZIN A   1      17.983   3.625  12.862  0.00  0.00    -0.325 N 
ATOM     13  H32 ZIN A   1      17.152   4.120  12.937  0.00  0.00     0.169 HD
ENDROOT
BRANCH   5  14
ATOM     14  C6  ZIN A   1      18.892  -0.496  12.281  0.00  0.00     0.015 A 
ATOM     15  C11 ZIN A   1      17.614  -0.917  11.904  0.00  0.00     0.046 A 
ATOM     16  C10 ZIN A   1      17.356  -2.263  11.741  0.00  0.00     0.025 A 
ATOM     17 Cl12 ZIN A   1      16.360   0.251  11.628  0.00  0.00    -0.083 Cl
ATOM     18  C9  ZIN A   1      18.355  -3.195  11.961  0.00  0.00     0.002 A 
ATOM     19  C8  ZIN A   1      19.620  -2.783  12.340  0.00  0.00     0.001 A 
ATOM     20  C7  ZIN A   1      19.894  -1.440  12.501  0.00  0.00     0.015 A 
ENDBRANCH   5  14
BRANCH   8  21
ATOM     21  N16 ZIN A   1      19.336   0.486  17.359  0.00  0.00    -0.116 N 
ATOM     22  O17 ZIN A   1      19.883   1.011  18.312  0.00  0.00    -0.532 OA
ATOM     23  O18 ZIN A   1      19.073  -0.704  17.388  0.00  0.00    -0.532 OA
ENDBRANCH   8  21
TORSDOF 2
ENDMDL
MODEL 7
REMARK VINA RESULT:      -7.3      4.639      6.907
REMARK  2 active torsions:
REMARK  status: ('A' for Active; 'I' for Inactive)
REMARK    1  A    between atoms: C5_5  and  C6_6 
REMARK    2  A    between atoms: C15_15  and  N16_16 
ROOT
ATOM      1  O1  ZIN A   1      20.034  -6.189   9.034  0.00  0.00    -0.271 OA
ATOM      2  C2  ZIN A   1      19.615  -5.773   7.975  0.00  0.00     0.242 C 
ATOM      3  C3  ZIN A   1      20.586  -5.221   6.968  0.00  0.00     0.252 C 
ATOM      4  N4  ZIN A   1      20.294  -3.804   6.755  0.00  0.00    -0.279 NA
ATOM      5  C5  ZIN A   1      19.178  -3.409   6.252  0.00  0.00     0.076 C 
ATOM      6  C13 ZIN A   1      18.083  -4.298   5.830  0.00  0.00     0.022 A 
ATOM      7  C14 ZIN A   1      17.406  -3.977   4.643  0.00  0.00     0.052 A 
ATOM      8  C15 ZIN A   1      16.375  -4.768   4.193  0.00  0.00     0.103 A 
ATOM      9  C19 ZIN A   1      15.997  -5.891   4.911  0.00  0.00     0.038 A 
ATOM     10  C20 ZIN A   1      16.652  -6.218   6.077  0.00  0.00     0.033 A 
ATOM     11  C21 ZIN A   1      17.700  -5.427   6.551  0.00  0.00     0.047 A 
ATOM     12  N22 ZIN A   1      18.307  -5.821   7.733  0.00  0.00    -0.325 N 
ATOM     13  H32 ZIN A   1      17.732  -6.153   8.441  0.00  0.00     0.169 HD
ENDROOT
BRANCH   5  14
ATOM     14  C6  ZIN A   1      18.979  -1.951   6.085  0.00  0.00     0.015 A 
ATOM     15  C11 ZIN A   1      18.364  -1.207   7.095  0.00  0.00     0.046 A 
ATOM     16  C10 ZIN A   1      18.187   0.153   6.934  0.00  0.00     0.025 A 
ATOM     17 Cl12 ZIN A   1      17.836  -1.989   8.552  0.00  0.00    -0.083 Cl
ATOM     18  C9  ZIN A   1      18.608   0.776   5.773  0.00  0.00     0.002 A 
ATOM     19  C8  ZIN A   1      19.212   0.043   4.768  0.00  0.00     0.001 A 
ATOM     20  C7  ZIN A   1      19.401  -1.316   4.917  0.00  0.00     0.015 A 
ENDBRANCH   5  14
BRANCH   8  21
ATOM     21  N16 ZIN A   1      15.668  -4.418   2.940  0.00  0.00    -0.116 N 
ATOM     22  O17 ZIN A   1      16.262  -3.846   2.045  0.00  0.00    -0.532 OA
ATOM     23  O18 ZIN A   1      14.491  -4.703   2.805  0.00  0.00    -0.532 OA
ENDBRANCH   8  21
TORSDOF 2
ENDMDL
MODEL 8
REMARK VINA RESULT:      -7.2      4.090      6.976
REMARK  2 active torsions:
REMARK  status: ('A' for Active; 'I' for Inactive)
REMARK    1  A    between atoms: C5_5  and  C6_6 
REMARK    2  A    between atoms: C15_15  and  N16_16 
ROOT
ATOM      1  O1  ZIN A   1      18.917   2.490   9.258  0.00  0.00    -0.271 OA
ATOM      2  C2  ZIN A   1      18.793   2.959  10.370  0.00  0.00     0.242 C 
ATOM      3  C3  ZIN A   1      19.988   3.010  11.281  0.00  0.00     0.252 C 
ATOM      4  N4  ZIN A   1      19.730   2.171  12.449  0.00  0.00    -0.279 NA
ATOM      5  C5  ZIN A   1      18.785   2.436  13.281  0.00  0.00     0.076 C 
ATOM      6  C13 ZIN A   1      17.871   3.585  13.177  0.00  0.00     0.022 A 
ATOM      7  C14 ZIN A   1      17.537   4.260  14.361  0.00  0.00     0.052 A 
ATOM      8  C15 ZIN A   1      16.689   5.342  14.332  0.00  0.00     0.103 A 
ATOM      9  C19 ZIN A   1      16.158   5.775  13.129  0.00  0.00     0.038 A 
ATOM     10  C20 ZIN A   1      16.476   5.124  11.958  0.00  0.00     0.033 A 
ATOM     11  C21 ZIN A   1      17.333   4.022  11.967  0.00  0.00     0.047 A 
ATOM     12  N22 ZIN A   1      17.603   3.419  10.749  0.00  0.00    -0.325 N 
ATOM     13  H32 ZIN A   1      16.865   3.319  10.127  0.00  0.00     0.169 HD
ENDROOT
BRANCH   5  14
ATOM     14  C6  ZIN A   1      18.602   1.517  14.428  0.00  0.00     0.015 A 
ATOM     15  C11 ZIN A   1      17.817   0.370  14.289  0.00  0.00     0.046 A 
ATOM     16  C10 ZIN A   1      17.656  -0.485  15.361  0.00  0.00     0.025 A 
ATOM     17 Cl12 ZIN A   1      17.058   0.014  12.769  0.00  0.00    -0.083 Cl
ATOM     18  C9  ZIN A   1      18.261  -0.202  16.573  0.00  0.00     0.002 A 
ATOM     19  C8  ZIN A   1      19.034   0.936  16.716  0.00  0.00     0.001 A 
ATOM     20  C7  ZIN A   1      19.209   1.796  15.652  0.00  0.00     0.015 A 
ENDBRANCH   5  14
BRANCH   8  21
ATOM     21  N16 ZIN A   1      16.343   6.044  15.589  0.00  0.00    -0.116 N 
ATOM     22  O17 ZIN A   1      15.404   6.818  15.616  0.00  0.00    -0.532 OA
ATOM     23  O18 ZIN A   1      16.999   5.847  16.597  0.00  0.00    -0.532 OA
ENDBRANCH   8  21
TORSDOF 2
ENDMDL
MODEL 9
REMARK VINA RESULT:      -7.1      3.045      5.195
REMARK  2 active torsions:
REMARK  status: ('A' for Active; 'I' for Inactive)
REMARK    1  A    between atoms: C5_5  and  C6_6 
REMARK    2  A    between atoms: C15_15  and  N16_16 
ROOT
ATOM      1  O1  ZIN A   1      19.586   0.402  12.827  0.00  0.00    -0.271 OA
ATOM      2  C2  ZIN A   1      19.619  -0.523  12.043  0.00  0.00     0.242 C 
ATOM      3  C3  ZIN A   1      20.759  -0.614  11.067  0.00  0.00     0.252 C 
ATOM      4  N4  ZIN A   1      20.231  -0.496   9.709  0.00  0.00    -0.279 NA
ATOM      5  C5  ZIN A   1      19.424  -1.368   9.215  0.00  0.00     0.076 C 
ATOM      6  C13 ZIN A   1      18.944  -2.566   9.923  0.00  0.00     0.022 A 
ATOM      7  C14 ZIN A   1      18.848  -3.759   9.191  0.00  0.00     0.052 A 
ATOM      8  C15 ZIN A   1      18.408  -4.914   9.794  0.00  0.00     0.103 A 
ATOM      9  C19 ZIN A   1      18.057  -4.907  11.133  0.00  0.00     0.038 A 
ATOM     10  C20 ZIN A   1      18.146  -3.744  11.865  0.00  0.00     0.033 A 
ATOM     11  C21 ZIN A   1      18.589  -2.561  11.271  0.00  0.00     0.047 A 
ATOM     12  N22 ZIN A   1      18.649  -1.432  12.073  0.00  0.00    -0.325 N 
ATOM     13  H32 ZIN A   1      17.922  -1.292  12.701  0.00  0.00     0.169 HD
ENDROOT
BRANCH   5  14
ATOM     14  C6  ZIN A   1      18.941  -1.149   7.833  0.00  0.00     0.015 A 
ATOM     15  C11 ZIN A   1      17.822  -0.346   7.599  0.00  0.00     0.046 A 
ATOM     16  C10 ZIN A   1      17.381  -0.143   6.307  0.00  0.00     0.025 A 
ATOM     17 Cl12 ZIN A   1      16.998   0.405   8.930  0.00  0.00    -0.083 Cl
ATOM     18  C9  ZIN A   1      18.037  -0.742   5.246  0.00  0.00     0.002 A 
ATOM     19  C8  ZIN A   1      19.142  -1.543   5.473  0.00  0.00     0.001 A 
ATOM     20  C7  ZIN A   1      19.598  -1.750   6.759  0.00  0.00     0.015 A 
ENDBRANCH   5  14
BRANCH   8  21
ATOM     21  N16 ZIN A   1      18.309  -6.166   9.009  0.00  0.00    -0.116 N 
ATOM     22  O17 ZIN A   1      19.252  -6.537   8.335  0.00  0.00    -0.532 OA
ATOM     23  O18 ZIN A   1      17.285  -6.825   9.039  0.00  0.00    -0.532 OA
ENDBRANCH   8  21
TORSDOF 2
ENDMDL
