MODEL 1
REMARK VINA RESULT:      -7.2      0.000      0.000
REMARK  6 active torsions:
REMARK  status: ('A' for Active; 'I' for Inactive)
REMARK    1  A    between atoms: C11_9  and  O13_10 
REMARK    2  A    between atoms: O13_10  and  C14_11 
REMARK    3  A    between atoms: C14_11  and  C16_13 
REMARK    4  A    between atoms: C16_13  and  C18_14 
REMARK    5  A    between atoms: C16_13  and  C20_16 
REMARK    6  A    between atoms: C18_14  and  O19_15 
ROOT
ATOM      1  C14 ZIN A   1      17.234   0.448  11.210  0.00  0.00     0.270 C 
ATOM      2  O15 ZIN A   1      16.129   0.118  11.574  0.00  0.00    -0.264 OA
ENDROOT
BRANCH   1   3
ATOM      3  O13 ZIN A   1      17.613   0.233   9.941  0.00  0.00    -0.315 OA
BRANCH   3   4
ATOM      4  C11 ZIN A   1      18.959   0.642   9.577  0.00  0.00     0.136 C 
ATOM      5  C10 ZIN A   1      18.905   1.493   8.306  0.00  0.00     0.065 C 
ATOM      6  C8  ZIN A   1      18.433   0.613   7.137  0.00  0.00     0.190 C 
ATOM      7  N2  ZIN A   1      19.461  -0.439   6.916  0.00  0.00    -0.066 N 
ATOM      8  C7  ZIN A   1      17.185  -0.175   7.610  0.00  0.00     0.035 C 
ATOM      9  C1  ZIN A   1      19.213  -1.148   5.653  0.00  0.00     0.270 C 
ATOM     10  H3  ZIN A   1      20.387  -0.037   6.920  0.00  0.00     0.280 HD
ATOM     11  C4  ZIN A   1      19.281  -1.353   8.074  0.00  0.00     0.190 C 
ATOM     12  C26 ZIN A   1      19.837  -0.634   9.314  0.00  0.00     0.065 C 
ATOM     13  C6  ZIN A   1      17.747  -1.472   8.229  0.00  0.00     0.035 C 
ENDBRANCH   3   4
ENDBRANCH   1   3
BRANCH   1  14
ATOM     14  C16 ZIN A   1      18.183   1.102  12.181  0.00  0.00     0.142 C 
BRANCH  14  15
ATOM     15  C18 ZIN A   1      17.740   2.543  12.435  0.00  0.00     0.183 C 
BRANCH  15  16
ATOM     16  O19 ZIN A   1      17.011   3.024  11.304  0.00  0.00    -0.400 OA
ATOM     17  H38 ZIN A   1      17.526   3.048  10.485  0.00  0.00     0.209 HD
ENDBRANCH  15  16
ENDBRANCH  14  15
BRANCH  14  18
ATOM     18  C20 ZIN A   1      18.180   0.337  13.480  0.00  0.00    -0.043 A 
ATOM     19  C25 ZIN A   1      17.554   0.866  14.592  0.00  0.00     0.008 A 
ATOM     20  C24 ZIN A   1      17.547   0.163  15.782  0.00  0.00     0.001 A 
ATOM     21  C23 ZIN A   1      18.174  -1.067  15.861  0.00  0.00     0.000 A 
ATOM     22  C22 ZIN A   1      18.805  -1.594  14.749  0.00  0.00     0.001 A 
ATOM     23  C21 ZIN A   1      18.807  -0.892  13.559  0.00  0.00     0.008 A 
ENDBRANCH  14  18
ENDBRANCH   1  14
TORSDOF 6
ENDMDL
MODEL 2
REMARK VINA RESULT:      -7.1      2.180      2.765
REMARK  6 active torsions:
REMARK  status: ('A' for Active; 'I' for Inactive)
REMARK    1  A    between atoms: C11_9  and  O13_10 
REMARK    2  A    between atoms: O13_10  and  C14_11 
REMARK    3  A    between atoms: C14_11  and  C16_13 
REMARK    4  A    between atoms: C16_13  and  C18_14 
REMARK    5  A    between atoms: C16_13  and  C20_16 
REMARK    6  A    between atoms: C18_14  and  O19_15 
ROOT
ATOM      1  C14 ZIN A   1      17.174  -0.423  11.869  0.00  0.00     0.270 C 
ATOM      2  O15 ZIN A   1      16.008  -0.114  11.791  0.00  0.00    -0.264 OA
ENDROOT
BRANCH   1   3
ATOM      3  O13 ZIN A   1      17.628  -1.501  11.213  0.00  0.00    -0.315 OA
BRANCH   3   4
ATOM      4  C11 ZIN A   1      18.837  -1.334  10.427  0.00  0.00     0.136 C 
ATOM      5  C10 ZIN A   1      18.620  -1.920   9.028  0.00  0.00     0.065 C 
ATOM      6  C8  ZIN A   1      18.438  -3.442   9.149  0.00  0.00     0.190 C 
ATOM      7  N2  ZIN A   1      19.709  -4.012   9.669  0.00  0.00    -0.066 N 
ATOM      8  C7  ZIN A   1      17.414  -3.709  10.282  0.00  0.00     0.035 C 
ATOM      9  C1  ZIN A   1      19.702  -5.477   9.558  0.00  0.00     0.270 C 
ATOM     10  H3  ZIN A   1      20.500  -3.623   9.178  0.00  0.00     0.280 HD
ATOM     11  C4  ZIN A   1      19.721  -3.596  11.097  0.00  0.00     0.190 C 
ATOM     12  C26 ZIN A   1      20.023  -2.089  11.129  0.00  0.00     0.065 C 
ATOM     13  C6  ZIN A   1      18.263  -3.810  11.567  0.00  0.00     0.035 C 
ENDBRANCH   3   4
ENDBRANCH   1   3
BRANCH   1  14
ATOM     14  C16 ZIN A   1      18.118   0.404  12.703  0.00  0.00     0.142 C 
BRANCH  14  15
ATOM     15  C18 ZIN A   1      17.679   1.869  12.671  0.00  0.00     0.183 C 
BRANCH  15  16
ATOM     16  O19 ZIN A   1      17.291   2.220  11.341  0.00  0.00    -0.400 OA
ATOM     17  H38 ZIN A   1      16.515   2.796  11.296  0.00  0.00     0.209 HD
ENDBRANCH  15  16
ENDBRANCH  14  15
BRANCH  14  18
ATOM     18  C20 ZIN A   1      18.101  -0.094  14.126  0.00  0.00    -0.043 A 
ATOM     19  C25 ZIN A   1      17.337   0.554  15.077  0.00  0.00     0.008 A 
ATOM     20  C24 ZIN A   1      17.318   0.093  16.380  0.00  0.00     0.001 A 
ATOM     21  C23 ZIN A   1      18.071  -1.011  16.734  0.00  0.00     0.000 A 
ATOM     22  C22 ZIN A   1      18.840  -1.656  15.783  0.00  0.00     0.001 A 
ATOM     23  C21 ZIN A   1      18.855  -1.198  14.479  0.00  0.00     0.008 A 
ENDBRANCH  14  18
ENDBRANCH   1  14
TORSDOF 6
ENDMDL
MODEL 3
REMARK VINA RESULT:      -7.0      2.827      5.565
REMARK  6 active torsions:
REMARK  status: ('A' for Active; 'I' for Inactive)
REMARK    1  A    between atoms: C11_9  and  O13_10 
REMARK    2  A    between atoms: O13_10  and  C14_11 
REMARK    3  A    between atoms: C14_11  and  C16_13 
REMARK    4  A    between atoms: C16_13  and  C18_14 
REMARK    5  A    between atoms: C16_13  and  C20_16 
REMARK    6  A    between atoms: C18_14  and  O19_15 
ROOT
ATOM      1  C14 ZIN A   1      19.444  -0.347  10.651  0.00  0.00     0.270 C 
ATOM      2  O15 ZIN A   1      20.452   0.162  11.080  0.00  0.00    -0.264 OA
ENDROOT
BRANCH   1   3
ATOM      3  O13 ZIN A   1      19.355  -1.683  10.557  0.00  0.00    -0.315 OA
BRANCH   3   4
ATOM      4  C11 ZIN A   1      19.472  -2.440  11.791  0.00  0.00     0.136 C 
ATOM      5  C10 ZIN A   1      20.242  -3.736  11.522  0.00  0.00     0.065 C 
ATOM      6  C8  ZIN A   1      19.405  -4.629  10.592  0.00  0.00     0.190 C 
ATOM      7  N2  ZIN A   1      18.162  -5.002  11.318  0.00  0.00    -0.066 N 
ATOM      8  C7  ZIN A   1      18.905  -3.751   9.416  0.00  0.00     0.035 C 
ATOM      9  C1  ZIN A   1      17.443  -6.064  10.601  0.00  0.00     0.270 C 
ATOM     10  H3  ZIN A   1      18.375  -5.292  12.261  0.00  0.00     0.280 HD
ATOM     11  C4  ZIN A   1      17.369  -3.744  11.323  0.00  0.00     0.190 C 
ATOM     12  C26 ZIN A   1      18.036  -2.788  12.325  0.00  0.00     0.065 C 
ATOM     13  C6  ZIN A   1      17.561  -3.168   9.901  0.00  0.00     0.035 C 
ENDBRANCH   3   4
ENDBRANCH   1   3
BRANCH   1  14
ATOM     14  C16 ZIN A   1      18.286   0.517  10.222  0.00  0.00     0.142 C 
BRANCH  14  15
ATOM     15  C18 ZIN A   1      18.489   1.939  10.748  0.00  0.00     0.183 C 
BRANCH  15  16
ATOM     16  O19 ZIN A   1      17.221   2.586  10.872  0.00  0.00    -0.400 OA
ATOM     17  H38 ZIN A   1      16.653   2.491  10.094  0.00  0.00     0.209 HD
ENDBRANCH  15  16
ENDBRANCH  14  15
BRANCH  14  18
ATOM     18  C20 ZIN A   1      18.210   0.544   8.716  0.00  0.00    -0.043 A 
ATOM     19  C25 ZIN A   1      19.104   1.308   7.992  0.00  0.00     0.008 A 
ATOM     20  C24 ZIN A   1      19.036   1.328   6.611  0.00  0.00     0.001 A 
ATOM     21  C23 ZIN A   1      18.067   0.591   5.956  0.00  0.00     0.000 A 
ATOM     22  C22 ZIN A   1      17.169  -0.170   6.682  0.00  0.00     0.001 A 
ATOM     23  C21 ZIN A   1      17.241  -0.194   8.062  0.00  0.00     0.008 A 
ENDBRANCH  14  18
ENDBRANCH   1  14
TORSDOF 6
ENDMDL
MODEL 4
REMARK VINA RESULT:      -7.0      2.415      6.409
REMARK  6 active torsions:
REMARK  status: ('A' for Active; 'I' for Inactive)
REMARK    1  A    between atoms: C11_9  and  O13_10 
REMARK    2  A    between atoms: O13_10  and  C14_11 
REMARK    3  A    between atoms: C14_11  and  C16_13 
REMARK    4  A    between atoms: C16_13  and  C18_14 
REMARK    5  A    between atoms: C16_13  and  C20_16 
REMARK    6  A    between atoms: C18_14  and  O19_15 
ROOT
ATOM      1  C14 ZIN A   1      19.372   0.254  10.351  0.00  0.00     0.270 C 
ATOM      2  O15 ZIN A   1      20.251  -0.280   9.717  0.00  0.00    -0.264 OA
ENDROOT
BRANCH   1   3
ATOM      3  O13 ZIN A   1      19.245   0.003  11.663  0.00  0.00    -0.315 OA
BRANCH   3   4
ATOM      4  C11 ZIN A   1      18.147  -0.858  12.066  0.00  0.00     0.136 C 
ATOM      5  C10 ZIN A   1      17.050  -0.013  12.719  0.00  0.00     0.065 C 
ATOM      6  C8  ZIN A   1      17.589   0.575  14.033  0.00  0.00     0.190 C 
ATOM      7  N2  ZIN A   1      17.875  -0.558  14.954  0.00  0.00    -0.066 N 
ATOM      8  C7  ZIN A   1      18.985   1.184  13.742  0.00  0.00     0.035 C 
ATOM      9  C1  ZIN A   1      18.137  -0.066  16.313  0.00  0.00     0.270 C 
ATOM     10  H3  ZIN A   1      17.109  -1.215  14.956  0.00  0.00     0.280 HD
ATOM     11  C4  ZIN A   1      19.096  -1.179  14.376  0.00  0.00     0.190 C 
ATOM     12  C26 ZIN A   1      18.671  -1.920  13.098  0.00  0.00     0.065 C 
ATOM     13  C6  ZIN A   1      19.978   0.024  13.969  0.00  0.00     0.035 C 
ENDBRANCH   3   4
ENDBRANCH   1   3
BRANCH   1  14
ATOM     14  C16 ZIN A   1      18.420   1.203   9.669  0.00  0.00     0.142 C 
BRANCH  14  15
ATOM     15  C18 ZIN A   1      18.944   2.633   9.802  0.00  0.00     0.183 C 
BRANCH  15  16
ATOM     16  O19 ZIN A   1      20.067   2.650  10.685  0.00  0.00    -0.400 OA
ATOM     17  H38 ZIN A   1      20.258   3.520  11.062  0.00  0.00     0.209 HD
ENDBRANCH  15  16
ENDBRANCH  14  15
BRANCH  14  18
ATOM     18  C20 ZIN A   1      18.309   0.841   8.210  0.00  0.00    -0.043 A 
ATOM     19  C25 ZIN A   1      19.144   1.437   7.284  0.00  0.00     0.008 A 
ATOM     20  C24 ZIN A   1      19.045   1.101   5.947  0.00  0.00     0.001 A 
ATOM     21  C23 ZIN A   1      18.104   0.175   5.535  0.00  0.00     0.000 A 
ATOM     22  C22 ZIN A   1      17.266  -0.418   6.460  0.00  0.00     0.001 A 
ATOM     23  C21 ZIN A   1      17.369  -0.085   7.798  0.00  0.00     0.008 A 
ENDBRANCH  14  18
ENDBRANCH   1  14
TORSDOF 6
ENDMDL
MODEL 5
REMARK VINA RESULT:      -6.9      2.406      3.567
REMARK  6 active torsions:
REMARK  status: ('A' for Active; 'I' for Inactive)
REMARK    1  A    between atoms: C11_9  and  O13_10 
REMARK    2  A    between atoms: O13_10  and  C14_11 
REMARK    3  A    between atoms: C14_11  and  C16_13 
REMARK    4  A    between atoms: C16_13  and  C18_14 
REMARK    5  A    between atoms: C16_13  and  C20_16 
REMARK    6  A    between atoms: C18_14  and  O19_15 
ROOT
ATOM      1  C14 ZIN A   1      19.756  -0.309  12.360  0.00  0.00     0.270 C 
ATOM      2  O15 ZIN A   1      20.414   0.599  12.809  0.00  0.00    -0.264 OA
ENDROOT
BRANCH   1   3
ATOM      3  O13 ZIN A   1      19.304  -0.250  11.098  0.00  0.00    -0.315 OA
BRANCH   3   4
ATOM      4  C11 ZIN A   1      18.429   0.859  10.762  0.00  0.00     0.136 C 
ATOM      5  C10 ZIN A   1      17.126   0.318  10.168  0.00  0.00     0.065 C 
ATOM      6  C8  ZIN A   1      17.435  -0.359   8.822  0.00  0.00     0.190 C 
ATOM      7  N2  ZIN A   1      17.937   0.688   7.892  0.00  0.00    -0.066 N 
ATOM      8  C7  ZIN A   1      18.654  -1.293   9.030  0.00  0.00     0.035 C 
ATOM      9  C1  ZIN A   1      17.999   0.172   6.518  0.00  0.00     0.270 C 
ATOM     10  H3  ZIN A   1      17.356   1.511   7.936  0.00  0.00     0.280 HD
ATOM     11  C4  ZIN A   1      19.303   0.983   8.403  0.00  0.00     0.190 C 
ATOM     12  C26 ZIN A   1      19.139   1.782   9.706  0.00  0.00     0.065 C 
ATOM     13  C6  ZIN A   1      19.886  -0.405   8.753  0.00  0.00     0.035 C 
ENDBRANCH   3   4
ENDBRANCH   1   3
BRANCH   1  14
ATOM     14  C16 ZIN A   1      19.442  -1.509  13.216  0.00  0.00     0.142 C 
BRANCH  14  15
ATOM     15  C18 ZIN A   1      18.271  -1.182  14.144  0.00  0.00     0.183 C 
BRANCH  15  16
ATOM     16  O19 ZIN A   1      17.811   0.145  13.879  0.00  0.00    -0.400 OA
ATOM     17  H38 ZIN A   1      17.814   0.725  14.653  0.00  0.00     0.209 HD
ENDBRANCH  15  16
ENDBRANCH  14  15
BRANCH  14  18
ATOM     18  C20 ZIN A   1      19.075  -2.675  12.334  0.00  0.00    -0.043 A 
ATOM     19  C25 ZIN A   1      17.746  -2.983  12.112  0.00  0.00     0.008 A 
ATOM     20  C24 ZIN A   1      17.410  -4.049  11.299  0.00  0.00     0.001 A 
ATOM     21  C23 ZIN A   1      18.404  -4.813  10.716  0.00  0.00     0.000 A 
ATOM     22  C22 ZIN A   1      19.733  -4.508  10.941  0.00  0.00     0.001 A 
ATOM     23  C21 ZIN A   1      20.068  -3.439  11.750  0.00  0.00     0.008 A 
ENDBRANCH  14  18
ENDBRANCH   1  14
TORSDOF 6
ENDMDL
MODEL 6
REMARK VINA RESULT:      -6.8      2.635      5.543
REMARK  6 active torsions:
REMARK  status: ('A' for Active; 'I' for Inactive)
REMARK    1  A    between atoms: C11_9  and  O13_10 
REMARK    2  A    between atoms: O13_10  and  C14_11 
REMARK    3  A    between atoms: C14_11  and  C16_13 
REMARK    4  A    between atoms: C16_13  and  C18_14 
REMARK    5  A    between atoms: C16_13  and  C20_16 
REMARK    6  A    between atoms: C18_14  and  O19_15 
ROOT
ATOM      1  C14 ZIN A   1      19.715   0.351  10.333  0.00  0.00     0.270 C 
ATOM      2  O15 ZIN A   1      20.370  -0.517   9.805  0.00  0.00    -0.264 OA
ENDROOT
BRANCH   1   3
ATOM      3  O13 ZIN A   1      19.293   0.198  11.597  0.00  0.00    -0.315 OA
BRANCH   3   4
ATOM      4  C11 ZIN A   1      18.459  -0.957  11.879  0.00  0.00     0.136 C 
ATOM      5  C10 ZIN A   1      17.180  -0.501  12.587  0.00  0.00     0.065 C 
ATOM      6  C8  ZIN A   1      17.550   0.061  13.969  0.00  0.00     0.190 C 
ATOM      7  N2  ZIN A   1      18.123  -1.050  14.774  0.00  0.00    -0.066 N 
ATOM      8  C7  ZIN A   1      18.738   1.039  13.781  0.00  0.00     0.035 C 
ATOM      9  C1  ZIN A   1      18.251  -0.656  16.184  0.00  0.00     0.270 C 
ATOM     10  H3  ZIN A   1      17.555  -1.880  14.688  0.00  0.00     0.280 HD
ATOM     11  C4  ZIN A   1      19.463  -1.267  14.167  0.00  0.00     0.190 C 
ATOM     12  C26 ZIN A   1      19.243  -1.952  12.808  0.00  0.00     0.065 C 
ATOM     13  C6  ZIN A   1      20.000   0.160  13.912  0.00  0.00     0.035 C 
ENDBRANCH   3   4
ENDBRANCH   1   3
BRANCH   1  14
ATOM     14  C16 ZIN A   1      19.372   1.605   9.570  0.00  0.00     0.142 C 
BRANCH  14  15
ATOM     15  C18 ZIN A   1      18.196   1.326   8.632  0.00  0.00     0.183 C 
BRANCH  15  16
ATOM     16  O19 ZIN A   1      17.705   0.004   8.864  0.00  0.00    -0.400 OA
ATOM     17  H38 ZIN A   1      16.921  -0.221   8.345  0.00  0.00     0.209 HD
ENDBRANCH  15  16
ENDBRANCH  14  15
BRANCH  14  18
ATOM     18  C20 ZIN A   1      18.994   2.695  10.540  0.00  0.00    -0.043 A 
ATOM     19  C25 ZIN A   1      17.678   3.106  10.640  0.00  0.00     0.008 A 
ATOM     20  C24 ZIN A   1      17.332   4.103  11.533  0.00  0.00     0.001 A 
ATOM     21  C23 ZIN A   1      18.303   4.695  12.319  0.00  0.00     0.000 A 
ATOM     22  C22 ZIN A   1      19.620   4.287  12.215  0.00  0.00     0.001 A 
ATOM     23  C21 ZIN A   1      19.965   3.287  11.326  0.00  0.00     0.008 A 
ENDBRANCH  14  18
ENDBRANCH   1  14
TORSDOF 6
ENDMDL
MODEL 7
REMARK VINA RESULT:      -6.8      2.955      5.356
REMARK  6 active torsions:
REMARK  status: ('A' for Active; 'I' for Inactive)
REMARK    1  A    between atoms: C11_9  and  O13_10 
REMARK    2  A    between atoms: O13_10  and  C14_11 
REMARK    3  A    between atoms: C14_11  and  C16_13 
REMARK    4  A    between atoms: C16_13  and  C18_14 
REMARK    5  A    between atoms: C16_13  and  C20_16 
REMARK    6  A    between atoms: C18_14  and  O19_15 
ROOT
ATOM      1  C14 ZIN A   1      17.710  -1.087  11.248  0.00  0.00     0.270 C 
ATOM      2  O15 ZIN A   1      16.830  -1.054  12.076  0.00  0.00    -0.264 OA
ENDROOT
BRANCH   1   3
ATOM      3  O13 ZIN A   1      18.067  -2.257  10.697  0.00  0.00    -0.315 OA
BRANCH   3   4
ATOM      4  C11 ZIN A   1      18.092  -3.417  11.570  0.00  0.00     0.136 C 
ATOM      5  C10 ZIN A   1      19.429  -4.147  11.410  0.00  0.00     0.065 C 
ATOM      6  C8  ZIN A   1      19.513  -4.725   9.988  0.00  0.00     0.190 C 
ATOM      7  N2  ZIN A   1      18.440  -5.744   9.847  0.00  0.00    -0.066 N 
ATOM      8  C7  ZIN A   1      19.102  -3.607   8.996  0.00  0.00     0.035 C 
ATOM      9  C1  ZIN A   1      18.626  -6.525   8.616  0.00  0.00     0.270 C 
ATOM     10  H3  ZIN A   1      18.419  -6.352  10.653  0.00  0.00     0.280 HD
ATOM     11  C4  ZIN A   1      17.195  -4.933   9.770  0.00  0.00     0.190 C 
ATOM     12  C26 ZIN A   1      16.919  -4.387  11.180  0.00  0.00     0.065 C 
ATOM     13  C6  ZIN A   1      17.572  -3.746   8.854  0.00  0.00     0.035 C 
ENDBRANCH   3   4
ENDBRANCH   1   3
BRANCH   1  14
ATOM     14  C16 ZIN A   1      18.404   0.185  10.834  0.00  0.00     0.142 C 
BRANCH  14  15
ATOM     15  C18 ZIN A   1      19.869   0.130  11.269  0.00  0.00     0.183 C 
BRANCH  15  16
ATOM     16  O19 ZIN A   1      19.992  -0.700  12.425  0.00  0.00    -0.400 OA
ATOM     17  H38 ZIN A   1      19.999  -1.648  12.231  0.00  0.00     0.209 HD
ENDBRANCH  15  16
ENDBRANCH  14  15
BRANCH  14  18
ATOM     18  C20 ZIN A   1      18.328   0.334   9.336  0.00  0.00    -0.043 A 
ATOM     19  C25 ZIN A   1      17.269  -0.215   8.639  0.00  0.00     0.008 A 
ATOM     20  C24 ZIN A   1      17.198  -0.074   7.266  0.00  0.00     0.001 A 
ATOM     21  C23 ZIN A   1      18.192   0.609   6.589  0.00  0.00     0.000 A 
ATOM     22  C22 ZIN A   1      19.254   1.154   7.286  0.00  0.00     0.001 A 
ATOM     23  C21 ZIN A   1      19.322   1.017   8.659  0.00  0.00     0.008 A 
ENDBRANCH  14  18
ENDBRANCH   1  14
TORSDOF 6
ENDMDL
MODEL 8
REMARK VINA RESULT:      -6.5      3.039      3.979
REMARK  6 active torsions:
REMARK  status: ('A' for Active; 'I' for Inactive)
REMARK    1  A    between atoms: C11_9  and  O13_10 
REMARK    2  A    between atoms: O13_10  and  C14_11 
REMARK    3  A    between atoms: C14_11  and  C16_13 
REMARK    4  A    between atoms: C16_13  and  C18_14 
REMARK    5  A    between atoms: C16_13  and  C20_16 
REMARK    6  A    between atoms: C18_14  and  O19_15 
ROOT
ATOM      1  C14 ZIN A   1      18.179  -1.340  11.918  0.00  0.00     0.270 C 
ATOM      2  O15 ZIN A   1      17.094  -0.808  11.914  0.00  0.00    -0.264 OA
ENDROOT
BRANCH   1   3
ATOM      3  O13 ZIN A   1      18.394  -2.430  11.164  0.00  0.00    -0.315 OA
BRANCH   3   4
ATOM      4  C11 ZIN A   1      18.445  -3.708  11.853  0.00  0.00     0.136 C 
ATOM      5  C10 ZIN A   1      19.686  -4.481  11.398  0.00  0.00     0.065 C 
ATOM      6  C8  ZIN A   1      19.532  -4.842   9.912  0.00  0.00     0.190 C 
ATOM      7  N2  ZIN A   1      18.372  -5.764   9.786  0.00  0.00    -0.066 N 
ATOM      8  C7  ZIN A   1      19.080  -3.565   9.158  0.00  0.00     0.035 C 
ATOM      9  C1  ZIN A   1      18.327  -6.360   8.444  0.00  0.00     0.270 C 
ATOM     10  H3  ZIN A   1      18.412  -6.484  10.493  0.00  0.00     0.280 HD
ATOM     11  C4  ZIN A   1      17.196  -4.880  10.006  0.00  0.00     0.190 C 
ATOM     12  C26 ZIN A   1      17.157  -4.538  11.504  0.00  0.00     0.065 C 
ATOM     13  C6  ZIN A   1      17.538  -3.592   9.222  0.00  0.00     0.035 C 
ENDBRANCH   3   4
ENDBRANCH   1   3
BRANCH   1  14
ATOM     14  C16 ZIN A   1      19.291  -0.780  12.767  0.00  0.00     0.142 C 
BRANCH  14  15
ATOM     15  C18 ZIN A   1      19.766   0.547  12.174  0.00  0.00     0.183 C 
BRANCH  15  16
ATOM     16  O19 ZIN A   1      21.192   0.616  12.243  0.00  0.00    -0.400 OA
ATOM     17  H38 ZIN A   1      21.592  -0.067  12.800  0.00  0.00     0.209 HD
ENDBRANCH  15  16
ENDBRANCH  14  15
BRANCH  14  18
ATOM     18  C20 ZIN A   1      18.786  -0.553  14.170  0.00  0.00    -0.043 A 
ATOM     19  C25 ZIN A   1      18.642  -1.621  15.034  0.00  0.00     0.008 A 
ATOM     20  C24 ZIN A   1      18.183  -1.412  16.321  0.00  0.00     0.001 A 
ATOM     21  C23 ZIN A   1      17.861  -0.135  16.740  0.00  0.00     0.000 A 
ATOM     22  C22 ZIN A   1      18.002   0.933  15.874  0.00  0.00     0.001 A 
ATOM     23  C21 ZIN A   1      18.464   0.724  14.589  0.00  0.00     0.008 A 
ENDBRANCH  14  18
ENDBRANCH   1  14
TORSDOF 6
ENDMDL
MODEL 9
REMARK VINA RESULT:      -6.4      2.669      5.998
REMARK  6 active torsions:
REMARK  status: ('A' for Active; 'I' for Inactive)
REMARK    1  A    between atoms: C11_9  and  O13_10 
REMARK    2  A    between atoms: O13_10  and  C14_11 
REMARK    3  A    between atoms: C14_11  and  C16_13 
REMARK    4  A    between atoms: C16_13  and  C18_14 
REMARK    5  A    between atoms: C16_13  and  C20_16 
REMARK    6  A    between atoms: C18_14  and  O19_15 
ROOT
ATOM      1  C14 ZIN A   1      20.039  -0.211  10.487  0.00  0.00     0.270 C 
ATOM      2  O15 ZIN A   1      21.118  -0.509  10.940  0.00  0.00    -0.264 OA
ENDROOT
BRANCH   1   3
ATOM      3  O13 ZIN A   1      19.519   1.001  10.732  0.00  0.00    -0.315 OA
BRANCH   3   4
ATOM      4  C11 ZIN A   1      20.021   1.709  11.897  0.00  0.00     0.136 C 
ATOM      5  C10 ZIN A   1      18.965   1.676  13.006  0.00  0.00     0.065 C 
ATOM      6  C8  ZIN A   1      17.740   2.487  12.552  0.00  0.00     0.190 C 
ATOM      7  N2  ZIN A   1      18.165   3.903  12.395  0.00  0.00    -0.066 N 
ATOM      8  C7  ZIN A   1      17.383   2.039  11.112  0.00  0.00     0.035 C 
ATOM      9  C1  ZIN A   1      16.996   4.777  12.224  0.00  0.00     0.270 C 
ATOM     10  H3  ZIN A   1      18.716   4.199  13.187  0.00  0.00     0.280 HD
ATOM     11  C4  ZIN A   1      18.990   3.886  11.158  0.00  0.00     0.190 C 
ATOM     12  C26 ZIN A   1      20.322   3.202  11.509  0.00  0.00     0.065 C 
ATOM     13  C6  ZIN A   1      18.210   2.964  10.193  0.00  0.00     0.035 C 
ENDBRANCH   3   4
ENDBRANCH   1   3
BRANCH   1  14
ATOM     14  C16 ZIN A   1      19.275  -1.202   9.645  0.00  0.00     0.142 C 
BRANCH  14  15
ATOM     15  C18 ZIN A   1      18.099  -1.755  10.450  0.00  0.00     0.183 C 
BRANCH  15  16
ATOM     16  O19 ZIN A   1      18.383  -1.645  11.846  0.00  0.00    -0.400 OA
ATOM     17  H38 ZIN A   1      17.730  -2.075  12.416  0.00  0.00     0.209 HD
ENDBRANCH  15  16
ENDBRANCH  14  15
BRANCH  14  18
ATOM     18  C20 ZIN A   1      18.759  -0.516   8.406  0.00  0.00    -0.043 A 
ATOM     19  C25 ZIN A   1      17.476  -0.766   7.960  0.00  0.00     0.008 A 
ATOM     20  C24 ZIN A   1      17.001  -0.133   6.827  0.00  0.00     0.001 A 
ATOM     21  C23 ZIN A   1      17.815   0.743   6.133  0.00  0.00     0.000 A 
ATOM     22  C22 ZIN A   1      19.101   0.990   6.576  0.00  0.00     0.001 A 
ATOM     23  C21 ZIN A   1      19.573   0.361   7.712  0.00  0.00     0.008 A 
ENDBRANCH  14  18
ENDBRANCH   1  14
TORSDOF 6
ENDMDL
