MODEL 1
REMARK VINA RESULT:      -8.9      0.000      0.000
REMARK  12 active torsions:
REMARK  status: ('A' for Active; 'I' for Inactive)
REMARK    1  A    between atoms: C2_2  and  C4_4 
REMARK    2  A    between atoms: C2_2  and  C7_7 
REMARK    3  A    between atoms: C10_10  and  C11_11 
REMARK    4  A    between atoms: C11_11  and  O13_12 
REMARK    5  A    between atoms: C11_11  and  C14_13 
REMARK    6  A    between atoms: C14_13  and  C15_14 
REMARK    7  A    between atoms: C15_14  and  C16_15 
REMARK    8  A    between atoms: C16_15  and  N17_16 
REMARK    9  A    between atoms: C21_20  and  C22_21 
REMARK   10  A    between atoms: C22_21  and  O23_22 
REMARK   11  A    between atoms: C22_21  and  C24_23 
REMARK   12  A    between atoms: C22_21  and  C30_29 
ROOT
ATOM      1  N17 ZIN A   1      18.801  -0.099   7.468  0.00  0.00    -0.071 N 
ATOM      2  H18 ZIN A   1      19.403  -0.847   7.156  0.00  0.00     0.279 HD
ATOM      3  C19 ZIN A   1      17.601  -0.665   8.095  0.00  0.00     0.235 C 
ATOM      4  C20 ZIN A   1      18.009  -1.586   9.247  0.00  0.00     0.036 C 
ATOM      5  C21 ZIN A   1      18.797  -0.780  10.284  0.00  0.00     0.033 C 
ATOM      6  C36 ZIN A   1      20.007  -0.133   9.601  0.00  0.00     0.036 C 
ATOM      7  C37 ZIN A   1      19.523   0.735   8.437  0.00  0.00     0.235 C 
ENDROOT
BRANCH   1   8
ATOM      8  C16 ZIN A   1      18.409   0.722   6.315  0.00  0.00     0.235 C 
BRANCH   8   9
ATOM      9  C15 ZIN A   1      19.090   0.189   5.053  0.00  0.00     0.030 C 
BRANCH   9  10
ATOM     10  C14 ZIN A   1      19.447  -1.285   5.251  0.00  0.00     0.038 C 
BRANCH  10  11
ATOM     11  C11 ZIN A   1      18.731  -2.129   4.193  0.00  0.00     0.151 C 
BRANCH  11  12
ATOM     12  C10 ZIN A   1      18.097  -3.328   4.851  0.00  0.00    -0.030 A 
ATOM     13  C9  ZIN A   1      18.482  -3.700   6.126  0.00  0.00     0.010 A 
ATOM     14  C8  ZIN A   1      17.900  -4.799   6.730  0.00  0.00     0.009 A 
ATOM     15  C7  ZIN A   1      16.934  -5.525   6.060  0.00  0.00    -0.040 A 
ATOM     16  C39 ZIN A   1      16.554  -5.157   4.783  0.00  0.00     0.009 A 
ATOM     17  C38 ZIN A   1      17.133  -4.055   4.180  0.00  0.00     0.010 A 
BRANCH  15  18
ATOM     18  C2  ZIN A   1      16.300  -6.723   6.718  0.00  0.00     0.068 C 
ATOM     19  C1  ZIN A   1      17.260  -7.300   7.761  0.00  0.00     0.032 C 
ATOM     20  C3  ZIN A   1      15.997  -7.787   5.660  0.00  0.00     0.032 C 
BRANCH  18  21
ATOM     21  C4  ZIN A   1      15.018  -6.307   7.392  0.00  0.00     0.185 C 
ATOM     22  O5  ZIN A   1      13.949  -6.498   6.838  0.00  0.00    -0.647 OA
ATOM     23  O6  ZIN A   1      15.050  -5.780   8.491  0.00  0.00    -0.647 OA
ENDBRANCH  18  21
ENDBRANCH  15  18
ENDBRANCH  11  12
BRANCH  11  24
ATOM     24  O13 ZIN A   1      17.720  -1.344   3.560  0.00  0.00    -0.391 OA
ATOM     25  H48 ZIN A   1      17.486  -0.539   4.043  0.00  0.00     0.210 HD
ENDBRANCH  11  24
ENDBRANCH  10  11
ENDBRANCH   9  10
ENDBRANCH   8   9
ENDBRANCH   1   8
BRANCH   5  26
ATOM     26  C22 ZIN A   1      19.277  -1.711  11.399  0.00  0.00     0.116 C 
BRANCH  26  27
ATOM     27  O23 ZIN A   1      20.702  -1.801  11.364  0.00  0.00    -0.380 OA
ATOM     28  H60 ZIN A   1      21.040  -2.435  10.718  0.00  0.00     0.211 HD
ENDBRANCH  26  27
BRANCH  26  29
ATOM     29  C24 ZIN A   1      18.840  -1.163  12.734  0.00  0.00    -0.019 A 
ATOM     30  C29 ZIN A   1      19.369  -1.682  13.900  0.00  0.00     0.010 A 
ATOM     31  C28 ZIN A   1      18.972  -1.176  15.124  0.00  0.00     0.001 A 
ATOM     32  C27 ZIN A   1      18.039  -0.159  15.181  0.00  0.00     0.000 A 
ATOM     33  C26 ZIN A   1      17.506   0.357  14.014  0.00  0.00     0.001 A 
ATOM     34  C25 ZIN A   1      17.906  -0.145  12.790  0.00  0.00     0.010 A 
ENDBRANCH  26  29
BRANCH  26  35
ATOM     35  C30 ZIN A   1      18.681  -3.081  11.199  0.00  0.00    -0.019 A 
ATOM     36  C35 ZIN A   1      19.430  -4.081  10.607  0.00  0.00     0.010 A 
ATOM     37  C34 ZIN A   1      18.885  -5.338  10.427  0.00  0.00     0.001 A 
ATOM     38  C33 ZIN A   1      17.588  -5.594  10.832  0.00  0.00     0.000 A 
ATOM     39  C32 ZIN A   1      16.838  -4.593  11.420  0.00  0.00     0.001 A 
ATOM     40  C31 ZIN A   1      17.384  -3.337  11.603  0.00  0.00     0.010 A 
ENDBRANCH  26  35
ENDBRANCH   5  26
TORSDOF 12
ENDMDL
MODEL 2
REMARK VINA RESULT:      -8.7      1.973      2.883
REMARK  12 active torsions:
REMARK  status: ('A' for Active; 'I' for Inactive)
REMARK    1  A    between atoms: C2_2  and  C4_4 
REMARK    2  A    between atoms: C2_2  and  C7_7 
REMARK    3  A    between atoms: C10_10  and  C11_11 
REMARK    4  A    between atoms: C11_11  and  O13_12 
REMARK    5  A    between atoms: C11_11  and  C14_13 
REMARK    6  A    between atoms: C14_13  and  C15_14 
REMARK    7  A    between atoms: C15_14  and  C16_15 
REMARK    8  A    between atoms: C16_15  and  N17_16 
REMARK    9  A    between atoms: C21_20  and  C22_21 
REMARK   10  A    between atoms: C22_21  and  O23_22 
REMARK   11  A    between atoms: C22_21  and  C24_23 
REMARK   12  A    between atoms: C22_21  and  C30_29 
ROOT
ATOM      1  N17 ZIN A   1      18.864   1.491   9.370  0.00  0.00    -0.071 N 
ATOM      2  H18 ZIN A   1      19.597   0.913   8.984  0.00  0.00     0.279 HD
ATOM      3  C19 ZIN A   1      17.728   0.646   9.758  0.00  0.00     0.235 C 
ATOM      4  C20 ZIN A   1      18.196  -0.420  10.750  0.00  0.00     0.036 C 
ATOM      5  C21 ZIN A   1      18.773   0.265  11.993  0.00  0.00     0.033 C 
ATOM      6  C36 ZIN A   1      19.909   1.200  11.567  0.00  0.00     0.036 C 
ATOM      7  C37 ZIN A   1      19.377   2.207  10.545  0.00  0.00     0.235 C 
ENDROOT
BRANCH   1   8
ATOM      8  C16 ZIN A   1      18.429   2.463   8.358  0.00  0.00     0.235 C 
BRANCH   8   9
ATOM      9  C15 ZIN A   1      19.126   2.165   7.030  0.00  0.00     0.030 C 
BRANCH   9  10
ATOM     10  C14 ZIN A   1      18.429   0.992   6.340  0.00  0.00     0.038 C 
BRANCH  10  11
ATOM     11  C11 ZIN A   1      19.476   0.101   5.666  0.00  0.00     0.151 C 
BRANCH  11  12
ATOM     12  C10 ZIN A   1      19.230  -1.337   6.044  0.00  0.00    -0.030 A 
ATOM     13  C9  ZIN A   1      19.150  -1.697   7.376  0.00  0.00     0.010 A 
ATOM     14  C8  ZIN A   1      18.924  -3.016   7.723  0.00  0.00     0.009 A 
ATOM     15  C7  ZIN A   1      18.778  -3.974   6.738  0.00  0.00    -0.040 A 
ATOM     16  C39 ZIN A   1      18.864  -3.615   5.406  0.00  0.00     0.009 A 
ATOM     17  C38 ZIN A   1      19.086  -2.296   5.059  0.00  0.00     0.010 A 
BRANCH  15  18
ATOM     18  C2  ZIN A   1      18.533  -5.412   7.116  0.00  0.00     0.068 C 
ATOM     19  C1  ZIN A   1      18.262  -6.232   5.853  0.00  0.00     0.032 C 
ATOM     20  C3  ZIN A   1      17.322  -5.496   8.048  0.00  0.00     0.032 C 
BRANCH  18  21
ATOM     21  C4  ZIN A   1      19.747  -5.961   7.820  0.00  0.00     0.185 C 
ATOM     22  O5  ZIN A   1      19.613  -6.702   8.779  0.00  0.00    -0.647 OA
ATOM     23  O6  ZIN A   1      20.863  -5.664   7.430  0.00  0.00    -0.647 OA
ENDBRANCH  18  21
ENDBRANCH  15  18
ENDBRANCH  11  12
BRANCH  11  24
ATOM     24  O13 ZIN A   1      19.381   0.243   4.248  0.00  0.00    -0.391 OA
ATOM     25  H48 ZIN A   1      20.223   0.132   3.784  0.00  0.00     0.210 HD
ENDBRANCH  11  24
ENDBRANCH  10  11
ENDBRANCH   9  10
ENDBRANCH   8   9
ENDBRANCH   1   8
BRANCH   5  26
ATOM     26  C22 ZIN A   1      19.315  -0.794  12.955  0.00  0.00     0.116 C 
BRANCH  26  27
ATOM     27  O23 ZIN A   1      20.716  -0.590  13.148  0.00  0.00    -0.380 OA
ATOM     28  H60 ZIN A   1      21.240  -1.400  13.103  0.00  0.00     0.211 HD
ENDBRANCH  26  27
BRANCH  26  29
ATOM     29  C24 ZIN A   1      18.603  -0.680  14.280  0.00  0.00    -0.019 A 
ATOM     30  C29 ZIN A   1      17.659   0.311  14.473  0.00  0.00     0.010 A 
ATOM     31  C28 ZIN A   1      17.004   0.413  15.686  0.00  0.00     0.001 A 
ATOM     32  C27 ZIN A   1      17.300  -0.469  16.708  0.00  0.00     0.000 A 
ATOM     33  C26 ZIN A   1      18.248  -1.456  16.516  0.00  0.00     0.001 A 
ATOM     34  C25 ZIN A   1      18.900  -1.562  15.301  0.00  0.00     0.010 A 
ENDBRANCH  26  29
BRANCH  26  35
ATOM     35  C30 ZIN A   1      19.080  -2.165  12.376  0.00  0.00    -0.019 A 
ATOM     36  C35 ZIN A   1      17.799  -2.683  12.324  0.00  0.00     0.010 A 
ATOM     37  C34 ZIN A   1      17.584  -3.939  11.789  0.00  0.00     0.001 A 
ATOM     38  C33 ZIN A   1      18.649  -4.682  11.316  0.00  0.00     0.000 A 
ATOM     39  C32 ZIN A   1      19.930  -4.165  11.373  0.00  0.00     0.001 A 
ATOM     40  C31 ZIN A   1      20.146  -2.908  11.903  0.00  0.00     0.010 A 
ENDBRANCH  26  35
ENDBRANCH   5  26
TORSDOF 12
ENDMDL
MODEL 3
REMARK VINA RESULT:      -8.6      3.544      8.881
REMARK  12 active torsions:
REMARK  status: ('A' for Active; 'I' for Inactive)
REMARK    1  A    between atoms: C2_2  and  C4_4 
REMARK    2  A    between atoms: C2_2  and  C7_7 
REMARK    3  A    between atoms: C10_10  and  C11_11 
REMARK    4  A    between atoms: C11_11  and  O13_12 
REMARK    5  A    between atoms: C11_11  and  C14_13 
REMARK    6  A    between atoms: C14_13  and  C15_14 
REMARK    7  A    between atoms: C15_14  and  C16_15 
REMARK    8  A    between atoms: C16_15  and  N17_16 
REMARK    9  A    between atoms: C21_20  and  C22_21 
REMARK   10  A    between atoms: C22_21  and  O23_22 
REMARK   11  A    between atoms: C22_21  and  C24_23 
REMARK   12  A    between atoms: C22_21  and  C30_29 
ROOT
ATOM      1  N17 ZIN A   1      18.100   3.313  10.879  0.00  0.00    -0.071 N 
ATOM      2  H18 ZIN A   1      18.978   3.290  11.376  0.00  0.00     0.279 HD
ATOM      3  C19 ZIN A   1      18.357   3.291   9.433  0.00  0.00     0.235 C 
ATOM      4  C20 ZIN A   1      19.183   2.053   9.078  0.00  0.00     0.036 C 
ATOM      5  C21 ZIN A   1      18.407   0.795   9.479  0.00  0.00     0.033 C 
ATOM      6  C36 ZIN A   1      18.080   0.864  10.974  0.00  0.00     0.036 C 
ATOM      7  C37 ZIN A   1      17.294   2.146  11.259  0.00  0.00     0.235 C 
ENDROOT
BRANCH   1   8
ATOM      8  C16 ZIN A   1      17.375   4.542  11.228  0.00  0.00     0.235 C 
BRANCH   8   9
ATOM      9  C15 ZIN A   1      17.208   4.622  12.746  0.00  0.00     0.030 C 
BRANCH   9  10
ATOM     10  C14 ZIN A   1      18.148   5.691  13.306  0.00  0.00     0.038 C 
BRANCH  10  11
ATOM     11  C11 ZIN A   1      19.421   5.024  13.834  0.00  0.00     0.151 C 
BRANCH  11  12
ATOM     12  C10 ZIN A   1      19.049   3.907  14.775  0.00  0.00    -0.030 A 
ATOM     13  C9  ZIN A   1      18.759   4.185  16.098  0.00  0.00     0.010 A 
ATOM     14  C8  ZIN A   1      18.417   3.161  16.960  0.00  0.00     0.009 A 
ATOM     15  C7  ZIN A   1      18.364   1.858  16.501  0.00  0.00    -0.040 A 
ATOM     16  C39 ZIN A   1      18.660   1.580  15.179  0.00  0.00     0.009 A 
ATOM     17  C38 ZIN A   1      18.998   2.605  14.316  0.00  0.00     0.010 A 
BRANCH  15  18
ATOM     18  C2  ZIN A   1      17.992   0.742  17.441  0.00  0.00     0.068 C 
ATOM     19  C1  ZIN A   1      17.011  -0.205  16.746  0.00  0.00     0.032 C 
ATOM     20  C3  ZIN A   1      17.337   1.326  18.694  0.00  0.00     0.032 C 
BRANCH  18  21
ATOM     21  C4  ZIN A   1      19.233  -0.020  17.832  0.00  0.00     0.185 C 
ATOM     22  O5  ZIN A   1      20.058   0.496  18.567  0.00  0.00    -0.647 OA
ATOM     23  O6  ZIN A   1      19.411  -1.151  17.415  0.00  0.00    -0.647 OA
ENDBRANCH  18  21
ENDBRANCH  15  18
ENDBRANCH  11  12
BRANCH  11  24
ATOM     24  O13 ZIN A   1      20.172   4.495  12.740  0.00  0.00    -0.391 OA
ATOM     25  H48 ZIN A   1      21.124   4.450  12.902  0.00  0.00     0.210 HD
ENDBRANCH  11  24
ENDBRANCH  10  11
ENDBRANCH   9  10
ENDBRANCH   8   9
ENDBRANCH   1   8
BRANCH   5  26
ATOM     26  C22 ZIN A   1      19.260  -0.443   9.198  0.00  0.00     0.116 C 
BRANCH  26  27
ATOM     27  O23 ZIN A   1      20.644  -0.098   9.287  0.00  0.00    -0.380 OA
ATOM     28  H60 ZIN A   1      20.895   0.661   8.745  0.00  0.00     0.211 HD
ENDBRANCH  26  27
BRANCH  26  29
ATOM     29  C24 ZIN A   1      18.943  -1.512  10.214  0.00  0.00    -0.019 A 
ATOM     30  C29 ZIN A   1      17.690  -2.095  10.233  0.00  0.00     0.010 A 
ATOM     31  C28 ZIN A   1      17.400  -3.078  11.162  0.00  0.00     0.001 A 
ATOM     32  C27 ZIN A   1      18.359  -3.470  12.076  0.00  0.00     0.000 A 
ATOM     33  C26 ZIN A   1      19.611  -2.882  12.059  0.00  0.00     0.001 A 
ATOM     34  C25 ZIN A   1      19.903  -1.903  11.128  0.00  0.00     0.010 A 
ENDBRANCH  26  29
BRANCH  26  35
ATOM     35  C30 ZIN A   1      18.957  -0.960   7.815  0.00  0.00    -0.019 A 
ATOM     36  C35 ZIN A   1      18.055  -0.289   7.010  0.00  0.00     0.010 A 
ATOM     37  C34 ZIN A   1      17.780  -0.760   5.741  0.00  0.00     0.001 A 
ATOM     38  C33 ZIN A   1      18.399  -1.906   5.279  0.00  0.00     0.000 A 
ATOM     39  C32 ZIN A   1      19.297  -2.579   6.086  0.00  0.00     0.001 A 
ATOM     40  C31 ZIN A   1      19.576  -2.106   7.354  0.00  0.00     0.010 A 
ENDBRANCH  26  35
ENDBRANCH   5  26
TORSDOF 12
ENDMDL
MODEL 4
REMARK VINA RESULT:      -8.6      1.715      3.706
REMARK  12 active torsions:
REMARK  status: ('A' for Active; 'I' for Inactive)
REMARK    1  A    between atoms: C2_2  and  C4_4 
REMARK    2  A    between atoms: C2_2  and  C7_7 
REMARK    3  A    between atoms: C10_10  and  C11_11 
REMARK    4  A    between atoms: C11_11  and  O13_12 
REMARK    5  A    between atoms: C11_11  and  C14_13 
REMARK    6  A    between atoms: C14_13  and  C15_14 
REMARK    7  A    between atoms: C15_14  and  C16_15 
REMARK    8  A    between atoms: C16_15  and  N17_16 
REMARK    9  A    between atoms: C21_20  and  C22_21 
REMARK   10  A    between atoms: C22_21  and  O23_22 
REMARK   11  A    between atoms: C22_21  and  C24_23 
REMARK   12  A    between atoms: C22_21  and  C30_29 
ROOT
ATOM      1  N17 ZIN A   1      18.799   0.928   8.486  0.00  0.00    -0.071 N 
ATOM      2  H18 ZIN A   1      18.197   0.235   8.066  0.00  0.00     0.279 HD
ATOM      3  C19 ZIN A   1      18.029   1.727   9.447  0.00  0.00     0.235 C 
ATOM      4  C20 ZIN A   1      17.402   0.806  10.495  0.00  0.00     0.036 C 
ATOM      5  C21 ZIN A   1      18.512   0.050  11.231  0.00  0.00     0.033 C 
ATOM      6  C36 ZIN A   1      19.354  -0.722  10.210  0.00  0.00     0.036 C 
ATOM      7  C37 ZIN A   1      19.909   0.257   9.173  0.00  0.00     0.235 C 
ENDROOT
BRANCH   1   8
ATOM      8  C16 ZIN A   1      19.334   1.807   7.437  0.00  0.00     0.235 C 
BRANCH   8   9
ATOM      9  C15 ZIN A   1      19.062   1.188   6.065  0.00  0.00     0.030 C 
BRANCH   9  10
ATOM     10  C14 ZIN A   1      18.371  -0.165   6.244  0.00  0.00     0.038 C 
BRANCH  10  11
ATOM     11  C11 ZIN A   1      19.366  -1.289   5.941  0.00  0.00     0.151 C 
BRANCH  11  12
ATOM     12  C10 ZIN A   1      18.738  -2.618   6.270  0.00  0.00    -0.030 A 
ATOM     13  C9  ZIN A   1      18.545  -3.557   5.274  0.00  0.00     0.010 A 
ATOM     14  C8  ZIN A   1      17.969  -4.776   5.575  0.00  0.00     0.009 A 
ATOM     15  C7  ZIN A   1      17.586  -5.058   6.873  0.00  0.00    -0.040 A 
ATOM     16  C39 ZIN A   1      17.774  -4.118   7.868  0.00  0.00     0.009 A 
ATOM     17  C38 ZIN A   1      18.353  -2.899   7.568  0.00  0.00     0.010 A 
BRANCH  15  18
ATOM     18  C2  ZIN A   1      16.958  -6.388   7.202  0.00  0.00     0.068 C 
ATOM     19  C1  ZIN A   1      16.098  -6.851   6.024  0.00  0.00     0.032 C 
ATOM     20  C3  ZIN A   1      16.081  -6.244   8.448  0.00  0.00     0.032 C 
BRANCH  18  21
ATOM     21  C4  ZIN A   1      18.040  -7.404   7.464  0.00  0.00     0.185 C 
ATOM     22  O5  ZIN A   1      18.954  -7.137   8.225  0.00  0.00    -0.647 OA
ATOM     23  O6  ZIN A   1      18.000  -8.492   6.916  0.00  0.00    -0.647 OA
ENDBRANCH  18  21
ENDBRANCH  15  18
ENDBRANCH  11  12
BRANCH  11  24
ATOM     24  O13 ZIN A   1      19.715  -1.257   4.556  0.00  0.00    -0.391 OA
ATOM     25  H48 ZIN A   1      19.492  -2.065   4.075  0.00  0.00     0.210 HD
ENDBRANCH  11  24
ENDBRANCH  10  11
ENDBRANCH   9  10
ENDBRANCH   8   9
ENDBRANCH   1   8
BRANCH   5  26
ATOM     26  C22 ZIN A   1      17.889  -0.932  12.226  0.00  0.00     0.116 C 
BRANCH  26  27
ATOM     27  O23 ZIN A   1      16.465  -0.877  12.121  0.00  0.00    -0.380 OA
ATOM     28  H60 ZIN A   1      16.041  -0.342  12.806  0.00  0.00     0.211 HD
ENDBRANCH  26  27
BRANCH  26  29
ATOM     29  C24 ZIN A   1      18.362  -2.330  11.915  0.00  0.00    -0.019 A 
ATOM     30  C29 ZIN A   1      17.447  -3.307  11.573  0.00  0.00     0.010 A 
ATOM     31  C28 ZIN A   1      17.881  -4.588  11.284  0.00  0.00     0.001 A 
ATOM     32  C27 ZIN A   1      19.227  -4.892  11.346  0.00  0.00     0.000 A 
ATOM     33  C26 ZIN A   1      20.141  -3.914  11.693  0.00  0.00     0.001 A 
ATOM     34  C25 ZIN A   1      19.709  -2.633  11.978  0.00  0.00     0.010 A 
ENDBRANCH  26  29
BRANCH  26  35
ATOM     35  C30 ZIN A   1      18.306  -0.561  13.626  0.00  0.00    -0.019 A 
ATOM     36  C35 ZIN A   1      18.872   0.676  13.872  0.00  0.00     0.010 A 
ATOM     37  C34 ZIN A   1      19.251   1.019  15.157  0.00  0.00     0.001 A 
ATOM     38  C33 ZIN A   1      19.073   0.121  16.193  0.00  0.00     0.000 A 
ATOM     39  C32 ZIN A   1      18.511  -1.117  15.945  0.00  0.00     0.001 A 
ATOM     40  C31 ZIN A   1      18.128  -1.458  14.662  0.00  0.00     0.010 A 
ENDBRANCH  26  35
ENDBRANCH   5  26
TORSDOF 12
ENDMDL
MODEL 5
REMARK VINA RESULT:      -8.5      4.432      9.453
REMARK  12 active torsions:
REMARK  status: ('A' for Active; 'I' for Inactive)
REMARK    1  A    between atoms: C2_2  and  C4_4 
REMARK    2  A    between atoms: C2_2  and  C7_7 
REMARK    3  A    between atoms: C10_10  and  C11_11 
REMARK    4  A    between atoms: C11_11  and  O13_12 
REMARK    5  A    between atoms: C11_11  and  C14_13 
REMARK    6  A    between atoms: C14_13  and  C15_14 
REMARK    7  A    between atoms: C15_14  and  C16_15 
REMARK    8  A    between atoms: C16_15  and  N17_16 
REMARK    9  A    between atoms: C21_20  and  C22_21 
REMARK   10  A    between atoms: C22_21  and  O23_22 
REMARK   11  A    between atoms: C22_21  and  C24_23 
REMARK   12  A    between atoms: C22_21  and  C30_29 
ROOT
ATOM      1  N17 ZIN A   1      17.636   4.698  12.045  0.00  0.00    -0.071 N 
ATOM      2  H18 ZIN A   1      18.620   4.880  12.177  0.00  0.00     0.279 HD
ATOM      3  C19 ZIN A   1      17.344   4.605  10.609  0.00  0.00     0.235 C 
ATOM      4  C20 ZIN A   1      18.216   3.517   9.979  0.00  0.00     0.036 C 
ATOM      5  C21 ZIN A   1      17.914   2.174  10.651  0.00  0.00     0.033 C 
ATOM      6  C36 ZIN A   1      18.150   2.305  12.159  0.00  0.00     0.036 C 
ATOM      7  C37 ZIN A   1      17.280   3.437  12.708  0.00  0.00     0.235 C 
ENDROOT
BRANCH   1   8
ATOM      8  C16 ZIN A   1      16.855   5.796  12.632  0.00  0.00     0.235 C 
BRANCH   8   9
ATOM      9  C15 ZIN A   1      17.063   5.817  14.147  0.00  0.00     0.030 C 
BRANCH   9  10
ATOM     10  C14 ZIN A   1      18.444   6.394  14.463  0.00  0.00     0.038 C 
BRANCH  10  11
ATOM     11  C11 ZIN A   1      18.811   6.073  15.915  0.00  0.00     0.151 C 
BRANCH  11  12
ATOM     12  C10 ZIN A   1      18.724   4.585  16.137  0.00  0.00    -0.030 A 
ATOM     13  C9  ZIN A   1      17.940   4.083  17.159  0.00  0.00     0.010 A 
ATOM     14  C8  ZIN A   1      17.859   2.719  17.362  0.00  0.00     0.009 A 
ATOM     15  C7  ZIN A   1      18.562   1.855  16.543  0.00  0.00    -0.040 A 
ATOM     16  C39 ZIN A   1      19.350   2.356  15.524  0.00  0.00     0.009 A 
ATOM     17  C38 ZIN A   1      19.428   3.721  15.319  0.00  0.00     0.010 A 
BRANCH  15  18
ATOM     18  C2  ZIN A   1      18.474   0.367  16.765  0.00  0.00     0.068 C 
ATOM     19  C1  ZIN A   1      18.839  -0.364  15.471  0.00  0.00     0.032 C 
ATOM     20  C3  ZIN A   1      17.048  -0.005  17.177  0.00  0.00     0.032 C 
BRANCH  18  21
ATOM     21  C4  ZIN A   1      19.433  -0.035  17.857  0.00  0.00     0.185 C 
ATOM     22  O5  ZIN A   1      19.961   0.819  18.548  0.00  0.00    -0.647 OA
ATOM     23  O6  ZIN A   1      19.678  -1.213  18.048  0.00  0.00    -0.647 OA
ENDBRANCH  18  21
ENDBRANCH  15  18
ENDBRANCH  11  12
BRANCH  11  24
ATOM     24  O13 ZIN A   1      20.143   6.516  16.179  0.00  0.00    -0.391 OA
ATOM     25  H48 ZIN A   1      20.806   5.813  16.146  0.00  0.00     0.210 HD
ENDBRANCH  11  24
ENDBRANCH  10  11
ENDBRANCH   9  10
ENDBRANCH   8   9
ENDBRANCH   1   8
BRANCH   5  26
ATOM     26  C22 ZIN A   1      18.838   1.097  10.080  0.00  0.00     0.116 C 
BRANCH  26  27
ATOM     27  O23 ZIN A   1      20.195   1.537  10.169  0.00  0.00    -0.380 OA
ATOM     28  H60 ZIN A   1      20.291   2.493  10.273  0.00  0.00     0.211 HD
ENDBRANCH  26  27
BRANCH  26  29
ATOM     29  C24 ZIN A   1      18.670  -0.178  10.868  0.00  0.00    -0.019 A 
ATOM     30  C29 ZIN A   1      19.769  -0.971  11.140  0.00  0.00     0.010 A 
ATOM     31  C28 ZIN A   1      19.616  -2.138  11.866  0.00  0.00     0.001 A 
ATOM     32  C27 ZIN A   1      18.363  -2.515  12.311  0.00  0.00     0.000 A 
ATOM     33  C26 ZIN A   1      17.264  -1.724  12.034  0.00  0.00     0.001 A 
ATOM     34  C25 ZIN A   1      17.417  -0.555  11.312  0.00  0.00     0.010 A 
ENDBRANCH  26  29
BRANCH  26  35
ATOM     35  C30 ZIN A   1      18.484   0.845   8.637  0.00  0.00    -0.019 A 
ATOM     36  C35 ZIN A   1      19.262   1.388   7.630  0.00  0.00     0.010 A 
ATOM     37  C34 ZIN A   1      18.940   1.155   6.307  0.00  0.00     0.001 A 
ATOM     38  C33 ZIN A   1      17.836   0.386   5.989  0.00  0.00     0.000 A 
ATOM     39  C32 ZIN A   1      17.056  -0.153   6.996  0.00  0.00     0.001 A 
ATOM     40  C31 ZIN A   1      17.380   0.078   8.319  0.00  0.00     0.010 A 
ENDBRANCH  26  35
ENDBRANCH   5  26
TORSDOF 12
ENDMDL
MODEL 6
REMARK VINA RESULT:      -8.4      2.322      5.502
REMARK  12 active torsions:
REMARK  status: ('A' for Active; 'I' for Inactive)
REMARK    1  A    between atoms: C2_2  and  C4_4 
REMARK    2  A    between atoms: C2_2  and  C7_7 
REMARK    3  A    between atoms: C10_10  and  C11_11 
REMARK    4  A    between atoms: C11_11  and  O13_12 
REMARK    5  A    between atoms: C11_11  and  C14_13 
REMARK    6  A    between atoms: C14_13  and  C15_14 
REMARK    7  A    between atoms: C15_14  and  C16_15 
REMARK    8  A    between atoms: C16_15  and  N17_16 
REMARK    9  A    between atoms: C21_20  and  C22_21 
REMARK   10  A    between atoms: C22_21  and  O23_22 
REMARK   11  A    between atoms: C22_21  and  C24_23 
REMARK   12  A    between atoms: C22_21  and  C30_29 
ROOT
ATOM      1  N17 ZIN A   1      18.134  -4.240  11.712  0.00  0.00    -0.071 N 
ATOM      2  H18 ZIN A   1      17.998  -4.307  12.710  0.00  0.00     0.279 HD
ATOM      3  C19 ZIN A   1      17.320  -3.141  11.180  0.00  0.00     0.235 C 
ATOM      4  C20 ZIN A   1      17.687  -1.838  11.894  0.00  0.00     0.036 C 
ATOM      5  C21 ZIN A   1      19.170  -1.535  11.662  0.00  0.00     0.033 C 
ATOM      6  C36 ZIN A   1      20.006  -2.722  12.153  0.00  0.00     0.036 C 
ATOM      7  C37 ZIN A   1      19.553  -3.991  11.428  0.00  0.00     0.235 C 
ENDROOT
BRANCH   1   8
ATOM      8  C16 ZIN A   1      17.724  -5.502  11.080  0.00  0.00     0.235 C 
BRANCH   8   9
ATOM      9  C15 ZIN A   1      17.394  -5.252   9.608  0.00  0.00     0.030 C 
BRANCH   9  10
ATOM     10  C14 ZIN A   1      17.862  -6.444   8.771  0.00  0.00     0.038 C 
BRANCH  10  11
ATOM     11  C11 ZIN A   1      19.058  -6.025   7.911  0.00  0.00     0.151 C 
BRANCH  11  12
ATOM     12  C10 ZIN A   1      18.876  -4.599   7.459  0.00  0.00    -0.030 A 
ATOM     13  C9  ZIN A   1      18.209  -4.327   6.279  0.00  0.00     0.010 A 
ATOM     14  C8  ZIN A   1      18.041  -3.019   5.865  0.00  0.00     0.009 A 
ATOM     15  C7  ZIN A   1      18.540  -1.982   6.631  0.00  0.00    -0.040 A 
ATOM     16  C39 ZIN A   1      19.212  -2.254   7.808  0.00  0.00     0.009 A 
ATOM     17  C38 ZIN A   1      19.376  -3.562   8.224  0.00  0.00     0.010 A 
BRANCH  15  18
ATOM     18  C2  ZIN A   1      18.358  -0.556   6.180  0.00  0.00     0.068 C 
ATOM     19  C1  ZIN A   1      19.082   0.382   7.148  0.00  0.00     0.032 C 
ATOM     20  C3  ZIN A   1      16.866  -0.214   6.156  0.00  0.00     0.032 C 
BRANCH  18  21
ATOM     21  C4  ZIN A   1      18.933  -0.391   4.796  0.00  0.00     0.185 C 
ATOM     22  O5  ZIN A   1      18.211  -0.051   3.874  0.00  0.00    -0.647 OA
ATOM     23  O6  ZIN A   1      20.118  -0.595   4.600  0.00  0.00    -0.647 OA
ENDBRANCH  18  21
ENDBRANCH  15  18
ENDBRANCH  11  12
BRANCH  11  24
ATOM     24  O13 ZIN A   1      20.258  -6.132   8.678  0.00  0.00    -0.391 OA
ATOM     25  H48 ZIN A   1      21.010  -5.655   8.301  0.00  0.00     0.210 HD
ENDBRANCH  11  24
ENDBRANCH  10  11
ENDBRANCH   9  10
ENDBRANCH   8   9
ENDBRANCH   1   8
BRANCH   5  26
ATOM     26  C22 ZIN A   1      19.563  -0.277  12.438  0.00  0.00     0.116 C 
BRANCH  26  27
ATOM     27  O23 ZIN A   1      20.983  -0.234  12.590  0.00  0.00    -0.380 OA
ATOM     28  H60 ZIN A   1      21.383   0.598  12.304  0.00  0.00     0.211 HD
ENDBRANCH  26  27
BRANCH  26  29
ATOM     29  C24 ZIN A   1      19.101   0.943  11.683  0.00  0.00    -0.019 A 
ATOM     30  C29 ZIN A   1      18.019   0.857  10.827  0.00  0.00     0.010 A 
ATOM     31  C28 ZIN A   1      17.593   1.977  10.137  0.00  0.00     0.001 A 
ATOM     32  C27 ZIN A   1      18.254   3.180  10.296  0.00  0.00     0.000 A 
ATOM     33  C26 ZIN A   1      19.339   3.264  11.149  0.00  0.00     0.001 A 
ATOM     34  C25 ZIN A   1      19.763   2.146  11.842  0.00  0.00     0.010 A 
ENDBRANCH  26  29
BRANCH  26  35
ATOM     35  C30 ZIN A   1      18.912  -0.302  13.797  0.00  0.00    -0.019 A 
ATOM     36  C35 ZIN A   1      19.321  -1.226  14.741  0.00  0.00     0.010 A 
ATOM     37  C34 ZIN A   1      18.727  -1.247  15.989  0.00  0.00     0.001 A 
ATOM     38  C33 ZIN A   1      17.718  -0.351  16.290  0.00  0.00     0.000 A 
ATOM     39  C32 ZIN A   1      17.306   0.569  15.344  0.00  0.00     0.001 A 
ATOM     40  C31 ZIN A   1      17.903   0.593  14.098  0.00  0.00     0.010 A 
ENDBRANCH  26  35
ENDBRANCH   5  26
TORSDOF 12
ENDMDL
MODEL 7
REMARK VINA RESULT:      -8.2      2.408      5.285
REMARK  12 active torsions:
REMARK  status: ('A' for Active; 'I' for Inactive)
REMARK    1  A    between atoms: C2_2  and  C4_4 
REMARK    2  A    between atoms: C2_2  and  C7_7 
REMARK    3  A    between atoms: C10_10  and  C11_11 
REMARK    4  A    between atoms: C11_11  and  O13_12 
REMARK    5  A    between atoms: C11_11  and  C14_13 
REMARK    6  A    between atoms: C14_13  and  C15_14 
REMARK    7  A    between atoms: C15_14  and  C16_15 
REMARK    8  A    between atoms: C16_15  and  N17_16 
REMARK    9  A    between atoms: C21_20  and  C22_21 
REMARK   10  A    between atoms: C22_21  and  O23_22 
REMARK   11  A    between atoms: C22_21  and  C24_23 
REMARK   12  A    between atoms: C22_21  and  C30_29 
ROOT
ATOM      1  N17 ZIN A   1      18.104  -4.459  10.188  0.00  0.00    -0.071 N 
ATOM      2  H18 ZIN A   1      19.020  -4.468   9.762  0.00  0.00     0.279 HD
ATOM      3  C19 ZIN A   1      18.246  -4.449  11.649  0.00  0.00     0.235 C 
ATOM      4  C20 ZIN A   1      19.085  -3.243  12.075  0.00  0.00     0.036 C 
ATOM      5  C21 ZIN A   1      18.391  -1.956  11.619  0.00  0.00     0.033 C 
ATOM      6  C36 ZIN A   1      18.182  -2.011  10.102  0.00  0.00     0.036 C 
ATOM      7  C37 ZIN A   1      17.375  -3.263   9.750  0.00  0.00     0.235 C 
ENDROOT
BRANCH   1   8
ATOM      8  C16 ZIN A   1      17.365  -5.660   9.777  0.00  0.00     0.235 C 
BRANCH   8   9
ATOM      9  C15 ZIN A   1      18.241  -6.509   8.854  0.00  0.00     0.030 C 
BRANCH   9  10
ATOM     10  C14 ZIN A   1      19.644  -5.902   8.784  0.00  0.00     0.038 C 
BRANCH  10  11
ATOM     11  C11 ZIN A   1      20.046  -5.717   7.319  0.00  0.00     0.151 C 
BRANCH  11  12
ATOM     12  C10 ZIN A   1      19.544  -4.384   6.825  0.00  0.00    -0.030 A 
ATOM     13  C9  ZIN A   1      20.097  -3.214   7.311  0.00  0.00     0.010 A 
ATOM     14  C8  ZIN A   1      19.637  -1.992   6.858  0.00  0.00     0.009 A 
ATOM     15  C7  ZIN A   1      18.624  -1.940   5.919  0.00  0.00    -0.040 A 
ATOM     16  C39 ZIN A   1      18.068  -3.110   5.437  0.00  0.00     0.009 A 
ATOM     17  C38 ZIN A   1      18.530  -4.332   5.887  0.00  0.00     0.010 A 
BRANCH  15  18
ATOM     18  C2  ZIN A   1      18.122  -0.607   5.425  0.00  0.00     0.068 C 
ATOM     19  C1  ZIN A   1      17.693  -0.734   3.962  0.00  0.00     0.032 C 
ATOM     20  C3  ZIN A   1      19.238   0.434   5.542  0.00  0.00     0.032 C 
BRANCH  18  21
ATOM     21  C4  ZIN A   1      16.943  -0.175   6.258  0.00  0.00     0.185 C 
ATOM     22  O5  ZIN A   1      15.850  -0.028   5.738  0.00  0.00    -0.647 OA
ATOM     23  O6  ZIN A   1      17.082   0.027   7.452  0.00  0.00    -0.647 OA
ENDBRANCH  18  21
ENDBRANCH  15  18
ENDBRANCH  11  12
BRANCH  11  24
ATOM     24  O13 ZIN A   1      21.469  -5.761   7.206  0.00  0.00    -0.391 OA
ATOM     25  H48 ZIN A   1      21.859  -4.961   6.827  0.00  0.00     0.210 HD
ENDBRANCH  11  24
ENDBRANCH  10  11
ENDBRANCH   9  10
ENDBRANCH   8   9
ENDBRANCH   1   8
BRANCH   5  26
ATOM     26  C22 ZIN A   1      19.264  -0.751  11.971  0.00  0.00     0.116 C 
BRANCH  26  27
ATOM     27  O23 ZIN A   1      20.642  -1.116  11.876  0.00  0.00    -0.380 OA
ATOM     28  H60 ZIN A   1      20.804  -1.896  11.328  0.00  0.00     0.211 HD
ENDBRANCH  26  27
BRANCH  26  29
ATOM     29  C24 ZIN A   1      18.976   0.376  11.012  0.00  0.00    -0.019 A 
ATOM     30  C29 ZIN A   1      19.815   0.599   9.936  0.00  0.00     0.010 A 
ATOM     31  C28 ZIN A   1      19.548   1.629   9.054  0.00  0.00     0.001 A 
ATOM     32  C27 ZIN A   1      18.448   2.442   9.252  0.00  0.00     0.000 A 
ATOM     33  C26 ZIN A   1      17.612   2.221  10.331  0.00  0.00     0.001 A 
ATOM     34  C25 ZIN A   1      17.876   1.189  11.211  0.00  0.00     0.010 A 
ENDBRANCH  26  29
BRANCH  26  35
ATOM     35  C30 ZIN A   1      18.958  -0.303  13.377  0.00  0.00    -0.019 A 
ATOM     36  C35 ZIN A   1      19.627   0.779  13.919  0.00  0.00     0.010 A 
ATOM     37  C34 ZIN A   1      19.343   1.192  15.207  0.00  0.00     0.001 A 
ATOM     38  C33 ZIN A   1      18.399   0.518  15.957  0.00  0.00     0.000 A 
ATOM     39  C32 ZIN A   1      17.734  -0.568  15.417  0.00  0.00     0.001 A 
ATOM     40  C31 ZIN A   1      18.014  -0.978  14.128  0.00  0.00     0.010 A 
ENDBRANCH  26  35
ENDBRANCH   5  26
TORSDOF 12
ENDMDL
MODEL 8
REMARK VINA RESULT:      -8.1      2.268      4.218
REMARK  12 active torsions:
REMARK  status: ('A' for Active; 'I' for Inactive)
REMARK    1  A    between atoms: C2_2  and  C4_4 
REMARK    2  A    between atoms: C2_2  and  C7_7 
REMARK    3  A    between atoms: C10_10  and  C11_11 
REMARK    4  A    between atoms: C11_11  and  O13_12 
REMARK    5  A    between atoms: C11_11  and  C14_13 
REMARK    6  A    between atoms: C14_13  and  C15_14 
REMARK    7  A    between atoms: C15_14  and  C16_15 
REMARK    8  A    between atoms: C16_15  and  N17_16 
REMARK    9  A    between atoms: C21_20  and  C22_21 
REMARK   10  A    between atoms: C22_21  and  O23_22 
REMARK   11  A    between atoms: C22_21  and  C24_23 
REMARK   12  A    between atoms: C22_21  and  C30_29 
ROOT
ATOM      1  N17 ZIN A   1      18.242   0.787   6.655  0.00  0.00    -0.071 N 
ATOM      2  H18 ZIN A   1      17.447   1.410   6.642  0.00  0.00     0.279 HD
ATOM      3  C19 ZIN A   1      19.339   1.412   7.404  0.00  0.00     0.235 C 
ATOM      4  C20 ZIN A   1      18.863   1.760   8.816  0.00  0.00     0.036 C 
ATOM      5  C21 ZIN A   1      18.419   0.480   9.530  0.00  0.00     0.033 C 
ATOM      6  C36 ZIN A   1      17.325  -0.202   8.701  0.00  0.00     0.036 C 
ATOM      7  C37 ZIN A   1      17.859  -0.478   7.294  0.00  0.00     0.235 C 
ENDROOT
BRANCH   1   8
ATOM      8  C16 ZIN A   1      18.678   0.526   5.277  0.00  0.00     0.235 C 
BRANCH   8   9
ATOM      9  C15 ZIN A   1      18.138  -0.830   4.819  0.00  0.00     0.030 C 
BRANCH   9  10
ATOM     10  C14 ZIN A   1      19.306  -1.737   4.425  0.00  0.00     0.038 C 
BRANCH  10  11
ATOM     11  C11 ZIN A   1      18.823  -3.187   4.351  0.00  0.00     0.151 C 
BRANCH  11  12
ATOM     12  C10 ZIN A   1      18.647  -3.730   5.746  0.00  0.00    -0.030 A 
ATOM     13  C9  ZIN A   1      19.556  -3.402   6.735  0.00  0.00     0.010 A 
ATOM     14  C8  ZIN A   1      19.394  -3.899   8.015  0.00  0.00     0.009 A 
ATOM     15  C7  ZIN A   1      18.323  -4.723   8.306  0.00  0.00    -0.040 A 
ATOM     16  C39 ZIN A   1      17.418  -5.055   7.316  0.00  0.00     0.009 A 
ATOM     17  C38 ZIN A   1      17.577  -4.555   6.037  0.00  0.00     0.010 A 
BRANCH  15  18
ATOM     18  C2  ZIN A   1      18.147  -5.265   9.701  0.00  0.00     0.068 C 
ATOM     19  C1  ZIN A   1      19.505  -5.316  10.403  0.00  0.00     0.032 C 
ATOM     20  C3  ZIN A   1      17.555  -6.675   9.630  0.00  0.00     0.032 C 
BRANCH  18  21
ATOM     21  C4  ZIN A   1      17.215  -4.368  10.474  0.00  0.00     0.185 C 
ATOM     22  O5  ZIN A   1      17.136  -3.184  10.193  0.00  0.00    -0.647 OA
ATOM     23  O6  ZIN A   1      16.541  -4.826  11.380  0.00  0.00    -0.647 OA
ENDBRANCH  18  21
ENDBRANCH  15  18
ENDBRANCH  11  12
BRANCH  11  24
ATOM     24  O13 ZIN A   1      17.575  -3.240   3.659  0.00  0.00    -0.391 OA
ATOM     25  H48 ZIN A   1      16.958  -3.897   4.009  0.00  0.00     0.210 HD
ENDBRANCH  11  24
ENDBRANCH  10  11
ENDBRANCH   9  10
ENDBRANCH   8   9
ENDBRANCH   1   8
BRANCH   5  26
ATOM     26  C22 ZIN A   1      17.868   0.831  10.914  0.00  0.00     0.116 C 
BRANCH  26  27
ATOM     27  O23 ZIN A   1      16.439   0.832  10.871  0.00  0.00    -0.380 OA
ATOM     28  H60 ZIN A   1      16.028   1.401  11.536  0.00  0.00     0.211 HD
ENDBRANCH  26  27
BRANCH  26  29
ATOM     29  C24 ZIN A   1      18.340  -0.192  11.916  0.00  0.00    -0.019 A 
ATOM     30  C29 ZIN A   1      19.241  -1.168  11.535  0.00  0.00     0.010 A 
ATOM     31  C28 ZIN A   1      19.677  -2.103  12.455  0.00  0.00     0.001 A 
ATOM     32  C27 ZIN A   1      19.204  -2.068  13.753  0.00  0.00     0.000 A 
ATOM     33  C26 ZIN A   1      18.299  -1.095  14.132  0.00  0.00     0.001 A 
ATOM     34  C25 ZIN A   1      17.866  -0.156  13.214  0.00  0.00     0.010 A 
ENDBRANCH  26  29
BRANCH  26  35
ATOM     35  C30 ZIN A   1      18.361   2.196  11.319  0.00  0.00    -0.019 A 
ATOM     36  C35 ZIN A   1      17.473   3.251  11.413  0.00  0.00     0.010 A 
ATOM     37  C34 ZIN A   1      17.925   4.502  11.788  0.00  0.00     0.001 A 
ATOM     38  C33 ZIN A   1      19.265   4.701  12.061  0.00  0.00     0.000 A 
ATOM     39  C32 ZIN A   1      20.154   3.646  11.962  0.00  0.00     0.001 A 
ATOM     40  C31 ZIN A   1      19.702   2.394  11.591  0.00  0.00     0.010 A 
ENDBRANCH  26  35
ENDBRANCH   5  26
TORSDOF 12
ENDMDL
MODEL 9
REMARK VINA RESULT:      -8.0      2.046      7.570
REMARK  12 active torsions:
REMARK  status: ('A' for Active; 'I' for Inactive)
REMARK    1  A    between atoms: C2_2  and  C4_4 
REMARK    2  A    between atoms: C2_2  and  C7_7 
REMARK    3  A    between atoms: C10_10  and  C11_11 
REMARK    4  A    between atoms: C11_11  and  O13_12 
REMARK    5  A    between atoms: C11_11  and  C14_13 
REMARK    6  A    between atoms: C14_13  and  C15_14 
REMARK    7  A    between atoms: C15_14  and  C16_15 
REMARK    8  A    between atoms: C16_15  and  N17_16 
REMARK    9  A    between atoms: C21_20  and  C22_21 
REMARK   10  A    between atoms: C22_21  and  O23_22 
REMARK   11  A    between atoms: C22_21  and  C24_23 
REMARK   12  A    between atoms: C22_21  and  C30_29 
ROOT
ATOM      1  N17 ZIN A   1      19.359  -5.323  10.201  0.00  0.00    -0.071 N 
ATOM      2  H18 ZIN A   1      19.781  -6.238  10.253  0.00  0.00     0.279 HD
ATOM      3  C19 ZIN A   1      19.679  -4.711   8.905  0.00  0.00     0.235 C 
ATOM      4  C20 ZIN A   1      19.202  -5.626   7.774  0.00  0.00     0.036 C 
ATOM      5  C21 ZIN A   1      17.687  -5.822   7.888  0.00  0.00     0.033 C 
ATOM      6  C36 ZIN A   1      17.359  -6.391   9.272  0.00  0.00     0.036 C 
ATOM      7  C37 ZIN A   1      17.904  -5.447  10.347  0.00  0.00     0.235 C 
ENDROOT
BRANCH   1   8
ATOM      8  C16 ZIN A   1      19.888  -4.480  11.282  0.00  0.00     0.235 C 
BRANCH   8   9
ATOM      9  C15 ZIN A   1      18.767  -3.599  11.837  0.00  0.00     0.030 C 
BRANCH   9  10
ATOM     10  C14 ZIN A   1      19.341  -2.239  12.239  0.00  0.00     0.038 C 
BRANCH  10  11
ATOM     11  C11 ZIN A   1      18.358  -1.134  11.840  0.00  0.00     0.151 C 
BRANCH  11  12
ATOM     12  C10 ZIN A   1      18.420  -0.922  10.350  0.00  0.00    -0.030 A 
ATOM     13  C9  ZIN A   1      19.260   0.041   9.823  0.00  0.00     0.010 A 
ATOM     14  C8  ZIN A   1      19.317   0.236   8.456  0.00  0.00     0.009 A 
ATOM     15  C7  ZIN A   1      18.534  -0.532   7.615  0.00  0.00    -0.040 A 
ATOM     16  C39 ZIN A   1      17.689  -1.491   8.142  0.00  0.00     0.009 A 
ATOM     17  C38 ZIN A   1      17.635  -1.688   9.509  0.00  0.00     0.010 A 
BRANCH  15  18
ATOM     18  C2  ZIN A   1      18.595  -0.319   6.124  0.00  0.00     0.068 C 
ATOM     19  C1  ZIN A   1      19.194   1.058   5.830  0.00  0.00     0.032 C 
ATOM     20  C3  ZIN A   1      17.184  -0.398   5.539  0.00  0.00     0.032 C 
BRANCH  18  21
ATOM     21  C4  ZIN A   1      19.458  -1.386   5.500  0.00  0.00     0.185 C 
ATOM     22  O5  ZIN A   1      19.754  -2.381   6.139  0.00  0.00    -0.647 OA
ATOM     23  O6  ZIN A   1      19.859  -1.253   4.357  0.00  0.00    -0.647 OA
ENDBRANCH  18  21
ENDBRANCH  15  18
ENDBRANCH  11  12
BRANCH  11  24
ATOM     24  O13 ZIN A   1      17.033  -1.517  12.212  0.00  0.00    -0.391 OA
ATOM     25  H48 ZIN A   1      16.379  -0.812  12.118  0.00  0.00     0.210 HD
ENDBRANCH  11  24
ENDBRANCH  10  11
ENDBRANCH   9  10
ENDBRANCH   8   9
ENDBRANCH   1   8
BRANCH   5  26
ATOM     26  C22 ZIN A   1      17.216  -6.799   6.809  0.00  0.00     0.116 C 
BRANCH  26  27
ATOM     27  O23 ZIN A   1      18.044  -7.963   6.825  0.00  0.00    -0.380 OA
ATOM     28  H60 ZIN A   1      17.778  -8.624   7.479  0.00  0.00     0.211 HD
ENDBRANCH  26  27
BRANCH  26  29
ATOM     29  C24 ZIN A   1      15.786  -7.195   7.080  0.00  0.00    -0.019 A 
ATOM     30  C29 ZIN A   1      14.819  -6.221   7.240  0.00  0.00     0.010 A 
ATOM     31  C28 ZIN A   1      13.507  -6.584   7.485  0.00  0.00     0.001 A 
ATOM     32  C27 ZIN A   1      13.166  -7.920   7.579  0.00  0.00     0.000 A 
ATOM     33  C26 ZIN A   1      14.135  -8.893   7.423  0.00  0.00     0.001 A 
ATOM     34  C25 ZIN A   1      15.446  -8.531   7.174  0.00  0.00     0.010 A 
ENDBRANCH  26  29
BRANCH  26  35
ATOM     35  C30 ZIN A   1      17.305  -6.136   5.458  0.00  0.00    -0.019 A 
ATOM     36  C35 ZIN A   1      17.348  -6.907   4.312  0.00  0.00     0.010 A 
ATOM     37  C34 ZIN A   1      17.427  -6.300   3.073  0.00  0.00     0.001 A 
ATOM     38  C33 ZIN A   1      17.472  -4.921   2.981  0.00  0.00     0.000 A 
ATOM     39  C32 ZIN A   1      17.434  -4.151   4.128  0.00  0.00     0.001 A 
ATOM     40  C31 ZIN A   1      17.351  -4.758   5.366  0.00  0.00     0.010 A 
ENDBRANCH  26  35
ENDBRANCH   5  26
TORSDOF 12
ENDMDL
