MODEL 1
REMARK VINA RESULT:      -7.0      0.000      0.000
REMARK  4 active torsions:
REMARK  status: ('A' for Active; 'I' for Inactive)
REMARK    1  A    between atoms: O2_2  and  C3_3 
REMARK    2  A    between atoms: C6_6  and  C7_7 
REMARK    3  A    between atoms: C7_7  and  C9_9 
REMARK    4  A    between atoms: C15_15  and  O16_16 
ROOT
ATOM      1  C3  ZIN A   1      19.142  -0.597  14.176  0.00  0.00     0.070 A 
ATOM      2  C4  ZIN A   1      17.847  -0.721  13.680  0.00  0.00     0.038 A 
ATOM      3  C5  ZIN A   1      17.433   0.046  12.630  0.00  0.00     0.021 A 
ATOM      4  C6  ZIN A   1      18.310   0.965  12.045  0.00  0.00     0.048 A 
ATOM      5  C15 ZIN A   1      19.617   1.095  12.542  0.00  0.00     0.082 A 
ATOM      6  C17 ZIN A   1      20.023   0.315  13.610  0.00  0.00     0.074 A 
ENDROOT
BRANCH   4   7
ATOM      7  C7  ZIN A   1      17.864   1.793  10.913  0.00  0.00     0.195 C 
ATOM      8  O8  ZIN A   1      17.341   2.872  11.117  0.00  0.00    -0.287 OA
BRANCH   7   9
ATOM      9  C9  ZIN A   1      18.054   1.315   9.526  0.00  0.00     0.015 A 
ATOM     10  C14 ZIN A   1      17.341   0.207   9.064  0.00  0.00     0.015 A 
ATOM     11  C13 ZIN A   1      17.518  -0.231   7.768  0.00  0.00     0.001 A 
ATOM     12  C12 ZIN A   1      18.407   0.418   6.930  0.00  0.00     0.000 A 
ATOM     13  C11 ZIN A   1      19.121   1.514   7.384  0.00  0.00     0.001 A 
ATOM     14  C10 ZIN A   1      18.950   1.966   8.676  0.00  0.00     0.015 A 
ENDBRANCH   7   9
ENDBRANCH   4   7
BRANCH   5  15
ATOM     15  O16 ZIN A   1      20.476   1.983  11.981  0.00  0.00    -0.360 OA
ATOM     16  H28 ZIN A   1      21.383   1.910  12.306  0.00  0.00     0.217 HD
ENDBRANCH   5  15
BRANCH   1  17
ATOM     17  O2  ZIN A   1      19.543  -1.365  15.220  0.00  0.00    -0.356 OA
ATOM     18  C1  ZIN A   1      18.689  -1.398  16.366  0.00  0.00     0.210 C 
ENDBRANCH   1  17
TORSDOF 4
ENDMDL
MODEL 2
REMARK VINA RESULT:      -7.0      0.901      2.048
REMARK  4 active torsions:
REMARK  status: ('A' for Active; 'I' for Inactive)
REMARK    1  A    between atoms: O2_2  and  C3_3 
REMARK    2  A    between atoms: C6_6  and  C7_7 
REMARK    3  A    between atoms: C7_7  and  C9_9 
REMARK    4  A    between atoms: C15_15  and  O16_16 
ROOT
ATOM      1  C3  ZIN A   1      19.094  -0.635  13.917  0.00  0.00     0.070 A 
ATOM      2  C4  ZIN A   1      19.983   0.231  13.288  0.00  0.00     0.038 A 
ATOM      3  C5  ZIN A   1      19.572   0.999  12.238  0.00  0.00     0.021 A 
ATOM      4  C6  ZIN A   1      18.250   0.920  11.786  0.00  0.00     0.048 A 
ATOM      5  C15 ZIN A   1      17.350   0.046  12.417  0.00  0.00     0.082 A 
ATOM      6  C17 ZIN A   1      17.780  -0.731  13.477  0.00  0.00     0.074 A 
ENDROOT
BRANCH   4   7
ATOM      7  C7  ZIN A   1      17.806   1.748  10.653  0.00  0.00     0.195 C 
ATOM      8  O8  ZIN A   1      17.225   2.797  10.857  0.00  0.00    -0.287 OA
BRANCH   7   9
ATOM      9  C9  ZIN A   1      18.067   1.306   9.266  0.00  0.00     0.015 A 
ATOM     10  C14 ZIN A   1      18.972   2.005   8.466  0.00  0.00     0.015 A 
ATOM     11  C13 ZIN A   1      19.216   1.584   7.175  0.00  0.00     0.001 A 
ATOM     12  C12 ZIN A   1      18.556   0.478   6.669  0.00  0.00     0.000 A 
ATOM     13  C11 ZIN A   1      17.653  -0.216   7.455  0.00  0.00     0.001 A 
ATOM     14  C10 ZIN A   1      17.405   0.190   8.749  0.00  0.00     0.015 A 
ENDBRANCH   7   9
ENDBRANCH   4   7
BRANCH   5  15
ATOM     15  O16 ZIN A   1      16.066  -0.038  11.987  0.00  0.00    -0.360 OA
ATOM     16  H28 ZIN A   1      15.917  -0.728  11.326  0.00  0.00     0.217 HD
ENDBRANCH   5  15
BRANCH   1  17
ATOM     17  O2  ZIN A   1      19.513  -1.395  14.960  0.00  0.00    -0.356 OA
ATOM     18  C1  ZIN A   1      18.917  -1.134  16.233  0.00  0.00     0.210 C 
ENDBRANCH   1  17
TORSDOF 4
ENDMDL
MODEL 3
REMARK VINA RESULT:      -7.0      2.856      3.721
REMARK  4 active torsions:
REMARK  status: ('A' for Active; 'I' for Inactive)
REMARK    1  A    between atoms: O2_2  and  C3_3 
REMARK    2  A    between atoms: C6_6  and  C7_7 
REMARK    3  A    between atoms: C7_7  and  C9_9 
REMARK    4  A    between atoms: C15_15  and  O16_16 
ROOT
ATOM      1  C3  ZIN A   1      18.266   4.429  12.197  0.00  0.00     0.070 A 
ATOM      2  C4  ZIN A   1      17.332   3.909  11.306  0.00  0.00     0.038 A 
ATOM      3  C5  ZIN A   1      17.600   2.763  10.616  0.00  0.00     0.021 A 
ATOM      4  C6  ZIN A   1      18.820   2.103  10.799  0.00  0.00     0.048 A 
ATOM      5  C15 ZIN A   1      19.766   2.625  11.697  0.00  0.00     0.082 A 
ATOM      6  C17 ZIN A   1      19.484   3.791  12.386  0.00  0.00     0.074 A 
ENDROOT
BRANCH   4   7
ATOM      7  C7  ZIN A   1      19.110   0.867  10.055  0.00  0.00     0.195 C 
ATOM      8  O8  ZIN A   1      19.719  -0.038  10.593  0.00  0.00    -0.287 OA
BRANCH   7   9
ATOM      9  C9  ZIN A   1      18.662   0.724   8.653  0.00  0.00     0.015 A 
ATOM     10  C14 ZIN A   1      17.575  -0.096   8.346  0.00  0.00     0.015 A 
ATOM     11  C13 ZIN A   1      17.157  -0.219   7.036  0.00  0.00     0.001 A 
ATOM     12  C12 ZIN A   1      17.821   0.458   6.028  0.00  0.00     0.000 A 
ATOM     13  C11 ZIN A   1      18.902   1.268   6.326  0.00  0.00     0.001 A 
ATOM     14  C10 ZIN A   1      19.326   1.405   7.631  0.00  0.00     0.015 A 
ENDBRANCH   7   9
ENDBRANCH   4   7
BRANCH   5  15
ATOM     15  O16 ZIN A   1      20.952   1.992  11.882  0.00  0.00    -0.360 OA
ATOM     16  H28 ZIN A   1      21.724   2.550  11.718  0.00  0.00     0.217 HD
ENDBRANCH   5  15
BRANCH   1  17
ATOM     17  O2  ZIN A   1      17.989   5.570  12.877  0.00  0.00    -0.356 OA
ATOM     18  C1  ZIN A   1      16.621   5.806  13.217  0.00  0.00     0.210 C 
ENDBRANCH   1  17
TORSDOF 4
ENDMDL
MODEL 4
REMARK VINA RESULT:      -6.9      3.704      6.185
REMARK  4 active torsions:
REMARK  status: ('A' for Active; 'I' for Inactive)
REMARK    1  A    between atoms: O2_2  and  C3_3 
REMARK    2  A    between atoms: C6_6  and  C7_7 
REMARK    3  A    between atoms: C7_7  and  C9_9 
REMARK    4  A    between atoms: C15_15  and  O16_16 
ROOT
ATOM      1  C3  ZIN A   1      18.092  -5.020  10.757  0.00  0.00     0.070 A 
ATOM      2  C4  ZIN A   1      17.134  -4.134  11.241  0.00  0.00     0.038 A 
ATOM      3  C5  ZIN A   1      17.511  -2.945  11.795  0.00  0.00     0.021 A 
ATOM      4  C6  ZIN A   1      18.866  -2.609  11.881  0.00  0.00     0.048 A 
ATOM      5  C15 ZIN A   1      19.836  -3.501  11.394  0.00  0.00     0.082 A 
ATOM      6  C17 ZIN A   1      19.441  -4.705  10.840  0.00  0.00     0.074 A 
ENDROOT
BRANCH   4   7
ATOM      7  C7  ZIN A   1      19.273  -1.328  12.478  0.00  0.00     0.195 C 
ATOM      8  O8  ZIN A   1      19.984  -0.564  11.853  0.00  0.00    -0.287 OA
BRANCH   7   9
ATOM      9  C9  ZIN A   1      18.818  -0.968  13.839  0.00  0.00     0.015 A 
ATOM     10  C14 ZIN A   1      19.345  -1.627  14.951  0.00  0.00     0.015 A 
ATOM     11  C13 ZIN A   1      18.921  -1.282  16.218  0.00  0.00     0.001 A 
ATOM     12  C12 ZIN A   1      17.967  -0.294  16.386  0.00  0.00     0.000 A 
ATOM     13  C11 ZIN A   1      17.437   0.359  15.287  0.00  0.00     0.001 A 
ATOM     14  C10 ZIN A   1      17.856   0.029  14.016  0.00  0.00     0.015 A 
ENDBRANCH   7   9
ENDBRANCH   4   7
BRANCH   5  15
ATOM     15  O16 ZIN A   1      21.154  -3.185  11.472  0.00  0.00    -0.360 OA
ATOM     16  H28 ZIN A   1      21.634  -3.670  12.156  0.00  0.00     0.217 HD
ENDBRANCH   5  15
BRANCH   1  17
ATOM     17  O2  ZIN A   1      17.706  -6.199  10.208  0.00  0.00    -0.356 OA
ATOM     18  C1  ZIN A   1      16.657  -6.151   9.239  0.00  0.00     0.210 C 
ENDBRANCH   1  17
TORSDOF 4
ENDMDL
MODEL 5
REMARK VINA RESULT:      -6.8      2.048      2.546
REMARK  4 active torsions:
REMARK  status: ('A' for Active; 'I' for Inactive)
REMARK    1  A    between atoms: O2_2  and  C3_3 
REMARK    2  A    between atoms: C6_6  and  C7_7 
REMARK    3  A    between atoms: C7_7  and  C9_9 
REMARK    4  A    between atoms: C15_15  and  O16_16 
ROOT
ATOM      1  C3  ZIN A   1      18.744  -0.646  15.617  0.00  0.00     0.070 A 
ATOM      2  C4  ZIN A   1      18.136   0.594  15.450  0.00  0.00     0.038 A 
ATOM      3  C5  ZIN A   1      17.555   0.923  14.260  0.00  0.00     0.021 A 
ATOM      4  C6  ZIN A   1      17.568   0.013  13.197  0.00  0.00     0.048 A 
ATOM      5  C15 ZIN A   1      18.182  -1.239  13.361  0.00  0.00     0.082 A 
ATOM      6  C17 ZIN A   1      18.772  -1.559  14.571  0.00  0.00     0.074 A 
ENDROOT
BRANCH   4   7
ATOM      7  C7  ZIN A   1      16.942   0.367  11.913  0.00  0.00     0.195 C 
ATOM      8  O8  ZIN A   1      15.806   0.009  11.671  0.00  0.00    -0.287 OA
BRANCH   7   9
ATOM      9  C9  ZIN A   1      17.695   1.160  10.917  0.00  0.00     0.015 A 
ATOM     10  C14 ZIN A   1      18.479   0.517   9.958  0.00  0.00     0.015 A 
ATOM     11  C13 ZIN A   1      19.173   1.263   9.027  0.00  0.00     0.001 A 
ATOM     12  C12 ZIN A   1      19.103   2.644   9.050  0.00  0.00     0.000 A 
ATOM     13  C11 ZIN A   1      18.332   3.287  10.003  0.00  0.00     0.001 A 
ATOM     14  C10 ZIN A   1      17.628   2.555  10.935  0.00  0.00     0.015 A 
ENDBRANCH   7   9
ENDBRANCH   4   7
BRANCH   5  15
ATOM     15  O16 ZIN A   1      18.200  -2.130  12.337  0.00  0.00    -0.360 OA
ATOM     16  H28 ZIN A   1      18.860  -2.829  12.437  0.00  0.00     0.217 HD
ENDBRANCH   5  15
BRANCH   1  17
ATOM     17  O2  ZIN A   1      19.319  -0.963  16.804  0.00  0.00    -0.356 OA
ATOM     18  C1  ZIN A   1      19.146  -0.034  17.877  0.00  0.00     0.210 C 
ENDBRANCH   1  17
TORSDOF 4
ENDMDL
MODEL 6
REMARK VINA RESULT:      -6.6      2.815      3.872
REMARK  4 active torsions:
REMARK  status: ('A' for Active; 'I' for Inactive)
REMARK    1  A    between atoms: O2_2  and  C3_3 
REMARK    2  A    between atoms: C6_6  and  C7_7 
REMARK    3  A    between atoms: C7_7  and  C9_9 
REMARK    4  A    between atoms: C15_15  and  O16_16 
ROOT
ATOM      1  C3  ZIN A   1      18.486  -2.336  11.609  0.00  0.00     0.070 A 
ATOM      2  C4  ZIN A   1      17.442  -1.454  11.352  0.00  0.00     0.038 A 
ATOM      3  C5  ZIN A   1      17.687  -0.243  10.773  0.00  0.00     0.021 A 
ATOM      4  C6  ZIN A   1      18.995   0.121  10.435  0.00  0.00     0.048 A 
ATOM      5  C15 ZIN A   1      20.053  -0.767  10.693  0.00  0.00     0.082 A 
ATOM      6  C17 ZIN A   1      19.791  -1.989  11.285  0.00  0.00     0.074 A 
ENDROOT
BRANCH   4   7
ATOM      7  C7  ZIN A   1      19.261   1.426   9.811  0.00  0.00     0.195 C 
ATOM      8  O8  ZIN A   1      19.723   1.481   8.687  0.00  0.00    -0.287 OA
BRANCH   7   9
ATOM      9  C9  ZIN A   1      18.967   2.673  10.550  0.00  0.00     0.015 A 
ATOM     10  C14 ZIN A   1      17.853   3.442  10.210  0.00  0.00     0.015 A 
ATOM     11  C13 ZIN A   1      17.580   4.601  10.908  0.00  0.00     0.001 A 
ATOM     12  C12 ZIN A   1      18.415   5.008  11.933  0.00  0.00     0.000 A 
ATOM     13  C11 ZIN A   1      19.525   4.252  12.271  0.00  0.00     0.001 A 
ATOM     14  C10 ZIN A   1      19.805   3.089  11.586  0.00  0.00     0.015 A 
ENDBRANCH   7   9
ENDBRANCH   4   7
BRANCH   5  15
ATOM     15  O16 ZIN A   1      21.325  -0.425  10.368  0.00  0.00    -0.360 OA
ATOM     16  H28 ZIN A   1      21.705  -0.955   9.655  0.00  0.00     0.217 HD
ENDBRANCH   5  15
BRANCH   1  17
ATOM     17  O2  ZIN A   1      18.231  -3.538  12.185  0.00  0.00    -0.356 OA
ATOM     18  C1  ZIN A   1      18.658  -4.702  11.474  0.00  0.00     0.210 C 
ENDBRANCH   1  17
TORSDOF 4
ENDMDL
MODEL 7
REMARK VINA RESULT:      -6.5      3.500      6.266
REMARK  4 active torsions:
REMARK  status: ('A' for Active; 'I' for Inactive)
REMARK    1  A    between atoms: O2_2  and  C3_3 
REMARK    2  A    between atoms: C6_6  and  C7_7 
REMARK    3  A    between atoms: C7_7  and  C9_9 
REMARK    4  A    between atoms: C15_15  and  O16_16 
ROOT
ATOM      1  C3  ZIN A   1      18.468  -4.576  10.744  0.00  0.00     0.070 A 
ATOM      2  C4  ZIN A   1      19.725  -4.367  11.304  0.00  0.00     0.038 A 
ATOM      3  C5  ZIN A   1      19.996  -3.215  11.983  0.00  0.00     0.021 A 
ATOM      4  C6  ZIN A   1      19.009  -2.233  12.121  0.00  0.00     0.048 A 
ATOM      5  C15 ZIN A   1      17.739  -2.439  11.556  0.00  0.00     0.082 A 
ATOM      6  C17 ZIN A   1      17.479  -3.609  10.866  0.00  0.00     0.074 A 
ENDROOT
BRANCH   4   7
ATOM      7  C7  ZIN A   1      19.300  -0.990  12.853  0.00  0.00     0.195 C 
ATOM      8  O8  ZIN A   1      19.923  -0.097  12.311  0.00  0.00    -0.287 OA
BRANCH   7   9
ATOM      9  C9  ZIN A   1      18.834  -0.826  14.247  0.00  0.00     0.015 A 
ATOM     10  C14 ZIN A   1      19.390  -1.598  15.267  0.00  0.00     0.015 A 
ATOM     11  C13 ZIN A   1      18.955  -1.435  16.566  0.00  0.00     0.001 A 
ATOM     12  C12 ZIN A   1      17.961  -0.518  16.857  0.00  0.00     0.000 A 
ATOM     13  C11 ZIN A   1      17.401   0.246  15.848  0.00  0.00     0.001 A 
ATOM     14  C10 ZIN A   1      17.831   0.099  14.546  0.00  0.00     0.015 A 
ENDBRANCH   7   9
ENDBRANCH   4   7
BRANCH   5  15
ATOM     15  O16 ZIN A   1      16.774  -1.493  11.684  0.00  0.00    -0.360 OA
ATOM     16  H28 ZIN A   1      17.116  -0.601  11.834  0.00  0.00     0.217 HD
ENDBRANCH   5  15
BRANCH   1  17
ATOM     17  O2  ZIN A   1      18.210  -5.725  10.071  0.00  0.00    -0.356 OA
ATOM     18  C1  ZIN A   1      16.866  -5.929   9.629  0.00  0.00     0.210 C 
ENDBRANCH   1  17
TORSDOF 4
ENDMDL
MODEL 8
REMARK VINA RESULT:      -6.5      1.753      5.748
REMARK  4 active torsions:
REMARK  status: ('A' for Active; 'I' for Inactive)
REMARK    1  A    between atoms: O2_2  and  C3_3 
REMARK    2  A    between atoms: C6_6  and  C7_7 
REMARK    3  A    between atoms: C7_7  and  C9_9 
REMARK    4  A    between atoms: C15_15  and  O16_16 
ROOT
ATOM      1  C3  ZIN A   1      18.231   1.138   9.510  0.00  0.00     0.070 A 
ATOM      2  C4  ZIN A   1      17.254   0.530  10.292  0.00  0.00     0.038 A 
ATOM      3  C5  ZIN A   1      17.234   0.719  11.644  0.00  0.00     0.021 A 
ATOM      4  C6  ZIN A   1      18.201   1.527  12.253  0.00  0.00     0.048 A 
ATOM      5  C15 ZIN A   1      19.189   2.142  11.467  0.00  0.00     0.082 A 
ATOM      6  C17 ZIN A   1      19.201   1.938  10.099  0.00  0.00     0.074 A 
ENDROOT
BRANCH   4   7
ATOM      7  C7  ZIN A   1      18.181   1.731  13.710  0.00  0.00     0.195 C 
ATOM      8  O8  ZIN A   1      18.095   2.855  14.166  0.00  0.00    -0.287 OA
BRANCH   7   9
ATOM      9  C9  ZIN A   1      18.264   0.569  14.621  0.00  0.00     0.015 A 
ATOM     10  C14 ZIN A   1      17.311   0.398  15.627  0.00  0.00     0.015 A 
ATOM     11  C13 ZIN A   1      17.391  -0.692  16.469  0.00  0.00     0.001 A 
ATOM     12  C12 ZIN A   1      18.420  -1.607  16.327  0.00  0.00     0.000 A 
ATOM     13  C11 ZIN A   1      19.371  -1.439  15.336  0.00  0.00     0.001 A 
ATOM     14  C10 ZIN A   1      19.299  -0.358  14.483  0.00  0.00     0.015 A 
ENDBRANCH   7   9
ENDBRANCH   4   7
BRANCH   5  15
ATOM     15  O16 ZIN A   1      20.131   2.928  12.048  0.00  0.00    -0.360 OA
ATOM     16  H28 ZIN A   1      20.732   3.350  11.420  0.00  0.00     0.217 HD
ENDBRANCH   5  15
BRANCH   1  17
ATOM     17  O2  ZIN A   1      18.241   0.944   8.168  0.00  0.00    -0.356 OA
ATOM     18  C1  ZIN A   1      17.600  -0.237   7.679  0.00  0.00     0.210 C 
ENDBRANCH   1  17
TORSDOF 4
ENDMDL
MODEL 9
REMARK VINA RESULT:      -6.5      2.143      6.088
REMARK  4 active torsions:
REMARK  status: ('A' for Active; 'I' for Inactive)
REMARK    1  A    between atoms: O2_2  and  C3_3 
REMARK    2  A    between atoms: C6_6  and  C7_7 
REMARK    3  A    between atoms: C7_7  and  C9_9 
REMARK    4  A    between atoms: C15_15  and  O16_16 
ROOT
ATOM      1  C3  ZIN A   1      18.699   0.101   8.646  0.00  0.00     0.070 A 
ATOM      2  C4  ZIN A   1      17.634  -0.364   9.412  0.00  0.00     0.038 A 
ATOM      3  C5  ZIN A   1      17.854  -0.892  10.651  0.00  0.00     0.021 A 
ATOM      4  C6  ZIN A   1      19.155  -0.971  11.159  0.00  0.00     0.048 A 
ATOM      5  C15 ZIN A   1      20.233  -0.504  10.389  0.00  0.00     0.082 A 
ATOM      6  C17 ZIN A   1      19.997   0.025   9.132  0.00  0.00     0.074 A 
ENDROOT
BRANCH   4   7
ATOM      7  C7  ZIN A   1      19.393  -1.541  12.495  0.00  0.00     0.195 C 
ATOM      8  O8  ZIN A   1      19.797  -2.683  12.606  0.00  0.00    -0.287 OA
BRANCH   7   9
ATOM      9  C9  ZIN A   1      19.143  -0.725  13.703  0.00  0.00     0.015 A 
ATOM     10  C14 ZIN A   1      19.494   0.625  13.721  0.00  0.00     0.015 A 
ATOM     11  C13 ZIN A   1      19.252   1.382  14.849  0.00  0.00     0.001 A 
ATOM     12  C12 ZIN A   1      18.673   0.803  15.964  0.00  0.00     0.000 A 
ATOM     13  C11 ZIN A   1      18.328  -0.537  15.954  0.00  0.00     0.001 A 
ATOM     14  C10 ZIN A   1      18.558  -1.304  14.832  0.00  0.00     0.015 A 
ENDBRANCH   7   9
ENDBRANCH   4   7
BRANCH   5  15
ATOM     15  O16 ZIN A   1      21.499  -0.576  10.872  0.00  0.00    -0.360 OA
ATOM     16  H28 ZIN A   1      22.116   0.036  10.449  0.00  0.00     0.217 HD
ENDBRANCH   5  15
BRANCH   1  17
ATOM     17  O2  ZIN A   1      18.469   0.625   7.416  0.00  0.00    -0.356 OA
ATOM     18  C1  ZIN A   1      17.502  -0.040   6.599  0.00  0.00     0.210 C 
ENDBRANCH   1  17
TORSDOF 4
ENDMDL
