MODEL 1
REMARK VINA RESULT:      -9.6      0.000      0.000
REMARK  6 active torsions:
REMARK  status: ('A' for Active; 'I' for Inactive)
REMARK    1  A    between atoms: C2_2  and  C4_4 
REMARK    2  A    between atoms: C7_7  and  N8_8 
REMARK    3  A    between atoms: C10_10  and  C11_11 
REMARK    4  A    between atoms: C16_16  and  O17_17 
REMARK    5  A    between atoms: C19_19  and  C20_20 
REMARK    6  A    between atoms: C25_25  and  O26_26 
ROOT
ATOM      1  N8  ZIN A   1      18.700  -0.675  12.034  0.00  0.00    -0.213 N 
ATOM      2  N9  ZIN A   1      18.815   0.224  13.107  0.00  0.00    -0.144 NA
ATOM      3  C10 ZIN A   1      18.844  -0.494  14.209  0.00  0.00     0.184 A 
ATOM      4  N18 ZIN A   1      18.755  -1.791  13.890  0.00  0.00    -0.206 NA
ATOM      5  C19 ZIN A   1      18.661  -1.923  12.583  0.00  0.00     0.166 A 
ENDROOT
BRANCH   1   6
ATOM      6  C7  ZIN A   1      18.634  -0.356  10.677  0.00  0.00     0.060 A 
ATOM      7  C6  ZIN A   1      19.803  -0.259   9.929  0.00  0.00     0.032 A 
ATOM      8  C5  ZIN A   1      19.742   0.056   8.592  0.00  0.00     0.021 A 
ATOM      9  C4  ZIN A   1      18.503   0.278   7.983  0.00  0.00     0.041 A 
ATOM     10  C28 ZIN A   1      17.329   0.186   8.740  0.00  0.00     0.021 A 
ATOM     11  C27 ZIN A   1      17.399  -0.135  10.076  0.00  0.00     0.032 A 
BRANCH   9  12
ATOM     12  C2  ZIN A   1      18.432   0.615   6.550  0.00  0.00     0.209 C 
ATOM     13  O1  ZIN A   1      17.499   0.209   5.871  0.00  0.00    -0.644 OA
ATOM     14  O3  ZIN A   1      19.304   1.306   6.041  0.00  0.00    -0.644 OA
ENDBRANCH   9  12
ENDBRANCH   1   6
BRANCH   5  15
ATOM     15  C20 ZIN A   1      18.544  -3.196  11.843  0.00  0.00     0.045 A 
ATOM     16  C25 ZIN A   1      19.687  -3.817  11.325  0.00  0.00     0.079 A 
ATOM     17  C24 ZIN A   1      19.568  -5.014  10.637  0.00  0.00     0.037 A 
ATOM     18  C23 ZIN A   1      18.323  -5.586  10.454  0.00  0.00     0.003 A 
ATOM     19  C22 ZIN A   1      17.190  -4.973  10.960  0.00  0.00     0.001 A 
ATOM     20  C21 ZIN A   1      17.293  -3.783  11.651  0.00  0.00     0.018 A 
BRANCH  16  21
ATOM     21  O26 ZIN A   1      20.910  -3.253  11.506  0.00  0.00    -0.360 OA
ATOM     22  H40 ZIN A   1      21.503  -3.772  12.067  0.00  0.00     0.217 HD
ENDBRANCH  16  21
ENDBRANCH   5  15
BRANCH   3  23
ATOM     23  C11 ZIN A   1      18.958   0.047  15.585  0.00  0.00     0.047 A 
ATOM     24  C16 ZIN A   1      19.197   1.410  15.786  0.00  0.00     0.079 A 
ATOM     25  C15 ZIN A   1      19.296   1.908  17.075  0.00  0.00     0.037 A 
ATOM     26  C14 ZIN A   1      19.170   1.058  18.158  0.00  0.00     0.003 A 
ATOM     27  C13 ZIN A   1      18.938  -0.292  17.961  0.00  0.00     0.001 A 
ATOM     28  C12 ZIN A   1      18.832  -0.801  16.683  0.00  0.00     0.018 A 
BRANCH  24  29
ATOM     29  O17 ZIN A   1      19.321   2.244  14.722  0.00  0.00    -0.360 OA
ATOM     30  H35 ZIN A   1      20.227   2.538  14.555  0.00  0.00     0.217 HD
ENDBRANCH  24  29
ENDBRANCH   3  23
TORSDOF 6
ENDMDL
MODEL 2
REMARK VINA RESULT:      -9.6      2.958      8.279
REMARK  6 active torsions:
REMARK  status: ('A' for Active; 'I' for Inactive)
REMARK    1  A    between atoms: C2_2  and  C4_4 
REMARK    2  A    between atoms: C7_7  and  N8_8 
REMARK    3  A    between atoms: C10_10  and  C11_11 
REMARK    4  A    between atoms: C16_16  and  O17_17 
REMARK    5  A    between atoms: C19_19  and  C20_20 
REMARK    6  A    between atoms: C25_25  and  O26_26 
ROOT
ATOM      1  N8  ZIN A   1      18.628   0.308  10.765  0.00  0.00    -0.213 N 
ATOM      2  N9  ZIN A   1      18.694  -0.545   9.652  0.00  0.00    -0.144 NA
ATOM      3  C10 ZIN A   1      18.759   0.220   8.584  0.00  0.00     0.184 A 
ATOM      4  N18 ZIN A   1      18.738   1.504   8.962  0.00  0.00    -0.206 NA
ATOM      5  C19 ZIN A   1      18.653   1.580  10.274  0.00  0.00     0.166 A 
ENDROOT
BRANCH   1   6
ATOM      6  C7  ZIN A   1      18.547  -0.069  12.106  0.00  0.00     0.060 A 
ATOM      7  C6  ZIN A   1      17.439   0.299  12.864  0.00  0.00     0.032 A 
ATOM      8  C5  ZIN A   1      17.355  -0.070  14.186  0.00  0.00     0.021 A 
ATOM      9  C4  ZIN A   1      18.383  -0.818  14.769  0.00  0.00     0.041 A 
ATOM     10  C28 ZIN A   1      19.498  -1.181  14.005  0.00  0.00     0.021 A 
ATOM     11  C27 ZIN A   1      19.572  -0.813  12.682  0.00  0.00     0.032 A 
BRANCH   9  12
ATOM     12  C2  ZIN A   1      18.297  -1.217  16.185  0.00  0.00     0.209 C 
ATOM     13  O1  ZIN A   1      17.234  -1.129  16.783  0.00  0.00    -0.644 OA
ATOM     14  O3  ZIN A   1      19.289  -1.643  16.761  0.00  0.00    -0.644 OA
ENDBRANCH   9  12
ENDBRANCH   1   6
BRANCH   5  15
ATOM     15  C20 ZIN A   1      18.603   2.823  11.072  0.00  0.00     0.045 A 
ATOM     16  C25 ZIN A   1      19.749   3.281  11.732  0.00  0.00     0.079 A 
ATOM     17  C24 ZIN A   1      19.694   4.451  12.473  0.00  0.00     0.037 A 
ATOM     18  C23 ZIN A   1      18.509   5.155  12.569  0.00  0.00     0.003 A 
ATOM     19  C22 ZIN A   1      17.372   4.701  11.922  0.00  0.00     0.001 A 
ATOM     20  C21 ZIN A   1      17.412   3.541  11.177  0.00  0.00     0.018 A 
BRANCH  16  21
ATOM     21  O26 ZIN A   1      20.914   2.589  11.637  0.00  0.00    -0.360 OA
ATOM     22  H40 ZIN A   1      21.636   2.959  12.164  0.00  0.00     0.217 HD
ENDBRANCH  16  21
ENDBRANCH   5  15
BRANCH   3  23
ATOM     23  C11 ZIN A   1      18.843  -0.262   7.184  0.00  0.00     0.047 A 
ATOM     24  C16 ZIN A   1      19.290  -1.560   6.914  0.00  0.00     0.079 A 
ATOM     25  C15 ZIN A   1      19.359  -2.004   5.604  0.00  0.00     0.037 A 
ATOM     26  C14 ZIN A   1      18.999  -1.164   4.567  0.00  0.00     0.003 A 
ATOM     27  C13 ZIN A   1      18.561   0.121   4.831  0.00  0.00     0.001 A 
ATOM     28  C12 ZIN A   1      18.482   0.576   6.132  0.00  0.00     0.018 A 
BRANCH  24  29
ATOM     29  O17 ZIN A   1      19.644  -2.384   7.933  0.00  0.00    -0.360 OA
ATOM     30  H35 ZIN A   1      19.201  -3.243   7.917  0.00  0.00     0.217 HD
ENDBRANCH  24  29
ENDBRANCH   3  23
TORSDOF 6
ENDMDL
MODEL 3
REMARK VINA RESULT:      -9.4      3.011      3.754
REMARK  6 active torsions:
REMARK  status: ('A' for Active; 'I' for Inactive)
REMARK    1  A    between atoms: C2_2  and  C4_4 
REMARK    2  A    between atoms: C7_7  and  N8_8 
REMARK    3  A    between atoms: C10_10  and  C11_11 
REMARK    4  A    between atoms: C16_16  and  O17_17 
REMARK    5  A    between atoms: C19_19  and  C20_20 
REMARK    6  A    between atoms: C25_25  and  O26_26 
ROOT
ATOM      1  N8  ZIN A   1      18.167   1.438  10.190  0.00  0.00    -0.213 N 
ATOM      2  N9  ZIN A   1      17.900   2.763  10.569  0.00  0.00    -0.144 NA
ATOM      3  C10 ZIN A   1      17.852   2.784  11.884  0.00  0.00     0.184 A 
ATOM      4  N18 ZIN A   1      18.073   1.549  12.351  0.00  0.00    -0.206 NA
ATOM      5  C19 ZIN A   1      18.260   0.720  11.345  0.00  0.00     0.166 A 
ENDROOT
BRANCH   1   6
ATOM      6  C7  ZIN A   1      18.304   0.951   8.889  0.00  0.00     0.060 A 
ATOM      7  C6  ZIN A   1      19.350   1.398   8.087  0.00  0.00     0.032 A 
ATOM      8  C5  ZIN A   1      19.488   0.921   6.805  0.00  0.00     0.021 A 
ATOM      9  C4  ZIN A   1      18.577  -0.016   6.306  0.00  0.00     0.041 A 
ATOM     10  C28 ZIN A   1      17.523  -0.459   7.113  0.00  0.00     0.021 A 
ATOM     11  C27 ZIN A   1      17.395   0.019   8.397  0.00  0.00     0.032 A 
BRANCH   9  12
ATOM     12  C2  ZIN A   1      18.721  -0.531   4.934  0.00  0.00     0.209 C 
ATOM     13  O1  ZIN A   1      17.732  -0.697   4.234  0.00  0.00    -0.644 OA
ATOM     14  O3  ZIN A   1      19.833  -0.787   4.491  0.00  0.00    -0.644 OA
ENDBRANCH   9  12
ENDBRANCH   1   6
BRANCH   5  15
ATOM     15  C20 ZIN A   1      18.531  -0.729  11.451  0.00  0.00     0.045 A 
ATOM     16  C25 ZIN A   1      19.845  -1.206  11.373  0.00  0.00     0.079 A 
ATOM     17  C24 ZIN A   1      20.091  -2.566  11.479  0.00  0.00     0.037 A 
ATOM     18  C23 ZIN A   1      19.040  -3.447  11.649  0.00  0.00     0.003 A 
ATOM     19  C22 ZIN A   1      17.739  -2.980  11.721  0.00  0.00     0.001 A 
ATOM     20  C21 ZIN A   1      17.479  -1.629  11.622  0.00  0.00     0.018 A 
BRANCH  16  21
ATOM     21  O26 ZIN A   1      20.877  -0.338  11.206  0.00  0.00    -0.360 OA
ATOM     22  H40 ZIN A   1      21.363  -0.144  12.019  0.00  0.00     0.217 HD
ENDBRANCH  16  21
ENDBRANCH   5  15
BRANCH   3  23
ATOM     23  C11 ZIN A   1      17.594   3.984  12.716  0.00  0.00     0.047 A 
ATOM     24  C16 ZIN A   1      16.723   4.981  12.261  0.00  0.00     0.079 A 
ATOM     25  C15 ZIN A   1      16.483   6.095  13.048  0.00  0.00     0.037 A 
ATOM     26  C14 ZIN A   1      17.110   6.227  14.273  0.00  0.00     0.003 A 
ATOM     27  C13 ZIN A   1      17.975   5.245  14.722  0.00  0.00     0.001 A 
ATOM     28  C12 ZIN A   1      18.220   4.127  13.952  0.00  0.00     0.018 A 
BRANCH  24  29
ATOM     29  O17 ZIN A   1      16.108   4.850  11.058  0.00  0.00    -0.360 OA
ATOM     30  H35 ZIN A   1      15.310   4.304  11.081  0.00  0.00     0.217 HD
ENDBRANCH  24  29
ENDBRANCH   3  23
TORSDOF 6
ENDMDL
MODEL 4
REMARK VINA RESULT:      -9.3      2.866      3.840
REMARK  6 active torsions:
REMARK  status: ('A' for Active; 'I' for Inactive)
REMARK    1  A    between atoms: C2_2  and  C4_4 
REMARK    2  A    between atoms: C7_7  and  N8_8 
REMARK    3  A    between atoms: C10_10  and  C11_11 
REMARK    4  A    between atoms: C16_16  and  O17_17 
REMARK    5  A    between atoms: C19_19  and  C20_20 
REMARK    6  A    between atoms: C25_25  and  O26_26 
ROOT
ATOM      1  N8  ZIN A   1      18.160   1.525  10.211  0.00  0.00    -0.213 N 
ATOM      2  N9  ZIN A   1      17.922   2.860  10.578  0.00  0.00    -0.144 NA
ATOM      3  C10 ZIN A   1      17.928   2.904  11.893  0.00  0.00     0.184 A 
ATOM      4  N18 ZIN A   1      18.157   1.675  12.373  0.00  0.00    -0.206 NA
ATOM      5  C19 ZIN A   1      18.293   0.827  11.374  0.00  0.00     0.166 A 
ENDROOT
BRANCH   1   6
ATOM      6  C7  ZIN A   1      18.238   1.014   8.915  0.00  0.00     0.060 A 
ATOM      7  C6  ZIN A   1      17.365   0.008   8.512  0.00  0.00     0.032 A 
ATOM      8  C5  ZIN A   1      17.439  -0.498   7.235  0.00  0.00     0.021 A 
ATOM      9  C4  ZIN A   1      18.393  -0.001   6.341  0.00  0.00     0.041 A 
ATOM     10  C28 ZIN A   1      19.272   1.007   6.751  0.00  0.00     0.021 A 
ATOM     11  C27 ZIN A   1      19.188   1.512   8.028  0.00  0.00     0.032 A 
BRANCH   9  12
ATOM     12  C2  ZIN A   1      18.475  -0.539   4.972  0.00  0.00     0.209 C 
ATOM     13  O1  ZIN A   1      19.539  -0.521   4.369  0.00  0.00    -0.644 OA
ATOM     14  O3  ZIN A   1      17.479  -1.011   4.440  0.00  0.00    -0.644 OA
ENDBRANCH   9  12
ENDBRANCH   1   6
BRANCH   5  15
ATOM     15  C20 ZIN A   1      18.555  -0.623  11.494  0.00  0.00     0.045 A 
ATOM     16  C25 ZIN A   1      19.863  -1.112  11.400  0.00  0.00     0.079 A 
ATOM     17  C24 ZIN A   1      20.100  -2.472  11.520  0.00  0.00     0.037 A 
ATOM     18  C23 ZIN A   1      19.045  -3.343  11.720  0.00  0.00     0.003 A 
ATOM     19  C22 ZIN A   1      17.749  -2.864  11.807  0.00  0.00     0.001 A 
ATOM     20  C21 ZIN A   1      17.498  -1.512  11.695  0.00  0.00     0.018 A 
BRANCH  16  21
ATOM     21  O26 ZIN A   1      20.900  -0.255  11.204  0.00  0.00    -0.360 OA
ATOM     22  H40 ZIN A   1      21.015   0.018  10.284  0.00  0.00     0.217 HD
ENDBRANCH  16  21
ENDBRANCH   5  15
BRANCH   3  23
ATOM     23  C11 ZIN A   1      17.716   4.121  12.713  0.00  0.00     0.047 A 
ATOM     24  C16 ZIN A   1      18.531   4.370  13.823  0.00  0.00     0.079 A 
ATOM     25  C15 ZIN A   1      18.330   5.513  14.580  0.00  0.00     0.037 A 
ATOM     26  C14 ZIN A   1      17.321   6.397  14.246  0.00  0.00     0.003 A 
ATOM     27  C13 ZIN A   1      16.511   6.150  13.152  0.00  0.00     0.001 A 
ATOM     28  C12 ZIN A   1      16.703   5.019  12.386  0.00  0.00     0.018 A 
BRANCH  24  29
ATOM     29  O17 ZIN A   1      19.521   3.501  14.150  0.00  0.00    -0.360 OA
ATOM     30  H35 ZIN A   1      19.681   3.425  15.100  0.00  0.00     0.217 HD
ENDBRANCH  24  29
ENDBRANCH   3  23
TORSDOF 6
ENDMDL
MODEL 5
REMARK VINA RESULT:      -9.2      1.920      4.299
REMARK  6 active torsions:
REMARK  status: ('A' for Active; 'I' for Inactive)
REMARK    1  A    between atoms: C2_2  and  C4_4 
REMARK    2  A    between atoms: C7_7  and  N8_8 
REMARK    3  A    between atoms: C10_10  and  C11_11 
REMARK    4  A    between atoms: C16_16  and  O17_17 
REMARK    5  A    between atoms: C19_19  and  C20_20 
REMARK    6  A    between atoms: C25_25  and  O26_26 
ROOT
ATOM      1  N8  ZIN A   1      18.401  -1.570  12.449  0.00  0.00    -0.213 N 
ATOM      2  N9  ZIN A   1      18.350  -1.523  13.851  0.00  0.00    -0.144 NA
ATOM      3  C10 ZIN A   1      18.285  -0.254  14.191  0.00  0.00     0.184 A 
ATOM      4  N18 ZIN A   1      18.293   0.498  13.083  0.00  0.00    -0.206 NA
ATOM      5  C19 ZIN A   1      18.369  -0.276  12.021  0.00  0.00     0.166 A 
ENDROOT
BRANCH   1   6
ATOM      6  C7  ZIN A   1      18.477  -2.713  11.651  0.00  0.00     0.060 A 
ATOM      7  C6  ZIN A   1      19.719  -3.198  11.250  0.00  0.00     0.032 A 
ATOM      8  C5  ZIN A   1      19.798  -4.324  10.465  0.00  0.00     0.021 A 
ATOM      9  C4  ZIN A   1      18.630  -4.983  10.069  0.00  0.00     0.041 A 
ATOM     10  C28 ZIN A   1      17.383  -4.489  10.469  0.00  0.00     0.021 A 
ATOM     11  C27 ZIN A   1      17.312  -3.366  11.260  0.00  0.00     0.032 A 
BRANCH   9  12
ATOM     12  C2  ZIN A   1      18.709  -6.190   9.228  0.00  0.00     0.209 C 
ATOM     13  O1  ZIN A   1      17.688  -6.780   8.904  0.00  0.00    -0.644 OA
ATOM     14  O3  ZIN A   1      19.798  -6.599   8.847  0.00  0.00    -0.644 OA
ENDBRANCH   9  12
ENDBRANCH   1   6
BRANCH   5  15
ATOM     15  C20 ZIN A   1      18.403   0.177  10.615  0.00  0.00     0.045 A 
ATOM     16  C25 ZIN A   1      19.401   1.059  10.183  0.00  0.00     0.079 A 
ATOM     17  C24 ZIN A   1      19.429   1.474   8.861  0.00  0.00     0.037 A 
ATOM     18  C23 ZIN A   1      18.466   1.027   7.976  0.00  0.00     0.003 A 
ATOM     19  C22 ZIN A   1      17.475   0.159   8.400  0.00  0.00     0.001 A 
ATOM     20  C21 ZIN A   1      17.437  -0.267   9.711  0.00  0.00     0.018 A 
BRANCH  16  21
ATOM     21  O26 ZIN A   1      20.347   1.498  11.055  0.00  0.00    -0.360 OA
ATOM     22  H40 ZIN A   1      20.126   1.348  11.984  0.00  0.00     0.217 HD
ENDBRANCH  16  21
ENDBRANCH   5  15
BRANCH   3  23
ATOM     23  C11 ZIN A   1      18.214   0.262  15.579  0.00  0.00     0.047 A 
ATOM     24  C16 ZIN A   1      18.918   1.418  15.936  0.00  0.00     0.079 A 
ATOM     25  C15 ZIN A   1      18.840   1.896  17.234  0.00  0.00     0.037 A 
ATOM     26  C14 ZIN A   1      18.079   1.228  18.175  0.00  0.00     0.003 A 
ATOM     27  C13 ZIN A   1      17.387   0.082  17.826  0.00  0.00     0.001 A 
ATOM     28  C12 ZIN A   1      17.450  -0.403  16.535  0.00  0.00     0.018 A 
BRANCH  24  29
ATOM     29  O17 ZIN A   1      19.664   2.073  15.010  0.00  0.00    -0.360 OA
ATOM     30  H35 ZIN A   1      19.836   3.000  15.228  0.00  0.00     0.217 HD
ENDBRANCH  24  29
ENDBRANCH   3  23
TORSDOF 6
ENDMDL
MODEL 6
REMARK VINA RESULT:      -9.0      2.726      7.673
REMARK  6 active torsions:
REMARK  status: ('A' for Active; 'I' for Inactive)
REMARK    1  A    between atoms: C2_2  and  C4_4 
REMARK    2  A    between atoms: C7_7  and  N8_8 
REMARK    3  A    between atoms: C10_10  and  C11_11 
REMARK    4  A    between atoms: C16_16  and  O17_17 
REMARK    5  A    between atoms: C19_19  and  C20_20 
REMARK    6  A    between atoms: C25_25  and  O26_26 
ROOT
ATOM      1  N8  ZIN A   1      18.545  -1.398  12.915  0.00  0.00    -0.213 N 
ATOM      2  N9  ZIN A   1      18.435  -2.762  12.599  0.00  0.00    -0.144 NA
ATOM      3  C10 ZIN A   1      18.464  -2.856  11.287  0.00  0.00     0.184 A 
ATOM      4  N18 ZIN A   1      18.587  -1.631  10.761  0.00  0.00    -0.206 NA
ATOM      5  C19 ZIN A   1      18.630  -0.735  11.726  0.00  0.00     0.166 A 
ENDROOT
BRANCH   1   6
ATOM      6  C7  ZIN A   1      18.557  -0.832  14.191  0.00  0.00     0.060 A 
ATOM      7  C6  ZIN A   1      19.340  -1.397  15.193  0.00  0.00     0.032 A 
ATOM      8  C5  ZIN A   1      19.354  -0.843  16.452  0.00  0.00     0.021 A 
ATOM      9  C4  ZIN A   1      18.582   0.291  16.724  0.00  0.00     0.041 A 
ATOM     10  C28 ZIN A   1      17.791   0.853  15.716  0.00  0.00     0.021 A 
ATOM     11  C27 ZIN A   1      17.787   0.296  14.458  0.00  0.00     0.032 A 
BRANCH   9  12
ATOM     12  C2  ZIN A   1      18.595   0.889  18.070  0.00  0.00     0.209 C 
ATOM     13  O1  ZIN A   1      17.550   1.024  18.691  0.00  0.00    -0.644 OA
ATOM     14  O3  ZIN A   1      19.653   1.244  18.571  0.00  0.00    -0.644 OA
ENDBRANCH   9  12
ENDBRANCH   1   6
BRANCH   5  15
ATOM     15  C20 ZIN A   1      18.760   0.726  11.551  0.00  0.00     0.045 A 
ATOM     16  C25 ZIN A   1      19.988   1.357  11.786  0.00  0.00     0.079 A 
ATOM     17  C24 ZIN A   1      20.102   2.727  11.614  0.00  0.00     0.037 A 
ATOM     18  C23 ZIN A   1      19.003   3.469  11.223  0.00  0.00     0.003 A 
ATOM     19  C22 ZIN A   1      17.786   2.850  10.996  0.00  0.00     0.001 A 
ATOM     20  C21 ZIN A   1      17.658   1.486  11.158  0.00  0.00     0.018 A 
BRANCH  16  21
ATOM     21  O26 ZIN A   1      21.067   0.627  12.170  0.00  0.00    -0.360 OA
ATOM     22  H40 ZIN A   1      21.190   0.580  13.128  0.00  0.00     0.217 HD
ENDBRANCH  16  21
ENDBRANCH   5  15
BRANCH   3  23
ATOM     23  C11 ZIN A   1      18.377  -4.118  10.514  0.00  0.00     0.047 A 
ATOM     24  C16 ZIN A   1      17.247  -4.936  10.629  0.00  0.00     0.079 A 
ATOM     25  C15 ZIN A   1      17.172  -6.110   9.898  0.00  0.00     0.037 A 
ATOM     26  C14 ZIN A   1      18.213  -6.477   9.066  0.00  0.00     0.003 A 
ATOM     27  C13 ZIN A   1      19.333  -5.672   8.954  0.00  0.00     0.001 A 
ATOM     28  C12 ZIN A   1      19.420  -4.497   9.672  0.00  0.00     0.018 A 
BRANCH  24  29
ATOM     29  O17 ZIN A   1      16.225  -4.574  11.446  0.00  0.00    -0.360 OA
ATOM     30  H35 ZIN A   1      15.464  -5.169  11.412  0.00  0.00     0.217 HD
ENDBRANCH  24  29
ENDBRANCH   3  23
TORSDOF 6
ENDMDL
MODEL 7
REMARK VINA RESULT:      -8.9      2.435      7.807
REMARK  6 active torsions:
REMARK  status: ('A' for Active; 'I' for Inactive)
REMARK    1  A    between atoms: C2_2  and  C4_4 
REMARK    2  A    between atoms: C7_7  and  N8_8 
REMARK    3  A    between atoms: C10_10  and  C11_11 
REMARK    4  A    between atoms: C16_16  and  O17_17 
REMARK    5  A    between atoms: C19_19  and  C20_20 
REMARK    6  A    between atoms: C25_25  and  O26_26 
ROOT
ATOM      1  N8  ZIN A   1      18.461  -1.523  12.856  0.00  0.00    -0.213 N 
ATOM      2  N9  ZIN A   1      18.310  -2.880  12.528  0.00  0.00    -0.144 NA
ATOM      3  C10 ZIN A   1      18.301  -2.959  11.215  0.00  0.00     0.184 A 
ATOM      4  N18 ZIN A   1      18.438  -1.731  10.699  0.00  0.00    -0.206 NA
ATOM      5  C19 ZIN A   1      18.530  -0.849  11.672  0.00  0.00     0.166 A 
ENDROOT
BRANCH   1   6
ATOM      6  C7  ZIN A   1      18.522  -0.972  14.136  0.00  0.00     0.060 A 
ATOM      7  C6  ZIN A   1      17.720   0.118  14.462  0.00  0.00     0.032 A 
ATOM      8  C5  ZIN A   1      17.777   0.664  15.723  0.00  0.00     0.021 A 
ATOM      9  C4  ZIN A   1      18.641   0.122  16.680  0.00  0.00     0.041 A 
ATOM     10  C28 ZIN A   1      19.449  -0.970  16.347  0.00  0.00     0.021 A 
ATOM     11  C27 ZIN A   1      19.382  -1.514  15.086  0.00  0.00     0.032 A 
BRANCH   9  12
ATOM     12  C2  ZIN A   1      18.705   0.703  18.032  0.00  0.00     0.209 C 
ATOM     13  O1  ZIN A   1      19.784   1.017  18.514  0.00  0.00    -0.644 OA
ATOM     14  O3  ZIN A   1      17.676   0.876  18.672  0.00  0.00    -0.644 OA
ENDBRANCH   9  12
ENDBRANCH   1   6
BRANCH   5  15
ATOM     15  C20 ZIN A   1      18.689   0.611  11.510  0.00  0.00     0.045 A 
ATOM     16  C25 ZIN A   1      17.612   1.393  11.074  0.00  0.00     0.079 A 
ATOM     17  C24 ZIN A   1      17.770   2.762  10.930  0.00  0.00     0.037 A 
ATOM     18  C23 ZIN A   1      18.990   3.351  11.206  0.00  0.00     0.003 A 
ATOM     19  C22 ZIN A   1      20.058   2.581  11.631  0.00  0.00     0.001 A 
ATOM     20  C21 ZIN A   1      19.916   1.217  11.784  0.00  0.00     0.018 A 
BRANCH  16  21
ATOM     21  O26 ZIN A   1      16.414   0.813  10.804  0.00  0.00    -0.360 OA
ATOM     22  H40 ZIN A   1      16.425   0.227  10.035  0.00  0.00     0.217 HD
ENDBRANCH  16  21
ENDBRANCH   5  15
BRANCH   3  23
ATOM     23  C11 ZIN A   1      18.162  -4.210  10.430  0.00  0.00     0.047 A 
ATOM     24  C16 ZIN A   1      18.887  -4.380   9.245  0.00  0.00     0.079 A 
ATOM     25  C15 ZIN A   1      18.756  -5.554   8.523  0.00  0.00     0.037 A 
ATOM     26  C14 ZIN A   1      17.904  -6.550   8.964  0.00  0.00     0.003 A 
ATOM     27  C13 ZIN A   1      17.183  -6.382  10.133  0.00  0.00     0.001 A 
ATOM     28  C12 ZIN A   1      17.307  -5.219  10.867  0.00  0.00     0.018 A 
BRANCH  24  29
ATOM     29  O17 ZIN A   1      19.723  -3.402   8.813  0.00  0.00    -0.360 OA
ATOM     30  H35 ZIN A   1      20.659  -3.644   8.839  0.00  0.00     0.217 HD
ENDBRANCH  24  29
ENDBRANCH   3  23
TORSDOF 6
ENDMDL
MODEL 8
REMARK VINA RESULT:      -8.6      2.056      4.681
REMARK  6 active torsions:
REMARK  status: ('A' for Active; 'I' for Inactive)
REMARK    1  A    between atoms: C2_2  and  C4_4 
REMARK    2  A    between atoms: C7_7  and  N8_8 
REMARK    3  A    between atoms: C10_10  and  C11_11 
REMARK    4  A    between atoms: C16_16  and  O17_17 
REMARK    5  A    between atoms: C19_19  and  C20_20 
REMARK    6  A    between atoms: C25_25  and  O26_26 
ROOT
ATOM      1  N8  ZIN A   1      18.653  -1.575  12.756  0.00  0.00    -0.213 N 
ATOM      2  N9  ZIN A   1      18.687  -1.548  14.160  0.00  0.00    -0.144 NA
ATOM      3  C10 ZIN A   1      18.687  -0.283  14.520  0.00  0.00     0.184 A 
ATOM      4  N18 ZIN A   1      18.655   0.486  13.424  0.00  0.00    -0.206 NA
ATOM      5  C19 ZIN A   1      18.641  -0.274  12.349  0.00  0.00     0.166 A 
ENDROOT
BRANCH   1   6
ATOM      6  C7  ZIN A   1      18.642  -2.707  11.941  0.00  0.00     0.060 A 
ATOM      7  C6  ZIN A   1      17.433  -3.213  11.472  0.00  0.00     0.032 A 
ATOM      8  C5  ZIN A   1      17.417  -4.329  10.668  0.00  0.00     0.021 A 
ATOM      9  C4  ZIN A   1      18.618  -4.955  10.321  0.00  0.00     0.041 A 
ATOM     10  C28 ZIN A   1      19.831  -4.448  10.798  0.00  0.00     0.021 A 
ATOM     11  C27 ZIN A   1      19.839  -3.328  11.597  0.00  0.00     0.032 A 
BRANCH   9  12
ATOM     12  C2  ZIN A   1      18.606  -6.151   9.459  0.00  0.00     0.209 C 
ATOM     13  O1  ZIN A   1      17.557  -6.742   9.245  0.00  0.00    -0.644 OA
ATOM     14  O3  ZIN A   1      19.646  -6.548   8.952  0.00  0.00    -0.644 OA
ENDBRANCH   9  12
ENDBRANCH   1   6
BRANCH   5  15
ATOM     15  C20 ZIN A   1      18.607   0.200  10.950  0.00  0.00     0.045 A 
ATOM     16  C25 ZIN A   1      17.381   0.372  10.295  0.00  0.00     0.079 A 
ATOM     17  C24 ZIN A   1      17.359   0.822   8.984  0.00  0.00     0.037 A 
ATOM     18  C23 ZIN A   1      18.544   1.089   8.324  0.00  0.00     0.003 A 
ATOM     19  C22 ZIN A   1      19.757   0.914   8.966  0.00  0.00     0.001 A 
ATOM     20  C21 ZIN A   1      19.796   0.471  10.272  0.00  0.00     0.018 A 
BRANCH  16  21
ATOM     21  O26 ZIN A   1      16.217   0.110  10.945  0.00  0.00    -0.360 OA
ATOM     22  H40 ZIN A   1      15.835   0.878  11.391  0.00  0.00     0.217 HD
ENDBRANCH  16  21
ENDBRANCH   5  15
BRANCH   3  23
ATOM     23  C11 ZIN A   1      18.717   0.214  15.917  0.00  0.00     0.047 A 
ATOM     24  C16 ZIN A   1      18.227  -0.584  16.957  0.00  0.00     0.079 A 
ATOM     25  C15 ZIN A   1      18.265  -0.115  18.260  0.00  0.00     0.037 A 
ATOM     26  C14 ZIN A   1      18.775   1.142  18.530  0.00  0.00     0.003 A 
ATOM     27  C13 ZIN A   1      19.255   1.934  17.502  0.00  0.00     0.001 A 
ATOM     28  C12 ZIN A   1      19.229   1.478  16.200  0.00  0.00     0.018 A 
BRANCH  24  29
ATOM     29  O17 ZIN A   1      17.727  -1.818  16.690  0.00  0.00    -0.360 OA
ATOM     30  H35 ZIN A   1      17.425  -1.932  15.779  0.00  0.00     0.217 HD
ENDBRANCH  24  29
ENDBRANCH   3  23
TORSDOF 6
ENDMDL
MODEL 9
REMARK VINA RESULT:      -8.6      2.922      8.282
REMARK  6 active torsions:
REMARK  status: ('A' for Active; 'I' for Inactive)
REMARK    1  A    between atoms: C2_2  and  C4_4 
REMARK    2  A    between atoms: C7_7  and  N8_8 
REMARK    3  A    between atoms: C10_10  and  C11_11 
REMARK    4  A    between atoms: C16_16  and  O17_17 
REMARK    5  A    between atoms: C19_19  and  C20_20 
REMARK    6  A    between atoms: C25_25  and  O26_26 
ROOT
ATOM      1  N8  ZIN A   1      18.823   0.284  10.999  0.00  0.00    -0.213 N 
ATOM      2  N9  ZIN A   1      18.808  -0.607   9.913  0.00  0.00    -0.144 NA
ATOM      3  C10 ZIN A   1      18.999   0.108   8.827  0.00  0.00     0.184 A 
ATOM      4  N18 ZIN A   1      19.133   1.397   9.166  0.00  0.00    -0.206 NA
ATOM      5  C19 ZIN A   1      19.023   1.525  10.472  0.00  0.00     0.166 A 
ENDROOT
BRANCH   1   6
ATOM      6  C7  ZIN A   1      18.658  -0.036  12.347  0.00  0.00     0.060 A 
ATOM      7  C6  ZIN A   1      19.490  -0.979  12.944  0.00  0.00     0.032 A 
ATOM      8  C5  ZIN A   1      19.331  -1.298  14.272  0.00  0.00     0.021 A 
ATOM      9  C4  ZIN A   1      18.331  -0.673  15.025  0.00  0.00     0.041 A 
ATOM     10  C28 ZIN A   1      17.492   0.270  14.420  0.00  0.00     0.021 A 
ATOM     11  C27 ZIN A   1      17.662   0.588  13.093  0.00  0.00     0.032 A 
BRANCH   9  12
ATOM     12  C2  ZIN A   1      18.157  -1.010  16.448  0.00  0.00     0.209 C 
ATOM     13  O1  ZIN A   1      19.095  -0.894  17.225  0.00  0.00    -0.644 OA
ATOM     14  O3  ZIN A   1      17.071  -1.400  16.855  0.00  0.00    -0.644 OA
ENDBRANCH   9  12
ENDBRANCH   1   6
BRANCH   5  15
ATOM     15  C20 ZIN A   1      19.112   2.789  11.232  0.00  0.00     0.045 A 
ATOM     16  C25 ZIN A   1      17.982   3.603  11.379  0.00  0.00     0.079 A 
ATOM     17  C24 ZIN A   1      18.074   4.784  12.099  0.00  0.00     0.037 A 
ATOM     18  C23 ZIN A   1      19.279   5.161  12.659  0.00  0.00     0.003 A 
ATOM     19  C22 ZIN A   1      20.400   4.362  12.511  0.00  0.00     0.001 A 
ATOM     20  C21 ZIN A   1      20.324   3.181  11.802  0.00  0.00     0.018 A 
BRANCH  16  21
ATOM     21  O26 ZIN A   1      16.797   3.231  10.828  0.00  0.00    -0.360 OA
ATOM     22  H40 ZIN A   1      16.823   3.138   9.866  0.00  0.00     0.217 HD
ENDBRANCH  16  21
ENDBRANCH   5  15
BRANCH   3  23
ATOM     23  C11 ZIN A   1      19.058  -0.426   7.444  0.00  0.00     0.047 A 
ATOM     24  C16 ZIN A   1      18.959   0.441   6.351  0.00  0.00     0.079 A 
ATOM     25  C15 ZIN A   1      19.021  -0.067   5.064  0.00  0.00     0.037 A 
ATOM     26  C14 ZIN A   1      19.171  -1.426   4.861  0.00  0.00     0.003 A 
ATOM     27  C13 ZIN A   1      19.264  -2.286   5.940  0.00  0.00     0.001 A 
ATOM     28  C12 ZIN A   1      19.209  -1.794   7.229  0.00  0.00     0.018 A 
BRANCH  24  29
ATOM     29  O17 ZIN A   1      18.812   1.776   6.552  0.00  0.00    -0.360 OA
ATOM     30  H35 ZIN A   1      18.071   2.167   6.069  0.00  0.00     0.217 HD
ENDBRANCH  24  29
ENDBRANCH   3  23
TORSDOF 6
ENDMDL
