MODEL 1
REMARK VINA RESULT:      -6.9      0.000      0.000
REMARK  4 active torsions:
REMARK  status: ('A' for Active; 'I' for Inactive)
REMARK    1  A    between atoms: C2_2  and  C3_3 
REMARK    2  A    between atoms: C3_3  and  N4_4 
REMARK       I    between atoms: N4_4  and  C5_5 
REMARK       I    between atoms: C5_5  and  N7_7 
REMARK    3  A    between atoms: N7_7  and  S8_8 
REMARK    4  A    between atoms: S8_8  and  C11_11 
ROOT
ATOM      1  S8  ZIN A   1      17.352   0.929  11.211  0.00  0.00     0.287 S 
ATOM      2  O9  ZIN A   1      16.115   0.153  11.395  0.00  0.00    -0.198 OA
ATOM      3  O10 ZIN A   1      17.100   2.340  11.543  0.00  0.00    -0.198 OA
ENDROOT
BRANCH   1   4
ATOM      4  N7  ZIN A   1      18.417   0.389  12.109  0.00  0.00    -0.102 NA
ATOM      5  C5  ZIN A   1      18.277   0.470  13.433  0.00  0.00     0.352 C 
ATOM      6  N4  ZIN A   1      19.238  -0.018  14.243  0.00  0.00    -0.341 N 
ATOM      7  O6  ZIN A   1      17.281   0.984  13.910  0.00  0.00    -0.244 OA
ATOM      8  H25 ZIN A   1      20.031  -0.426  13.863  0.00  0.00     0.164 HD
BRANCH   6   9
ATOM      9  C3  ZIN A   1      19.084   0.071  15.697  0.00  0.00     0.124 C 
BRANCH   9  10
ATOM     10  C2  ZIN A   1      18.593  -1.272  16.241  0.00  0.00     0.015 C 
ATOM     11  C1  ZIN A   1      17.194  -1.100  16.837  0.00  0.00     0.006 C 
ENDBRANCH   9  10
ENDBRANCH   6   9
ENDBRANCH   1   4
BRANCH   1  12
ATOM     12  C11 ZIN A   1      17.879   0.806   9.534  0.00  0.00     0.082 A 
ATOM     13  C17 ZIN A   1      17.333  -0.159   8.708  0.00  0.00     0.027 A 
ATOM     14  C16 ZIN A   1      17.742  -0.253   7.390  0.00  0.00     0.025 A 
ATOM     15  C14 ZIN A   1      18.706   0.612   6.902  0.00  0.00     0.034 A 
ATOM     16  C13 ZIN A   1      19.256   1.573   7.732  0.00  0.00     0.025 A 
ATOM     17 Cl15 ZIN A   1      19.226   0.490   5.251  0.00  0.00    -0.084 Cl
ATOM     18  C12 ZIN A   1      18.842   1.670   9.047  0.00  0.00     0.027 A 
ENDBRANCH   1  12
TORSDOF 4
ENDMDL
MODEL 2
REMARK VINA RESULT:      -6.3      2.673      3.049
REMARK  4 active torsions:
REMARK  status: ('A' for Active; 'I' for Inactive)
REMARK    1  A    between atoms: C2_2  and  C3_3 
REMARK    2  A    between atoms: C3_3  and  N4_4 
REMARK       I    between atoms: N4_4  and  C5_5 
REMARK       I    between atoms: C5_5  and  N7_7 
REMARK    3  A    between atoms: N7_7  and  S8_8 
REMARK    4  A    between atoms: S8_8  and  C11_11 
ROOT
ATOM      1  S8  ZIN A   1      18.274   1.216  10.546  0.00  0.00     0.287 S 
ATOM      2  O9  ZIN A   1      17.177   2.144  10.864  0.00  0.00    -0.198 OA
ATOM      3  O10 ZIN A   1      19.559   1.829  10.921  0.00  0.00    -0.198 OA
ENDROOT
BRANCH   1   4
ATOM      4  N7  ZIN A   1      18.088  -0.055  11.308  0.00  0.00    -0.102 NA
ATOM      5  C5  ZIN A   1      19.021  -1.008  11.254  0.00  0.00     0.352 C 
ATOM      6  N4  ZIN A   1      18.853  -2.155  11.941  0.00  0.00    -0.341 N 
ATOM      7  O6  ZIN A   1      20.023  -0.840  10.583  0.00  0.00    -0.244 OA
ATOM      8  H25 ZIN A   1      18.054  -2.288  12.474  0.00  0.00     0.164 HD
BRANCH   6   9
ATOM      9  C3  ZIN A   1      19.876  -3.200  11.881  0.00  0.00     0.124 C 
BRANCH   9  10
ATOM     10  C2  ZIN A   1      19.240  -4.512  11.419  0.00  0.00     0.015 C 
ATOM     11  C1  ZIN A   1      17.750  -4.508  11.770  0.00  0.00     0.006 C 
ENDBRANCH   9  10
ENDBRANCH   6   9
ENDBRANCH   1   4
BRANCH   1  12
ATOM     12  C11 ZIN A   1      18.271   0.872   8.818  0.00  0.00     0.082 A 
ATOM     13  C17 ZIN A   1      17.366  -0.035   8.297  0.00  0.00     0.027 A 
ATOM     14  C16 ZIN A   1      17.359  -0.302   6.940  0.00  0.00     0.025 A 
ATOM     15  C14 ZIN A   1      18.264   0.330   6.106  0.00  0.00     0.034 A 
ATOM     16  C13 ZIN A   1      19.172   1.233   6.630  0.00  0.00     0.025 A 
ATOM     17 Cl15 ZIN A   1      18.261  -0.009   4.404  0.00  0.00    -0.084 Cl
ATOM     18  C12 ZIN A   1      19.175   1.504   7.986  0.00  0.00     0.027 A 
ENDBRANCH   1  12
TORSDOF 4
ENDMDL
MODEL 3
REMARK VINA RESULT:      -6.2      3.359      7.075
REMARK  4 active torsions:
REMARK  status: ('A' for Active; 'I' for Inactive)
REMARK    1  A    between atoms: C2_2  and  C3_3 
REMARK    2  A    between atoms: C3_3  and  N4_4 
REMARK       I    between atoms: N4_4  and  C5_5 
REMARK       I    between atoms: C5_5  and  N7_7 
REMARK    3  A    between atoms: N7_7  and  S8_8 
REMARK    4  A    between atoms: S8_8  and  C11_11 
ROOT
ATOM      1  S8  ZIN A   1      17.353   0.554  11.795  0.00  0.00     0.287 S 
ATOM      2  O9  ZIN A   1      17.196   2.005  11.604  0.00  0.00    -0.198 OA
ATOM      3  O10 ZIN A   1      16.066  -0.115  11.546  0.00  0.00    -0.198 OA
ENDROOT
BRANCH   1   4
ATOM      4  N7  ZIN A   1      18.377   0.034  10.842  0.00  0.00    -0.102 NA
ATOM      5  C5  ZIN A   1      18.074  -0.113   9.551  0.00  0.00     0.352 C 
ATOM      6  N4  ZIN A   1      18.999  -0.582   8.690  0.00  0.00    -0.341 N 
ATOM      7  O6  ZIN A   1      16.961   0.178   9.151  0.00  0.00    -0.244 OA
ATOM      8  H25 ZIN A   1      19.885  -0.814   9.010  0.00  0.00     0.164 HD
BRANCH   6   9
ATOM      9  C3  ZIN A   1      18.666  -0.743   7.273  0.00  0.00     0.124 C 
BRANCH   9  10
ATOM     10  C2  ZIN A   1      18.996   0.548   6.522  0.00  0.00     0.015 C 
ATOM     11  C1  ZIN A   1      19.232   0.232   5.043  0.00  0.00     0.006 C 
ENDBRANCH   9  10
ENDBRANCH   6   9
ENDBRANCH   1   4
BRANCH   1  12
ATOM     12  C11 ZIN A   1      17.871   0.232  13.448  0.00  0.00     0.082 A 
ATOM     13  C17 ZIN A   1      17.701   1.196  14.425  0.00  0.00     0.027 A 
ATOM     14  C16 ZIN A   1      18.102   0.943  15.724  0.00  0.00     0.025 A 
ATOM     15  C14 ZIN A   1      18.685  -0.271  16.043  0.00  0.00     0.034 A 
ATOM     16  C13 ZIN A   1      18.860  -1.232  15.063  0.00  0.00     0.025 A 
ATOM     17 Cl15 ZIN A   1      19.196  -0.588  17.671  0.00  0.00    -0.084 Cl
ATOM     18  C12 ZIN A   1      18.453  -0.980  13.767  0.00  0.00     0.027 A 
ENDBRANCH   1  12
TORSDOF 4
ENDMDL
MODEL 4
REMARK VINA RESULT:      -6.1      2.840      3.652
REMARK  4 active torsions:
REMARK  status: ('A' for Active; 'I' for Inactive)
REMARK    1  A    between atoms: C2_2  and  C3_3 
REMARK    2  A    between atoms: C3_3  and  N4_4 
REMARK       I    between atoms: N4_4  and  C5_5 
REMARK       I    between atoms: C5_5  and  N7_7 
REMARK    3  A    between atoms: N7_7  and  S8_8 
REMARK    4  A    between atoms: S8_8  and  C11_11 
ROOT
ATOM      1  S8  ZIN A   1      17.401   0.810  11.159  0.00  0.00     0.287 S 
ATOM      2  O9  ZIN A   1      18.401   0.118  11.988  0.00  0.00    -0.198 OA
ATOM      3  O10 ZIN A   1      16.085   0.181  11.350  0.00  0.00    -0.198 OA
ENDROOT
BRANCH   1   4
ATOM      4  N7  ZIN A   1      17.330   2.247  11.559  0.00  0.00    -0.102 NA
ATOM      5  C5  ZIN A   1      18.417   2.863  12.028  0.00  0.00     0.352 C 
ATOM      6  N4  ZIN A   1      18.353   4.160  12.390  0.00  0.00    -0.341 N 
ATOM      7  O6  ZIN A   1      19.466   2.253  12.130  0.00  0.00    -0.244 OA
ATOM      8  H25 ZIN A   1      17.516   4.645  12.309  0.00  0.00     0.164 HD
BRANCH   6   9
ATOM      9  C3  ZIN A   1      19.545   4.836  12.905  0.00  0.00     0.124 C 
BRANCH   9  10
ATOM     10  C2  ZIN A   1      19.195   5.575  14.197  0.00  0.00     0.015 C 
ATOM     11  C1  ZIN A   1      20.478   6.080  14.861  0.00  0.00     0.006 C 
ENDBRANCH   9  10
ENDBRANCH   6   9
ENDBRANCH   1   4
BRANCH   1  12
ATOM     12  C11 ZIN A   1      17.866   0.695   9.463  0.00  0.00     0.082 A 
ATOM     13  C17 ZIN A   1      18.795   1.576   8.940  0.00  0.00     0.027 A 
ATOM     14  C16 ZIN A   1      19.164   1.483   7.610  0.00  0.00     0.025 A 
ATOM     15  C14 ZIN A   1      18.595   0.516   6.801  0.00  0.00     0.034 A 
ATOM     16  C13 ZIN A   1      17.660  -0.360   7.324  0.00  0.00     0.025 A 
ATOM     17 Cl15 ZIN A   1      19.051   0.404   5.130  0.00  0.00    -0.084 Cl
ATOM     18  C12 ZIN A   1      17.296  -0.270   8.654  0.00  0.00     0.027 A 
ENDBRANCH   1  12
TORSDOF 4
ENDMDL
MODEL 5
REMARK VINA RESULT:      -6.0      3.385      6.932
REMARK  4 active torsions:
REMARK  status: ('A' for Active; 'I' for Inactive)
REMARK    1  A    between atoms: C2_2  and  C3_3 
REMARK    2  A    between atoms: C3_3  and  N4_4 
REMARK       I    between atoms: N4_4  and  C5_5 
REMARK       I    between atoms: C5_5  and  N7_7 
REMARK    3  A    between atoms: N7_7  and  S8_8 
REMARK    4  A    between atoms: S8_8  and  C11_11 
ROOT
ATOM      1  S8  ZIN A   1      18.577   1.779  11.291  0.00  0.00     0.287 S 
ATOM      2  O9  ZIN A   1      19.705   2.723  11.331  0.00  0.00    -0.198 OA
ATOM      3  O10 ZIN A   1      17.313   2.527  11.207  0.00  0.00    -0.198 OA
ENDROOT
BRANCH   1   4
ATOM      4  N7  ZIN A   1      18.712   0.892  10.097  0.00  0.00    -0.102 NA
ATOM      5  C5  ZIN A   1      18.801   1.426   8.877  0.00  0.00     0.352 C 
ATOM      6  N4  ZIN A   1      18.923   0.626   7.799  0.00  0.00    -0.341 N 
ATOM      7  O6  ZIN A   1      18.771   2.635   8.738  0.00  0.00    -0.244 OA
ATOM      8  H25 ZIN A   1      18.945  -0.337   7.910  0.00  0.00     0.164 HD
BRANCH   6   9
ATOM      9  C3  ZIN A   1      19.020   1.212   6.460  0.00  0.00     0.124 C 
BRANCH   9  10
ATOM     10  C2  ZIN A   1      18.965   0.099   5.411  0.00  0.00     0.015 C 
ATOM     11  C1  ZIN A   1      17.622  -0.627   5.509  0.00  0.00     0.006 C 
ENDBRANCH   9  10
ENDBRANCH   6   9
ENDBRANCH   1   4
BRANCH   1  12
ATOM     12  C11 ZIN A   1      18.581   0.797  12.754  0.00  0.00     0.082 A 
ATOM     13  C17 ZIN A   1      19.483  -0.242  12.886  0.00  0.00     0.027 A 
ATOM     14  C16 ZIN A   1      19.491  -1.009  14.037  0.00  0.00     0.025 A 
ATOM     15  C14 ZIN A   1      18.588  -0.744  15.051  0.00  0.00     0.034 A 
ATOM     16  C13 ZIN A   1      17.681   0.292  14.914  0.00  0.00     0.025 A 
ATOM     17 Cl15 ZIN A   1      18.591  -1.712  16.492  0.00  0.00    -0.084 Cl
ATOM     18  C12 ZIN A   1      17.678   1.062  13.767  0.00  0.00     0.027 A 
ENDBRANCH   1  12
TORSDOF 4
ENDMDL
MODEL 6
REMARK VINA RESULT:      -6.0      3.011      4.000
REMARK  4 active torsions:
REMARK  status: ('A' for Active; 'I' for Inactive)
REMARK    1  A    between atoms: C2_2  and  C3_3 
REMARK    2  A    between atoms: C3_3  and  N4_4 
REMARK       I    between atoms: N4_4  and  C5_5 
REMARK       I    between atoms: C5_5  and  N7_7 
REMARK    3  A    between atoms: N7_7  and  S8_8 
REMARK    4  A    between atoms: S8_8  and  C11_11 
ROOT
ATOM      1  S8  ZIN A   1      17.585   0.005  11.366  0.00  0.00     0.287 S 
ATOM      2  O9  ZIN A   1      16.552   0.981  11.750  0.00  0.00    -0.198 OA
ATOM      3  O10 ZIN A   1      18.760   0.166  12.236  0.00  0.00    -0.198 OA
ENDROOT
BRANCH   1   4
ATOM      4  N7  ZIN A   1      17.042  -1.378  11.512  0.00  0.00    -0.102 NA
ATOM      5  C5  ZIN A   1      17.865  -2.427  11.455  0.00  0.00     0.352 C 
ATOM      6  N4  ZIN A   1      17.375  -3.676  11.587  0.00  0.00    -0.341 N 
ATOM      7  O6  ZIN A   1      19.058  -2.256  11.284  0.00  0.00    -0.244 OA
ATOM      8  H25 ZIN A   1      16.424  -3.812  11.722  0.00  0.00     0.164 HD
BRANCH   6   9
ATOM      9  C3  ZIN A   1      18.278  -4.827  11.525  0.00  0.00     0.124 C 
BRANCH   9  10
ATOM     10  C2  ZIN A   1      18.154  -5.500  10.156  0.00  0.00     0.015 C 
ATOM     11  C1  ZIN A   1      19.498  -5.426   9.428  0.00  0.00     0.006 C 
ENDBRANCH   9  10
ENDBRANCH   6   9
ENDBRANCH   1   4
BRANCH   1  12
ATOM     12  C11 ZIN A   1      18.055   0.278   9.690  0.00  0.00     0.082 A 
ATOM     13  C17 ZIN A   1      19.116   1.116   9.397  0.00  0.00     0.027 A 
ATOM     14  C16 ZIN A   1      19.489   1.326   8.083  0.00  0.00     0.025 A 
ATOM     15  C14 ZIN A   1      18.794   0.707   7.059  0.00  0.00     0.034 A 
ATOM     16  C13 ZIN A   1      17.728  -0.126   7.353  0.00  0.00     0.025 A 
ATOM     17 Cl15 ZIN A   1      19.256   0.977   5.408  0.00  0.00    -0.084 Cl
ATOM     18  C12 ZIN A   1      17.360  -0.340   8.667  0.00  0.00     0.027 A 
ENDBRANCH   1  12
TORSDOF 4
ENDMDL
MODEL 7
REMARK VINA RESULT:      -5.9      3.102      3.930
REMARK  4 active torsions:
REMARK  status: ('A' for Active; 'I' for Inactive)
REMARK    1  A    between atoms: C2_2  and  C3_3 
REMARK    2  A    between atoms: C3_3  and  N4_4 
REMARK       I    between atoms: N4_4  and  C5_5 
REMARK       I    between atoms: C5_5  and  N7_7 
REMARK    3  A    between atoms: N7_7  and  S8_8 
REMARK    4  A    between atoms: S8_8  and  C11_11 
ROOT
ATOM      1  S8  ZIN A   1      19.213   1.205  11.525  0.00  0.00     0.287 S 
ATOM      2  O9  ZIN A   1      20.547   0.651  11.806  0.00  0.00    -0.198 OA
ATOM      3  O10 ZIN A   1      18.212   0.518  12.357  0.00  0.00    -0.198 OA
ENDROOT
BRANCH   1   4
ATOM      4  N7  ZIN A   1      19.204   2.665  11.838  0.00  0.00    -0.102 NA
ATOM      5  C5  ZIN A   1      18.071   3.362  11.737  0.00  0.00     0.352 C 
ATOM      6  N4  ZIN A   1      18.062   4.680  12.019  0.00  0.00    -0.341 N 
ATOM      7  O6  ZIN A   1      17.044   2.806  11.390  0.00  0.00    -0.244 OA
ATOM      8  H25 ZIN A   1      18.880   5.121  12.295  0.00  0.00     0.164 HD
BRANCH   6   9
ATOM      9  C3  ZIN A   1      16.818   5.444  11.909  0.00  0.00     0.124 C 
BRANCH   9  10
ATOM     10  C2  ZIN A   1      16.346   5.855  13.305  0.00  0.00     0.015 C 
ATOM     11  C1  ZIN A   1      17.559   6.185  14.177  0.00  0.00     0.006 C 
ENDBRANCH   9  10
ENDBRANCH   6   9
ENDBRANCH   1   4
BRANCH   1  12
ATOM     12  C11 ZIN A   1      18.825   0.966   9.823  0.00  0.00     0.082 A 
ATOM     13  C17 ZIN A   1      17.886   0.019   9.455  0.00  0.00     0.027 A 
ATOM     14  C16 ZIN A   1      17.577  -0.165   8.120  0.00  0.00     0.025 A 
ATOM     15  C14 ZIN A   1      18.215   0.589   7.152  0.00  0.00     0.034 A 
ATOM     16  C13 ZIN A   1      19.159   1.532   7.521  0.00  0.00     0.025 A 
ATOM     17 Cl15 ZIN A   1      17.834   0.353   5.475  0.00  0.00    -0.084 Cl
ATOM     18  C12 ZIN A   1      19.463   1.719   8.856  0.00  0.00     0.027 A 
ENDBRANCH   1  12
TORSDOF 4
ENDMDL
MODEL 8
REMARK VINA RESULT:      -5.8      3.601      6.938
REMARK  4 active torsions:
REMARK  status: ('A' for Active; 'I' for Inactive)
REMARK    1  A    between atoms: C2_2  and  C3_3 
REMARK    2  A    between atoms: C3_3  and  N4_4 
REMARK       I    between atoms: N4_4  and  C5_5 
REMARK       I    between atoms: C5_5  and  N7_7 
REMARK    3  A    between atoms: N7_7  and  S8_8 
REMARK    4  A    between atoms: S8_8  and  C11_11 
ROOT
ATOM      1  S8  ZIN A   1      18.366  -1.331  12.603  0.00  0.00     0.287 S 
ATOM      2  O9  ZIN A   1      16.966  -1.129  12.195  0.00  0.00    -0.198 OA
ATOM      3  O10 ZIN A   1      18.668  -2.771  12.624  0.00  0.00    -0.198 OA
ENDROOT
BRANCH   1   4
ATOM      4  N7  ZIN A   1      19.271  -0.646  11.633  0.00  0.00    -0.102 NA
ATOM      5  C5  ZIN A   1      18.807   0.350  10.875  0.00  0.00     0.352 C 
ATOM      6  N4  ZIN A   1      19.624   0.968   9.999  0.00  0.00    -0.341 N 
ATOM      7  O6  ZIN A   1      17.645   0.699  10.976  0.00  0.00    -0.244 OA
ATOM      8  H25 ZIN A   1      20.549   0.688   9.920  0.00  0.00     0.164 HD
BRANCH   6   9
ATOM      9  C3  ZIN A   1      19.114   2.061   9.169  0.00  0.00     0.124 C 
BRANCH   9  10
ATOM     10  C2  ZIN A   1      19.254   1.686   7.692  0.00  0.00     0.015 C 
ATOM     11  C1  ZIN A   1      18.244   0.590   7.346  0.00  0.00     0.006 C 
ENDBRANCH   9  10
ENDBRANCH   6   9
ENDBRANCH   1   4
BRANCH   1  12
ATOM     12  C11 ZIN A   1      18.611  -0.656  14.212  0.00  0.00     0.082 A 
ATOM     13  C17 ZIN A   1      18.606  -1.487  15.318  0.00  0.00     0.027 A 
ATOM     14  C16 ZIN A   1      18.804  -0.960  16.580  0.00  0.00     0.025 A 
ATOM     15  C14 ZIN A   1      18.995   0.402  16.739  0.00  0.00     0.034 A 
ATOM     16  C13 ZIN A   1      18.994   1.233  15.632  0.00  0.00     0.025 A 
ATOM     17 Cl15 ZIN A   1      19.236   1.066  18.324  0.00  0.00    -0.084 Cl
ATOM     18  C12 ZIN A   1      18.803   0.704  14.370  0.00  0.00     0.027 A 
ENDBRANCH   1  12
TORSDOF 4
ENDMDL
MODEL 9
REMARK VINA RESULT:      -5.8      4.528      6.777
REMARK  4 active torsions:
REMARK  status: ('A' for Active; 'I' for Inactive)
REMARK    1  A    between atoms: C2_2  and  C3_3 
REMARK    2  A    between atoms: C3_3  and  N4_4 
REMARK       I    between atoms: N4_4  and  C5_5 
REMARK       I    between atoms: C5_5  and  N7_7 
REMARK    3  A    between atoms: N7_7  and  S8_8 
REMARK    4  A    between atoms: S8_8  and  C11_11 
ROOT
ATOM      1  S8  ZIN A   1      17.505  -0.715  12.092  0.00  0.00     0.287 S 
ATOM      2  O9  ZIN A   1      18.503  -0.038  11.248  0.00  0.00    -0.198 OA
ATOM      3  O10 ZIN A   1      16.183  -0.106  11.874  0.00  0.00    -0.198 OA
ENDROOT
BRANCH   1   4
ATOM      4  N7  ZIN A   1      17.451  -2.164  11.735  0.00  0.00    -0.102 NA
ATOM      5  C5  ZIN A   1      18.524  -2.762  11.214  0.00  0.00     0.352 C 
ATOM      6  N4  ZIN A   1      18.476  -4.070  10.891  0.00  0.00    -0.341 N 
ATOM      7  O6  ZIN A   1      19.546  -2.127  11.031  0.00  0.00    -0.244 OA
ATOM      8  H25 ZIN A   1      17.661  -4.575  11.037  0.00  0.00     0.164 HD
BRANCH   6   9
ATOM      9  C3  ZIN A   1      19.653  -4.727  10.320  0.00  0.00     0.124 C 
BRANCH   9  10
ATOM     10  C2  ZIN A   1      19.209  -5.752   9.275  0.00  0.00     0.015 C 
ATOM     11  C1  ZIN A   1      17.685  -5.886   9.307  0.00  0.00     0.006 C 
ENDBRANCH   9  10
ENDBRANCH   6   9
ENDBRANCH   1   4
BRANCH   1  12
ATOM     12  C11 ZIN A   1      17.956  -0.544  13.787  0.00  0.00     0.082 A 
ATOM     13  C17 ZIN A   1      18.883  -1.406  14.345  0.00  0.00     0.027 A 
ATOM     14  C16 ZIN A   1      19.243  -1.269  15.673  0.00  0.00     0.025 A 
ATOM     15  C14 ZIN A   1      18.666  -0.277  16.447  0.00  0.00     0.034 A 
ATOM     16  C13 ZIN A   1      17.734   0.580  15.889  0.00  0.00     0.025 A 
ATOM     17 Cl15 ZIN A   1      19.109  -0.110  18.117  0.00  0.00    -0.084 Cl
ATOM     18  C12 ZIN A   1      17.380   0.446  14.560  0.00  0.00     0.027 A 
ENDBRANCH   1  12
TORSDOF 4
ENDMDL
