MODEL 1
REMARK VINA RESULT:      -5.7      0.000      0.000
REMARK  9 active torsions:
REMARK  status: ('A' for Active; 'I' for Inactive)
REMARK    1  A    between atoms: C2_2  and  O4_3 
REMARK    2  A    between atoms: C2_2  and  C5_4 
REMARK    3  A    between atoms: C5_4  and  N6_5 
REMARK    4  A    between atoms: N9_8  and  C11_10 
REMARK    5  A    between atoms: C11_10  and  C12_11 
REMARK    6  A    between atoms: N17_16  and  C18_17 
REMARK    7  A    between atoms: C18_17  and  C19_18 
REMARK    8  A    between atoms: N24_23  and  C26_25 
REMARK    9  A    between atoms: C26_25  and  C27_26 
ROOT
ATOM      1  N6  ZIN A   1      18.498  -4.306   7.896  0.00  0.00     0.094 N 
ATOM      2  C7  ZIN A   1      18.264  -2.949   7.386  0.00  0.00     0.300 C 
ATOM      3  C8  ZIN A   1      18.800  -2.843   5.957  0.00  0.00     0.265 C 
ATOM      4  N9  ZIN A   1      17.729  -2.375   5.066  0.00  0.00    -0.058 N 
ATOM      5  H10 ZIN A   1      16.853  -2.371   5.568  0.00  0.00     0.280 HD
ATOM      6  C15 ZIN A   1      17.627  -3.273   3.909  0.00  0.00     0.265 C 
ATOM      7  C16 ZIN A   1      16.182  -3.749   3.757  0.00  0.00     0.300 C 
ATOM      8  N17 ZIN A   1      16.146  -5.218   3.766  0.00  0.00     0.101 N 
ATOM      9  C22 ZIN A   1      15.183  -5.716   4.756  0.00  0.00     0.300 C 
ATOM     10  C23 ZIN A   1      15.871  -6.729   5.672  0.00  0.00     0.265 C 
ATOM     11  N24 ZIN A   1      15.724  -6.304   7.071  0.00  0.00    -0.058 N 
ATOM     12  H25 ZIN A   1      15.310  -5.385   7.101  0.00  0.00     0.280 HD
ATOM     13  C30 ZIN A   1      17.044  -6.268   7.714  0.00  0.00     0.265 C 
ATOM     14  C31 ZIN A   1      17.249  -4.908   8.383  0.00  0.00     0.300 C 
ENDROOT
BRANCH   1  15
ATOM     15  C5  ZIN A   1      19.127  -5.152   6.874  0.00  0.00     0.303 C 
BRANCH  15  16
ATOM     16  C2  ZIN A   1      20.534  -5.542   7.330  0.00  0.00     0.142 C 
ATOM     17  C1  ZIN A   1      20.547  -5.722   8.850  0.00  0.00     0.041 C 
BRANCH  16  18
ATOM     18  O4  ZIN A   1      21.456  -4.512   6.965  0.00  0.00    -0.394 OA
ATOM     19  H35 ZIN A   1      21.541  -3.808   7.623  0.00  0.00     0.210 HD
ENDBRANCH  16  18
ENDBRANCH  15  16
ENDBRANCH   1  15
BRANCH  11  20
ATOM     20  C26 ZIN A   1      14.858  -7.254   7.783  0.00  0.00     0.347 C 
BRANCH  20  21
ATOM     21  C27 ZIN A   1      13.435  -6.761   7.745  0.00  0.00     0.199 C 
ATOM     22  O28 ZIN A   1      12.568  -7.438   7.220  0.00  0.00    -0.647 OA
ATOM     23  O29 ZIN A   1      13.149  -5.684   8.242  0.00  0.00    -0.647 OA
ENDBRANCH  20  21
ENDBRANCH  11  20
BRANCH   4  24
ATOM     24  C11 ZIN A   1      18.034  -1.014   4.605  0.00  0.00     0.347 C 
BRANCH  24  25
ATOM     25  C12 ZIN A   1      17.748  -0.032   5.711  0.00  0.00     0.199 C 
ATOM     26  O13 ZIN A   1      16.656  -0.027   6.253  0.00  0.00    -0.647 OA
ATOM     27  O14 ZIN A   1      18.607   0.757   6.063  0.00  0.00    -0.647 OA
ENDBRANCH  24  25
ENDBRANCH   4  24
BRANCH   8  28
ATOM     28  C18 ZIN A   1      17.484  -5.775   4.006  0.00  0.00     0.385 C 
BRANCH  28  29
ATOM     29  C19 ZIN A   1      17.837  -6.730   2.895  0.00  0.00     0.202 C 
ATOM     30  O20 ZIN A   1      17.755  -6.371   1.732  0.00  0.00    -0.647 OA
ATOM     31  O21 ZIN A   1      18.204  -7.863   3.158  0.00  0.00    -0.647 OA
ENDBRANCH  28  29
ENDBRANCH   8  28
TORSDOF 9
ENDMDL
MODEL 2
REMARK VINA RESULT:      -5.6     12.624     15.626
REMARK  9 active torsions:
REMARK  status: ('A' for Active; 'I' for Inactive)
REMARK    1  A    between atoms: C2_2  and  O4_3 
REMARK    2  A    between atoms: C2_2  and  C5_4 
REMARK    3  A    between atoms: C5_4  and  N6_5 
REMARK    4  A    between atoms: N9_8  and  C11_10 
REMARK    5  A    between atoms: C11_10  and  C12_11 
REMARK    6  A    between atoms: N17_16  and  C18_17 
REMARK    7  A    between atoms: C18_17  and  C19_18 
REMARK    8  A    between atoms: N24_23  and  C26_25 
REMARK    9  A    between atoms: C26_25  and  C27_26 
ROOT
ATOM      1  N6  ZIN A   1      18.469   4.433  15.039  0.00  0.00     0.094 N 
ATOM      2  C7  ZIN A   1      18.376   3.058  15.545  0.00  0.00     0.300 C 
ATOM      3  C8  ZIN A   1      19.005   2.984  16.938  0.00  0.00     0.265 C 
ATOM      4  N9  ZIN A   1      18.032   2.424  17.886  0.00  0.00    -0.058 N 
ATOM      5  H10 ZIN A   1      17.129   2.355  17.439  0.00  0.00     0.280 HD
ATOM      6  C15 ZIN A   1      17.930   3.302  19.059  0.00  0.00     0.265 C 
ATOM      7  C16 ZIN A   1      16.463   3.659  19.304  0.00  0.00     0.300 C 
ATOM      8  N17 ZIN A   1      16.310   5.121  19.317  0.00  0.00     0.101 N 
ATOM      9  C22 ZIN A   1      15.251   5.548  18.393  0.00  0.00     0.300 C 
ATOM     10  C23 ZIN A   1      15.799   6.620  17.450  0.00  0.00     0.265 C 
ATOM     11  N24 ZIN A   1      15.600   6.196  16.057  0.00  0.00    -0.058 N 
ATOM     12  H25 ZIN A   1      15.260   5.246  16.040  0.00  0.00     0.280 HD
ATOM     13  C30 ZIN A   1      16.877   6.271  15.335  0.00  0.00     0.265 C 
ATOM     14  C31 ZIN A   1      17.149   4.937  14.637  0.00  0.00     0.300 C 
ENDROOT
BRANCH   1  15
ATOM     15  C5  ZIN A   1      19.090   5.319  16.033  0.00  0.00     0.303 C 
BRANCH  15  16
ATOM     16  C2  ZIN A   1      20.402   5.872  15.473  0.00  0.00     0.142 C 
ATOM     17  C1  ZIN A   1      20.362   5.831  13.944  0.00  0.00     0.041 C 
BRANCH  16  18
ATOM     18  O4  ZIN A   1      21.493   5.075  15.942  0.00  0.00    -0.394 OA
ATOM     19  H35 ZIN A   1      21.683   4.304  15.391  0.00  0.00     0.210 HD
ENDBRANCH  16  18
ENDBRANCH  15  16
ENDBRANCH   1  15
BRANCH  11  20
ATOM     20  C26 ZIN A   1      14.620   7.079  15.411  0.00  0.00     0.347 C 
BRANCH  20  21
ATOM     21  C27 ZIN A   1      13.260   6.430  15.448  0.00  0.00     0.199 C 
ATOM     22  O28 ZIN A   1      12.922   5.671  14.556  0.00  0.00    -0.647 OA
ATOM     23  O29 ZIN A   1      12.497   6.665  16.370  0.00  0.00    -0.647 OA
ENDBRANCH  20  21
ENDBRANCH  11  20
BRANCH   4  24
ATOM     24  C11 ZIN A   1      18.472   1.089  18.311  0.00  0.00     0.347 C 
BRANCH  24  25
ATOM     25  C12 ZIN A   1      17.933   0.055  17.356  0.00  0.00     0.199 C 
ATOM     26  O13 ZIN A   1      16.733  -0.022  17.157  0.00  0.00    -0.647 OA
ATOM     27  O14 ZIN A   1      18.696  -0.704  16.785  0.00  0.00    -0.647 OA
ENDBRANCH  24  25
ENDBRANCH   4  24
BRANCH   8  28
ATOM     28  C18 ZIN A   1      17.582   5.786  19.003  0.00  0.00     0.385 C 
BRANCH  28  29
ATOM     29  C19 ZIN A   1      17.875   6.828  20.050  0.00  0.00     0.202 C 
ATOM     30  O20 ZIN A   1      18.221   7.949  19.716  0.00  0.00    -0.647 OA
ATOM     31  O21 ZIN A   1      17.769   6.552  21.233  0.00  0.00    -0.647 OA
ENDBRANCH  28  29
ENDBRANCH   8  28
TORSDOF 9
ENDMDL
MODEL 3
REMARK VINA RESULT:      -5.4      0.730      6.299
REMARK  9 active torsions:
REMARK  status: ('A' for Active; 'I' for Inactive)
REMARK    1  A    between atoms: C2_2  and  O4_3 
REMARK    2  A    between atoms: C2_2  and  C5_4 
REMARK    3  A    between atoms: C5_4  and  N6_5 
REMARK    4  A    between atoms: N9_8  and  C11_10 
REMARK    5  A    between atoms: C11_10  and  C12_11 
REMARK    6  A    between atoms: N17_16  and  C18_17 
REMARK    7  A    between atoms: C18_17  and  C19_18 
REMARK    8  A    between atoms: N24_23  and  C26_25 
REMARK    9  A    between atoms: C26_25  and  C27_26 
ROOT
ATOM      1  N6  ZIN A   1      16.253  -5.329   4.002  0.00  0.00     0.094 N 
ATOM      2  C7  ZIN A   1      15.211  -5.746   4.950  0.00  0.00     0.300 C 
ATOM      3  C8  ZIN A   1      15.807  -6.730   5.960  0.00  0.00     0.265 C 
ATOM      4  N9  ZIN A   1      15.565  -6.239   7.323  0.00  0.00    -0.058 N 
ATOM      5  H10 ZIN A   1      15.195  -5.301   7.281  0.00  0.00     0.280 HD
ATOM      6  C15 ZIN A   1      16.827  -6.235   8.074  0.00  0.00     0.265 C 
ATOM      7  C16 ZIN A   1      17.052  -4.852   8.687  0.00  0.00     0.300 C 
ATOM      8  N17 ZIN A   1      18.352  -4.326   8.247  0.00  0.00     0.101 N 
ATOM      9  C22 ZIN A   1      18.211  -2.981   7.676  0.00  0.00     0.300 C 
ATOM     10  C23 ZIN A   1      18.860  -2.944   6.291  0.00  0.00     0.265 C 
ATOM     11  N24 ZIN A   1      17.874  -2.491   5.301  0.00  0.00    -0.058 N 
ATOM     12  H25 ZIN A   1      16.967  -2.423   5.735  0.00  0.00     0.280 HD
ATOM     13  C30 ZIN A   1      17.815  -3.452   4.192  0.00  0.00     0.265 C 
ATOM     14  C31 ZIN A   1      16.362  -3.865   3.950  0.00  0.00     0.300 C 
ENDROOT
BRANCH   1  15
ATOM     15  C5  ZIN A   1      17.545  -5.941   4.336  0.00  0.00     0.303 C 
BRANCH  15  16
ATOM     16  C2  ZIN A   1      17.958  -6.902   3.219  0.00  0.00     0.142 C 
ATOM     17  C1  ZIN A   1      16.970  -6.787   2.056  0.00  0.00     0.041 C 
BRANCH  16  18
ATOM     18  O4  ZIN A   1      17.955  -8.242   3.717  0.00  0.00    -0.394 OA
ATOM     19  H35 ZIN A   1      17.209  -8.443   4.299  0.00  0.00     0.210 HD
ENDBRANCH  16  18
ENDBRANCH  15  16
ENDBRANCH   1  15
BRANCH  11  20
ATOM     20  C26 ZIN A   1      18.269  -1.173   4.785  0.00  0.00     0.347 C 
BRANCH  20  21
ATOM     21  C27 ZIN A   1      17.861  -0.106   5.768  0.00  0.00     0.199 C 
ATOM     22  O28 ZIN A   1      18.670   0.729   6.132  0.00  0.00    -0.647 OA
ATOM     23  O29 ZIN A   1      16.720  -0.078   6.198  0.00  0.00    -0.647 OA
ENDBRANCH  20  21
ENDBRANCH  11  20
BRANCH   4  24
ATOM     24  C11 ZIN A   1      14.598  -7.116   7.996  0.00  0.00     0.347 C 
BRANCH  24  25
ATOM     25  C12 ZIN A   1      13.197  -6.660   7.676  0.00  0.00     0.199 C 
ATOM     26  O13 ZIN A   1      12.493  -7.328   6.939  0.00  0.00    -0.647 OA
ATOM     27  O14 ZIN A   1      12.770  -5.625   8.155  0.00  0.00    -0.647 OA
ENDBRANCH  24  25
ENDBRANCH   4  24
BRANCH   8  28
ATOM     28  C18 ZIN A   1      18.992  -5.240   7.291  0.00  0.00     0.385 C 
BRANCH  28  29
ATOM     29  C19 ZIN A   1      20.272  -5.769   7.882  0.00  0.00     0.202 C 
ATOM     30  O20 ZIN A   1      20.252  -6.367   8.945  0.00  0.00    -0.647 OA
ATOM     31  O21 ZIN A   1      21.330  -5.601   7.299  0.00  0.00    -0.647 OA
ENDBRANCH  28  29
ENDBRANCH   8  28
TORSDOF 9
ENDMDL
MODEL 4
REMARK VINA RESULT:      -5.3      9.405     12.774
REMARK  9 active torsions:
REMARK  status: ('A' for Active; 'I' for Inactive)
REMARK    1  A    between atoms: C2_2  and  O4_3 
REMARK    2  A    between atoms: C2_2  and  C5_4 
REMARK    3  A    between atoms: C5_4  and  N6_5 
REMARK    4  A    between atoms: N9_8  and  C11_10 
REMARK    5  A    between atoms: C11_10  and  C12_11 
REMARK    6  A    between atoms: N17_16  and  C18_17 
REMARK    7  A    between atoms: C18_17  and  C19_18 
REMARK    8  A    between atoms: N24_23  and  C26_25 
REMARK    9  A    between atoms: C26_25  and  C27_26 
ROOT
ATOM      1  N6  ZIN A   1      18.196   0.920  13.088  0.00  0.00     0.094 N 
ATOM      2  C7  ZIN A   1      17.676   0.527  14.404  0.00  0.00     0.300 C 
ATOM      3  C8  ZIN A   1      18.640   0.998  15.494  0.00  0.00     0.265 C 
ATOM      4  N9  ZIN A   1      17.913   1.821  16.470  0.00  0.00    -0.058 N 
ATOM      5  H10 ZIN A   1      16.983   2.009  16.123  0.00  0.00     0.280 HD
ATOM      6  C15 ZIN A   1      18.626   3.089  16.671  0.00  0.00     0.265 C 
ATOM      7  C16 ZIN A   1      17.660   4.256  16.463  0.00  0.00     0.300 C 
ATOM      8  N17 ZIN A   1      18.194   5.156  15.430  0.00  0.00     0.101 N 
ATOM      9  C22 ZIN A   1      17.195   5.410  14.385  0.00  0.00     0.300 C 
ATOM     10  C23 ZIN A   1      17.803   5.111  13.014  0.00  0.00     0.265 C 
ATOM     11  N24 ZIN A   1      16.970   4.125  12.313  0.00  0.00    -0.058 N 
ATOM     12  H25 ZIN A   1      16.258   3.780  12.938  0.00  0.00     0.280 HD
ATOM     13  C30 ZIN A   1      17.809   3.006  11.863  0.00  0.00     0.265 C 
ATOM     14  C31 ZIN A   1      17.194   1.686  12.333  0.00  0.00     0.300 C 
ENDROOT
BRANCH   1  15
ATOM     15  C5  ZIN A   1      19.447   1.677  13.220  0.00  0.00     0.303 C 
BRANCH  15  16
ATOM     16  C2  ZIN A   1      20.521   1.048  12.330  0.00  0.00     0.142 C 
ATOM     17  C1  ZIN A   1      19.897  -0.068  11.490  0.00  0.00     0.041 C 
BRANCH  16  18
ATOM     18  O4  ZIN A   1      21.559   0.505  13.149  0.00  0.00    -0.394 OA
ATOM     19  H35 ZIN A   1      21.287   0.318  14.058  0.00  0.00     0.210 HD
ENDBRANCH  16  18
ENDBRANCH  15  16
ENDBRANCH   1  15
BRANCH  11  20
ATOM     20  C26 ZIN A   1      16.335   4.759  11.149  0.00  0.00     0.347 C 
BRANCH  20  21
ATOM     21  C27 ZIN A   1      17.399   5.223  10.188  0.00  0.00     0.199 C 
ATOM     22  O28 ZIN A   1      17.605   6.415  10.036  0.00  0.00    -0.647 OA
ATOM     23  O29 ZIN A   1      18.055   4.406   9.563  0.00  0.00    -0.647 OA
ENDBRANCH  20  21
ENDBRANCH  11  20
BRANCH   4  24
ATOM     24  C11 ZIN A   1      17.823   1.102  17.747  0.00  0.00     0.347 C 
BRANCH  24  25
ATOM     25  C12 ZIN A   1      19.202   0.684  18.188  0.00  0.00     0.199 C 
ATOM     26  O13 ZIN A   1      19.554  -0.477  18.069  0.00  0.00    -0.647 OA
ATOM     27  O14 ZIN A   1      19.966   1.507  18.662  0.00  0.00    -0.647 OA
ENDBRANCH  24  25
ENDBRANCH   4  24
BRANCH   8  28
ATOM     28  C18 ZIN A   1      19.434   4.618  14.854  0.00  0.00     0.385 C 
BRANCH  28  29
ATOM     29  C19 ZIN A   1      20.550   5.610  15.050  0.00  0.00     0.202 C 
ATOM     30  O20 ZIN A   1      20.550   6.660  14.430  0.00  0.00    -0.647 OA
ATOM     31  O21 ZIN A   1      21.457   5.362  15.828  0.00  0.00    -0.647 OA
ENDBRANCH  28  29
ENDBRANCH   8  28
TORSDOF 9
ENDMDL
MODEL 5
REMARK VINA RESULT:      -4.9      4.556      7.465
REMARK  9 active torsions:
REMARK  status: ('A' for Active; 'I' for Inactive)
REMARK    1  A    between atoms: C2_2  and  O4_3 
REMARK    2  A    between atoms: C2_2  and  C5_4 
REMARK    3  A    between atoms: C5_4  and  N6_5 
REMARK    4  A    between atoms: N9_8  and  C11_10 
REMARK    5  A    between atoms: C11_10  and  C12_11 
REMARK    6  A    between atoms: N17_16  and  C18_17 
REMARK    7  A    between atoms: C18_17  and  C19_18 
REMARK    8  A    between atoms: N24_23  and  C26_25 
REMARK    9  A    between atoms: C26_25  and  C27_26 
ROOT
ATOM      1  N6  ZIN A   1      18.953  -4.516  10.737  0.00  0.00     0.094 N 
ATOM      2  C7  ZIN A   1      19.639  -4.495   9.439  0.00  0.00     0.300 C 
ATOM      3  C8  ZIN A   1      18.785  -3.733   8.423  0.00  0.00     0.265 C 
ATOM      4  N9  ZIN A   1      19.581  -2.650   7.830  0.00  0.00    -0.058 N 
ATOM      5  H10 ZIN A   1      20.454  -2.563   8.328  0.00  0.00     0.280 HD
ATOM      6  C15 ZIN A   1      18.836  -1.388   7.922  0.00  0.00     0.265 C 
ATOM      7  C16 ZIN A   1      19.716  -0.324   8.580  0.00  0.00     0.300 C 
ATOM      8  N17 ZIN A   1      19.025   0.224   9.756  0.00  0.00     0.101 N 
ATOM      9  C22 ZIN A   1      19.884   0.167  10.946  0.00  0.00     0.300 C 
ATOM     10  C23 ZIN A   1      19.136  -0.531  12.083  0.00  0.00     0.265 C 
ATOM     11  N24 ZIN A   1      19.928  -1.672  12.562  0.00  0.00    -0.058 N 
ATOM     12  H25 ZIN A   1      20.723  -1.807  11.957  0.00  0.00     0.280 HD
ATOM     13  C30 ZIN A   1      19.097  -2.883  12.557  0.00  0.00     0.265 C 
ATOM     14  C31 ZIN A   1      19.823  -3.997  11.801  0.00  0.00     0.300 C 
ENDROOT
BRANCH   1  15
ATOM     15  C5  ZIN A   1      17.691  -3.767  10.678  0.00  0.00     0.303 C 
BRANCH  15  16
ATOM     16  C2  ZIN A   1      16.536  -4.681  11.094  0.00  0.00     0.142 C 
ATOM     17  C1  ZIN A   1      17.089  -5.889  11.851  0.00  0.00     0.041 C 
BRANCH  16  18
ATOM     18  O4  ZIN A   1      15.839  -5.127   9.928  0.00  0.00    -0.394 OA
ATOM     19  H35 ZIN A   1      15.930  -4.539   9.165  0.00  0.00     0.210 HD
ENDBRANCH  16  18
ENDBRANCH  15  16
ENDBRANCH   1  15
BRANCH  11  20
ATOM     20  C26 ZIN A   1      20.394  -1.404  13.930  0.00  0.00     0.347 C 
BRANCH  20  21
ATOM     21  C27 ZIN A   1      19.293  -0.737  14.713  0.00  0.00     0.199 C 
ATOM     22  O28 ZIN A   1      18.401  -1.407  15.203  0.00  0.00    -0.647 OA
ATOM     23  O29 ZIN A   1      19.296   0.474  14.858  0.00  0.00    -0.647 OA
ENDBRANCH  20  21
ENDBRANCH  11  20
BRANCH   4  24
ATOM     24  C11 ZIN A   1      19.851  -2.957   6.419  0.00  0.00     0.347 C 
BRANCH  24  25
ATOM     25  C12 ZIN A   1      19.163  -1.943   5.542  0.00  0.00     0.199 C 
ATOM     26  O13 ZIN A   1      17.955  -1.994   5.385  0.00  0.00    -0.647 OA
ATOM     27  O14 ZIN A   1      19.814  -1.072   4.991  0.00  0.00    -0.647 OA
ENDBRANCH  24  25
ENDBRANCH   4  24
BRANCH   8  28
ATOM     28  C18 ZIN A   1      17.754  -0.475   9.992  0.00  0.00     0.385 C 
BRANCH  28  29
ATOM     29  C19 ZIN A   1      16.794   0.452  10.692  0.00  0.00     0.202 C 
ATOM     30  O20 ZIN A   1      16.928   1.660  10.591  0.00  0.00    -0.647 OA
ATOM     31  O21 ZIN A   1      15.882  -0.005  11.361  0.00  0.00    -0.647 OA
ENDBRANCH  28  29
ENDBRANCH   8  28
TORSDOF 9
ENDMDL
MODEL 6
REMARK VINA RESULT:      -4.9      4.380      7.414
REMARK  9 active torsions:
REMARK  status: ('A' for Active; 'I' for Inactive)
REMARK    1  A    between atoms: C2_2  and  O4_3 
REMARK    2  A    between atoms: C2_2  and  C5_4 
REMARK    3  A    between atoms: C5_4  and  N6_5 
REMARK    4  A    between atoms: N9_8  and  C11_10 
REMARK    5  A    between atoms: C11_10  and  C12_11 
REMARK    6  A    between atoms: N17_16  and  C18_17 
REMARK    7  A    between atoms: C18_17  and  C19_18 
REMARK    8  A    between atoms: N24_23  and  C26_25 
REMARK    9  A    between atoms: C26_25  and  C27_26 
ROOT
ATOM      1  N6  ZIN A   1      19.189  -0.018   9.623  0.00  0.00     0.094 N 
ATOM      2  C7  ZIN A   1      19.994  -0.180  10.841  0.00  0.00     0.300 C 
ATOM      3  C8  ZIN A   1      19.164  -0.897  11.908  0.00  0.00     0.265 C 
ATOM      4  N9  ZIN A   1      19.887  -2.089  12.372  0.00  0.00    -0.058 N 
ATOM      5  H10 ZIN A   1      20.691  -2.244  11.782  0.00  0.00     0.280 HD
ATOM      6  C15 ZIN A   1      19.000  -3.257  12.306  0.00  0.00     0.265 C 
ATOM      7  C16 ZIN A   1      19.684  -4.374  11.517  0.00  0.00     0.300 C 
ATOM      8  N17 ZIN A   1      18.823  -4.782  10.398  0.00  0.00     0.101 N 
ATOM      9  C22 ZIN A   1      19.561  -4.757   9.129  0.00  0.00     0.300 C 
ATOM     10  C23 ZIN A   1      18.788  -3.924   8.105  0.00  0.00     0.265 C 
ATOM     11  N24 ZIN A   1      19.653  -2.853   7.593  0.00  0.00    -0.058 N 
ATOM     12  H25 ZIN A   1      20.514  -2.835   8.117  0.00  0.00     0.280 HD
ATOM     13  C30 ZIN A   1      18.968  -1.561   7.734  0.00  0.00     0.265 C 
ATOM     14  C31 ZIN A   1      19.887  -0.572   8.455  0.00  0.00     0.300 C 
ENDROOT
BRANCH   1  15
ATOM     15  C5  ZIN A   1      17.863  -0.628   9.783  0.00  0.00     0.303 C 
BRANCH  15  16
ATOM     16  C2  ZIN A   1      16.823   0.468  10.023  0.00  0.00     0.142 C 
ATOM     17  C1  ZIN A   1      17.530   1.816  10.179  0.00  0.00     0.041 C 
BRANCH  16  18
ATOM     18  O4  ZIN A   1      16.088   0.175  11.213  0.00  0.00    -0.394 OA
ATOM     19  H35 ZIN A   1      16.640  -0.092  11.961  0.00  0.00     0.210 HD
ENDBRANCH  16  18
ENDBRANCH  15  16
ENDBRANCH   1  15
BRANCH  11  20
ATOM     20  C26 ZIN A   1      19.948  -3.098   6.175  0.00  0.00     0.347 C 
BRANCH  20  21
ATOM     21  C27 ZIN A   1      19.183  -2.115   5.326  0.00  0.00     0.199 C 
ATOM     22  O28 ZIN A   1      17.983  -2.256   5.162  0.00  0.00    -0.647 OA
ATOM     23  O29 ZIN A   1      19.764  -1.179   4.803  0.00  0.00    -0.647 OA
ENDBRANCH  20  21
ENDBRANCH  11  20
BRANCH   4  24
ATOM     24  C11 ZIN A   1      20.328  -1.886  13.758  0.00  0.00     0.347 C 
BRANCH  24  25
ATOM     25  C12 ZIN A   1      19.361  -0.973  14.465  0.00  0.00     0.199 C 
ATOM     26  O13 ZIN A   1      19.585   0.224  14.524  0.00  0.00    -0.647 OA
ATOM     27  O14 ZIN A   1      18.355  -1.430  14.979  0.00  0.00    -0.647 OA
ENDBRANCH  24  25
ENDBRANCH   4  24
BRANCH   8  28
ATOM     28  C18 ZIN A   1      17.622  -3.939  10.324  0.00  0.00     0.385 C 
BRANCH  28  29
ATOM     29  C19 ZIN A   1      16.399  -4.786  10.562  0.00  0.00     0.202 C 
ATOM     30  O20 ZIN A   1      15.878  -5.381   9.633  0.00  0.00    -0.647 OA
ATOM     31  O21 ZIN A   1      15.927  -4.876  11.683  0.00  0.00    -0.647 OA
ENDBRANCH  28  29
ENDBRANCH   8  28
TORSDOF 9
ENDMDL
MODEL 7
REMARK VINA RESULT:      -4.9     10.047     13.389
REMARK  9 active torsions:
REMARK  status: ('A' for Active; 'I' for Inactive)
REMARK    1  A    between atoms: C2_2  and  O4_3 
REMARK    2  A    between atoms: C2_2  and  C5_4 
REMARK    3  A    between atoms: C5_4  and  N6_5 
REMARK    4  A    between atoms: N9_8  and  C11_10 
REMARK    5  A    between atoms: C11_10  and  C12_11 
REMARK    6  A    between atoms: N17_16  and  C18_17 
REMARK    7  A    between atoms: C18_17  and  C19_18 
REMARK    8  A    between atoms: N24_23  and  C26_25 
REMARK    9  A    between atoms: C26_25  and  C27_26 
ROOT
ATOM      1  N6  ZIN A   1      17.833   2.656  12.431  0.00  0.00     0.094 N 
ATOM      2  C7  ZIN A   1      17.760   1.440  13.250  0.00  0.00     0.300 C 
ATOM      3  C8  ZIN A   1      19.063   1.275  14.035  0.00  0.00     0.265 C 
ATOM      4  N9  ZIN A   1      18.759   1.157  15.468  0.00  0.00    -0.058 N 
ATOM      5  H10 ZIN A   1      17.782   1.357  15.621  0.00  0.00     0.280 HD
ATOM      6  C15 ZIN A   1      19.580   2.112  16.223  0.00  0.00     0.265 C 
ATOM      7  C16 ZIN A   1      18.679   2.961  17.121  0.00  0.00     0.300 C 
ATOM      8  N17 ZIN A   1      18.893   4.385  16.826  0.00  0.00     0.101 N 
ATOM      9  C22 ZIN A   1      17.620   5.064  16.554  0.00  0.00     0.300 C 
ATOM     10  C23 ZIN A   1      17.714   5.807  15.220  0.00  0.00     0.265 C 
ATOM     11  N24 ZIN A   1      16.631   5.359  14.333  0.00  0.00    -0.058 N 
ATOM     12  H25 ZIN A   1      16.149   4.582  14.757  0.00  0.00     0.280 HD
ATOM     13  C30 ZIN A   1      17.196   4.941  13.043  0.00  0.00     0.265 C 
ATOM     14  C31 ZIN A   1      16.689   3.539  12.695  0.00  0.00     0.300 C 
ENDROOT
BRANCH   1  15
ATOM     15  C5  ZIN A   1      19.103   3.361  12.647  0.00  0.00     0.303 C 
BRANCH  15  16
ATOM     16  C2  ZIN A   1      19.862   3.463  11.322  0.00  0.00     0.142 C 
ATOM     17  C1  ZIN A   1      19.344   2.397  10.354  0.00  0.00     0.041 C 
BRANCH  16  18
ATOM     18  O4  ZIN A   1      21.257   3.258  11.555  0.00  0.00    -0.394 OA
ATOM     19  H35 ZIN A   1      21.831   3.876  11.082  0.00  0.00     0.210 HD
ENDBRANCH  16  18
ENDBRANCH  15  16
ENDBRANCH   1  15
BRANCH  11  20
ATOM     20  C26 ZIN A   1      15.686   6.464  14.118  0.00  0.00     0.347 C 
BRANCH  20  21
ATOM     21  C27 ZIN A   1      14.446   6.230  14.941  0.00  0.00     0.199 C 
ATOM     22  O28 ZIN A   1      14.454   6.463  16.137  0.00  0.00    -0.647 OA
ATOM     23  O29 ZIN A   1      13.432   5.808  14.409  0.00  0.00    -0.647 OA
ENDBRANCH  20  21
ENDBRANCH  11  20
BRANCH   4  24
ATOM     24  C11 ZIN A   1      19.055  -0.209  15.921  0.00  0.00     0.347 C 
BRANCH  24  25
ATOM     25  C12 ZIN A   1      17.793  -0.854  16.433  0.00  0.00     0.199 C 
ATOM     26  O13 ZIN A   1      17.716  -2.068  16.502  0.00  0.00    -0.647 OA
ATOM     27  O14 ZIN A   1      16.851  -0.162  16.777  0.00  0.00    -0.647 OA
ENDBRANCH  24  25
ENDBRANCH   4  24
BRANCH   8  28
ATOM     28  C18 ZIN A   1      19.830   4.554  15.707  0.00  0.00     0.385 C 
BRANCH  28  29
ATOM     29  C19 ZIN A   1      20.739   5.723  15.986  0.00  0.00     0.202 C 
ATOM     30  O20 ZIN A   1      20.328   6.677  16.626  0.00  0.00    -0.647 OA
ATOM     31  O21 ZIN A   1      21.886   5.717  15.572  0.00  0.00    -0.647 OA
ENDBRANCH  28  29
ENDBRANCH   8  28
TORSDOF 9
ENDMDL
MODEL 8
REMARK VINA RESULT:      -4.8     11.412     14.480
REMARK  9 active torsions:
REMARK  status: ('A' for Active; 'I' for Inactive)
REMARK    1  A    between atoms: C2_2  and  O4_3 
REMARK    2  A    between atoms: C2_2  and  C5_4 
REMARK    3  A    between atoms: C5_4  and  N6_5 
REMARK    4  A    between atoms: N9_8  and  C11_10 
REMARK    5  A    between atoms: C11_10  and  C12_11 
REMARK    6  A    between atoms: N17_16  and  C18_17 
REMARK    7  A    between atoms: C18_17  and  C19_18 
REMARK    8  A    between atoms: N24_23  and  C26_25 
REMARK    9  A    between atoms: C26_25  and  C27_26 
ROOT
ATOM      1  N6  ZIN A   1      15.551   6.742  15.331  0.00  0.00     0.094 N 
ATOM      2  C7  ZIN A   1      15.325   5.962  14.106  0.00  0.00     0.300 C 
ATOM      3  C8  ZIN A   1      16.450   6.245  13.108  0.00  0.00     0.265 C 
ATOM      4  N9  ZIN A   1      17.076   4.979  12.705  0.00  0.00    -0.058 N 
ATOM      5  H10 ZIN A   1      16.724   4.231  13.284  0.00  0.00     0.280 HD
ATOM      6  C15 ZIN A   1      18.533   5.080  12.867  0.00  0.00     0.265 C 
ATOM      7  C16 ZIN A   1      19.035   3.907  13.709  0.00  0.00     0.300 C 
ATOM      8  N17 ZIN A   1      19.772   4.419  14.873  0.00  0.00     0.101 N 
ATOM      9  C22 ZIN A   1      19.261   3.835  16.120  0.00  0.00     0.300 C 
ATOM     10  C23 ZIN A   1      18.923   4.954  17.106  0.00  0.00     0.265 C 
ATOM     11  N24 ZIN A   1      17.521   4.828  17.527  0.00  0.00    -0.058 N 
ATOM     12  H25 ZIN A   1      17.069   4.111  16.982  0.00  0.00     0.280 HD
ATOM     13  C30 ZIN A   1      16.831   6.108  17.320  0.00  0.00     0.265 C 
ATOM     14  C31 ZIN A   1      15.551   5.873  16.515  0.00  0.00     0.300 C 
ENDROOT
BRANCH   1  15
ATOM     15  C5  ZIN A   1      16.798   7.512  15.243  0.00  0.00     0.303 C 
BRANCH  15  16
ATOM     16  C2  ZIN A   1      16.480   9.007  15.321  0.00  0.00     0.142 C 
ATOM     17  C1  ZIN A   1      17.181   9.614  16.538  0.00  0.00     0.041 C 
BRANCH  16  18
ATOM     18  O4  ZIN A   1      15.067   9.188  15.445  0.00  0.00    -0.394 OA
ATOM     19  H35 ZIN A   1      14.545   8.607  14.875  0.00  0.00     0.210 HD
ENDBRANCH  16  18
ENDBRANCH  15  16
ENDBRANCH   1  15
BRANCH  11  20
ATOM     20  C26 ZIN A   1      17.468   4.469  18.951  0.00  0.00     0.347 C 
BRANCH  20  21
ATOM     21  C27 ZIN A   1      17.086   3.017  19.088  0.00  0.00     0.199 C 
ATOM     22  O28 ZIN A   1      17.914   2.147  18.885  0.00  0.00    -0.647 OA
ATOM     23  O29 ZIN A   1      15.948   2.714  19.403  0.00  0.00    -0.647 OA
ENDBRANCH  20  21
ENDBRANCH  11  20
BRANCH   4  24
ATOM     24  C11 ZIN A   1      16.758   4.701  11.298  0.00  0.00     0.347 C 
BRANCH  24  25
ATOM     25  C12 ZIN A   1      17.398   3.400  10.886  0.00  0.00     0.199 C 
ATOM     26  O13 ZIN A   1      17.052   2.357  11.413  0.00  0.00    -0.647 OA
ATOM     27  O14 ZIN A   1      18.262   3.392  10.026  0.00  0.00    -0.647 OA
ENDBRANCH  24  25
ENDBRANCH   4  24
BRANCH   8  28
ATOM     28  C18 ZIN A   1      19.725   5.887  14.921  0.00  0.00     0.385 C 
BRANCH  28  29
ATOM     29  C19 ZIN A   1      21.124   6.437  14.838  0.00  0.00     0.202 C 
ATOM     30  O20 ZIN A   1      21.372   7.367  14.088  0.00  0.00    -0.647 OA
ATOM     31  O21 ZIN A   1      22.012   5.953  15.520  0.00  0.00    -0.647 OA
ENDBRANCH  28  29
ENDBRANCH   8  28
TORSDOF 9
ENDMDL
MODEL 9
REMARK VINA RESULT:      -4.6      9.588     11.930
REMARK  9 active torsions:
REMARK  status: ('A' for Active; 'I' for Inactive)
REMARK    1  A    between atoms: C2_2  and  O4_3 
REMARK    2  A    between atoms: C2_2  and  C5_4 
REMARK    3  A    between atoms: C5_4  and  N6_5 
REMARK    4  A    between atoms: N9_8  and  C11_10 
REMARK    5  A    between atoms: C11_10  and  C12_11 
REMARK    6  A    between atoms: N17_16  and  C18_17 
REMARK    7  A    between atoms: C18_17  and  C19_18 
REMARK    8  A    between atoms: N24_23  and  C26_25 
REMARK    9  A    between atoms: C26_25  and  C27_26 
ROOT
ATOM      1  N6  ZIN A   1      18.062   5.135  15.628  0.00  0.00     0.094 N 
ATOM      2  C7  ZIN A   1      17.091   5.368  14.552  0.00  0.00     0.300 C 
ATOM      3  C8  ZIN A   1      17.752   5.088  13.200  0.00  0.00     0.265 C 
ATOM      4  N9  ZIN A   1      16.955   4.100  12.461  0.00  0.00    -0.058 N 
ATOM      5  H10 ZIN A   1      16.240   3.723  13.067  0.00  0.00     0.280 HD
ATOM      6  C15 ZIN A   1      17.828   3.013  11.999  0.00  0.00     0.265 C 
ATOM      7  C16 ZIN A   1      17.249   1.669  12.445  0.00  0.00     0.300 C 
ATOM      8  N17 ZIN A   1      18.255   0.937  13.227  0.00  0.00     0.101 N 
ATOM      9  C22 ZIN A   1      17.705   0.500  14.516  0.00  0.00     0.300 C 
ATOM     10  C23 ZIN A   1      18.626   0.963  15.647  0.00  0.00     0.265 C 
ATOM     11  N24 ZIN A   1      17.857   1.763  16.609  0.00  0.00    -0.058 N 
ATOM     12  H25 ZIN A   1      16.930   1.927  16.246  0.00  0.00     0.280 HD
ATOM     13  C30 ZIN A   1      18.531   3.050  16.826  0.00  0.00     0.265 C 
ATOM     14  C31 ZIN A   1      17.531   4.191  16.621  0.00  0.00     0.300 C 
ENDROOT
BRANCH   1  15
ATOM     15  C5  ZIN A   1      19.345   4.665  15.088  0.00  0.00     0.303 C 
BRANCH  15  16
ATOM     16  C2  ZIN A   1      20.471   5.572  15.589  0.00  0.00     0.142 C 
ATOM     17  C1  ZIN A   1      20.977   6.440  14.435  0.00  0.00     0.041 C 
BRANCH  16  18
ATOM     18  O4  ZIN A   1      21.543   4.768  16.086  0.00  0.00    -0.394 OA
ATOM     19  H35 ZIN A   1      22.318   5.275  16.367  0.00  0.00     0.210 HD
ENDBRANCH  16  18
ENDBRANCH  15  16
ENDBRANCH   1  15
BRANCH  11  20
ATOM     20  C26 ZIN A   1      17.763   1.039  17.884  0.00  0.00     0.347 C 
BRANCH  20  21
ATOM     21  C27 ZIN A   1      19.121   0.505  18.259  0.00  0.00     0.199 C 
ATOM     22  O28 ZIN A   1      20.004   1.272  18.603  0.00  0.00    -0.647 OA
ATOM     23  O29 ZIN A   1      19.337  -0.694  18.218  0.00  0.00    -0.647 OA
ENDBRANCH  20  21
ENDBRANCH  11  20
BRANCH   4  24
ATOM     24  C11 ZIN A   1      16.323   4.746  11.303  0.00  0.00     0.347 C 
BRANCH  24  25
ATOM     25  C12 ZIN A   1      17.377   5.083  10.279  0.00  0.00     0.199 C 
ATOM     26  O13 ZIN A   1      17.606   6.247  10.002  0.00  0.00    -0.647 OA
ATOM     27  O14 ZIN A   1      17.998   4.191   9.728  0.00  0.00    -0.647 OA
ENDBRANCH  24  25
ENDBRANCH   4  24
BRANCH   8  28
ATOM     28  C18 ZIN A   1      19.465   1.748  13.418  0.00  0.00     0.385 C 
BRANCH  28  29
ATOM     29  C19 ZIN A   1      20.483   1.386  12.369  0.00  0.00     0.202 C 
ATOM     30  O20 ZIN A   1      20.819   0.223  12.219  0.00  0.00    -0.647 OA
ATOM     31  O21 ZIN A   1      20.974   2.256  11.669  0.00  0.00    -0.647 OA
ENDBRANCH  28  29
ENDBRANCH   8  28
TORSDOF 9
ENDMDL
