MODEL 1
REMARK VINA RESULT:      -4.1      0.000      0.000
REMARK  2 active torsions:
REMARK  status: ('A' for Active; 'I' for Inactive)
REMARK    1  A    between atoms: C5_4  and  P7_5 
REMARK    2  A    between atoms: P7_5  and  O10_8 
ROOT
ATOM      1  P7  ZIN A   1      18.931   1.180  18.188  0.00  0.00     0.279 P 
ATOM      2  O8  ZIN A   1      17.607   1.079  18.979  0.00  0.00    -0.645 OA
ATOM      3  O9  ZIN A   1      19.729   2.410  18.674  0.00  0.00    -0.645 OA
ENDROOT
BRANCH   1   4
ATOM      4  C5  ZIN A   1      18.565   1.357  16.410  0.00  0.00     0.270 A 
ATOM      5  C2  ZIN A   1      17.778   0.235  15.728  0.00  0.00     0.160 A 
ATOM      6  C1  ZIN A   1      17.350  -0.958  16.584  0.00  0.00     0.043 C 
ATOM      7  O4  ZIN A   1      19.176   0.430  15.508  0.00  0.00    -0.362 OA
ENDBRANCH   1   4
BRANCH   1   8
ATOM      8  O10 ZIN A   1      19.802  -0.153  18.426  0.00  0.00    -0.321 OA
ATOM      9  H14 ZIN A   1      19.370  -0.964  18.125  0.00  0.00     0.221 HD
ENDBRANCH   1   8
TORSDOF 2
ENDMDL
MODEL 2
REMARK VINA RESULT:      -3.8     10.380     11.483
REMARK  2 active torsions:
REMARK  status: ('A' for Active; 'I' for Inactive)
REMARK    1  A    between atoms: C5_4  and  P7_5 
REMARK    2  A    between atoms: P7_5  and  O10_8 
ROOT
ATOM      1  P7  ZIN A   1      18.748  -0.908   7.140  0.00  0.00     0.279 P 
ATOM      2  O8  ZIN A   1      19.500  -0.275   8.334  0.00  0.00    -0.645 OA
ATOM      3  O9  ZIN A   1      19.134  -2.399   7.021  0.00  0.00    -0.645 OA
ENDROOT
BRANCH   1   4
ATOM      4  C5  ZIN A   1      19.204  -0.038   5.604  0.00  0.00     0.270 A 
ATOM      5  C2  ZIN A   1      18.521  -0.474   4.307  0.00  0.00     0.160 A 
ATOM      6  C1  ZIN A   1      17.499  -1.610   4.385  0.00  0.00     0.043 C 
ATOM      7  O4  ZIN A   1      19.886  -0.785   4.592  0.00  0.00    -0.362 OA
ENDBRANCH   1   4
BRANCH   1   8
ATOM      8  O10 ZIN A   1      17.161  -0.781   7.378  0.00  0.00    -0.321 OA
ATOM      9  H14 ZIN A   1      16.645  -1.493   6.977  0.00  0.00     0.221 HD
ENDBRANCH   1   8
TORSDOF 2
ENDMDL
MODEL 3
REMARK VINA RESULT:      -3.7     10.287     11.553
REMARK  2 active torsions:
REMARK  status: ('A' for Active; 'I' for Inactive)
REMARK    1  A    between atoms: C5_4  and  P7_5 
REMARK    2  A    between atoms: P7_5  and  O10_8 
ROOT
ATOM      1  P7  ZIN A   1      19.157  -2.345   5.949  0.00  0.00     0.279 P 
ATOM      2  O8  ZIN A   1      20.157  -3.494   6.210  0.00  0.00    -0.645 OA
ATOM      3  O9  ZIN A   1      19.733  -1.394   4.876  0.00  0.00    -0.645 OA
ENDROOT
BRANCH   1   4
ATOM      4  C5  ZIN A   1      18.879  -1.418   7.495  0.00  0.00     0.270 A 
ATOM      5  C2  ZIN A   1      17.846  -0.289   7.475  0.00  0.00     0.160 A 
ATOM      6  C1  ZIN A   1      17.115  -0.014   6.159  0.00  0.00     0.043 C 
ATOM      7  O4  ZIN A   1      19.252  -0.037   7.520  0.00  0.00    -0.362 OA
ENDBRANCH   1   4
BRANCH   1   8
ATOM      8  O10 ZIN A   1      17.760  -2.956   5.431  0.00  0.00    -0.321 OA
ATOM      9  H14 ZIN A   1      17.436  -3.698   5.959  0.00  0.00     0.221 HD
ENDBRANCH   1   8
TORSDOF 2
ENDMDL
MODEL 4
REMARK VINA RESULT:      -3.7      6.097      7.001
REMARK  2 active torsions:
REMARK  status: ('A' for Active; 'I' for Inactive)
REMARK    1  A    between atoms: C5_4  and  P7_5 
REMARK    2  A    between atoms: P7_5  and  O10_8 
ROOT
ATOM      1  P7  ZIN A   1      20.123  -0.554  10.536  0.00  0.00     0.279 P 
ATOM      2  O8  ZIN A   1      19.369   0.574  11.277  0.00  0.00    -0.645 OA
ATOM      3  O9  ZIN A   1      20.087  -0.284   9.015  0.00  0.00    -0.645 OA
ENDROOT
BRANCH   1   4
ATOM      4  C5  ZIN A   1      19.323  -2.154  10.888  0.00  0.00     0.270 A 
ATOM      5  C2  ZIN A   1      19.046  -2.507  12.351  0.00  0.00     0.160 A 
ATOM      6  C1  ZIN A   1      19.459  -1.493  13.420  0.00  0.00     0.043 C 
ATOM      7  O4  ZIN A   1      20.082  -3.138  11.596  0.00  0.00    -0.362 OA
ENDBRANCH   1   4
BRANCH   1   8
ATOM      8  O10 ZIN A   1      21.652  -0.597  11.037  0.00  0.00    -0.321 OA
ATOM      9  H14 ZIN A   1      22.187  -1.280  10.610  0.00  0.00     0.221 HD
ENDBRANCH   1   8
TORSDOF 2
ENDMDL
MODEL 5
REMARK VINA RESULT:      -3.7      9.828     11.346
REMARK  2 active torsions:
REMARK  status: ('A' for Active; 'I' for Inactive)
REMARK    1  A    between atoms: C5_4  and  P7_5 
REMARK    2  A    between atoms: P7_5  and  O10_8 
ROOT
ATOM      1  P7  ZIN A   1      18.798  -1.022   5.523  0.00  0.00     0.279 P 
ATOM      2  O8  ZIN A   1      19.738  -1.632   4.458  0.00  0.00    -0.645 OA
ATOM      3  O9  ZIN A   1      19.052   0.498   5.624  0.00  0.00    -0.645 OA
ENDROOT
BRANCH   1   4
ATOM      4  C5  ZIN A   1      19.125  -1.801   7.139  0.00  0.00     0.270 A 
ATOM      5  C2  ZIN A   1      18.292  -1.337   8.336  0.00  0.00     0.160 A 
ATOM      6  C1  ZIN A   1      17.240  -0.253   8.097  0.00  0.00     0.043 C 
ATOM      7  O4  ZIN A   1      19.666  -0.979   8.178  0.00  0.00    -0.362 OA
ENDBRANCH   1   4
BRANCH   1   8
ATOM      8  O10 ZIN A   1      17.267  -1.285   5.101  0.00  0.00    -0.321 OA
ATOM      9  H14 ZIN A   1      16.691  -0.516   5.211  0.00  0.00     0.221 HD
ENDBRANCH   1   8
TORSDOF 2
ENDMDL
MODEL 6
REMARK VINA RESULT:      -3.6      5.952      6.732
REMARK  2 active torsions:
REMARK  status: ('A' for Active; 'I' for Inactive)
REMARK    1  A    between atoms: C5_4  and  P7_5 
REMARK    2  A    between atoms: P7_5  and  O10_8 
ROOT
ATOM      1  P7  ZIN A   1      20.245   0.315  11.518  0.00  0.00     0.279 P 
ATOM      2  O8  ZIN A   1      20.436  -0.462  10.195  0.00  0.00    -0.645 OA
ATOM      3  O9  ZIN A   1      19.390  -0.527  12.491  0.00  0.00    -0.645 OA
ENDROOT
BRANCH   1   4
ATOM      4  C5  ZIN A   1      19.398   1.894  11.177  0.00  0.00     0.270 A 
ATOM      5  C2  ZIN A   1      18.034   1.838  10.488  0.00  0.00     0.160 A 
ATOM      6  C1  ZIN A   1      17.470   0.461  10.131  0.00  0.00     0.043 C 
ATOM      7  O4  ZIN A   1      19.215   2.271   9.810  0.00  0.00    -0.362 OA
ENDBRANCH   1   4
BRANCH   1   8
ATOM      8  O10 ZIN A   1      21.682   0.609  12.180  0.00  0.00    -0.321 OA
ATOM      9  H14 ZIN A   1      21.652   0.762  13.134  0.00  0.00     0.221 HD
ENDBRANCH   1   8
TORSDOF 2
ENDMDL
MODEL 7
REMARK VINA RESULT:      -3.6      4.724      5.535
REMARK  2 active torsions:
REMARK  status: ('A' for Active; 'I' for Inactive)
REMARK    1  A    between atoms: C5_4  and  P7_5 
REMARK    2  A    between atoms: P7_5  and  O10_8 
ROOT
ATOM      1  P7  ZIN A   1      20.115   0.526  12.260  0.00  0.00     0.279 P 
ATOM      2  O8  ZIN A   1      19.667   0.955  13.676  0.00  0.00    -0.645 OA
ATOM      3  O9  ZIN A   1      19.493   1.477  11.214  0.00  0.00    -0.645 OA
ENDROOT
BRANCH   1   4
ATOM      4  C5  ZIN A   1      19.558  -1.180  11.937  0.00  0.00     0.270 A 
ATOM      5  C2  ZIN A   1      18.053  -1.455  11.955  0.00  0.00     0.160 A 
ATOM      6  C1  ZIN A   1      17.116  -0.279  12.241  0.00  0.00     0.043 C 
ATOM      7  O4  ZIN A   1      18.921  -1.886  13.005  0.00  0.00    -0.362 OA
ENDBRANCH   1   4
BRANCH   1   8
ATOM      8  O10 ZIN A   1      21.720   0.594  12.162  0.00  0.00    -0.321 OA
ATOM      9  H14 ZIN A   1      22.058   1.432  11.817  0.00  0.00     0.221 HD
ENDBRANCH   1   8
TORSDOF 2
ENDMDL
MODEL 8
REMARK VINA RESULT:      -3.6      4.867      6.133
REMARK  2 active torsions:
REMARK  status: ('A' for Active; 'I' for Inactive)
REMARK    1  A    between atoms: C5_4  and  P7_5 
REMARK    2  A    between atoms: P7_5  and  O10_8 
ROOT
ATOM      1  P7  ZIN A   1      20.079   0.563  12.455  0.00  0.00     0.279 P 
ATOM      2  O8  ZIN A   1      19.157  -0.432  11.713  0.00  0.00    -0.645 OA
ATOM      3  O9  ZIN A   1      20.103   0.217  13.960  0.00  0.00    -0.645 OA
ENDROOT
BRANCH   1   4
ATOM      4  C5  ZIN A   1      19.447   2.258  12.232  0.00  0.00     0.270 A 
ATOM      5  C2  ZIN A   1      19.129   2.720  10.807  0.00  0.00     0.160 A 
ATOM      6  C1  ZIN A   1      19.360   1.726   9.667  0.00  0.00     0.043 C 
ATOM      7  O4  ZIN A   1      20.272   3.189  11.525  0.00  0.00    -0.362 OA
ENDBRANCH   1   4
BRANCH   1   8
ATOM      8  O10 ZIN A   1      21.569   0.462  11.856  0.00  0.00    -0.321 OA
ATOM      9  H14 ZIN A   1      21.629  -0.042  11.033  0.00  0.00     0.221 HD
ENDBRANCH   1   8
TORSDOF 2
ENDMDL
MODEL 9
REMARK VINA RESULT:      -3.5      4.208      5.592
REMARK  2 active torsions:
REMARK  status: ('A' for Active; 'I' for Inactive)
REMARK    1  A    between atoms: C5_4  and  P7_5 
REMARK    2  A    between atoms: P7_5  and  O10_8 
ROOT
ATOM      1  P7  ZIN A   1      20.169   0.442  12.011  0.00  0.00     0.279 P 
ATOM      2  O8  ZIN A   1      19.590   1.605  11.173  0.00  0.00    -0.645 OA
ATOM      3  O9  ZIN A   1      19.892  -0.898  11.293  0.00  0.00    -0.645 OA
ENDROOT
BRANCH   1   4
ATOM      4  C5  ZIN A   1      19.380   0.425  13.655  0.00  0.00     0.270 A 
ATOM      5  C2  ZIN A   1      17.860   0.252  13.715  0.00  0.00     0.160 A 
ATOM      6  C1  ZIN A   1      17.106   0.102  12.392  0.00  0.00     0.043 C 
ATOM      7  O4  ZIN A   1      18.497   1.503  13.981  0.00  0.00    -0.362 OA
ENDBRANCH   1   4
BRANCH   1   8
ATOM      8  O10 ZIN A   1      21.757   0.642  12.180  0.00  0.00    -0.321 OA
ATOM      9  H14 ZIN A   1      22.049   1.561  12.102  0.00  0.00     0.221 HD
ENDBRANCH   1   8
TORSDOF 2
ENDMDL
