MODEL 1
REMARK VINA RESULT:      -7.8      0.000      0.000
REMARK  7 active torsions:
REMARK  status: ('A' for Active; 'I' for Inactive)
REMARK    1  A    between atoms: C5_5  and  C6_6 
REMARK    2  A    between atoms: C6_6  and  C7_7 
REMARK    3  A    between atoms: C7_7  and  C8_8 
REMARK    4  A    between atoms: C8_8  and  C10_9 
REMARK    5  A    between atoms: C8_8  and  S16_15 
REMARK    6  A    between atoms: C10_9  and  N11_10 
REMARK    7  A    between atoms: S16_15  and  C17_16 
ROOT
ATOM      1  C8  ZIN A   1      19.200  -1.097   8.857  0.00  0.00     0.071 C 
ENDROOT
BRANCH   1   2
ATOM      2  C7  ZIN A   1      19.720   0.028   9.755  0.00  0.00     0.022 C 
BRANCH   2   3
ATOM      3  C6  ZIN A   1      19.429   1.379   9.099  0.00  0.00     0.040 C 
BRANCH   3   4
ATOM      4  C5  ZIN A   1      19.059   2.384  10.160  0.00  0.00    -0.058 A 
ATOM      5  C4  ZIN A   1      19.740   2.401  11.362  0.00  0.00     0.009 A 
ATOM      6  C3  ZIN A   1      19.401   3.322  12.336  0.00  0.00     0.024 A 
ATOM      7  C2  ZIN A   1      18.380   4.227  12.106  0.00  0.00     0.034 A 
ATOM      8 Cl1  ZIN A   1      17.954   5.385  13.328  0.00  0.00    -0.084 Cl
ATOM      9  C26 ZIN A   1      17.694   4.205  10.904  0.00  0.00     0.024 A 
ATOM     10  C25 ZIN A   1      18.038   3.287   9.930  0.00  0.00     0.009 A 
ENDBRANCH   3   4
ENDBRANCH   2   3
ENDBRANCH   1   2
BRANCH   1  11
ATOM     11  C10 ZIN A   1      18.426  -0.494   7.683  0.00  0.00     0.144 C 
BRANCH  11  12
ATOM     12  N11 ZIN A   1      18.819  -1.165   6.442  0.00  0.00    -0.349 N 
ATOM     13  C15 ZIN A   1      19.442  -0.597   5.386  0.00  0.00     0.209 A 
ATOM     14  N14 ZIN A   1      19.628  -1.508   4.470  0.00  0.00    -0.255 NA
ATOM     15  C13 ZIN A   1      19.129  -2.676   4.900  0.00  0.00     0.135 A 
ATOM     16  C12 ZIN A   1      18.618  -2.483   6.131  0.00  0.00     0.111 A 
ENDBRANCH  11  12
ENDBRANCH   1  11
BRANCH   1  17
ATOM     17  S16 ZIN A   1      18.103  -2.178   9.814  0.00  0.00    -0.120 SA
BRANCH  17  18
ATOM     18  C17 ZIN A   1      18.353  -1.630  11.470  0.00  0.00     0.044 A 
ATOM     19  C23 ZIN A   1      19.314  -2.241  12.268  0.00  0.00     0.052 A 
ATOM     20  C22 ZIN A   1      19.512  -1.804  13.564  0.00  0.00     0.025 A 
ATOM     21 Cl24 ZIN A   1      20.273  -3.541  11.633  0.00  0.00    -0.083 Cl
ATOM     22  C21 ZIN A   1      18.748  -0.769  14.071  0.00  0.00     0.003 A 
ATOM     23  C20 ZIN A   1      17.788  -0.162  13.282  0.00  0.00     0.025 A 
ATOM     24  C18 ZIN A   1      17.588  -0.589  11.983  0.00  0.00     0.052 A 
ATOM     25 Cl19 ZIN A   1      16.383   0.173  10.993  0.00  0.00    -0.083 Cl
ENDBRANCH  17  18
ENDBRANCH   1  17
TORSDOF 7
ENDMDL
MODEL 2
REMARK VINA RESULT:      -7.8      0.027      2.047
REMARK  7 active torsions:
REMARK  status: ('A' for Active; 'I' for Inactive)
REMARK    1  A    between atoms: C5_5  and  C6_6 
REMARK    2  A    between atoms: C6_6  and  C7_7 
REMARK    3  A    between atoms: C7_7  and  C8_8 
REMARK    4  A    between atoms: C8_8  and  C10_9 
REMARK    5  A    between atoms: C8_8  and  S16_15 
REMARK    6  A    between atoms: C10_9  and  N11_10 
REMARK    7  A    between atoms: S16_15  and  C17_16 
ROOT
ATOM      1  C8  ZIN A   1      19.189  -1.095   8.864  0.00  0.00     0.071 C 
ENDROOT
BRANCH   1   2
ATOM      2  C7  ZIN A   1      19.724   0.028   9.754  0.00  0.00     0.022 C 
BRANCH   2   3
ATOM      3  C6  ZIN A   1      19.441   1.380   9.094  0.00  0.00     0.040 C 
BRANCH   3   4
ATOM      4  C5  ZIN A   1      19.068   2.387  10.152  0.00  0.00    -0.058 A 
ATOM      5  C4  ZIN A   1      18.054   3.294   9.914  0.00  0.00     0.009 A 
ATOM      6  C3  ZIN A   1      17.711   4.218  10.884  0.00  0.00     0.024 A 
ATOM      7  C2  ZIN A   1      18.384   4.234  12.092  0.00  0.00     0.034 A 
ATOM      8 Cl1  ZIN A   1      17.954   5.393  13.311  0.00  0.00    -0.084 Cl
ATOM      9  C26 ZIN A   1      19.404   3.329  12.327  0.00  0.00     0.024 A 
ATOM     10  C25 ZIN A   1      19.742   2.402  11.359  0.00  0.00     0.009 A 
ENDBRANCH   3   4
ENDBRANCH   2   3
ENDBRANCH   1   2
BRANCH   1  11
ATOM     11  C10 ZIN A   1      18.420  -0.490   7.688  0.00  0.00     0.144 C 
BRANCH  11  12
ATOM     12  N11 ZIN A   1      18.810  -1.166   6.448  0.00  0.00    -0.349 N 
ATOM     13  C15 ZIN A   1      19.397  -0.594   5.374  0.00  0.00     0.209 A 
ATOM     14  N14 ZIN A   1      19.593  -1.512   4.467  0.00  0.00    -0.255 NA
ATOM     15  C13 ZIN A   1      19.137  -2.688   4.921  0.00  0.00     0.135 A 
ATOM     16  C12 ZIN A   1      18.643  -2.494   6.159  0.00  0.00     0.111 A 
ENDBRANCH  11  12
ENDBRANCH   1  11
BRANCH   1  17
ATOM     17  S16 ZIN A   1      18.080  -2.156   9.830  0.00  0.00    -0.120 SA
BRANCH  17  18
ATOM     18  C17 ZIN A   1      18.344  -1.605  11.482  0.00  0.00     0.044 A 
ATOM     19  C23 ZIN A   1      17.584  -0.561  11.998  0.00  0.00     0.052 A 
ATOM     20  C22 ZIN A   1      17.789  -0.136  13.297  0.00  0.00     0.025 A 
ATOM     21 Cl24 ZIN A   1      16.368   0.196  11.018  0.00  0.00    -0.083 Cl
ATOM     22  C21 ZIN A   1      18.758  -0.739  14.079  0.00  0.00     0.003 A 
ATOM     23  C20 ZIN A   1      19.519  -1.774  13.567  0.00  0.00     0.025 A 
ATOM     24  C18 ZIN A   1      19.316  -2.209  12.272  0.00  0.00     0.052 A 
ATOM     25 Cl19 ZIN A   1      20.273  -3.508  11.631  0.00  0.00    -0.083 Cl
ENDBRANCH  17  18
ENDBRANCH   1  17
TORSDOF 7
ENDMDL
MODEL 3
REMARK VINA RESULT:      -7.5      2.618      5.268
REMARK  7 active torsions:
REMARK  status: ('A' for Active; 'I' for Inactive)
REMARK    1  A    between atoms: C5_5  and  C6_6 
REMARK    2  A    between atoms: C6_6  and  C7_7 
REMARK    3  A    between atoms: C7_7  and  C8_8 
REMARK    4  A    between atoms: C8_8  and  C10_9 
REMARK    5  A    between atoms: C8_8  and  S16_15 
REMARK    6  A    between atoms: C10_9  and  N11_10 
REMARK    7  A    between atoms: S16_15  and  C17_16 
ROOT
ATOM      1  C8  ZIN A   1      18.752   0.102  11.270  0.00  0.00     0.071 C 
ENDROOT
BRANCH   1   2
ATOM      2  C7  ZIN A   1      17.757  -0.324  12.352  0.00  0.00     0.022 C 
BRANCH   2   3
ATOM      3  C6  ZIN A   1      18.371  -1.440  13.200  0.00  0.00     0.040 C 
BRANCH   3   4
ATOM      4  C5  ZIN A   1      18.351  -1.038  14.651  0.00  0.00    -0.058 A 
ATOM      5  C4  ZIN A   1      19.270  -1.576  15.531  0.00  0.00     0.009 A 
ATOM      6  C3  ZIN A   1      19.252  -1.208  16.863  0.00  0.00     0.024 A 
ATOM      7  C2  ZIN A   1      18.314  -0.299  17.316  0.00  0.00     0.034 A 
ATOM      8 Cl1  ZIN A   1      18.290   0.166  18.988  0.00  0.00    -0.084 Cl
ATOM      9  C26 ZIN A   1      17.389   0.237  16.436  0.00  0.00     0.024 A 
ATOM     10  C25 ZIN A   1      17.412  -0.129  15.104  0.00  0.00     0.009 A 
ENDBRANCH   3   4
ENDBRANCH   2   3
ENDBRANCH   1   2
BRANCH   1  11
ATOM     11  C10 ZIN A   1      19.674  -1.073  10.937  0.00  0.00     0.144 C 
BRANCH  11  12
ATOM     12  N11 ZIN A   1      19.264  -1.670   9.664  0.00  0.00    -0.349 N 
ATOM     13  C15 ZIN A   1      19.344  -1.094   8.445  0.00  0.00     0.209 A 
ATOM     14  N14 ZIN A   1      18.887  -1.932   7.555  0.00  0.00    -0.255 NA
ATOM     15  C13 ZIN A   1      18.496  -3.059   8.168  0.00  0.00     0.135 A 
ATOM     16  C12 ZIN A   1      18.724  -2.916   9.488  0.00  0.00     0.111 A 
ENDBRANCH  11  12
ENDBRANCH   1  11
BRANCH   1  17
ATOM     17  S16 ZIN A   1      19.742   1.496  11.874  0.00  0.00    -0.120 SA
BRANCH  17  18
ATOM     18  C17 ZIN A   1      18.668   2.873  11.643  0.00  0.00     0.044 A 
ATOM     19  C23 ZIN A   1      18.363   3.311  10.359  0.00  0.00     0.052 A 
ATOM     20  C22 ZIN A   1      17.514   4.388  10.181  0.00  0.00     0.025 A 
ATOM     21 Cl24 ZIN A   1      19.033   2.496   8.980  0.00  0.00    -0.083 Cl
ATOM     22  C21 ZIN A   1      16.980   5.037  11.279  0.00  0.00     0.003 A 
ATOM     23  C20 ZIN A   1      17.286   4.608  12.558  0.00  0.00     0.025 A 
ATOM     24  C18 ZIN A   1      18.129   3.529  12.744  0.00  0.00     0.052 A 
ATOM     25 Cl19 ZIN A   1      18.512   2.991  14.349  0.00  0.00    -0.083 Cl
ENDBRANCH  17  18
ENDBRANCH   1  17
TORSDOF 7
ENDMDL
MODEL 4
REMARK VINA RESULT:      -7.5      3.295      5.959
REMARK  7 active torsions:
REMARK  status: ('A' for Active; 'I' for Inactive)
REMARK    1  A    between atoms: C5_5  and  C6_6 
REMARK    2  A    between atoms: C6_6  and  C7_7 
REMARK    3  A    between atoms: C7_7  and  C8_8 
REMARK    4  A    between atoms: C8_8  and  C10_9 
REMARK    5  A    between atoms: C8_8  and  S16_15 
REMARK    6  A    between atoms: C10_9  and  N11_10 
REMARK    7  A    between atoms: S16_15  and  C17_16 
ROOT
ATOM      1  C8  ZIN A   1      18.954   1.426  12.113  0.00  0.00     0.071 C 
ENDROOT
BRANCH   1   2
ATOM      2  C7  ZIN A   1      18.919   0.446  10.939  0.00  0.00     0.022 C 
BRANCH   2   3
ATOM      3  C6  ZIN A   1      17.616   0.630  10.158  0.00  0.00     0.040 C 
BRANCH   3   4
ATOM      4  C5  ZIN A   1      17.896   0.529   8.681  0.00  0.00    -0.058 A 
ATOM      5  C4  ZIN A   1      17.182  -0.362   7.902  0.00  0.00     0.009 A 
ATOM      6  C3  ZIN A   1      17.438  -0.455   6.547  0.00  0.00     0.024 A 
ATOM      7  C2  ZIN A   1      18.409   0.344   5.971  0.00  0.00     0.034 A 
ATOM      8 Cl1  ZIN A   1      18.731   0.229   4.268  0.00  0.00    -0.084 Cl
ATOM      9  C26 ZIN A   1      19.127   1.232   6.752  0.00  0.00     0.024 A 
ATOM     10  C25 ZIN A   1      18.866   1.328   8.106  0.00  0.00     0.009 A 
ENDBRANCH   3   4
ENDBRANCH   2   3
ENDBRANCH   1   2
BRANCH   1  11
ATOM     11  C10 ZIN A   1      19.332   2.818  11.603  0.00  0.00     0.144 C 
BRANCH  11  12
ATOM     12  N11 ZIN A   1      18.172   3.707  11.700  0.00  0.00    -0.349 N 
ATOM     13  C15 ZIN A   1      17.338   4.050  10.694  0.00  0.00     0.209 A 
ATOM     14  N14 ZIN A   1      16.425   4.856  11.163  0.00  0.00    -0.255 NA
ATOM     15  C13 ZIN A   1      16.645   5.060  12.470  0.00  0.00     0.135 A 
ATOM     16  C12 ZIN A   1      17.733   4.350  12.826  0.00  0.00     0.111 A 
ENDBRANCH  11  12
ENDBRANCH   1  11
BRANCH   1  17
ATOM     17  S16 ZIN A   1      20.181   0.873  13.328  0.00  0.00    -0.120 SA
BRANCH  17  18
ATOM     18  C17 ZIN A   1      19.185   0.270  14.650  0.00  0.00     0.044 A 
ATOM     19  C23 ZIN A   1      18.786  -1.062  14.670  0.00  0.00     0.052 A 
ATOM     20  C22 ZIN A   1      18.010  -1.534  15.713  0.00  0.00     0.025 A 
ATOM     21 Cl24 ZIN A   1      19.273  -2.135  13.396  0.00  0.00    -0.083 Cl
ATOM     22  C21 ZIN A   1      17.622  -0.679  16.728  0.00  0.00     0.003 A 
ATOM     23  C20 ZIN A   1      18.013   0.647  16.709  0.00  0.00     0.025 A 
ATOM     24  C18 ZIN A   1      18.793   1.125  15.674  0.00  0.00     0.052 A 
ATOM     25 Cl19 ZIN A   1      19.283   2.790  15.651  0.00  0.00    -0.083 Cl
ENDBRANCH  17  18
ENDBRANCH   1  17
TORSDOF 7
ENDMDL
MODEL 5
REMARK VINA RESULT:      -7.5      2.649      5.419
REMARK  7 active torsions:
REMARK  status: ('A' for Active; 'I' for Inactive)
REMARK    1  A    between atoms: C5_5  and  C6_6 
REMARK    2  A    between atoms: C6_6  and  C7_7 
REMARK    3  A    between atoms: C7_7  and  C8_8 
REMARK    4  A    between atoms: C8_8  and  C10_9 
REMARK    5  A    between atoms: C8_8  and  S16_15 
REMARK    6  A    between atoms: C10_9  and  N11_10 
REMARK    7  A    between atoms: S16_15  and  C17_16 
ROOT
ATOM      1  C8  ZIN A   1      18.759   0.139  11.286  0.00  0.00     0.071 C 
ENDROOT
BRANCH   1   2
ATOM      2  C7  ZIN A   1      17.754  -0.318  12.345  0.00  0.00     0.022 C 
BRANCH   2   3
ATOM      3  C6  ZIN A   1      18.373  -1.434  13.188  0.00  0.00     0.040 C 
BRANCH   3   4
ATOM      4  C5  ZIN A   1      18.360  -1.034  14.641  0.00  0.00    -0.058 A 
ATOM      5  C4  ZIN A   1      17.434  -0.113  15.095  0.00  0.00     0.009 A 
ATOM      6  C3  ZIN A   1      17.421   0.255  16.427  0.00  0.00     0.024 A 
ATOM      7  C2  ZIN A   1      18.334  -0.299  17.306  0.00  0.00     0.034 A 
ATOM      8 Cl1  ZIN A   1      18.318   0.162  18.980  0.00  0.00    -0.084 Cl
ATOM      9  C26 ZIN A   1      19.265  -1.216  16.850  0.00  0.00     0.024 A 
ATOM     10  C25 ZIN A   1      19.273  -1.587  15.519  0.00  0.00     0.009 A 
ENDBRANCH   3   4
ENDBRANCH   2   3
ENDBRANCH   1   2
BRANCH   1  11
ATOM     11  C10 ZIN A   1      19.703  -1.016  10.948  0.00  0.00     0.144 C 
BRANCH  11  12
ATOM     12  N11 ZIN A   1      19.277  -1.648   9.698  0.00  0.00    -0.349 N 
ATOM     13  C15 ZIN A   1      18.803  -2.905   9.555  0.00  0.00     0.209 A 
ATOM     14  N14 ZIN A   1      18.528  -3.108   8.295  0.00  0.00    -0.255 NA
ATOM     15  C13 ZIN A   1      18.819  -2.002   7.595  0.00  0.00     0.135 A 
ATOM     16  C12 ZIN A   1      19.289  -1.077   8.453  0.00  0.00     0.111 A 
ENDBRANCH  11  12
ENDBRANCH   1  11
BRANCH   1  17
ATOM     17  S16 ZIN A   1      19.719   1.538  11.926  0.00  0.00    -0.120 SA
BRANCH  17  18
ATOM     18  C17 ZIN A   1      18.648   2.910  11.654  0.00  0.00     0.044 A 
ATOM     19  C23 ZIN A   1      18.066   3.564  12.734  0.00  0.00     0.052 A 
ATOM     20  C22 ZIN A   1      17.232   4.645  12.517  0.00  0.00     0.025 A 
ATOM     21 Cl24 ZIN A   1      18.398   3.034  14.353  0.00  0.00    -0.083 Cl
ATOM     22  C21 ZIN A   1      16.967   5.068  11.227  0.00  0.00     0.003 A 
ATOM     23  C20 ZIN A   1      17.541   4.417  10.150  0.00  0.00     0.025 A 
ATOM     24  C18 ZIN A   1      18.380   3.339  10.359  0.00  0.00     0.052 A 
ATOM     25 Cl19 ZIN A   1      19.099   2.523   9.006  0.00  0.00    -0.083 Cl
ENDBRANCH  17  18
ENDBRANCH   1  17
TORSDOF 7
ENDMDL
MODEL 6
REMARK VINA RESULT:      -7.5      2.956      5.186
REMARK  7 active torsions:
REMARK  status: ('A' for Active; 'I' for Inactive)
REMARK    1  A    between atoms: C5_5  and  C6_6 
REMARK    2  A    between atoms: C6_6  and  C7_7 
REMARK    3  A    between atoms: C7_7  and  C8_8 
REMARK    4  A    between atoms: C8_8  and  C10_9 
REMARK    5  A    between atoms: C8_8  and  S16_15 
REMARK    6  A    between atoms: C10_9  and  N11_10 
REMARK    7  A    between atoms: S16_15  and  C17_16 
ROOT
ATOM      1  C8  ZIN A   1      18.417  -2.192  11.251  0.00  0.00     0.071 C 
ENDROOT
BRANCH   1   2
ATOM      2  C7  ZIN A   1      17.941  -1.624  12.590  0.00  0.00     0.022 C 
BRANCH   2   3
ATOM      3  C6  ZIN A   1      18.990  -1.909  13.667  0.00  0.00     0.040 C 
BRANCH   3   4
ATOM      4  C5  ZIN A   1      18.642  -1.150  14.921  0.00  0.00    -0.058 A 
ATOM      5  C4  ZIN A   1      17.741  -0.104  14.868  0.00  0.00     0.009 A 
ATOM      6  C3  ZIN A   1      17.421   0.593  16.018  0.00  0.00     0.024 A 
ATOM      7  C2  ZIN A   1      18.003   0.243  17.223  0.00  0.00     0.034 A 
ATOM      8 Cl1  ZIN A   1      17.602   1.116  18.669  0.00  0.00    -0.084 Cl
ATOM      9  C26 ZIN A   1      18.911  -0.801  17.275  0.00  0.00     0.024 A 
ATOM     10  C25 ZIN A   1      19.225  -1.500  16.125  0.00  0.00     0.009 A 
ENDBRANCH   3   4
ENDBRANCH   2   3
ENDBRANCH   1   2
BRANCH   1  11
ATOM     11  C10 ZIN A   1      18.547  -3.712  11.362  0.00  0.00     0.144 C 
BRANCH  11  12
ATOM     12  N11 ZIN A   1      18.455  -4.310  10.028  0.00  0.00    -0.349 N 
ATOM     13  C15 ZIN A   1      19.437  -4.969   9.375  0.00  0.00     0.209 A 
ATOM     14  N14 ZIN A   1      18.981  -5.357   8.215  0.00  0.00    -0.255 NA
ATOM     15  C13 ZIN A   1      17.709  -4.955   8.083  0.00  0.00     0.135 A 
ATOM     16  C12 ZIN A   1      17.360  -4.299   9.206  0.00  0.00     0.111 A 
ENDBRANCH  11  12
ENDBRANCH   1  11
BRANCH   1  17
ATOM     17  S16 ZIN A   1      20.028  -1.476  10.828  0.00  0.00    -0.120 SA
BRANCH  17  18
ATOM     18  C17 ZIN A   1      19.593  -0.032   9.918  0.00  0.00     0.044 A 
ATOM     19  C23 ZIN A   1      19.325  -0.121   8.556  0.00  0.00     0.052 A 
ATOM     20  C22 ZIN A   1      18.977   1.013   7.846  0.00  0.00     0.025 A 
ATOM     21 Cl24 ZIN A   1      19.412  -1.657   7.752  0.00  0.00    -0.083 Cl
ATOM     22  C21 ZIN A   1      18.908   2.236   8.487  0.00  0.00     0.003 A 
ATOM     23  C20 ZIN A   1      19.178   2.330   9.839  0.00  0.00     0.025 A 
ATOM     24  C18 ZIN A   1      19.521   1.200  10.557  0.00  0.00     0.052 A 
ATOM     25 Cl19 ZIN A   1      19.861   1.319  12.255  0.00  0.00    -0.083 Cl
ENDBRANCH  17  18
ENDBRANCH   1  17
TORSDOF 7
ENDMDL
MODEL 7
REMARK VINA RESULT:      -7.4      3.570      7.532
REMARK  7 active torsions:
REMARK  status: ('A' for Active; 'I' for Inactive)
REMARK    1  A    between atoms: C5_5  and  C6_6 
REMARK    2  A    between atoms: C6_6  and  C7_7 
REMARK    3  A    between atoms: C7_7  and  C8_8 
REMARK    4  A    between atoms: C8_8  and  C10_9 
REMARK    5  A    between atoms: C8_8  and  S16_15 
REMARK    6  A    between atoms: C10_9  and  N11_10 
REMARK    7  A    between atoms: S16_15  and  C17_16 
ROOT
ATOM      1  C8  ZIN A   1      18.414  -0.047  12.507  0.00  0.00     0.071 C 
ENDROOT
BRANCH   1   2
ATOM      2  C7  ZIN A   1      19.477  -1.062  12.084  0.00  0.00     0.022 C 
BRANCH   2   3
ATOM      3  C6  ZIN A   1      19.254  -2.377  12.835  0.00  0.00     0.040 C 
BRANCH   3   4
ATOM      4  C5  ZIN A   1      18.828  -3.446  11.861  0.00  0.00    -0.058 A 
ATOM      5  C4  ZIN A   1      17.504  -3.836  11.800  0.00  0.00     0.009 A 
ATOM      6  C3  ZIN A   1      17.112  -4.816  10.907  0.00  0.00     0.024 A 
ATOM      7  C2  ZIN A   1      18.046  -5.406  10.075  0.00  0.00     0.034 A 
ATOM      8 Cl1  ZIN A   1      17.556  -6.637   8.952  0.00  0.00    -0.084 Cl
ATOM      9  C26 ZIN A   1      19.373  -5.019  10.140  0.00  0.00     0.024 A 
ATOM     10  C25 ZIN A   1      19.762  -4.035  11.030  0.00  0.00     0.009 A 
ENDBRANCH   3   4
ENDBRANCH   2   3
ENDBRANCH   1   2
BRANCH   1  11
ATOM     11  C10 ZIN A   1      17.828  -0.457  13.859  0.00  0.00     0.144 C 
BRANCH  11  12
ATOM     12  N11 ZIN A   1      18.366   0.410  14.910  0.00  0.00    -0.349 N 
ATOM     13  C15 ZIN A   1      18.806   1.678  14.755  0.00  0.00     0.209 A 
ATOM     14  N14 ZIN A   1      19.208   2.126  15.913  0.00  0.00    -0.255 NA
ATOM     15  C13 ZIN A   1      19.048   1.167  16.838  0.00  0.00     0.135 A 
ATOM     16  C12 ZIN A   1      18.522   0.086  16.231  0.00  0.00     0.111 A 
ENDBRANCH  11  12
ENDBRANCH   1  11
BRANCH   1  17
ATOM     17  S16 ZIN A   1      17.094   0.001  11.265  0.00  0.00    -0.120 SA
BRANCH  17  18
ATOM     18  C17 ZIN A   1      17.904   0.670   9.851  0.00  0.00     0.044 A 
ATOM     19  C23 ZIN A   1      18.220  -0.153   8.775  0.00  0.00     0.052 A 
ATOM     20  C22 ZIN A   1      18.850   0.377   7.665  0.00  0.00     0.025 A 
ATOM     21 Cl24 ZIN A   1      17.810  -1.839   8.821  0.00  0.00    -0.083 Cl
ATOM     22  C21 ZIN A   1      19.177   1.720   7.628  0.00  0.00     0.003 A 
ATOM     23  C20 ZIN A   1      18.869   2.540   8.698  0.00  0.00     0.025 A 
ATOM     24  C18 ZIN A   1      18.234   2.020   9.810  0.00  0.00     0.052 A 
ATOM     25 Cl19 ZIN A   1      17.848   3.050  11.152  0.00  0.00    -0.083 Cl
ENDBRANCH  17  18
ENDBRANCH   1  17
TORSDOF 7
ENDMDL
MODEL 8
REMARK VINA RESULT:      -7.4      3.017      5.299
REMARK  7 active torsions:
REMARK  status: ('A' for Active; 'I' for Inactive)
REMARK    1  A    between atoms: C5_5  and  C6_6 
REMARK    2  A    between atoms: C6_6  and  C7_7 
REMARK    3  A    between atoms: C7_7  and  C8_8 
REMARK    4  A    between atoms: C8_8  and  C10_9 
REMARK    5  A    between atoms: C8_8  and  S16_15 
REMARK    6  A    between atoms: C10_9  and  N11_10 
REMARK    7  A    between atoms: S16_15  and  C17_16 
ROOT
ATOM      1  C8  ZIN A   1      18.459  -1.970  11.510  0.00  0.00     0.071 C 
ENDROOT
BRANCH   1   2
ATOM      2  C7  ZIN A   1      18.009  -1.272  12.795  0.00  0.00     0.022 C 
BRANCH   2   3
ATOM      3  C6  ZIN A   1      19.107  -1.394  13.854  0.00  0.00     0.040 C 
BRANCH   3   4
ATOM      4  C5  ZIN A   1      18.678  -0.676  15.108  0.00  0.00    -0.058 A 
ATOM      5  C4  ZIN A   1      17.898  -1.327  16.044  0.00  0.00     0.009 A 
ATOM      6  C3  ZIN A   1      17.504  -0.669  17.194  0.00  0.00     0.024 A 
ATOM      7  C2  ZIN A   1      17.892   0.641  17.408  0.00  0.00     0.034 A 
ATOM      8 Cl1  ZIN A   1      17.399   1.468  18.853  0.00  0.00    -0.084 Cl
ATOM      9  C26 ZIN A   1      18.668   1.295  16.467  0.00  0.00     0.024 A 
ATOM     10  C25 ZIN A   1      19.065   0.634  15.320  0.00  0.00     0.009 A 
ENDBRANCH   3   4
ENDBRANCH   2   3
ENDBRANCH   1   2
BRANCH   1  11
ATOM     11  C10 ZIN A   1      18.600  -3.471  11.770  0.00  0.00     0.144 C 
BRANCH  11  12
ATOM     12  N11 ZIN A   1      18.448  -4.203  10.511  0.00  0.00    -0.349 N 
ATOM     13  C15 ZIN A   1      19.392  -4.951   9.899  0.00  0.00     0.209 A 
ATOM     14  N14 ZIN A   1      18.887  -5.447   8.802  0.00  0.00    -0.255 NA
ATOM     15  C13 ZIN A   1      17.619  -5.031   8.671  0.00  0.00     0.135 A 
ATOM     16  C12 ZIN A   1      17.324  -4.252   9.730  0.00  0.00     0.111 A 
ENDBRANCH  11  12
ENDBRANCH   1  11
BRANCH   1  17
ATOM     17  S16 ZIN A   1      20.057  -1.295  10.982  0.00  0.00    -0.120 SA
BRANCH  17  18
ATOM     18  C17 ZIN A   1      19.595   0.020   9.905  0.00  0.00     0.044 A 
ATOM     19  C23 ZIN A   1      19.516   1.321  10.388  0.00  0.00     0.052 A 
ATOM     20  C22 ZIN A   1      19.159   2.351   9.538  0.00  0.00     0.025 A 
ATOM     21 Cl24 ZIN A   1      19.879   1.654  12.052  0.00  0.00    -0.083 Cl
ATOM     22  C21 ZIN A   1      18.870   2.086   8.212  0.00  0.00     0.003 A 
ATOM     23  C20 ZIN A   1      18.943   0.793   7.729  0.00  0.00     0.025 A 
ATOM     24  C18 ZIN A   1      19.304  -0.242   8.571  0.00  0.00     0.052 A 
ATOM     25 Cl19 ZIN A   1      19.395  -1.866   7.963  0.00  0.00    -0.083 Cl
ENDBRANCH  17  18
ENDBRANCH   1  17
TORSDOF 7
ENDMDL
MODEL 9
REMARK VINA RESULT:      -7.4      3.580      7.665
REMARK  7 active torsions:
REMARK  status: ('A' for Active; 'I' for Inactive)
REMARK    1  A    between atoms: C5_5  and  C6_6 
REMARK    2  A    between atoms: C6_6  and  C7_7 
REMARK    3  A    between atoms: C7_7  and  C8_8 
REMARK    4  A    between atoms: C8_8  and  C10_9 
REMARK    5  A    between atoms: C8_8  and  S16_15 
REMARK    6  A    between atoms: C10_9  and  N11_10 
REMARK    7  A    between atoms: S16_15  and  C17_16 
ROOT
ATOM      1  C8  ZIN A   1      18.431  -0.043  12.542  0.00  0.00     0.071 C 
ENDROOT
BRANCH   1   2
ATOM      2  C7  ZIN A   1      19.480  -1.070  12.110  0.00  0.00     0.022 C 
BRANCH   2   3
ATOM      3  C6  ZIN A   1      19.245  -2.384  12.859  0.00  0.00     0.040 C 
BRANCH   3   4
ATOM      4  C5  ZIN A   1      18.831  -3.453  11.881  0.00  0.00    -0.058 A 
ATOM      5  C4  ZIN A   1      17.515  -3.870  11.829  0.00  0.00     0.009 A 
ATOM      6  C3  ZIN A   1      17.134  -4.850  10.932  0.00  0.00     0.024 A 
ATOM      7  C2  ZIN A   1      18.072  -5.415  10.086  0.00  0.00     0.034 A 
ATOM      8 Cl1  ZIN A   1      17.595  -6.646   8.958  0.00  0.00    -0.084 Cl
ATOM      9  C26 ZIN A   1      19.392  -5.002  10.143  0.00  0.00     0.024 A 
ATOM     10  C25 ZIN A   1      19.769  -4.018  11.036  0.00  0.00     0.009 A 
ENDBRANCH   3   4
ENDBRANCH   2   3
ENDBRANCH   1   2
BRANCH   1  11
ATOM     11  C10 ZIN A   1      17.859  -0.442  13.904  0.00  0.00     0.144 C 
BRANCH  11  12
ATOM     12  N11 ZIN A   1      18.386   0.454  14.936  0.00  0.00    -0.349 N 
ATOM     13  C15 ZIN A   1      18.781   1.734  14.762  0.00  0.00     0.209 A 
ATOM     14  N14 ZIN A   1      19.187   2.206  15.909  0.00  0.00    -0.255 NA
ATOM     15  C13 ZIN A   1      19.075   1.252  16.845  0.00  0.00     0.135 A 
ATOM     16  C12 ZIN A   1      18.575   0.148  16.258  0.00  0.00     0.111 A 
ENDBRANCH  11  12
ENDBRANCH   1  11
BRANCH   1  17
ATOM     17  S16 ZIN A   1      17.095   0.009  11.317  0.00  0.00    -0.120 SA
BRANCH  17  18
ATOM     18  C17 ZIN A   1      17.885   0.693   9.898  0.00  0.00     0.044 A 
ATOM     19  C23 ZIN A   1      18.184   2.050   9.854  0.00  0.00     0.052 A 
ATOM     20  C22 ZIN A   1      18.810   2.581   8.742  0.00  0.00     0.025 A 
ATOM     21 Cl24 ZIN A   1      17.785   3.072  11.198  0.00  0.00    -0.083 Cl
ATOM     22  C21 ZIN A   1      19.127   1.767   7.670  0.00  0.00     0.003 A 
ATOM     23  C20 ZIN A   1      18.827   0.418   7.709  0.00  0.00     0.025 A 
ATOM     24  C18 ZIN A   1      18.207  -0.122   8.819  0.00  0.00     0.052 A 
ATOM     25 Cl19 ZIN A   1      17.830  -1.816   8.866  0.00  0.00    -0.083 Cl
ENDBRANCH  17  18
ENDBRANCH   1  17
TORSDOF 7
ENDMDL
