MODEL 1
REMARK VINA RESULT:      -7.6      0.000      0.000
REMARK  11 active torsions:
REMARK  status: ('A' for Active; 'I' for Inactive)
REMARK    1  A    between atoms: N2_2  and  C4_4 
REMARK    2  A    between atoms: N2_2  and  C18_18 
REMARK    3  A    between atoms: C4_4  and  C5_5 
REMARK    4  A    between atoms: C5_5  and  O6_6 
REMARK    5  A    between atoms: O6_6  and  C7_7 
REMARK    6  A    between atoms: C10_10  and  N11_11 
REMARK    7  A    between atoms: N11_11  and  S12_12 
REMARK    8  A    between atoms: C18_18  and  C19_19 
REMARK    9  A    between atoms: C19_19  and  C20_20 
REMARK   10  A    between atoms: C23_23  and  N24_24 
REMARK   11  A    between atoms: N24_24  and  S25_25 
ROOT
ATOM      1  C1  ZIN A   1      19.618   3.602  11.884  0.00  0.00     0.269 C 
ATOM      2  N2  ZIN A   1      18.157   3.456  11.904  0.00  0.00    -0.073 N 
ATOM      3  H3  ZIN A   1      17.728   4.369  11.914  0.00  0.00     0.279 HD
ENDROOT
BRANCH   2   4
ATOM      4  C4  ZIN A   1      17.755   2.714  13.107  0.00  0.00     0.261 C 
BRANCH   4   5
ATOM      5  C5  ZIN A   1      18.932   1.875  13.607  0.00  0.00     0.203 C 
BRANCH   5   6
ATOM      6  O6  ZIN A   1      18.498   0.532  13.833  0.00  0.00    -0.349 OA
BRANCH   6   7
ATOM      7  C7  ZIN A   1      18.692  -0.359  12.825  0.00  0.00     0.069 A 
ATOM      8  C17 ZIN A   1      17.687  -1.254  12.489  0.00  0.00     0.039 A 
ATOM      9  C16 ZIN A   1      17.882  -2.157  11.461  0.00  0.00     0.033 A 
ATOM     10  C10 ZIN A   1      19.088  -2.175  10.772  0.00  0.00     0.042 A 
ATOM     11  C9  ZIN A   1      20.095  -1.282  11.114  0.00  0.00     0.033 A 
ATOM     12  C8  ZIN A   1      19.896  -0.376  12.137  0.00  0.00     0.039 A 
BRANCH  10  13
ATOM     13  N11 ZIN A   1      19.288  -3.093   9.736  0.00  0.00    -0.285 N 
ATOM     14  H40 ZIN A   1      19.438  -2.778   8.831  0.00  0.00     0.178 HD
BRANCH  13  15
ATOM     15  S12 ZIN A   1      19.268  -4.718  10.053  0.00  0.00     0.227 S 
ATOM     16  C13 ZIN A   1      20.282  -5.449   8.738  0.00  0.00     0.186 C 
ATOM     17  O14 ZIN A   1      19.920  -4.837  11.310  0.00  0.00    -0.206 OA
ATOM     18  O15 ZIN A   1      17.906  -5.090   9.898  0.00  0.00    -0.206 OA
ENDBRANCH  13  15
ENDBRANCH  10  13
ENDBRANCH   6   7
ENDBRANCH   5   6
ENDBRANCH   4   5
ENDBRANCH   2   4
BRANCH   2  19
ATOM     19  C18 ZIN A   1      17.722   2.724  10.708  0.00  0.00     0.239 C 
BRANCH  19  20
ATOM     20  C19 ZIN A   1      18.882   2.633   9.715  0.00  0.00     0.066 C 
BRANCH  20  21
ATOM     21  C20 ZIN A   1      18.584   1.568   8.690  0.00  0.00    -0.057 A 
ATOM     22  C30 ZIN A   1      17.681   0.563   8.983  0.00  0.00     0.009 A 
ATOM     23  C29 ZIN A   1      17.401  -0.410   8.045  0.00  0.00     0.030 A 
ATOM     24  C23 ZIN A   1      18.037  -0.386   6.809  0.00  0.00     0.042 A 
ATOM     25  C22 ZIN A   1      18.948   0.621   6.521  0.00  0.00     0.030 A 
ATOM     26  C21 ZIN A   1      19.219   1.596   7.463  0.00  0.00     0.009 A 
BRANCH  24  27
ATOM     27  N24 ZIN A   1      17.760  -1.373   5.860  0.00  0.00    -0.285 N 
ATOM     28  H52 ZIN A   1      16.883  -1.418   5.451  0.00  0.00     0.178 HD
BRANCH  27  29
ATOM     29  S25 ZIN A   1      18.931  -2.465   5.436  0.00  0.00     0.227 S 
ATOM     30  C26 ZIN A   1      18.008  -3.927   4.886  0.00  0.00     0.186 C 
ATOM     31  O27 ZIN A   1      19.598  -1.855   4.340  0.00  0.00    -0.206 OA
ATOM     32  O28 ZIN A   1      19.615  -2.735   6.652  0.00  0.00    -0.206 OA
ENDBRANCH  27  29
ENDBRANCH  24  27
ENDBRANCH  20  21
ENDBRANCH  19  20
ENDBRANCH   2  19
TORSDOF 11
ENDMDL
MODEL 2
REMARK VINA RESULT:      -7.3      1.641      2.223
REMARK  11 active torsions:
REMARK  status: ('A' for Active; 'I' for Inactive)
REMARK    1  A    between atoms: N2_2  and  C4_4 
REMARK    2  A    between atoms: N2_2  and  C18_18 
REMARK    3  A    between atoms: C4_4  and  C5_5 
REMARK    4  A    between atoms: C5_5  and  O6_6 
REMARK    5  A    between atoms: O6_6  and  C7_7 
REMARK    6  A    between atoms: C10_10  and  N11_11 
REMARK    7  A    between atoms: N11_11  and  S12_12 
REMARK    8  A    between atoms: C18_18  and  C19_19 
REMARK    9  A    between atoms: C19_19  and  C20_20 
REMARK   10  A    between atoms: C23_23  and  N24_24 
REMARK   11  A    between atoms: N24_24  and  S25_25 
ROOT
ATOM      1  C1  ZIN A   1      20.871   0.686  12.073  0.00  0.00     0.269 C 
ATOM      2  N2  ZIN A   1      19.755   1.349  12.759  0.00  0.00    -0.073 N 
ATOM      3  H3  ZIN A   1      20.023   2.290  13.007  0.00  0.00     0.279 HD
ENDROOT
BRANCH   2   4
ATOM      4  C4  ZIN A   1      19.414   0.600  13.977  0.00  0.00     0.261 C 
BRANCH   4   5
ATOM      5  C5  ZIN A   1      18.374  -0.470  13.644  0.00  0.00     0.203 C 
BRANCH   5   6
ATOM      6  O6  ZIN A   1      19.009  -1.748  13.576  0.00  0.00    -0.349 OA
BRANCH   6   7
ATOM      7  C7  ZIN A   1      18.860  -2.452  12.423  0.00  0.00     0.069 A 
ATOM      8  C17 ZIN A   1      17.670  -2.379  11.714  0.00  0.00     0.039 A 
ATOM      9  C16 ZIN A   1      17.520  -3.091  10.540  0.00  0.00     0.033 A 
ATOM     10  C10 ZIN A   1      18.557  -3.890  10.076  0.00  0.00     0.042 A 
ATOM     11  C9  ZIN A   1      19.745  -3.968  10.789  0.00  0.00     0.033 A 
ATOM     12  C8  ZIN A   1      19.896  -3.250  11.960  0.00  0.00     0.039 A 
BRANCH  10  13
ATOM     13  N11 ZIN A   1      18.402  -4.616   8.890  0.00  0.00    -0.285 N 
ATOM     14  H40 ZIN A   1      18.706  -4.241   8.048  0.00  0.00     0.178 HD
BRANCH  13  15
ATOM     15  S12 ZIN A   1      17.702  -6.116   8.922  0.00  0.00     0.227 S 
ATOM     16  C13 ZIN A   1      16.124  -5.898   8.053  0.00  0.00     0.186 C 
ATOM     17  O14 ZIN A   1      18.583  -6.931   8.161  0.00  0.00    -0.206 OA
ATOM     18  O15 ZIN A   1      17.480  -6.370  10.303  0.00  0.00    -0.206 OA
ENDBRANCH  13  15
ENDBRANCH  10  13
ENDBRANCH   6   7
ENDBRANCH   5   6
ENDBRANCH   4   5
ENDBRANCH   2   4
BRANCH   2  19
ATOM     19  C18 ZIN A   1      18.588   1.392  11.868  0.00  0.00     0.239 C 
BRANCH  19  20
ATOM     20  C19 ZIN A   1      18.901   2.278  10.660  0.00  0.00     0.066 C 
BRANCH  20  21
ATOM     21  C20 ZIN A   1      18.624   1.513   9.391  0.00  0.00    -0.057 A 
ATOM     22  C30 ZIN A   1      19.280   1.855   8.223  0.00  0.00     0.009 A 
ATOM     23  C29 ZIN A   1      19.034   1.152   7.060  0.00  0.00     0.030 A 
ATOM     24  C23 ZIN A   1      18.116   0.109   7.062  0.00  0.00     0.042 A 
ATOM     25  C22 ZIN A   1      17.454  -0.227   8.235  0.00  0.00     0.030 A 
ATOM     26  C21 ZIN A   1      17.710   0.476   9.397  0.00  0.00     0.009 A 
BRANCH  24  27
ATOM     27  N24 ZIN A   1      17.859  -0.599   5.885  0.00  0.00    -0.285 N 
ATOM     28  H52 ZIN A   1      17.075  -0.387   5.355  0.00  0.00     0.178 HD
BRANCH  27  29
ATOM     29  S25 ZIN A   1      18.892  -1.797   5.397  0.00  0.00     0.227 S 
ATOM     30  C26 ZIN A   1      17.854  -2.920   4.421  0.00  0.00     0.186 C 
ATOM     31  O27 ZIN A   1      19.830  -1.133   4.562  0.00  0.00    -0.206 OA
ATOM     32  O28 ZIN A   1      19.301  -2.421   6.606  0.00  0.00    -0.206 OA
ENDBRANCH  27  29
ENDBRANCH  24  27
ENDBRANCH  20  21
ENDBRANCH  19  20
ENDBRANCH   2  19
TORSDOF 11
ENDMDL
MODEL 3
REMARK VINA RESULT:      -7.3      1.123      4.565
REMARK  11 active torsions:
REMARK  status: ('A' for Active; 'I' for Inactive)
REMARK    1  A    between atoms: N2_2  and  C4_4 
REMARK    2  A    between atoms: N2_2  and  C18_18 
REMARK    3  A    between atoms: C4_4  and  C5_5 
REMARK    4  A    between atoms: C5_5  and  O6_6 
REMARK    5  A    between atoms: O6_6  and  C7_7 
REMARK    6  A    between atoms: C10_10  and  N11_11 
REMARK    7  A    between atoms: N11_11  and  S12_12 
REMARK    8  A    between atoms: C18_18  and  C19_19 
REMARK    9  A    between atoms: C19_19  and  C20_20 
REMARK   10  A    between atoms: C23_23  and  N24_24 
REMARK   11  A    between atoms: N24_24  and  S25_25 
ROOT
ATOM      1  C1  ZIN A   1      18.974   4.091  14.596  0.00  0.00     0.269 C 
ATOM      2  N2  ZIN A   1      18.991   3.167  13.454  0.00  0.00    -0.073 N 
ATOM      3  H3  ZIN A   1      19.945   2.991  13.177  0.00  0.00     0.279 HD
ENDROOT
BRANCH   2   4
ATOM      4  C4  ZIN A   1      18.258   3.766  12.330  0.00  0.00     0.261 C 
BRANCH   4   5
ATOM      5  C5  ZIN A   1      17.855   2.670  11.341  0.00  0.00     0.203 C 
BRANCH   5   6
ATOM      6  O6  ZIN A   1      18.777   2.651  10.249  0.00  0.00    -0.349 OA
BRANCH   6   7
ATOM      7  C7  ZIN A   1      18.539   1.754   9.256  0.00  0.00     0.069 A 
ATOM      8  C17 ZIN A   1      17.634   0.722   9.455  0.00  0.00     0.039 A 
ATOM      9  C16 ZIN A   1      17.389  -0.188   8.444  0.00  0.00     0.033 A 
ATOM     10  C10 ZIN A   1      18.058  -0.074   7.232  0.00  0.00     0.042 A 
ATOM     11  C9  ZIN A   1      18.969   0.955   7.035  0.00  0.00     0.033 A 
ATOM     12  C8  ZIN A   1      19.207   1.868   8.046  0.00  0.00     0.039 A 
BRANCH  10  13
ATOM     13  N11 ZIN A   1      17.815  -0.999   6.210  0.00  0.00    -0.285 N 
ATOM     14  H40 ZIN A   1      16.950  -1.021   5.772  0.00  0.00     0.178 HD
BRANCH  13  15
ATOM     15  S12 ZIN A   1      19.004  -2.055   5.749  0.00  0.00     0.227 S 
ATOM     16  C13 ZIN A   1      18.109  -3.449   5.009  0.00  0.00     0.186 C 
ATOM     17  O14 ZIN A   1      19.735  -1.348   4.757  0.00  0.00    -0.206 OA
ATOM     18  O15 ZIN A   1      19.617  -2.448   6.969  0.00  0.00    -0.206 OA
ENDBRANCH  13  15
ENDBRANCH  10  13
ENDBRANCH   6   7
ENDBRANCH   5   6
ENDBRANCH   4   5
ENDBRANCH   2   4
BRANCH   2  19
ATOM     19  C18 ZIN A   1      18.351   1.902  13.838  0.00  0.00     0.239 C 
BRANCH  19  20
ATOM     20  C19 ZIN A   1      19.425   0.843  14.091  0.00  0.00     0.066 C 
BRANCH  20  21
ATOM     21  C20 ZIN A   1      19.389  -0.183  12.987  0.00  0.00    -0.057 A 
ATOM     22  C30 ZIN A   1      18.412  -1.161  12.986  0.00  0.00     0.009 A 
ATOM     23  C29 ZIN A   1      18.372  -2.098  11.973  0.00  0.00     0.030 A 
ATOM     24  C23 ZIN A   1      19.322  -2.065  10.960  0.00  0.00     0.042 A 
ATOM     25  C22 ZIN A   1      20.306  -1.086  10.968  0.00  0.00     0.030 A 
ATOM     26  C21 ZIN A   1      20.337  -0.147  11.981  0.00  0.00     0.009 A 
BRANCH  24  27
ATOM     27  N24 ZIN A   1      19.288  -3.016   9.937  0.00  0.00    -0.285 N 
ATOM     28  H52 ZIN A   1      19.238  -2.730   9.012  0.00  0.00     0.178 HD
BRANCH  27  29
ATOM     29  S25 ZIN A   1      19.334  -4.630  10.305  0.00  0.00     0.227 S 
ATOM     30  C26 ZIN A   1      20.157  -5.396   8.881  0.00  0.00     0.186 C 
ATOM     31  O27 ZIN A   1      20.162  -4.703  11.458  0.00  0.00    -0.206 OA
ATOM     32  O28 ZIN A   1      17.968  -5.016  10.359  0.00  0.00    -0.206 OA
ENDBRANCH  27  29
ENDBRANCH  24  27
ENDBRANCH  20  21
ENDBRANCH  19  20
ENDBRANCH   2  19
TORSDOF 11
ENDMDL
MODEL 4
REMARK VINA RESULT:      -7.2      3.659      8.299
REMARK  11 active torsions:
REMARK  status: ('A' for Active; 'I' for Inactive)
REMARK    1  A    between atoms: N2_2  and  C4_4 
REMARK    2  A    between atoms: N2_2  and  C18_18 
REMARK    3  A    between atoms: C4_4  and  C5_5 
REMARK    4  A    between atoms: C5_5  and  O6_6 
REMARK    5  A    between atoms: O6_6  and  C7_7 
REMARK    6  A    between atoms: C10_10  and  N11_11 
REMARK    7  A    between atoms: N11_11  and  S12_12 
REMARK    8  A    between atoms: C18_18  and  C19_19 
REMARK    9  A    between atoms: C19_19  and  C20_20 
REMARK   10  A    between atoms: C23_23  and  N24_24 
REMARK   11  A    between atoms: N24_24  and  S25_25 
ROOT
ATOM      1  C1  ZIN A   1      20.033  -4.117  11.475  0.00  0.00     0.269 C 
ATOM      2  N2  ZIN A   1      18.571  -4.106  11.611  0.00  0.00    -0.073 N 
ATOM      3  H3  ZIN A   1      18.281  -4.878  12.193  0.00  0.00     0.279 HD
ENDROOT
BRANCH   2   4
ATOM      4  C4  ZIN A   1      17.955  -4.237  10.283  0.00  0.00     0.261 C 
BRANCH   4   5
ATOM      5  C5  ZIN A   1      18.953  -3.794   9.212  0.00  0.00     0.203 C 
BRANCH   5   6
ATOM      6  O6  ZIN A   1      18.301  -2.922   8.285  0.00  0.00    -0.349 OA
BRANCH   6   7
ATOM      7  C7  ZIN A   1      18.441  -1.586   8.491  0.00  0.00     0.069 A 
ATOM      8  C17 ZIN A   1      19.517  -1.106   9.222  0.00  0.00     0.039 A 
ATOM      9  C16 ZIN A   1      19.663   0.253   9.428  0.00  0.00     0.033 A 
ATOM     10  C10 ZIN A   1      18.724   1.137   8.910  0.00  0.00     0.042 A 
ATOM     11  C9  ZIN A   1      17.644   0.655   8.183  0.00  0.00     0.033 A 
ATOM     12  C8  ZIN A   1      17.504  -0.703   7.974  0.00  0.00     0.039 A 
BRANCH  10  13
ATOM     13  N11 ZIN A   1      18.868   2.512   9.124  0.00  0.00    -0.285 N 
ATOM     14  H40 ZIN A   1      19.343   3.056   8.476  0.00  0.00     0.178 HD
BRANCH  13  15
ATOM     15  S12 ZIN A   1      18.226   3.212  10.480  0.00  0.00     0.227 S 
ATOM     16  C13 ZIN A   1      19.625   3.342  11.628  0.00  0.00     0.186 C 
ATOM     17  O14 ZIN A   1      17.813   4.500  10.048  0.00  0.00    -0.206 OA
ATOM     18  O15 ZIN A   1      17.281   2.261  10.951  0.00  0.00    -0.206 OA
ENDBRANCH  13  15
ENDBRANCH  10  13
ENDBRANCH   6   7
ENDBRANCH   5   6
ENDBRANCH   4   5
ENDBRANCH   2   4
BRANCH   2  19
ATOM     19  C18 ZIN A   1      18.146  -2.842  12.226  0.00  0.00     0.239 C 
BRANCH  19  20
ATOM     20  C19 ZIN A   1      19.376  -2.070  12.709  0.00  0.00     0.066 C 
BRANCH  20  21
ATOM     21  C20 ZIN A   1      18.980  -1.144  13.830  0.00  0.00    -0.057 A 
ATOM     22  C30 ZIN A   1      19.281  -1.476  15.137  0.00  0.00     0.009 A 
ATOM     23  C29 ZIN A   1      18.926  -0.627  16.166  0.00  0.00     0.030 A 
ATOM     24  C23 ZIN A   1      18.253   0.556  15.888  0.00  0.00     0.042 A 
ATOM     25  C22 ZIN A   1      17.946   0.884  14.574  0.00  0.00     0.030 A 
ATOM     26  C21 ZIN A   1      18.310   0.033  13.549  0.00  0.00     0.009 A 
BRANCH  24  27
ATOM     27  N24 ZIN A   1      17.886   1.414  16.928  0.00  0.00    -0.285 N 
ATOM     28  H52 ZIN A   1      16.957   1.477  17.197  0.00  0.00     0.178 HD
BRANCH  27  29
ATOM     29  S25 ZIN A   1      19.037   2.321  17.699  0.00  0.00     0.227 S 
ATOM     30  C26 ZIN A   1      18.095   3.615  18.553  0.00  0.00     0.186 C 
ATOM     31  O27 ZIN A   1      19.617   1.426  18.638  0.00  0.00    -0.206 OA
ATOM     32  O28 ZIN A   1      19.808   2.878  16.645  0.00  0.00    -0.206 OA
ENDBRANCH  27  29
ENDBRANCH  24  27
ENDBRANCH  20  21
ENDBRANCH  19  20
ENDBRANCH   2  19
TORSDOF 11
ENDMDL
MODEL 5
REMARK VINA RESULT:      -7.2      1.974      4.907
REMARK  11 active torsions:
REMARK  status: ('A' for Active; 'I' for Inactive)
REMARK    1  A    between atoms: N2_2  and  C4_4 
REMARK    2  A    between atoms: N2_2  and  C18_18 
REMARK    3  A    between atoms: C4_4  and  C5_5 
REMARK    4  A    between atoms: C5_5  and  O6_6 
REMARK    5  A    between atoms: O6_6  and  C7_7 
REMARK    6  A    between atoms: C10_10  and  N11_11 
REMARK    7  A    between atoms: N11_11  and  S12_12 
REMARK    8  A    between atoms: C18_18  and  C19_19 
REMARK    9  A    between atoms: C19_19  and  C20_20 
REMARK   10  A    between atoms: C23_23  and  N24_24 
REMARK   11  A    between atoms: N24_24  and  S25_25 
ROOT
ATOM      1  C1  ZIN A   1      19.849   0.138  14.336  0.00  0.00     0.269 C 
ATOM      2  N2  ZIN A   1      20.144   0.541  12.955  0.00  0.00    -0.073 N 
ATOM      3  H3  ZIN A   1      21.123   0.770  12.873  0.00  0.00     0.279 HD
ENDROOT
BRANCH   2   4
ATOM      4  C4  ZIN A   1      19.336   1.717  12.605  0.00  0.00     0.261 C 
BRANCH   4   5
ATOM      5  C5  ZIN A   1      19.620   2.120  11.157  0.00  0.00     0.203 C 
BRANCH   5   6
ATOM      6  O6  ZIN A   1      18.390   2.190  10.432  0.00  0.00    -0.349 OA
BRANCH   6   7
ATOM      7  C7  ZIN A   1      18.288   1.423   9.313  0.00  0.00     0.069 A 
ATOM      8  C17 ZIN A   1      18.970   1.785   8.161  0.00  0.00     0.039 A 
ATOM      9  C16 ZIN A   1      18.870   1.005   7.025  0.00  0.00     0.033 A 
ATOM     10  C10 ZIN A   1      18.078  -0.137   7.035  0.00  0.00     0.042 A 
ATOM     11  C9  ZIN A   1      17.391  -0.494   8.187  0.00  0.00     0.033 A 
ATOM     12  C8  ZIN A   1      17.497   0.284   9.324  0.00  0.00     0.039 A 
BRANCH  10  13
ATOM     13  N11 ZIN A   1      17.971  -0.924   5.883  0.00  0.00    -0.285 N 
ATOM     14  H40 ZIN A   1      17.137  -0.947   5.388  0.00  0.00     0.178 HD
BRANCH  13  15
ATOM     15  S12 ZIN A   1      19.267  -1.815   5.365  0.00  0.00     0.227 S 
ATOM     16  C13 ZIN A   1      18.536  -3.137   4.361  0.00  0.00     0.186 C 
ATOM     17  O14 ZIN A   1      20.005  -0.917   4.548  0.00  0.00    -0.206 OA
ATOM     18  O15 ZIN A   1      19.827  -2.346   6.559  0.00  0.00    -0.206 OA
ENDBRANCH  13  15
ENDBRANCH  10  13
ENDBRANCH   6   7
ENDBRANCH   5   6
ENDBRANCH   4   5
ENDBRANCH   2   4
BRANCH   2  19
ATOM     19  C18 ZIN A   1      19.822  -0.564  12.042  0.00  0.00     0.239 C 
BRANCH  19  20
ATOM     20  C19 ZIN A   1      19.280  -1.748  12.846  0.00  0.00     0.066 C 
BRANCH  20  21
ATOM     21  C20 ZIN A   1      18.991  -2.897  11.914  0.00  0.00    -0.057 A 
ATOM     22  C30 ZIN A   1      20.008  -3.758  11.547  0.00  0.00     0.009 A 
ATOM     23  C29 ZIN A   1      19.747  -4.816  10.699  0.00  0.00     0.030 A 
ATOM     24  C23 ZIN A   1      18.462  -5.007  10.205  0.00  0.00     0.042 A 
ATOM     25  C22 ZIN A   1      17.444  -4.136  10.571  0.00  0.00     0.030 A 
ATOM     26  C21 ZIN A   1      17.712  -3.084  11.425  0.00  0.00     0.009 A 
BRANCH  24  27
ATOM     27  N24 ZIN A   1      18.195  -6.073   9.341  0.00  0.00    -0.285 N 
ATOM     28  H52 ZIN A   1      17.872  -6.914   9.698  0.00  0.00     0.178 HD
BRANCH  27  29
ATOM     29  S25 ZIN A   1      18.432  -5.897   7.712  0.00  0.00     0.227 S 
ATOM     30  C26 ZIN A   1      17.606  -7.335   6.977  0.00  0.00     0.186 C 
ATOM     31  O27 ZIN A   1      17.736  -4.702   7.384  0.00  0.00    -0.206 OA
ATOM     32  O28 ZIN A   1      19.840  -5.993   7.550  0.00  0.00    -0.206 OA
ENDBRANCH  27  29
ENDBRANCH  24  27
ENDBRANCH  20  21
ENDBRANCH  19  20
ENDBRANCH   2  19
TORSDOF 11
ENDMDL
MODEL 6
REMARK VINA RESULT:      -7.0      4.295      7.676
REMARK  11 active torsions:
REMARK  status: ('A' for Active; 'I' for Inactive)
REMARK    1  A    between atoms: N2_2  and  C4_4 
REMARK    2  A    between atoms: N2_2  and  C18_18 
REMARK    3  A    between atoms: C4_4  and  C5_5 
REMARK    4  A    between atoms: C5_5  and  O6_6 
REMARK    5  A    between atoms: O6_6  and  C7_7 
REMARK    6  A    between atoms: C10_10  and  N11_11 
REMARK    7  A    between atoms: N11_11  and  S12_12 
REMARK    8  A    between atoms: C18_18  and  C19_19 
REMARK    9  A    between atoms: C19_19  and  C20_20 
REMARK   10  A    between atoms: C23_23  and  N24_24 
REMARK   11  A    between atoms: N24_24  and  S25_25 
ROOT
ATOM      1  C1  ZIN A   1      19.719  -0.268   8.719  0.00  0.00     0.269 C 
ATOM      2  N2  ZIN A   1      18.734  -0.179   9.805  0.00  0.00    -0.073 N 
ATOM      3  H3  ZIN A   1      19.213  -0.066  10.686  0.00  0.00     0.279 HD
ENDROOT
BRANCH   2   4
ATOM      4  C4  ZIN A   1      17.932  -1.410   9.840  0.00  0.00     0.261 C 
BRANCH   4   5
ATOM      5  C5  ZIN A   1      18.110  -2.097  11.195  0.00  0.00     0.203 C 
BRANCH   5   6
ATOM      6  O6  ZIN A   1      17.188  -1.542  12.135  0.00  0.00    -0.349 OA
BRANCH   6   7
ATOM      7  C7  ZIN A   1      17.709  -0.791  13.141  0.00  0.00     0.069 A 
ATOM      8  C17 ZIN A   1      17.413   0.562  13.221  0.00  0.00     0.039 A 
ATOM      9  C16 ZIN A   1      17.939   1.325  14.245  0.00  0.00     0.033 A 
ATOM     10  C10 ZIN A   1      18.774   0.740  15.189  0.00  0.00     0.042 A 
ATOM     11  C9  ZIN A   1      19.075  -0.613  15.104  0.00  0.00     0.033 A 
ATOM     12  C8  ZIN A   1      18.543  -1.376  14.083  0.00  0.00     0.039 A 
BRANCH  10  13
ATOM     13  N11 ZIN A   1      19.312   1.514  16.223  0.00  0.00    -0.285 N 
ATOM     14  H40 ZIN A   1      19.989   2.180  16.027  0.00  0.00     0.178 HD
BRANCH  13  15
ATOM     15  S12 ZIN A   1      18.792   1.294  17.780  0.00  0.00     0.227 S 
ATOM     16  C13 ZIN A   1      18.742   2.967  18.481  0.00  0.00     0.186 C 
ATOM     17  O14 ZIN A   1      17.479   0.772  17.640  0.00  0.00    -0.206 OA
ATOM     18  O15 ZIN A   1      19.824   0.529  18.388  0.00  0.00    -0.206 OA
ENDBRANCH  13  15
ENDBRANCH  10  13
ENDBRANCH   6   7
ENDBRANCH   5   6
ENDBRANCH   4   5
ENDBRANCH   2   4
BRANCH   2  19
ATOM     19  C18 ZIN A   1      17.854   0.974   9.575  0.00  0.00     0.239 C 
BRANCH  19  20
ATOM     20  C19 ZIN A   1      18.703   2.223   9.328  0.00  0.00     0.066 C 
BRANCH  20  21
ATOM     21  C20 ZIN A   1      18.579   3.155  10.505  0.00  0.00    -0.057 A 
ATOM     22  C30 ZIN A   1      19.650   3.332  11.360  0.00  0.00     0.009 A 
ATOM     23  C29 ZIN A   1      19.542   4.191  12.436  0.00  0.00     0.030 A 
ATOM     24  C23 ZIN A   1      18.351   4.868  12.666  0.00  0.00     0.042 A 
ATOM     25  C22 ZIN A   1      17.274   4.682  11.809  0.00  0.00     0.030 A 
ATOM     26  C21 ZIN A   1      17.391   3.827  10.731  0.00  0.00     0.009 A 
BRANCH  24  27
ATOM     27  N24 ZIN A   1      18.237   5.731  13.759  0.00  0.00    -0.285 N 
ATOM     28  H52 ZIN A   1      17.492   6.350  13.809  0.00  0.00     0.178 HD
BRANCH  27  29
ATOM     29  S25 ZIN A   1      19.371   5.697  14.964  0.00  0.00     0.227 S 
ATOM     30  C26 ZIN A   1      18.596   6.589  16.341  0.00  0.00     0.186 C 
ATOM     31  O27 ZIN A   1      19.508   4.318  15.278  0.00  0.00    -0.206 OA
ATOM     32  O28 ZIN A   1      20.462   6.441  14.439  0.00  0.00    -0.206 OA
ENDBRANCH  27  29
ENDBRANCH  24  27
ENDBRANCH  20  21
ENDBRANCH  19  20
ENDBRANCH   2  19
TORSDOF 11
ENDMDL
MODEL 7
REMARK VINA RESULT:      -6.9      1.925      2.652
REMARK  11 active torsions:
REMARK  status: ('A' for Active; 'I' for Inactive)
REMARK    1  A    between atoms: N2_2  and  C4_4 
REMARK    2  A    between atoms: N2_2  and  C18_18 
REMARK    3  A    between atoms: C4_4  and  C5_5 
REMARK    4  A    between atoms: C5_5  and  O6_6 
REMARK    5  A    between atoms: O6_6  and  C7_7 
REMARK    6  A    between atoms: C10_10  and  N11_11 
REMARK    7  A    between atoms: N11_11  and  S12_12 
REMARK    8  A    between atoms: C18_18  and  C19_19 
REMARK    9  A    between atoms: C19_19  and  C20_20 
REMARK   10  A    between atoms: C23_23  and  N24_24 
REMARK   11  A    between atoms: N24_24  and  S25_25 
ROOT
ATOM      1  C1  ZIN A   1      18.204   2.257  14.730  0.00  0.00     0.269 C 
ATOM      2  N2  ZIN A   1      18.034   1.401  13.550  0.00  0.00    -0.073 N 
ATOM      3  H3  ZIN A   1      17.055   1.196  13.420  0.00  0.00     0.279 HD
ENDROOT
BRANCH   2   4
ATOM      4  C4  ZIN A   1      18.774   0.147  13.744  0.00  0.00     0.261 C 
BRANCH   4   5
ATOM      5  C5  ZIN A   1      18.049  -0.991  13.024  0.00  0.00     0.203 C 
BRANCH   5   6
ATOM      6  O6  ZIN A   1      18.842  -2.178  13.090  0.00  0.00    -0.349 OA
BRANCH   6   7
ATOM      7  C7  ZIN A   1      18.782  -3.022  12.025  0.00  0.00     0.069 A 
ATOM      8  C17 ZIN A   1      17.595  -3.168  11.322  0.00  0.00     0.039 A 
ATOM      9  C16 ZIN A   1      17.534  -4.022  10.238  0.00  0.00     0.033 A 
ATOM     10  C10 ZIN A   1      18.660  -4.742   9.858  0.00  0.00     0.042 A 
ATOM     11  C9  ZIN A   1      19.846  -4.600  10.565  0.00  0.00     0.033 A 
ATOM     12  C8  ZIN A   1      19.906  -3.741  11.646  0.00  0.00     0.039 A 
BRANCH  10  13
ATOM     13  N11 ZIN A   1      18.597  -5.611   8.763  0.00  0.00    -0.285 N 
ATOM     14  H40 ZIN A   1      18.086  -6.433   8.826  0.00  0.00     0.178 HD
BRANCH  13  15
ATOM     15  S12 ZIN A   1      19.395  -5.237   7.361  0.00  0.00     0.227 S 
ATOM     16  C13 ZIN A   1      18.456  -6.091   6.065  0.00  0.00     0.186 C 
ATOM     17  O14 ZIN A   1      19.248  -3.830   7.239  0.00  0.00    -0.206 OA
ATOM     18  O15 ZIN A   1      20.677  -5.829   7.519  0.00  0.00    -0.206 OA
ENDBRANCH  13  15
ENDBRANCH  10  13
ENDBRANCH   6   7
ENDBRANCH   5   6
ENDBRANCH   4   5
ENDBRANCH   2   4
BRANCH   2  19
ATOM     19  C18 ZIN A   1      18.551   2.096  12.363  0.00  0.00     0.239 C 
BRANCH  19  20
ATOM     20  C19 ZIN A   1      17.477   2.113  11.273  0.00  0.00     0.066 C 
BRANCH  20  21
ATOM     21  C20 ZIN A   1      17.947   1.306  10.091  0.00  0.00    -0.057 A 
ATOM     22  C30 ZIN A   1      17.227   0.200   9.680  0.00  0.00     0.009 A 
ATOM     23  C29 ZIN A   1      17.652  -0.538   8.593  0.00  0.00     0.030 A 
ATOM     24  C23 ZIN A   1      18.811  -0.175   7.920  0.00  0.00     0.042 A 
ATOM     25  C22 ZIN A   1      19.537   0.932   8.339  0.00  0.00     0.030 A 
ATOM     26  C21 ZIN A   1      19.102   1.670   9.424  0.00  0.00     0.009 A 
BRANCH  24  27
ATOM     27  N24 ZIN A   1      19.248  -0.924   6.824  0.00  0.00    -0.285 N 
ATOM     28  H52 ZIN A   1      19.815  -1.698   6.962  0.00  0.00     0.178 HD
BRANCH  27  29
ATOM     29  S25 ZIN A   1      18.796  -0.490   5.291  0.00  0.00     0.227 S 
ATOM     30  C26 ZIN A   1      17.477  -1.660   4.860  0.00  0.00     0.186 C 
ATOM     31  O27 ZIN A   1      18.270   0.821   5.439  0.00  0.00    -0.206 OA
ATOM     32  O28 ZIN A   1      19.953  -0.731   4.503  0.00  0.00    -0.206 OA
ENDBRANCH  27  29
ENDBRANCH  24  27
ENDBRANCH  20  21
ENDBRANCH  19  20
ENDBRANCH   2  19
TORSDOF 11
ENDMDL
MODEL 8
REMARK VINA RESULT:      -6.9      2.843      7.428
REMARK  11 active torsions:
REMARK  status: ('A' for Active; 'I' for Inactive)
REMARK    1  A    between atoms: N2_2  and  C4_4 
REMARK    2  A    between atoms: N2_2  and  C18_18 
REMARK    3  A    between atoms: C4_4  and  C5_5 
REMARK    4  A    between atoms: C5_5  and  O6_6 
REMARK    5  A    between atoms: O6_6  and  C7_7 
REMARK    6  A    between atoms: C10_10  and  N11_11 
REMARK    7  A    between atoms: N11_11  and  S12_12 
REMARK    8  A    between atoms: C18_18  and  C19_19 
REMARK    9  A    between atoms: C19_19  and  C20_20 
REMARK   10  A    between atoms: C23_23  and  N24_24 
REMARK   11  A    between atoms: N24_24  and  S25_25 
ROOT
ATOM      1  C1  ZIN A   1      20.505  -5.203   7.426  0.00  0.00     0.269 C 
ATOM      2  N2  ZIN A   1      19.055  -5.337   7.232  0.00  0.00    -0.073 N 
ATOM      3  H3  ZIN A   1      18.867  -6.133   6.641  0.00  0.00     0.279 HD
ENDROOT
BRANCH   2   4
ATOM      4  C4  ZIN A   1      18.532  -4.121   6.595  0.00  0.00     0.261 C 
BRANCH   4   5
ATOM      5  C5  ZIN A   1      19.581  -3.010   6.676  0.00  0.00     0.203 C 
BRANCH   5   6
ATOM      6  O6  ZIN A   1      18.958  -1.748   6.427  0.00  0.00    -0.349 OA
BRANCH   6   7
ATOM      7  C7  ZIN A   1      19.104  -0.788   7.378  0.00  0.00     0.069 A 
ATOM      8  C17 ZIN A   1      19.586  -1.124   8.634  0.00  0.00     0.039 A 
ATOM      9  C16 ZIN A   1      19.738  -0.148   9.600  0.00  0.00     0.033 A 
ATOM     10  C10 ZIN A   1      19.398   1.169   9.315  0.00  0.00     0.042 A 
ATOM     11  C9  ZIN A   1      18.910   1.503   8.060  0.00  0.00     0.033 A 
ATOM     12  C8  ZIN A   1      18.764   0.527   7.093  0.00  0.00     0.039 A 
BRANCH  10  13
ATOM     13  N11 ZIN A   1      19.546   2.157  10.296  0.00  0.00    -0.285 N 
ATOM     14  H40 ZIN A   1      20.433   2.454  10.554  0.00  0.00     0.178 HD
BRANCH  13  15
ATOM     15  S12 ZIN A   1      18.209   2.818  11.014  0.00  0.00     0.227 S 
ATOM     16  C13 ZIN A   1      18.843   3.587  12.530  0.00  0.00     0.186 C 
ATOM     17  O14 ZIN A   1      17.773   3.810  10.096  0.00  0.00    -0.206 OA
ATOM     18  O15 ZIN A   1      17.390   1.700  11.327  0.00  0.00    -0.206 OA
ENDBRANCH  13  15
ENDBRANCH  10  13
ENDBRANCH   6   7
ENDBRANCH   5   6
ENDBRANCH   4   5
ENDBRANCH   2   4
BRANCH   2  19
ATOM     19  C18 ZIN A   1      18.402  -5.528   8.533  0.00  0.00     0.239 C 
BRANCH  19  20
ATOM     20  C19 ZIN A   1      19.439  -5.389   9.650  0.00  0.00     0.066 C 
BRANCH  20  21
ATOM     21  C20 ZIN A   1      19.056  -4.244  10.552  0.00  0.00    -0.057 A 
ATOM     22  C30 ZIN A   1      17.777  -3.724  10.500  0.00  0.00     0.009 A 
ATOM     23  C29 ZIN A   1      17.420  -2.679  11.329  0.00  0.00     0.030 A 
ATOM     24  C23 ZIN A   1      18.353  -2.143  12.208  0.00  0.00     0.042 A 
ATOM     25  C22 ZIN A   1      19.639  -2.664  12.254  0.00  0.00     0.030 A 
ATOM     26  C21 ZIN A   1      19.987  -3.713  11.425  0.00  0.00     0.009 A 
BRANCH  24  27
ATOM     27  N24 ZIN A   1      17.997  -1.081  13.044  0.00  0.00    -0.285 N 
ATOM     28  H52 ZIN A   1      17.076  -0.782  13.080  0.00  0.00     0.178 HD
BRANCH  27  29
ATOM     29  S25 ZIN A   1      19.148  -0.335  13.971  0.00  0.00     0.227 S 
ATOM     30  C26 ZIN A   1      18.223   0.878  14.952  0.00  0.00     0.186 C 
ATOM     31  O27 ZIN A   1      19.652  -1.370  14.805  0.00  0.00    -0.206 OA
ATOM     32  O28 ZIN A   1      19.986   0.320  13.029  0.00  0.00    -0.206 OA
ENDBRANCH  27  29
ENDBRANCH  24  27
ENDBRANCH  20  21
ENDBRANCH  19  20
ENDBRANCH   2  19
TORSDOF 11
ENDMDL
MODEL 9
REMARK VINA RESULT:      -6.9      3.987      8.451
REMARK  11 active torsions:
REMARK  status: ('A' for Active; 'I' for Inactive)
REMARK    1  A    between atoms: N2_2  and  C4_4 
REMARK    2  A    between atoms: N2_2  and  C18_18 
REMARK    3  A    between atoms: C4_4  and  C5_5 
REMARK    4  A    between atoms: C5_5  and  O6_6 
REMARK    5  A    between atoms: O6_6  and  C7_7 
REMARK    6  A    between atoms: C10_10  and  N11_11 
REMARK    7  A    between atoms: N11_11  and  S12_12 
REMARK    8  A    between atoms: C18_18  and  C19_19 
REMARK    9  A    between atoms: C19_19  and  C20_20 
REMARK   10  A    between atoms: C23_23  and  N24_24 
REMARK   11  A    between atoms: N24_24  and  S25_25 
ROOT
ATOM      1  C1  ZIN A   1      17.684  -3.477   9.255  0.00  0.00     0.269 C 
ATOM      2  N2  ZIN A   1      18.169  -2.149   9.653  0.00  0.00    -0.073 N 
ATOM      3  H3  ZIN A   1      17.396  -1.501   9.677  0.00  0.00     0.279 HD
ENDROOT
BRANCH   2   4
ATOM      4  C4  ZIN A   1      19.169  -1.682   8.683  0.00  0.00     0.261 C 
BRANCH   4   5
ATOM      5  C5  ZIN A   1      19.711  -0.321   9.123  0.00  0.00     0.203 C 
BRANCH   5   6
ATOM      6  O6  ZIN A   1      18.628   0.603   9.255  0.00  0.00    -0.349 OA
BRANCH   6   7
ATOM      7  C7  ZIN A   1      18.808   1.648  10.107  0.00  0.00     0.069 A 
ATOM      8  C17 ZIN A   1      19.721   1.547  11.145  0.00  0.00     0.039 A 
ATOM      9  C16 ZIN A   1      19.907   2.609  12.008  0.00  0.00     0.033 A 
ATOM     10  C10 ZIN A   1      19.171   3.775  11.841  0.00  0.00     0.042 A 
ATOM     11  C9  ZIN A   1      18.252   3.873  10.806  0.00  0.00     0.033 A 
ATOM     12  C8  ZIN A   1      18.072   2.811   9.940  0.00  0.00     0.039 A 
BRANCH  10  13
ATOM     13  N11 ZIN A   1      19.354   4.850  12.719  0.00  0.00    -0.285 N 
ATOM     14  H40 ZIN A   1      19.894   5.609  12.449  0.00  0.00     0.178 HD
BRANCH  13  15
ATOM     15  S12 ZIN A   1      18.649   4.825  14.217  0.00  0.00     0.227 S 
ATOM     16  C13 ZIN A   1      18.609   6.566  14.727  0.00  0.00     0.186 C 
ATOM     17  O14 ZIN A   1      17.334   4.345  13.978  0.00  0.00    -0.206 OA
ATOM     18  O15 ZIN A   1      19.562   4.091  15.022  0.00  0.00    -0.206 OA
ENDBRANCH  13  15
ENDBRANCH  10  13
ENDBRANCH   6   7
ENDBRANCH   5   6
ENDBRANCH   4   5
ENDBRANCH   2   4
BRANCH   2  19
ATOM     19  C18 ZIN A   1      18.781  -2.231  10.986  0.00  0.00     0.239 C 
BRANCH  19  20
ATOM     20  C19 ZIN A   1      17.685  -2.188  12.054  0.00  0.00     0.066 C 
BRANCH  20  21
ATOM     21  C20 ZIN A   1      18.068  -1.201  13.127  0.00  0.00    -0.057 A 
ATOM     22  C30 ZIN A   1      17.346  -0.032  13.277  0.00  0.00     0.009 A 
ATOM     23  C29 ZIN A   1      17.689   0.871  14.263  0.00  0.00     0.030 A 
ATOM     24  C23 ZIN A   1      18.770   0.610  15.097  0.00  0.00     0.042 A 
ATOM     25  C22 ZIN A   1      19.497  -0.562  14.939  0.00  0.00     0.030 A 
ATOM     26  C21 ZIN A   1      19.144  -1.465  13.954  0.00  0.00     0.009 A 
BRANCH  24  27
ATOM     27  N24 ZIN A   1      19.124   1.526  16.091  0.00  0.00    -0.285 N 
ATOM     28  H52 ZIN A   1      19.638   2.315  15.860  0.00  0.00     0.178 HD
BRANCH  27  29
ATOM     29  S25 ZIN A   1      18.666   1.263  17.660  0.00  0.00     0.227 S 
ATOM     30  C26 ZIN A   1      18.231   2.910  18.287  0.00  0.00     0.186 C 
ATOM     31  O27 ZIN A   1      17.507   0.448  17.556  0.00  0.00    -0.206 OA
ATOM     32  O28 ZIN A   1      19.844   0.784  18.294  0.00  0.00    -0.206 OA
ENDBRANCH  27  29
ENDBRANCH  24  27
ENDBRANCH  20  21
ENDBRANCH  19  20
ENDBRANCH   2  19
TORSDOF 11
ENDMDL
