MODEL 1
REMARK VINA RESULT:      -6.3      0.000      0.000
REMARK  2 active torsions:
REMARK  status: ('A' for Active; 'I' for Inactive)
REMARK    1  A    between atoms: N8_8  and  C9_9 
REMARK    2  A    between atoms: C9_9  and  C10_10 
ROOT
ATOM      1  C10 <0> d   1      19.315   0.972  14.382  0.00  0.00     0.059 A 
ATOM      2  C11 <0> d   1      18.568   0.002  14.954  0.00  0.00     0.126 A 
ATOM      3 Cl12 <0> d   1      18.411  -1.551  14.195  0.00  0.00    -0.076 Cl
ATOM      4  C13 <0> d   1      17.916   0.270  16.183  0.00  0.00     0.273 A 
ATOM      5  O14 <0> d   1      17.238  -0.589  16.718  0.00  0.00    -0.266 OA
ATOM      6  N15 <0> d   1      18.053   1.483  16.755  0.00  0.00    -0.274 N 
ATOM      7  C16 <0> d   1      18.804   2.432  16.162  0.00  0.00     0.327 A 
ATOM      8  O17 <0> d   1      18.918   3.521  16.690  0.00  0.00    -0.247 OA
ATOM      9  N18 <0> d   1      19.432   2.189  14.998  0.00  0.00    -0.309 N 
ATOM     10  H27 <0> d   1      17.609   1.674  17.596  0.00  0.00     0.173 HD
ATOM     11  H28 <0> d   1      19.968   2.886  14.587  0.00  0.00     0.170 HD
ENDROOT
BRANCH   1  12
ATOM     12  C9  <0> d   1      20.019   0.713  13.075  0.00  0.00     0.183 C 
BRANCH  12  13
ATOM     13  N8  <0> d   1      19.328   1.427  11.998  0.00  0.00    -0.365 N 
ATOM     14  C4  <0> d   1      19.835   2.508  11.329  0.00  0.00     0.073 C 
ATOM     15  N1  <0> d   1      20.792   3.274  11.742  0.00  0.00    -0.389 N 
ATOM     16  C5  <0> d   1      19.087   2.650  10.019  0.00  0.00     0.077 C 
ATOM     17  H2  <0> d   1      21.216   3.101  12.597  0.00  0.00     0.157 HD
ATOM     18  H3  <0> d   1      21.088   4.018  11.195  0.00  0.00     0.157 HD
ATOM     19  C6  <0> d   1      17.693   2.061  10.337  0.00  0.00     0.027 C 
ATOM     20  C7  <0> d   1      17.993   1.083  11.491  0.00  0.00     0.125 C 
ENDBRANCH  12  13
ENDBRANCH   1  12
TORSDOF 2
ENDMDL
MODEL 2
REMARK VINA RESULT:      -6.2      4.727      6.184
REMARK  2 active torsions:
REMARK  status: ('A' for Active; 'I' for Inactive)
REMARK    1  A    between atoms: N8_8  and  C9_9 
REMARK    2  A    between atoms: C9_9  and  C10_10 
ROOT
ATOM      1  C10 <0> d   1      19.190  -2.194  10.167  0.00  0.00     0.059 A 
ATOM      2  C11 <0> d   1      18.265  -3.179  10.179  0.00  0.00     0.126 A 
ATOM      3 Cl12 <0> d   1      17.780  -3.911  11.677  0.00  0.00    -0.076 Cl
ATOM      4  C13 <0> d   1      17.697  -3.605   8.954  0.00  0.00     0.273 A 
ATOM      5  O14 <0> d   1      16.861  -4.491   8.940  0.00  0.00    -0.266 OA
ATOM      6  N15 <0> d   1      18.089  -3.022   7.804  0.00  0.00    -0.274 N 
ATOM      7  C16 <0> d   1      19.013  -2.042   7.820  0.00  0.00     0.327 A 
ATOM      8  O17 <0> d   1      19.356  -1.525   6.775  0.00  0.00    -0.247 OA
ATOM      9  N18 <0> d   1      19.557  -1.625   8.977  0.00  0.00    -0.309 N 
ATOM     10  H27 <0> d   1      17.704  -3.309   6.961  0.00  0.00     0.173 HD
ATOM     11  H28 <0> d   1      20.221  -0.917   8.969  0.00  0.00     0.170 HD
ENDROOT
BRANCH   1  12
ATOM     12  C9  <0> d   1      19.810  -1.722  11.457  0.00  0.00     0.183 C 
BRANCH  12  13
ATOM     13  N8  <0> d   1      19.419  -0.333  11.706  0.00  0.00    -0.365 N 
ATOM     14  C4  <0> d   1      20.294   0.710  11.848  0.00  0.00     0.073 C 
ATOM     15  N1  <0> d   1      21.552   0.610  12.133  0.00  0.00    -0.389 N 
ATOM     16  C5  <0> d   1      19.539   2.002  11.606  0.00  0.00     0.077 C 
ATOM     17  H2  <0> d   1      21.951  -0.264  12.267  0.00  0.00     0.157 HD
ATOM     18  H3  <0> d   1      22.097   1.409  12.210  0.00  0.00     0.157 HD
ATOM     19  C6  <0> d   1      18.097   1.660  12.046  0.00  0.00     0.027 C 
ATOM     20  C7  <0> d   1      18.033   0.133  11.845  0.00  0.00     0.125 C 
ENDBRANCH  12  13
ENDBRANCH   1  12
TORSDOF 2
ENDMDL
MODEL 3
REMARK VINA RESULT:      -6.2      5.535      7.577
REMARK  2 active torsions:
REMARK  status: ('A' for Active; 'I' for Inactive)
REMARK    1  A    between atoms: N8_8  and  C9_9 
REMARK    2  A    between atoms: C9_9  and  C10_10 
ROOT
ATOM      1  C10 <0> d   1      19.630  -0.678   8.591  0.00  0.00     0.059 A 
ATOM      2  C11 <0> d   1      19.122   0.322   7.836  0.00  0.00     0.126 A 
ATOM      3 Cl12 <0> d   1      19.121   1.955   8.425  0.00  0.00    -0.076 Cl
ATOM      4  C13 <0> d   1      18.591   0.019   6.559  0.00  0.00     0.273 A 
ATOM      5  O14 <0> d   1      18.128   0.903   5.860  0.00  0.00    -0.266 OA
ATOM      6  N15 <0> d   1      18.603  -1.257   6.123  0.00  0.00    -0.274 N 
ATOM      7  C16 <0> d   1      19.115  -2.234   6.895  0.00  0.00     0.327 A 
ATOM      8  O17 <0> d   1      19.120  -3.379   6.488  0.00  0.00    -0.247 OA
ATOM      9  N18 <0> d   1      19.627  -1.959   8.108  0.00  0.00    -0.309 N 
ATOM     10  H27 <0> d   1      18.240  -1.472   5.249  0.00  0.00     0.173 HD
ATOM     11  H28 <0> d   1      19.992  -2.677   8.650  0.00  0.00     0.170 HD
ENDROOT
BRANCH   1  12
ATOM     12  C9  <0> d   1      20.201  -0.381   9.953  0.00  0.00     0.183 C 
BRANCH  12  13
ATOM     13  N8  <0> d   1      19.325  -0.944  10.983  0.00  0.00    -0.365 N 
ATOM     14  C4  <0> d   1      19.627  -2.034  11.753  0.00  0.00     0.073 C 
ATOM     15  N1  <0> d   1      20.521  -2.929  11.483  0.00  0.00    -0.389 N 
ATOM     16  C5  <0> d   1      18.739  -2.010  12.982  0.00  0.00     0.077 C 
ATOM     17  H2  <0> d   1      21.047  -2.859  10.671  0.00  0.00     0.157 HD
ATOM     18  H3  <0> d   1      20.668  -3.668  12.093  0.00  0.00     0.157 HD
ATOM     19  C6  <0> d   1      17.467  -1.284  12.489  0.00  0.00     0.027 C 
ATOM     20  C7  <0> d   1      17.997  -0.419  11.327  0.00  0.00     0.125 C 
ENDBRANCH  12  13
ENDBRANCH   1  12
TORSDOF 2
ENDMDL
MODEL 4
REMARK VINA RESULT:      -6.2      6.057      7.294
REMARK  2 active torsions:
REMARK  status: ('A' for Active; 'I' for Inactive)
REMARK    1  A    between atoms: N8_8  and  C9_9 
REMARK    2  A    between atoms: C9_9  and  C10_10 
ROOT
ATOM      1  C10 <0> d   1      19.301  -4.159  10.325  0.00  0.00     0.059 A 
ATOM      2  C11 <0> d   1      18.164  -4.877  10.455  0.00  0.00     0.126 A 
ATOM      3 Cl12 <0> d   1      16.986  -4.449  11.657  0.00  0.00    -0.076 Cl
ATOM      4  C13 <0> d   1      17.946  -5.983   9.598  0.00  0.00     0.273 A 
ATOM      5  O14 <0> d   1      16.928  -6.646   9.697  0.00  0.00    -0.266 OA
ATOM      6  N15 <0> d   1      18.874  -6.296   8.672  0.00  0.00    -0.274 N 
ATOM      7  C16 <0> d   1      19.998  -5.563   8.563  0.00  0.00     0.327 A 
ATOM      8  O17 <0> d   1      20.826  -5.857   7.723  0.00  0.00    -0.247 OA
ATOM      9  N18 <0> d   1      20.216  -4.508   9.368  0.00  0.00    -0.309 N 
ATOM     10  H27 <0> d   1      18.732  -7.053   8.081  0.00  0.00     0.173 HD
ATOM     11  H28 <0> d   1      21.032  -3.991   9.273  0.00  0.00     0.170 HD
ENDROOT
BRANCH   1  12
ATOM     12  C9  <0> d   1      19.557  -2.977  11.224  0.00  0.00     0.183 C 
BRANCH  12  13
ATOM     13  N8  <0> d   1      19.289  -1.738  10.490  0.00  0.00    -0.365 N 
ATOM     14  C4  <0> d   1      20.223  -0.776  10.218  0.00  0.00     0.073 C 
ATOM     15  N1  <0> d   1      21.351  -0.620  10.831  0.00  0.00    -0.389 N 
ATOM     16  C5  <0> d   1      19.713   0.072   9.069  0.00  0.00     0.077 C 
ATOM     17  H2  <0> d   1      21.596  -1.217  11.556  0.00  0.00     0.157 HD
ATOM     18  H3  <0> d   1      21.954   0.092  10.565  0.00  0.00     0.157 HD
ATOM     19  C6  <0> d   1      18.177  -0.011   9.219  0.00  0.00     0.027 C 
ATOM     20  C7  <0> d   1      17.979  -1.355   9.949  0.00  0.00     0.125 C 
ENDBRANCH  12  13
ENDBRANCH   1  12
TORSDOF 2
ENDMDL
MODEL 5
REMARK VINA RESULT:      -6.1      2.955      3.846
REMARK  2 active torsions:
REMARK  status: ('A' for Active; 'I' for Inactive)
REMARK    1  A    between atoms: N8_8  and  C9_9 
REMARK    2  A    between atoms: C9_9  and  C10_10 
ROOT
ATOM      1  C10 <0> d   1      18.905   3.478  12.560  0.00  0.00     0.059 A 
ATOM      2  C11 <0> d   1      17.870   4.276  12.215  0.00  0.00     0.126 A 
ATOM      3 Cl12 <0> d   1      17.586   4.678  10.550  0.00  0.00    -0.076 Cl
ATOM      4  C13 <0> d   1      17.020   4.779  13.230  0.00  0.00     0.273 A 
ATOM      5  O14 <0> d   1      16.080   5.500  12.943  0.00  0.00    -0.266 OA
ATOM      6  N15 <0> d   1      17.259   4.453  14.516  0.00  0.00    -0.274 N 
ATOM      7  C16 <0> d   1      18.297   3.655  14.832  0.00  0.00     0.327 A 
ATOM      8  O17 <0> d   1      18.501   3.370  15.995  0.00  0.00    -0.247 OA
ATOM      9  N18 <0> d   1      19.110   3.167  13.877  0.00  0.00    -0.309 N 
ATOM     10  H27 <0> d   1      16.682   4.794  15.217  0.00  0.00     0.173 HD
ATOM     11  H28 <0> d   1      19.852   2.594  14.125  0.00  0.00     0.170 HD
ENDROOT
BRANCH   1  12
ATOM     12  C9  <0> d   1      19.823   2.930  11.499  0.00  0.00     0.183 C 
BRANCH  12  13
ATOM     13  N8  <0> d   1      19.556   1.501  11.312  0.00  0.00    -0.365 N 
ATOM     14  C4  <0> d   1      20.345   0.491  11.792  0.00  0.00     0.073 C 
ATOM     15  N1  <0> d   1      21.580   0.603  12.158  0.00  0.00    -0.389 N 
ATOM     16  C5  <0> d   1      19.520  -0.781  11.828  0.00  0.00     0.077 C 
ATOM     17  H2  <0> d   1      22.026   1.463  12.103  0.00  0.00     0.157 HD
ATOM     18  H3  <0> d   1      22.060  -0.171  12.490  0.00  0.00     0.157 HD
ATOM     19  C6  <0> d   1      18.503  -0.579  10.681  0.00  0.00     0.027 C 
ATOM     20  C7  <0> d   1      18.406   0.956  10.579  0.00  0.00     0.125 C 
ENDBRANCH  12  13
ENDBRANCH   1  12
TORSDOF 2
ENDMDL
MODEL 6
REMARK VINA RESULT:      -5.9      7.127      8.682
REMARK  2 active torsions:
REMARK  status: ('A' for Active; 'I' for Inactive)
REMARK    1  A    between atoms: N8_8  and  C9_9 
REMARK    2  A    between atoms: C9_9  and  C10_10 
ROOT
ATOM      1  C10 <0> d   1      19.391  -2.210   6.884  0.00  0.00     0.059 A 
ATOM      2  C11 <0> d   1      19.023  -1.122   6.172  0.00  0.00     0.126 A 
ATOM      3 Cl12 <0> d   1      18.710  -1.249   4.469  0.00  0.00    -0.076 Cl
ATOM      4  C13 <0> d   1      18.895   0.123   6.835  0.00  0.00     0.273 A 
ATOM      5  O14 <0> d   1      18.564   1.118   6.215  0.00  0.00    -0.266 OA
ATOM      6  N15 <0> d   1      19.142   0.198   8.158  0.00  0.00    -0.274 N 
ATOM      7  C16 <0> d   1      19.507  -0.903   8.843  0.00  0.00     0.327 A 
ATOM      8  O17 <0> d   1      19.726  -0.820  10.036  0.00  0.00    -0.247 OA
ATOM      9  N18 <0> d   1      19.628  -2.092   8.228  0.00  0.00    -0.309 N 
ATOM     10  H27 <0> d   1      19.057   1.047   8.619  0.00  0.00     0.173 HD
ATOM     11  H28 <0> d   1      19.892  -2.874   8.739  0.00  0.00     0.170 HD
ENDROOT
BRANCH   1  12
ATOM     12  C9  <0> d   1      19.534  -3.546   6.203  0.00  0.00     0.183 C 
BRANCH  12  13
ATOM     13  N8  <0> d   1      19.376  -4.617   7.191  0.00  0.00    -0.365 N 
ATOM     14  C4  <0> d   1      20.410  -5.289   7.784  0.00  0.00     0.073 C 
ATOM     15  N1  <0> d   1      21.625  -5.352   7.344  0.00  0.00    -0.389 N 
ATOM     16  C5  <0> d   1      19.890  -5.941   9.050  0.00  0.00     0.077 C 
ATOM     17  H2  <0> d   1      21.867  -4.897   6.522  0.00  0.00     0.157 HD
ATOM     18  H3  <0> d   1      22.294  -5.852   7.837  0.00  0.00     0.157 HD
ATOM     19  C6  <0> d   1      18.399  -6.200   8.732  0.00  0.00     0.027 C 
ATOM     20  C7  <0> d   1      18.085  -5.122   7.676  0.00  0.00     0.125 C 
ENDBRANCH  12  13
ENDBRANCH   1  12
TORSDOF 2
ENDMDL
MODEL 7
REMARK VINA RESULT:      -5.9      2.415      3.156
REMARK  2 active torsions:
REMARK  status: ('A' for Active; 'I' for Inactive)
REMARK    1  A    between atoms: N8_8  and  C9_9 
REMARK    2  A    between atoms: C9_9  and  C10_10 
ROOT
ATOM      1  C10 <0> d   1      18.338   1.331  15.487  0.00  0.00     0.059 A 
ATOM      2  C11 <0> d   1      19.022   1.877  16.516  0.00  0.00     0.126 A 
ATOM      3 Cl12 <0> d   1      19.902   3.358  16.301  0.00  0.00    -0.076 Cl
ATOM      4  C13 <0> d   1      19.010   1.226  17.773  0.00  0.00     0.273 A 
ATOM      5  O14 <0> d   1      19.619   1.699  18.717  0.00  0.00    -0.266 OA
ATOM      6  N15 <0> d   1      18.319   0.077  17.918  0.00  0.00    -0.274 N 
ATOM      7  C16 <0> d   1      17.646  -0.445  16.875  0.00  0.00     0.327 A 
ATOM      8  O17 <0> d   1      17.027  -1.481  17.020  0.00  0.00    -0.247 OA
ATOM      9  N18 <0> d   1      17.645   0.165  15.676  0.00  0.00    -0.309 N 
ATOM     10  H27 <0> d   1      18.306  -0.375  18.776  0.00  0.00     0.173 HD
ATOM     11  H28 <0> d   1      17.154  -0.227  14.937  0.00  0.00     0.170 HD
ENDROOT
BRANCH   1  12
ATOM     12  C9  <0> d   1      18.334   2.004  14.139  0.00  0.00     0.183 C 
BRANCH  12  13
ATOM     13  N8  <0> d   1      18.388   0.988  13.085  0.00  0.00    -0.365 N 
ATOM     14  C4  <0> d   1      19.490   0.236  12.782  0.00  0.00     0.073 C 
ATOM     15  N1  <0> d   1      20.711   0.518  13.102  0.00  0.00    -0.389 N 
ATOM     16  C5  <0> d   1      19.034  -0.989  12.014  0.00  0.00     0.077 C 
ATOM     17  H2  <0> d   1      20.907   1.326  13.601  0.00  0.00     0.157 HD
ATOM     18  H3  <0> d   1      21.430  -0.080  12.846  0.00  0.00     0.157 HD
ATOM     19  C6  <0> d   1      17.757  -0.502  11.292  0.00  0.00     0.027 C 
ATOM     20  C7  <0> d   1      17.266   0.641  12.203  0.00  0.00     0.125 C 
ENDBRANCH  12  13
ENDBRANCH   1  12
TORSDOF 2
ENDMDL
MODEL 8
REMARK VINA RESULT:      -5.9      2.127      2.451
REMARK  2 active torsions:
REMARK  status: ('A' for Active; 'I' for Inactive)
REMARK    1  A    between atoms: N8_8  and  C9_9 
REMARK    2  A    between atoms: C9_9  and  C10_10 
ROOT
ATOM      1  C10 <0> d   1      18.927   2.627  14.897  0.00  0.00     0.059 A 
ATOM      2  C11 <0> d   1      19.000   2.186  16.173  0.00  0.00     0.126 A 
ATOM      3 Cl12 <0> d   1      18.542   0.559  16.569  0.00  0.00    -0.076 Cl
ATOM      4  C13 <0> d   1      19.457   3.069  17.181  0.00  0.00     0.273 A 
ATOM      5  O14 <0> d   1      19.532   2.694  18.338  0.00  0.00    -0.266 OA
ATOM      6  N15 <0> d   1      19.809   4.327  16.850  0.00  0.00    -0.274 N 
ATOM      7  C16 <0> d   1      19.726   4.741  15.571  0.00  0.00     0.327 A 
ATOM      8  O17 <0> d   1      20.047   5.878  15.287  0.00  0.00    -0.247 OA
ATOM      9  N18 <0> d   1      19.298   3.911  14.602  0.00  0.00    -0.309 N 
ATOM     10  H27 <0> d   1      20.122   4.938  17.535  0.00  0.00     0.173 HD
ATOM     11  H28 <0> d   1      19.246   4.227  13.687  0.00  0.00     0.170 HD
ENDROOT
BRANCH   1  12
ATOM     12  C9  <0> d   1      18.444   1.707  13.806  0.00  0.00     0.183 C 
BRANCH  12  13
ATOM     13  N8  <0> d   1      18.553   2.386  12.512  0.00  0.00    -0.365 N 
ATOM     14  C4  <0> d   1      19.592   2.232  11.635  0.00  0.00     0.073 C 
ATOM     15  N1  <0> d   1      20.767   1.775  11.925  0.00  0.00    -0.389 N 
ATOM     16  C5  <0> d   1      19.129   2.683  10.264  0.00  0.00     0.077 C 
ATOM     17  H2  <0> d   1      20.971   1.505  12.834  0.00  0.00     0.157 HD
ATOM     18  H3  <0> d   1      21.442   1.698  11.233  0.00  0.00     0.157 HD
ATOM     19  C6  <0> d   1      18.058   3.752  10.582  0.00  0.00     0.027 C 
ATOM     20  C7  <0> d   1      17.562   3.330  11.980  0.00  0.00     0.125 C 
ENDBRANCH  12  13
ENDBRANCH   1  12
TORSDOF 2
ENDMDL
MODEL 9
REMARK VINA RESULT:      -5.8      3.041      4.107
REMARK  2 active torsions:
REMARK  status: ('A' for Active; 'I' for Inactive)
REMARK    1  A    between atoms: N8_8  and  C9_9 
REMARK    2  A    between atoms: C9_9  and  C10_10 
ROOT
ATOM      1  C10 <0> d   1      19.398   2.024  12.384  0.00  0.00     0.059 A 
ATOM      2  C11 <0> d   1      18.538   2.527  11.470  0.00  0.00     0.126 A 
ATOM      3 Cl12 <0> d   1      18.608   2.006   9.816  0.00  0.00    -0.076 Cl
ATOM      4  C13 <0> d   1      17.579   3.484  11.882  0.00  0.00     0.273 A 
ATOM      5  O14 <0> d   1      16.793   3.952  11.077  0.00  0.00    -0.266 OA
ATOM      6  N15 <0> d   1      17.543   3.874  13.172  0.00  0.00    -0.274 N 
ATOM      7  C16 <0> d   1      18.411   3.356  14.061  0.00  0.00     0.327 A 
ATOM      8  O17 <0> d   1      18.367   3.716  15.222  0.00  0.00    -0.247 OA
ATOM      9  N18 <0> d   1      19.325   2.443  13.685  0.00  0.00    -0.309 N 
ATOM     10  H27 <0> d   1      16.889   4.529  13.461  0.00  0.00     0.173 HD
ATOM     11  H28 <0> d   1      19.941   2.081  14.341  0.00  0.00     0.170 HD
ENDROOT
BRANCH   1  12
ATOM     12  C9  <0> d   1      20.427   1.004  11.972  0.00  0.00     0.183 C 
BRANCH  12  13
ATOM     13  N8  <0> d   1      19.822  -0.330  11.976  0.00  0.00    -0.365 N 
ATOM     14  C4  <0> d   1      19.972  -1.257  10.981  0.00  0.00     0.073 C 
ATOM     15  N1  <0> d   1      20.348  -1.013   9.767  0.00  0.00    -0.389 N 
ATOM     16  C5  <0> d   1      19.629  -2.622  11.546  0.00  0.00     0.077 C 
ATOM     17  H2  <0> d   1      20.552  -0.104   9.497  0.00  0.00     0.157 HD
ATOM     18  H3  <0> d   1      20.430  -1.738   9.129  0.00  0.00     0.157 HD
ATOM     19  C6  <0> d   1      18.601  -2.300  12.655  0.00  0.00     0.027 C 
ATOM     20  C7  <0> d   1      18.965  -0.854  13.047  0.00  0.00     0.125 C 
ENDBRANCH  12  13
ENDBRANCH   1  12
TORSDOF 2
ENDMDL
