MODEL 1
REMARK VINA RESULT:      -8.0      0.000      0.000
REMARK  1 active torsions:
REMARK  status: ('A' for Active; 'I' for Inactive)
REMARK    1  A    between atoms: C5_5  and  C6_6 
ROOT
ATOM      1  C6  <0> d   1      17.445   0.669   9.882  0.00  0.00     0.022 C 
ATOM      2  C7  <0> d   1      18.113  -0.045  10.817  0.00  0.00    -0.006 C 
ATOM      3  C8  <0> d   1      17.973   0.064  12.228  0.00  0.00     0.165 C 
ATOM      4  O9  <0> d   1      17.229   0.815  12.826  0.00  0.00    -0.292 OA
ATOM      5  C10 <0> d   1      18.942  -0.951  12.848  0.00  0.00     0.029 C 
ATOM      6  C11 <0> d   1      18.650  -1.365  14.292  0.00  0.00     0.025 C 
ATOM      7  C12 <0> d   1      20.357  -0.357  12.561  0.00  0.00     0.018 C 
ATOM      8  C13 <0> d   1      20.510  -0.476  11.025  0.00  0.00     0.011 C 
ATOM      9  C14 <0> d   1      19.165  -1.132  10.559  0.00  0.00     0.031 C 
ATOM     10  C16 <0> d   1      18.882  -2.089  11.768  0.00  0.00    -0.025 C 
ATOM     11  C17 <0> d   1      19.989  -3.127  11.959  0.00  0.00     0.016 C 
ATOM     12  C18 <0> d   1      17.498  -2.737  11.684  0.00  0.00     0.016 C 
ENDROOT
BRANCH   1  13
ATOM     13  C5  <0> d   1      17.814   0.551   8.464  0.00  0.00    -0.036 A 
ATOM     14  C4  <0> d   1      18.844   1.338   7.936  0.00  0.00     0.012 A 
ATOM     15  C3  <0> d   1      19.183   1.221   6.605  0.00  0.00     0.007 A 
ATOM     16  C2  <0> d   1      18.508   0.328   5.791  0.00  0.00    -0.062 A 
ATOM     17  C1  <0> d   1      18.886   0.206   4.337  0.00  0.00     0.048 C 
ATOM     18  C20 <0> d   1      17.485  -0.451   6.304  0.00  0.00     0.007 A 
ATOM     19  C19 <0> d   1      17.137  -0.349   7.633  0.00  0.00     0.012 A 
ENDBRANCH   1  13
TORSDOF 1
ENDMDL
MODEL 2
REMARK VINA RESULT:      -7.7      1.256      1.433
REMARK  1 active torsions:
REMARK  status: ('A' for Active; 'I' for Inactive)
REMARK    1  A    between atoms: C5_5  and  C6_6 
ROOT
ATOM      1  C6  <0> d   1      18.288   1.848   9.653  0.00  0.00     0.022 C 
ATOM      2  C7  <0> d   1      18.762   1.196  10.740  0.00  0.00    -0.006 C 
ATOM      3  C8  <0> d   1      18.968   1.745  12.035  0.00  0.00     0.165 C 
ATOM      4  O9  <0> d   1      18.751   2.890  12.380  0.00  0.00    -0.292 OA
ATOM      5  C10 <0> d   1      19.516   0.613  12.914  0.00  0.00     0.029 C 
ATOM      6  C11 <0> d   1      19.373   0.803  14.425  0.00  0.00     0.025 C 
ATOM      7  C12 <0> d   1      20.959   0.369  12.371  0.00  0.00     0.018 C 
ATOM      8  C13 <0> d   1      20.735  -0.228  10.961  0.00  0.00     0.011 C 
ATOM      9  C14 <0> d   1      19.176  -0.279  10.813  0.00  0.00     0.031 C 
ATOM     10  C16 <0> d   1      18.762  -0.615  12.288  0.00  0.00    -0.025 C 
ATOM     11  C17 <0> d   1      19.336  -1.950  12.763  0.00  0.00     0.016 C 
ATOM     12  C18 <0> d   1      17.248  -0.534  12.499  0.00  0.00     0.016 C 
ENDROOT
BRANCH   1  13
ATOM     13  C5  <0> d   1      18.278   1.182   8.342  0.00  0.00    -0.036 A 
ATOM     14  C4  <0> d   1      19.187   1.568   7.350  0.00  0.00     0.012 A 
ATOM     15  C3  <0> d   1      19.170   0.938   6.123  0.00  0.00     0.007 A 
ATOM     16  C2  <0> d   1      18.258  -0.073   5.873  0.00  0.00    -0.062 A 
ATOM     17  C1  <0> d   1      18.248  -0.756   4.529  0.00  0.00     0.048 C 
ATOM     18  C20 <0> d   1      17.354  -0.457   6.847  0.00  0.00     0.007 A 
ATOM     19  C19 <0> d   1      17.360   0.159   8.080  0.00  0.00     0.012 A 
ENDBRANCH   1  13
TORSDOF 1
ENDMDL
MODEL 3
REMARK VINA RESULT:      -7.6      2.000      3.142
REMARK  1 active torsions:
REMARK  status: ('A' for Active; 'I' for Inactive)
REMARK    1  A    between atoms: C5_5  and  C6_6 
ROOT
ATOM      1  C6  <0> d   1      17.417  -0.391   9.916  0.00  0.00     0.022 C 
ATOM      2  C7  <0> d   1      17.829   0.682  10.630  0.00  0.00    -0.006 C 
ATOM      3  C8  <0> d   1      17.373   1.069  11.920  0.00  0.00     0.165 C 
ATOM      4  O9  <0> d   1      16.539   0.499  12.594  0.00  0.00    -0.292 OA
ATOM      5  C10 <0> d   1      18.138   2.344  12.296  0.00  0.00     0.029 C 
ATOM      6  C11 <0> d   1      18.187   2.686  13.787  0.00  0.00     0.025 C 
ATOM      7  C12 <0> d   1      17.556   3.436  11.345  0.00  0.00     0.018 C 
ATOM      8  C13 <0> d   1      18.052   3.016   9.940  0.00  0.00     0.011 C 
ATOM      9  C14 <0> d   1      18.883   1.713  10.205  0.00  0.00     0.031 C 
ATOM     10  C16 <0> d   1      19.515   2.059  11.597  0.00  0.00    -0.025 C 
ATOM     11  C17 <0> d   1      20.404   3.302  11.540  0.00  0.00     0.016 C 
ATOM     12  C18 <0> d   1      20.242   0.863  12.217  0.00  0.00     0.016 C 
ENDROOT
BRANCH   1  13
ATOM     13  C5  <0> d   1      17.870  -0.570   8.529  0.00  0.00    -0.036 A 
ATOM     14  C4  <0> d   1      17.204   0.076   7.481  0.00  0.00     0.012 A 
ATOM     15  C3  <0> d   1      17.636  -0.098   6.184  0.00  0.00     0.007 A 
ATOM     16  C2  <0> d   1      18.725  -0.909   5.916  0.00  0.00    -0.062 A 
ATOM     17  C1  <0> d   1      19.191  -1.093   4.494  0.00  0.00     0.048 C 
ATOM     18  C20 <0> d   1      19.387  -1.554   6.946  0.00  0.00     0.007 A 
ATOM     19  C19 <0> d   1      18.971  -1.388   8.249  0.00  0.00     0.012 A 
ENDBRANCH   1  13
TORSDOF 1
ENDMDL
MODEL 4
REMARK VINA RESULT:      -7.5      3.326      5.550
REMARK  1 active torsions:
REMARK  status: ('A' for Active; 'I' for Inactive)
REMARK    1  A    between atoms: C5_5  and  C6_6 
ROOT
ATOM      1  C6  <0> d   1      18.839   3.050   9.527  0.00  0.00     0.022 C 
ATOM      2  C7  <0> d   1      18.711   1.704   9.464  0.00  0.00    -0.006 C 
ATOM      3  C8  <0> d   1      18.959   0.879   8.333  0.00  0.00     0.165 C 
ATOM      4  O9  <0> d   1      19.327   1.246   7.236  0.00  0.00    -0.292 OA
ATOM      5  C10 <0> d   1      18.671  -0.565   8.767  0.00  0.00     0.029 C 
ATOM      6  C11 <0> d   1      19.303  -1.664   7.910  0.00  0.00     0.025 C 
ATOM      7  C12 <0> d   1      17.121  -0.613   8.939  0.00  0.00     0.018 C 
ATOM      8  C13 <0> d   1      16.851   0.285  10.171  0.00  0.00     0.011 C 
ATOM      9  C14 <0> d   1      18.275   0.773  10.604  0.00  0.00     0.031 C 
ATOM     10  C16 <0> d   1      19.126  -0.500  10.269  0.00  0.00    -0.025 C 
ATOM     11  C17 <0> d   1      18.675  -1.726  11.063  0.00  0.00     0.016 C 
ATOM     12  C18 <0> d   1      20.629  -0.247  10.409  0.00  0.00     0.016 C 
ENDROOT
BRANCH   1  13
ATOM     13  C5  <0> d   1      18.396   3.776  10.724  0.00  0.00    -0.036 A 
ATOM     14  C4  <0> d   1      19.258   3.927  11.817  0.00  0.00     0.012 A 
ATOM     15  C3  <0> d   1      18.833   4.610  12.936  0.00  0.00     0.007 A 
ATOM     16  C2  <0> d   1      17.558   5.146  12.982  0.00  0.00    -0.062 A 
ATOM     17  C1  <0> d   1      17.103   5.892  14.211  0.00  0.00     0.048 C 
ATOM     18  C20 <0> d   1      16.698   4.998  11.909  0.00  0.00     0.007 A 
ATOM     19  C19 <0> d   1      17.108   4.322  10.780  0.00  0.00     0.012 A 
ENDBRANCH   1  13
TORSDOF 1
ENDMDL
MODEL 5
REMARK VINA RESULT:      -7.3      2.348      6.827
REMARK  1 active torsions:
REMARK  status: ('A' for Active; 'I' for Inactive)
REMARK    1  A    between atoms: C5_5  and  C6_6 
ROOT
ATOM      1  C6  <0> d   1      18.501  -1.927  13.659  0.00  0.00     0.022 C 
ATOM      2  C7  <0> d   1      18.872  -1.260  12.541  0.00  0.00    -0.006 C 
ATOM      3  C8  <0> d   1      19.139  -1.827  11.265  0.00  0.00     0.165 C 
ATOM      4  O9  <0> d   1      19.077  -3.002  10.966  0.00  0.00    -0.292 OA
ATOM      5  C10 <0> d   1      19.519  -0.665  10.336  0.00  0.00     0.029 C 
ATOM      6  C11 <0> d   1      19.389  -0.932   8.835  0.00  0.00     0.025 C 
ATOM      7  C12 <0> d   1      20.920  -0.207  10.849  0.00  0.00     0.018 C 
ATOM      8  C13 <0> d   1      20.630   0.410  12.238  0.00  0.00     0.011 C 
ATOM      9  C14 <0> d   1      19.080   0.254  12.407  0.00  0.00     0.031 C 
ATOM     10  C16 <0> d   1      18.611   0.472  10.927  0.00  0.00    -0.025 C 
ATOM     11  C17 <0> d   1      18.992   1.853  10.393  0.00  0.00     0.016 C 
ATOM     12  C18 <0> d   1      17.120   0.177  10.741  0.00  0.00     0.016 C 
ENDROOT
BRANCH   1  13
ATOM     13  C5  <0> d   1      18.413  -1.218  14.943  0.00  0.00    -0.036 A 
ATOM     14  C4  <0> d   1      17.485  -0.185  15.115  0.00  0.00     0.012 A 
ATOM     15  C3  <0> d   1      17.409   0.475  16.323  0.00  0.00     0.007 A 
ATOM     16  C2  <0> d   1      18.248   0.117  17.364  0.00  0.00    -0.062 A 
ATOM     17  C1  <0> d   1      18.157   0.844  18.682  0.00  0.00     0.048 C 
ATOM     18  C20 <0> d   1      19.171  -0.900  17.202  0.00  0.00     0.007 A 
ATOM     19  C19 <0> d   1      19.257  -1.573  16.002  0.00  0.00     0.012 A 
ENDBRANCH   1  13
TORSDOF 1
ENDMDL
MODEL 6
REMARK VINA RESULT:      -7.2      1.642      2.277
REMARK  1 active torsions:
REMARK  status: ('A' for Active; 'I' for Inactive)
REMARK    1  A    between atoms: C5_5  and  C6_6 
ROOT
ATOM      1  C6  <0> d   1      19.523  -0.201   9.035  0.00  0.00     0.022 C 
ATOM      2  C7  <0> d   1      19.326  -0.975  10.128  0.00  0.00    -0.006 C 
ATOM      3  C8  <0> d   1      19.923  -0.805  11.407  0.00  0.00     0.165 C 
ATOM      4  O9  <0> d   1      20.707   0.064  11.730  0.00  0.00    -0.292 OA
ATOM      5  C10 <0> d   1      19.384  -1.931  12.300  0.00  0.00     0.029 C 
ATOM      6  C11 <0> d   1      19.490  -1.703  13.809  0.00  0.00     0.025 C 
ATOM      7  C12 <0> d   1      20.056  -3.223  11.736  0.00  0.00     0.018 C 
ATOM      8  C13 <0> d   1      19.406  -3.408  10.344  0.00  0.00     0.011 C 
ATOM      9  C14 <0> d   1      18.411  -2.203  10.225  0.00  0.00     0.031 C 
ATOM     10  C16 <0> d   1      17.935  -2.081  11.714  0.00  0.00    -0.025 C 
ATOM     11  C17 <0> d   1      17.240  -3.351  12.208  0.00  0.00     0.016 C 
ATOM     12  C18 <0> d   1      17.082  -0.832  11.950  0.00  0.00     0.016 C 
ENDROOT
BRANCH   1  13
ATOM     13  C5  <0> d   1      18.952  -0.598   7.740  0.00  0.00    -0.036 A 
ATOM     14  C4  <0> d   1      17.862   0.100   7.207  0.00  0.00     0.012 A 
ATOM     15  C3  <0> d   1      17.333  -0.280   5.992  0.00  0.00     0.007 A 
ATOM     16  C2  <0> d   1      17.878  -1.347   5.299  0.00  0.00    -0.062 A 
ATOM     17  C1  <0> d   1      17.294  -1.754   3.970  0.00  0.00     0.048 C 
ATOM     18  C20 <0> d   1      18.953  -2.045   5.821  0.00  0.00     0.007 A 
ATOM     19  C19 <0> d   1      19.496  -1.676   7.033  0.00  0.00     0.012 A 
ENDBRANCH   1  13
TORSDOF 1
ENDMDL
MODEL 7
REMARK VINA RESULT:      -7.1      2.613      6.566
REMARK  1 active torsions:
REMARK  status: ('A' for Active; 'I' for Inactive)
REMARK    1  A    between atoms: C5_5  and  C6_6 
ROOT
ATOM      1  C6  <0> d   1      20.087   0.024  13.140  0.00  0.00     0.022 C 
ATOM      2  C7  <0> d   1      19.446  -0.706  12.198  0.00  0.00    -0.006 C 
ATOM      3  C8  <0> d   1      19.744  -0.747  10.808  0.00  0.00     0.165 C 
ATOM      4  O9  <0> d   1      20.625  -0.135  10.238  0.00  0.00    -0.292 OA
ATOM      5  C10 <0> d   1      18.740  -1.715  10.169  0.00  0.00     0.029 C 
ATOM      6  C11 <0> d   1      19.134  -2.293   8.808  0.00  0.00     0.025 C 
ATOM      7  C12 <0> d   1      17.377  -0.958  10.242  0.00  0.00     0.018 C 
ATOM      8  C13 <0> d   1      17.052  -0.913  11.755  0.00  0.00     0.011 C 
ATOM      9  C14 <0> d   1      18.260  -1.653  12.425  0.00  0.00     0.031 C 
ATOM     10  C16 <0> d   1      18.561  -2.745  11.341  0.00  0.00    -0.025 C 
ATOM     11  C17 <0> d   1      17.372  -3.680  11.113  0.00  0.00     0.016 C 
ATOM     12  C18 <0> d   1      19.849  -3.516  11.637  0.00  0.00     0.016 C 
ENDROOT
BRANCH   1  13
ATOM     13  C5  <0> d   1      19.562   0.080  14.511  0.00  0.00    -0.036 A 
ATOM     14  C4  <0> d   1      19.252   1.313  15.097  0.00  0.00     0.012 A 
ATOM     15  C3  <0> d   1      18.760   1.355  16.384  0.00  0.00     0.007 A 
ATOM     16  C2  <0> d   1      18.571   0.184  17.096  0.00  0.00    -0.062 A 
ATOM     17  C1  <0> d   1      18.032   0.240  18.503  0.00  0.00     0.048 C 
ATOM     18  C20 <0> d   1      18.879  -1.039  16.526  0.00  0.00     0.007 A 
ATOM     19  C19 <0> d   1      19.368  -1.100  15.239  0.00  0.00     0.012 A 
ENDBRANCH   1  13
TORSDOF 1
ENDMDL
MODEL 8
REMARK VINA RESULT:      -7.0      2.557      4.862
REMARK  1 active torsions:
REMARK  status: ('A' for Active; 'I' for Inactive)
REMARK    1  A    between atoms: C5_5  and  C6_6 
ROOT
ATOM      1  C6  <0> d   1      18.740  -3.113  12.540  0.00  0.00     0.022 C 
ATOM      2  C7  <0> d   1      18.667  -1.784  12.296  0.00  0.00    -0.006 C 
ATOM      3  C8  <0> d   1      18.846  -0.737  13.240  0.00  0.00     0.165 C 
ATOM      4  O9  <0> d   1      19.095  -0.861  14.422  0.00  0.00    -0.292 OA
ATOM      5  C10 <0> d   1      18.665   0.582  12.477  0.00  0.00     0.029 C 
ATOM      6  C11 <0> d   1      19.263   1.829  13.133  0.00  0.00     0.025 C 
ATOM      7  C12 <0> d   1      17.141   0.628  12.144  0.00  0.00     0.018 C 
ATOM      8  C13 <0> d   1      16.945  -0.513  11.116  0.00  0.00     0.011 C 
ATOM      9  C14 <0> d   1      18.381  -1.118  10.943  0.00  0.00     0.031 C 
ATOM     10  C16 <0> d   1      19.253   0.177  11.078  0.00  0.00    -0.025 C 
ATOM     11  C17 <0> d   1      18.933   1.209   9.995  0.00  0.00     0.016 C 
ATOM     12  C18 <0> d   1      20.750  -0.135  11.147  0.00  0.00     0.016 C 
ENDROOT
BRANCH   1  13
ATOM     13  C5  <0> d   1      18.377  -4.076  11.491  0.00  0.00    -0.036 A 
ATOM     14  C4  <0> d   1      19.359  -4.586  10.633  0.00  0.00     0.012 A 
ATOM     15  C3  <0> d   1      19.008  -5.488   9.651  0.00  0.00     0.007 A 
ATOM     16  C2  <0> d   1      17.691  -5.889   9.512  0.00  0.00    -0.062 A 
ATOM     17  C1  <0> d   1      17.318  -6.877   8.436  0.00  0.00     0.048 C 
ATOM     18  C20 <0> d   1      16.714  -5.386  10.353  0.00  0.00     0.007 A 
ATOM     19  C19 <0> d   1      17.047  -4.486  11.343  0.00  0.00     0.012 A 
ENDBRANCH   1  13
TORSDOF 1
ENDMDL
MODEL 9
REMARK VINA RESULT:      -7.0      3.716      5.848
REMARK  1 active torsions:
REMARK  status: ('A' for Active; 'I' for Inactive)
REMARK    1  A    between atoms: C5_5  and  C6_6 
ROOT
ATOM      1  C6  <0> d   1      18.770   3.405  10.662  0.00  0.00     0.022 C 
ATOM      2  C7  <0> d   1      18.712   2.058  10.781  0.00  0.00    -0.006 C 
ATOM      3  C8  <0> d   1      18.961   1.104   9.757  0.00  0.00     0.165 C 
ATOM      4  O9  <0> d   1      19.266   1.340   8.606  0.00  0.00    -0.292 OA
ATOM      5  C10 <0> d   1      18.768  -0.282  10.387  0.00  0.00     0.029 C 
ATOM      6  C11 <0> d   1      19.424  -1.453   9.653  0.00  0.00     0.025 C 
ATOM      7  C12 <0> d   1      17.230  -0.382  10.634  0.00  0.00     0.018 C 
ATOM      8  C13 <0> d   1      16.960   0.657  11.750  0.00  0.00     0.011 C 
ATOM      9  C14 <0> d   1      18.372   1.267  12.051  0.00  0.00     0.031 C 
ATOM     10  C16 <0> d   1      19.276   0.003  11.846  0.00  0.00    -0.025 C 
ATOM     11  C17 <0> d   1      18.923  -1.128  12.813  0.00  0.00     0.016 C 
ATOM     12  C18 <0> d   1      20.768   0.344  11.884  0.00  0.00     0.016 C 
ENDROOT
BRANCH   1  13
ATOM     13  C5  <0> d   1      18.335   4.261  11.774  0.00  0.00    -0.036 A 
ATOM     14  C4  <0> d   1      19.254   4.676  12.745  0.00  0.00     0.012 A 
ATOM     15  C3  <0> d   1      18.836   5.479  13.785  0.00  0.00     0.007 A 
ATOM     16  C2  <0> d   1      17.512   5.876  13.869  0.00  0.00    -0.062 A 
ATOM     17  C1  <0> d   1      17.065   6.755  15.009  0.00  0.00     0.048 C 
ATOM     18  C20 <0> d   1      16.597   5.467  12.916  0.00  0.00     0.007 A 
ATOM     19  C19 <0> d   1      16.999   4.667  11.867  0.00  0.00     0.012 A 
ENDBRANCH   1  13
TORSDOF 1
ENDMDL
