MODEL 1
REMARK VINA RESULT:      -8.9      0.000      0.000
REMARK  0 active torsions:
REMARK  status: ('A' for Active; 'I' for Inactive)
ROOT
ATOM      1  C1  ZIN A   1      17.762  -3.212  11.858  0.00  0.00     0.269 C 
ATOM      2  N2  ZIN A   1      17.574  -1.770  11.654  0.00  0.00    -0.072 N 
ATOM      3  H3  ZIN A   1      16.622  -1.516  11.870  0.00  0.00     0.279 HD
ATOM      4  C4  ZIN A   1      18.497  -1.020  12.522  0.00  0.00     0.249 C 
ATOM      5  C5  ZIN A   1      18.202   0.468  12.356  0.00  0.00     0.125 C 
ATOM      6  N6  ZIN A   1      18.388   0.884  10.952  0.00  0.00    -0.255 NA
ATOM      7  C7  ZIN A   1      18.077   2.235  10.883  0.00  0.00     0.112 A 
ATOM      8  N8  ZIN A   1      17.365   2.769  11.876  0.00  0.00    -0.248 NA
ATOM      9  C9  ZIN A   1      17.005   4.037  11.864  0.00  0.00     0.118 A 
ATOM     10  C10 ZIN A   1      17.351   4.867  10.817  0.00  0.00     0.020 A 
ATOM     11  C11 ZIN A   1      18.105   4.351   9.769  0.00  0.00     0.012 A 
ATOM     12  C12 ZIN A   1      18.476   3.020   9.826  0.00  0.00    -0.013 A 
ATOM     13  C13 ZIN A   1      19.348   2.433   8.761  0.00  0.00     0.081 C 
ATOM     14  C14 ZIN A   1      18.666   1.333   8.003  0.00  0.00    -0.046 A 
ATOM     15  C15 ZIN A   1      18.803   1.408   6.615  0.00  0.00     0.008 A 
ATOM     16  C16 ZIN A   1      18.247   0.462   5.786  0.00  0.00     0.001 A 
ATOM     17  C17 ZIN A   1      17.538  -0.587   6.341  0.00  0.00     0.001 A 
ATOM     18  C18 ZIN A   1      17.398  -0.660   7.706  0.00  0.00     0.009 A 
ATOM     19  C19 ZIN A   1      17.955   0.306   8.554  0.00  0.00    -0.032 A 
ATOM     20  C20 ZIN A   1      17.659   0.076  10.012  0.00  0.00     0.124 C 
ATOM     21  C22 ZIN A   1      17.874  -1.425  10.262  0.00  0.00     0.259 C 
ENDROOT
TORSDOF 0
ENDMDL
MODEL 2
REMARK VINA RESULT:      -8.5      1.943      4.839
REMARK  0 active torsions:
REMARK  status: ('A' for Active; 'I' for Inactive)
ROOT
ATOM      1  C1  ZIN A   1      19.864  -4.951  10.315  0.00  0.00     0.269 C 
ATOM      2  N2  ZIN A   1      19.733  -3.491  10.217  0.00  0.00    -0.072 N 
ATOM      3  H3  ZIN A   1      20.626  -3.084   9.983  0.00  0.00     0.279 HD
ATOM      4  C4  ZIN A   1      18.745  -3.149   9.180  0.00  0.00     0.249 C 
ATOM      5  C5  ZIN A   1      18.712  -1.630   9.038  0.00  0.00     0.125 C 
ATOM      6  N6  ZIN A   1      18.335  -0.994  10.315  0.00  0.00    -0.255 NA
ATOM      7  C7  ZIN A   1      18.354   0.379  10.108  0.00  0.00     0.112 A 
ATOM      8  N8  ZIN A   1      19.015   0.846   9.049  0.00  0.00    -0.248 NA
ATOM      9  C9  ZIN A   1      19.103   2.138   8.804  0.00  0.00     0.118 A 
ATOM     10  C10 ZIN A   1      18.513   3.065   9.640  0.00  0.00     0.020 A 
ATOM     11  C11 ZIN A   1      17.803   2.616  10.748  0.00  0.00     0.012 A 
ATOM     12  C12 ZIN A   1      17.720   1.252  10.962  0.00  0.00    -0.013 A 
ATOM     13  C13 ZIN A   1      16.909   0.712  12.097  0.00  0.00     0.081 C 
ATOM     14  C14 ZIN A   1      17.743  -0.039  13.092  0.00  0.00    -0.046 A 
ATOM     15  C15 ZIN A   1      17.486   0.280  14.428  0.00  0.00     0.008 A 
ATOM     16  C16 ZIN A   1      18.159  -0.338  15.456  0.00  0.00     0.001 A 
ATOM     17  C17 ZIN A   1      19.111  -1.296  15.158  0.00  0.00     0.001 A 
ATOM     18  C18 ZIN A   1      19.369  -1.606  13.845  0.00  0.00     0.009 A 
ATOM     19  C19 ZIN A   1      18.691  -0.974  12.794  0.00  0.00    -0.032 A 
ATOM     20  C20 ZIN A   1      19.141  -1.420  11.428  0.00  0.00     0.124 C 
ATOM     21  C22 ZIN A   1      19.261  -2.950  11.494  0.00  0.00     0.259 C 
ENDROOT
TORSDOF 0
ENDMDL
MODEL 3
REMARK VINA RESULT:      -8.1      2.811      5.507
REMARK  0 active torsions:
REMARK  status: ('A' for Active; 'I' for Inactive)
ROOT
ATOM      1  C1  ZIN A   1      20.160  -3.980  11.100  0.00  0.00     0.269 C 
ATOM      2  N2  ZIN A   1      20.122  -2.539  11.384  0.00  0.00    -0.072 N 
ATOM      3  H3  ZIN A   1      21.062  -2.172  11.404  0.00  0.00     0.279 HD
ATOM      4  C4  ZIN A   1      19.342  -1.848  10.344  0.00  0.00     0.249 C 
ATOM      5  C5  ZIN A   1      19.411  -0.348  10.616  0.00  0.00     0.125 C 
ATOM      6  N6  ZIN A   1      18.858  -0.033  11.948  0.00  0.00    -0.255 NA
ATOM      7  C7  ZIN A   1      18.982   1.339  12.126  0.00  0.00     0.112 A 
ATOM      8  N8  ZIN A   1      19.834   2.000  11.344  0.00  0.00    -0.248 NA
ATOM      9  C9  ZIN A   1      20.029   3.297  11.475  0.00  0.00     0.118 A 
ATOM     10  C10 ZIN A   1      19.354   4.026  12.434  0.00  0.00     0.020 A 
ATOM     11  C11 ZIN A   1      18.446   3.374  13.261  0.00  0.00     0.012 A 
ATOM     12  C12 ZIN A   1      18.259   2.016  13.081  0.00  0.00    -0.013 A 
ATOM     13  C13 ZIN A   1      17.242   1.279  13.894  0.00  0.00     0.081 C 
ATOM     14  C14 ZIN A   1      17.857   0.220  14.760  0.00  0.00    -0.046 A 
ATOM     15  C15 ZIN A   1      17.395   0.204  16.079  0.00  0.00     0.008 A 
ATOM     16  C16 ZIN A   1      17.854  -0.721  16.988  0.00  0.00     0.001 A 
ATOM     17  C17 ZIN A   1      18.792  -1.654  16.586  0.00  0.00     0.001 A 
ATOM     18  C18 ZIN A   1      19.250  -1.635  15.291  0.00  0.00     0.009 A 
ATOM     19  C19 ZIN A   1      18.793  -0.691  14.363  0.00  0.00    -0.032 A 
ATOM     20  C20 ZIN A   1      19.442  -0.807  13.010  0.00  0.00     0.124 C 
ATOM     21  C22 ZIN A   1      19.471  -2.306  12.675  0.00  0.00     0.259 C 
ENDROOT
TORSDOF 0
ENDMDL
MODEL 4
REMARK VINA RESULT:      -8.0      2.289      6.626
REMARK  0 active torsions:
REMARK  status: ('A' for Active; 'I' for Inactive)
ROOT
ATOM      1  C1  ZIN A   1      18.436   4.321  11.987  0.00  0.00     0.269 C 
ATOM      2  N2  ZIN A   1      18.247   2.888  11.725  0.00  0.00    -0.072 N 
ATOM      3  H3  ZIN A   1      17.354   2.738  11.280  0.00  0.00     0.279 HD
ATOM      4  C4  ZIN A   1      19.326   2.395  10.854  0.00  0.00     0.249 C 
ATOM      5  C5  ZIN A   1      19.040   0.933  10.524  0.00  0.00     0.125 C 
ATOM      6  N6  ZIN A   1      18.982   0.121  11.755  0.00  0.00    -0.255 NA
ATOM      7  C7  ZIN A   1      18.693  -1.182  11.371  0.00  0.00     0.112 A 
ATOM      8  N8  ZIN A   1      18.182  -1.381  10.156  0.00  0.00    -0.248 NA
ATOM      9  C9  ZIN A   1      17.854  -2.586   9.734  0.00  0.00     0.118 A 
ATOM     10  C10 ZIN A   1      18.026  -3.695  10.537  0.00  0.00     0.020 A 
ATOM     11  C11 ZIN A   1      18.569  -3.530  11.806  0.00  0.00     0.012 A 
ATOM     12  C12 ZIN A   1      18.916  -2.252  12.207  0.00  0.00    -0.013 A 
ATOM     13  C13 ZIN A   1      19.571  -2.027  13.533  0.00  0.00     0.081 C 
ATOM     14  C14 ZIN A   1      18.741  -1.174  14.445  0.00  0.00    -0.046 A 
ATOM     15  C15 ZIN A   1      18.630  -1.655  15.753  0.00  0.00     0.008 A 
ATOM     16  C16 ZIN A   1      17.914  -0.973  16.710  0.00  0.00     0.001 A 
ATOM     17  C17 ZIN A   1      17.292   0.214  16.368  0.00  0.00     0.001 A 
ATOM     18  C18 ZIN A   1      17.396   0.684  15.081  0.00  0.00     0.009 A 
ATOM     19  C19 ZIN A   1      18.116  -0.011  14.101  0.00  0.00    -0.032 A 
ATOM     20  C20 ZIN A   1      18.080   0.643  12.745  0.00  0.00     0.124 C 
ATOM     21  C22 ZIN A   1      18.302   2.144  12.987  0.00  0.00     0.259 C 
ENDROOT
TORSDOF 0
ENDMDL
MODEL 5
REMARK VINA RESULT:      -7.9      2.522      6.094
REMARK  0 active torsions:
REMARK  status: ('A' for Active; 'I' for Inactive)
ROOT
ATOM      1  C1  ZIN A   1      17.578   5.599  15.179  0.00  0.00     0.269 C 
ATOM      2  N2  ZIN A   1      17.810   4.666  14.069  0.00  0.00    -0.072 N 
ATOM      3  H3  ZIN A   1      16.988   4.620  13.486  0.00  0.00     0.279 HD
ATOM      4  C4  ZIN A   1      18.960   5.120  13.270  0.00  0.00     0.249 C 
ATOM      5  C5  ZIN A   1      19.105   4.185  12.073  0.00  0.00     0.125 C 
ATOM      6  N6  ZIN A   1      19.324   2.795  12.518  0.00  0.00    -0.255 NA
ATOM      7  C7  ZIN A   1      19.419   2.011  11.376  0.00  0.00     0.112 A 
ATOM      8  N8  ZIN A   1      18.953   2.509  10.231  0.00  0.00    -0.248 NA
ATOM      9  C9  ZIN A   1      18.981   1.812   9.113  0.00  0.00     0.118 A 
ATOM     10  C10 ZIN A   1      19.494   0.531   9.083  0.00  0.00     0.020 A 
ATOM     11  C11 ZIN A   1      20.002  -0.019  10.255  0.00  0.00     0.012 A 
ATOM     12  C12 ZIN A   1      19.970   0.751  11.404  0.00  0.00    -0.013 A 
ATOM     13  C13 ZIN A   1      20.568   0.237  12.675  0.00  0.00     0.081 C 
ATOM     14  C14 ZIN A   1      19.552   0.082  13.767  0.00  0.00    -0.046 A 
ATOM     15  C15 ZIN A   1      19.625  -1.126  14.466  0.00  0.00     0.008 A 
ATOM     16  C16 ZIN A   1      18.769  -1.406  15.505  0.00  0.00     0.001 A 
ATOM     17  C17 ZIN A   1      17.817  -0.471  15.866  0.00  0.00     0.001 A 
ATOM     18  C18 ZIN A   1      17.740   0.715  15.176  0.00  0.00     0.009 A 
ATOM     19  C19 ZIN A   1      18.604   1.001  14.110  0.00  0.00    -0.032 A 
ATOM     20  C20 ZIN A   1      18.338   2.331  13.456  0.00  0.00     0.124 C 
ATOM     21  C22 ZIN A   1      18.117   3.335  14.598  0.00  0.00     0.259 C 
ENDROOT
TORSDOF 0
ENDMDL
MODEL 6
REMARK VINA RESULT:      -7.9      1.765      4.728
REMARK  0 active torsions:
REMARK  status: ('A' for Active; 'I' for Inactive)
ROOT
ATOM      1  C1  ZIN A   1      19.999   3.753  11.858  0.00  0.00     0.269 C 
ATOM      2  N2  ZIN A   1      20.040   2.312  11.574  0.00  0.00    -0.072 N 
ATOM      3  H3  ZIN A   1      20.997   1.992  11.576  0.00  0.00     0.279 HD
ATOM      4  C4  ZIN A   1      19.271   1.582  12.596  0.00  0.00     0.249 C 
ATOM      5  C5  ZIN A   1      19.422   0.088  12.326  0.00  0.00     0.125 C 
ATOM      6  N6  ZIN A   1      18.916  -0.254  10.982  0.00  0.00    -0.255 NA
ATOM      7  C7  ZIN A   1      19.113  -1.617  10.807  0.00  0.00     0.112 A 
ATOM      8  N8  ZIN A   1      19.979  -2.236  11.609  0.00  0.00    -0.248 NA
ATOM      9  C9  ZIN A   1      20.241  -3.522  11.483  0.00  0.00     0.118 A 
ATOM     10  C10 ZIN A   1      19.627  -4.283  10.509  0.00  0.00     0.020 A 
ATOM     11  C11 ZIN A   1      18.707  -3.676   9.661  0.00  0.00     0.012 A 
ATOM     12  C12 ZIN A   1      18.447  -2.329   9.836  0.00  0.00    -0.013 A 
ATOM     13  C13 ZIN A   1      17.413  -1.643   8.999  0.00  0.00     0.081 C 
ATOM     14  C14 ZIN A   1      17.995  -0.554   8.148  0.00  0.00    -0.046 A 
ATOM     15  C15 ZIN A   1      17.564  -0.560   6.818  0.00  0.00     0.008 A 
ATOM     16  C16 ZIN A   1      17.997   0.387   5.920  0.00  0.00     0.001 A 
ATOM     17  C17 ZIN A   1      18.877   1.365   6.343  0.00  0.00     0.001 A 
ATOM     18  C18 ZIN A   1      19.306   1.369   7.648  0.00  0.00     0.009 A 
ATOM     19  C19 ZIN A   1      18.875   0.402   8.565  0.00  0.00    -0.032 A 
ATOM     20  C20 ZIN A   1      19.485   0.549   9.934  0.00  0.00     0.124 C 
ATOM     21  C22 ZIN A   1      19.431   2.048  10.268  0.00  0.00     0.259 C 
ENDROOT
TORSDOF 0
ENDMDL
MODEL 7
REMARK VINA RESULT:      -7.9      2.254      3.398
REMARK  0 active torsions:
REMARK  status: ('A' for Active; 'I' for Inactive)
ROOT
ATOM      1  C1  ZIN A   1      17.715  -0.279  16.780  0.00  0.00     0.269 C 
ATOM      2  N2  ZIN A   1      17.541   0.605  15.619  0.00  0.00    -0.072 N 
ATOM      3  H3  ZIN A   1      16.590   0.943  15.589  0.00  0.00     0.279 HD
ATOM      4  C4  ZIN A   1      18.470   1.742  15.716  0.00  0.00     0.249 C 
ATOM      5  C5  ZIN A   1      18.188   2.686  14.551  0.00  0.00     0.125 C 
ATOM      6  N6  ZIN A   1      18.379   1.995  13.261  0.00  0.00    -0.255 NA
ATOM      7  C7  ZIN A   1      18.080   2.909  12.260  0.00  0.00     0.112 A 
ATOM      8  N8  ZIN A   1      17.372   3.990  12.586  0.00  0.00    -0.248 NA
ATOM      9  C9  ZIN A   1      17.023   4.886  11.685  0.00  0.00     0.118 A 
ATOM     10  C10 ZIN A   1      17.377   4.739  10.358  0.00  0.00     0.020 A 
ATOM     11  C11 ZIN A   1      18.127   3.631   9.980  0.00  0.00     0.012 A 
ATOM     12  C12 ZIN A   1      18.487   2.722  10.959  0.00  0.00    -0.013 A 
ATOM     13  C13 ZIN A   1      19.355   1.551  10.621  0.00  0.00     0.081 C 
ATOM     14  C14 ZIN A   1      18.663   0.240  10.850  0.00  0.00    -0.046 A 
ATOM     15  C15 ZIN A   1      18.802  -0.684   9.810  0.00  0.00     0.008 A 
ATOM     16  C16 ZIN A   1      18.238  -1.936   9.882  0.00  0.00     0.001 A 
ATOM     17  C17 ZIN A   1      17.520  -2.288  11.009  0.00  0.00     0.001 A 
ATOM     18  C18 ZIN A   1      17.378  -1.379  12.030  0.00  0.00     0.009 A 
ATOM     19  C19 ZIN A   1      17.942  -0.099  11.958  0.00  0.00    -0.032 A 
ATOM     20  C20 ZIN A   1      17.644   0.763  13.155  0.00  0.00     0.124 C 
ATOM     21  C22 ZIN A   1      17.844  -0.130  14.389  0.00  0.00     0.259 C 
ENDROOT
TORSDOF 0
ENDMDL
MODEL 8
REMARK VINA RESULT:      -7.9      3.639      6.340
REMARK  0 active torsions:
REMARK  status: ('A' for Active; 'I' for Inactive)
ROOT
ATOM      1  C1  ZIN A   1      19.273   4.696  11.936  0.00  0.00     0.269 C 
ATOM      2  N2  ZIN A   1      19.385   3.763  13.065  0.00  0.00    -0.072 N 
ATOM      3  H3  ZIN A   1      20.267   3.902  13.535  0.00  0.00     0.279 HD
ATOM      4  C4  ZIN A   1      18.278   3.990  14.009  0.00  0.00     0.249 C 
ATOM      5  C5  ZIN A   1      18.486   3.076  15.213  0.00  0.00     0.125 C 
ATOM      6  N6  ZIN A   1      18.505   1.660  14.798  0.00  0.00    -0.255 NA
ATOM      7  C7  ZIN A   1      18.724   0.902  15.941  0.00  0.00     0.112 A 
ATOM      8  N8  ZIN A   1      19.219   1.514  17.016  0.00  0.00    -0.248 NA
ATOM      9  C9  ZIN A   1      19.482   0.855  18.127  0.00  0.00     0.118 A 
ATOM     10  C10 ZIN A   1      19.255  -0.503  18.221  0.00  0.00     0.020 A 
ATOM     11  C11 ZIN A   1      18.725  -1.175  17.125  0.00  0.00     0.012 A 
ATOM     12  C12 ZIN A   1      18.448  -0.445  15.983  0.00  0.00    -0.013 A 
ATOM     13  C13 ZIN A   1      17.811  -1.104  14.801  0.00  0.00     0.081 C 
ATOM     14  C14 ZIN A   1      18.688  -1.073  13.585  0.00  0.00    -0.046 A 
ATOM     15  C15 ZIN A   1      18.778  -2.287  12.899  0.00  0.00     0.008 A 
ATOM     16  C16 ZIN A   1      19.532  -2.411  11.755  0.00  0.00     0.001 A 
ATOM     17  C17 ZIN A   1      20.215  -1.309  11.275  0.00  0.00     0.001 A 
ATOM     18  C18 ZIN A   1      20.131  -0.116  11.951  0.00  0.00     0.009 A 
ATOM     19  C19 ZIN A   1      19.372   0.013  13.121  0.00  0.00    -0.032 A 
ATOM     20  C20 ZIN A   1      19.438   1.385  13.738  0.00  0.00     0.124 C 
ATOM     21  C22 ZIN A   1      19.296   2.384  12.579  0.00  0.00     0.259 C 
ENDROOT
TORSDOF 0
ENDMDL
MODEL 9
REMARK VINA RESULT:      -7.8      3.356      5.550
REMARK  0 active torsions:
REMARK  status: ('A' for Active; 'I' for Inactive)
ROOT
ATOM      1  C1  ZIN A   1      18.530   3.317  18.383  0.00  0.00     0.269 C 
ATOM      2  N2  ZIN A   1      18.238   3.461  16.950  0.00  0.00    -0.072 N 
ATOM      3  H3  ZIN A   1      17.252   3.635  16.820  0.00  0.00     0.279 HD
ATOM      4  C4  ZIN A   1      19.017   4.580  16.394  0.00  0.00     0.249 C 
ATOM      5  C5  ZIN A   1      18.611   4.761  14.934  0.00  0.00     0.125 C 
ATOM      6  N6  ZIN A   1      18.878   3.533  14.160  0.00  0.00    -0.255 NA
ATOM      7  C7  ZIN A   1      18.459   3.772  12.858  0.00  0.00     0.112 A 
ATOM      8  N8  ZIN A   1      17.623   4.788  12.643  0.00  0.00    -0.248 NA
ATOM      9  C9  ZIN A   1      17.158   5.056  11.439  0.00  0.00     0.118 A 
ATOM     10  C10 ZIN A   1      17.519   4.291  10.348  0.00  0.00     0.020 A 
ATOM     11  C11 ZIN A   1      18.399   3.231  10.530  0.00  0.00     0.012 A 
ATOM     12  C12 ZIN A   1      18.878   2.992  11.805  0.00  0.00    -0.013 A 
ATOM     13  C13 ZIN A   1      19.883   1.910  12.045  0.00  0.00     0.081 C 
ATOM     14  C14 ZIN A   1      19.364   0.835  12.953  0.00  0.00    -0.046 A 
ATOM     15  C15 ZIN A   1      19.611  -0.469  12.515  0.00  0.00     0.008 A 
ATOM     16  C16 ZIN A   1      19.210  -1.560  13.249  0.00  0.00     0.001 A 
ATOM     17  C17 ZIN A   1      18.549  -1.361  14.447  0.00  0.00     0.001 A 
ATOM     18  C18 ZIN A   1      18.301  -0.080  14.876  0.00  0.00     0.009 A 
ATOM     19  C19 ZIN A   1      18.699   1.035  14.128  0.00  0.00    -0.032 A 
ATOM     20  C20 ZIN A   1      18.303   2.351  14.743  0.00  0.00     0.124 C 
ATOM     21  C22 ZIN A   1      18.623   2.238  16.242  0.00  0.00     0.259 C 
ENDROOT
TORSDOF 0
ENDMDL
