MODEL 1
REMARK VINA RESULT:      -5.4      0.000      0.000
REMARK  11 active torsions:
REMARK  status: ('A' for Active; 'I' for Inactive)
REMARK    1  A    between atoms: C2_2  and  C4_4 
REMARK    2  A    between atoms: C4_4  and  N5_5 
REMARK    3  A    between atoms: N5_5  and  C6_6 
REMARK    4  A    between atoms: N5_5  and  C18_18 
REMARK    5  A    between atoms: C6_6  and  C7_7 
REMARK    6  A    between atoms: C7_7  and  N8_8 
REMARK    7  A    between atoms: N8_8  and  C10_10 
REMARK    8  A    between atoms: N8_8  and  C14_14 
REMARK    9  A    between atoms: C10_10  and  C11_11 
REMARK   10  A    between atoms: C14_14  and  C15_15 
REMARK   11  A    between atoms: C18_18  and  C19_19 
ROOT
ATOM      1  C7  ZIN A   1      18.023   1.905  14.535  0.00  0.00     0.266 C 
ENDROOT
BRANCH   1   2
ATOM      2  C6  ZIN A   1      19.048   1.913  13.398  0.00  0.00     0.301 C 
BRANCH   2   3
ATOM      3  N5  ZIN A   1      18.362   1.689  12.120  0.00  0.00     0.110 N 
BRANCH   3   4
ATOM      4  C4  ZIN A   1      18.460   0.282  11.708  0.00  0.00     0.385 C 
BRANCH   4   5
ATOM      5  C2  ZIN A   1      17.104  -0.367  11.813  0.00  0.00     0.202 C 
ATOM      6  O1  ZIN A   1      17.011  -1.531  12.161  0.00  0.00    -0.647 OA
ATOM      7  O3  ZIN A   1      16.099   0.274  11.554  0.00  0.00    -0.647 OA
ENDBRANCH   4   5
ENDBRANCH   3   4
BRANCH   3   8
ATOM      8  C18 ZIN A   1      18.888   2.581  11.077  0.00  0.00     0.385 C 
BRANCH   8   9
ATOM      9  C19 ZIN A   1      17.819   3.563  10.670  0.00  0.00     0.202 C 
ATOM     10  O20 ZIN A   1      16.788   3.644  11.316  0.00  0.00    -0.647 OA
ATOM     11  O21 ZIN A   1      17.987   4.277   9.697  0.00  0.00    -0.647 OA
ENDBRANCH   8   9
ENDBRANCH   3   8
ENDBRANCH   2   3
ENDBRANCH   1   2
BRANCH   1  12
ATOM     12  N8  ZIN A   1      18.519   1.066  15.635  0.00  0.00    -0.050 N 
ATOM     13  H9  ZIN A   1      19.526   1.021  15.596  0.00  0.00     0.281 HD
BRANCH  12  14
ATOM     14  C10 ZIN A   1      18.104   1.647  16.919  0.00  0.00     0.348 C 
BRANCH  14  15
ATOM     15  C11 ZIN A   1      19.321   1.908  17.769  0.00  0.00     0.199 C 
ATOM     16  O12 ZIN A   1      19.842   0.993  18.384  0.00  0.00    -0.647 OA
ATOM     17  O13 ZIN A   1      19.784   3.033  17.842  0.00  0.00    -0.647 OA
ENDBRANCH  14  15
ENDBRANCH  12  14
BRANCH  12  18
ATOM     18  C14 ZIN A   1      17.964  -0.288  15.507  0.00  0.00     0.348 C 
BRANCH  18  19
ATOM     19  C15 ZIN A   1      19.081  -1.296  15.560  0.00  0.00     0.199 C 
ATOM     20  O16 ZIN A   1      19.691  -1.585  14.544  0.00  0.00    -0.647 OA
ATOM     21  O17 ZIN A   1      19.377  -1.824  16.619  0.00  0.00    -0.647 OA
ENDBRANCH  18  19
ENDBRANCH  12  18
ENDBRANCH   1  12
TORSDOF 11
ENDMDL
MODEL 2
REMARK VINA RESULT:      -5.4      4.462      7.385
REMARK  11 active torsions:
REMARK  status: ('A' for Active; 'I' for Inactive)
REMARK    1  A    between atoms: C2_2  and  C4_4 
REMARK    2  A    between atoms: C4_4  and  N5_5 
REMARK    3  A    between atoms: N5_5  and  C6_6 
REMARK    4  A    between atoms: N5_5  and  C18_18 
REMARK    5  A    between atoms: C6_6  and  C7_7 
REMARK    6  A    between atoms: C7_7  and  N8_8 
REMARK    7  A    between atoms: N8_8  and  C10_10 
REMARK    8  A    between atoms: N8_8  and  C14_14 
REMARK    9  A    between atoms: C10_10  and  C11_11 
REMARK   10  A    between atoms: C14_14  and  C15_15 
REMARK   11  A    between atoms: C18_18  and  C19_19 
ROOT
ATOM      1  C7  ZIN A   1      18.106   0.374   8.365  0.00  0.00     0.266 C 
ENDROOT
BRANCH   1   2
ATOM      2  C6  ZIN A   1      19.172  -0.721   8.452  0.00  0.00     0.301 C 
BRANCH   2   3
ATOM      3  N5  ZIN A   1      19.112  -1.559   7.249  0.00  0.00     0.110 N 
BRANCH   3   4
ATOM      4  C4  ZIN A   1      18.357  -0.893   6.179  0.00  0.00     0.385 C 
BRANCH   4   5
ATOM      5  C2  ZIN A   1      19.279  -0.593   5.026  0.00  0.00     0.202 C 
ATOM      6  O1  ZIN A   1      19.511   0.563   4.716  0.00  0.00    -0.647 OA
ATOM      7  O3  ZIN A   1      19.795  -1.506   4.404  0.00  0.00    -0.647 OA
ENDBRANCH   4   5
ENDBRANCH   3   4
BRANCH   3   8
ATOM      8  C18 ZIN A   1      18.542  -2.877   7.554  0.00  0.00     0.385 C 
BRANCH   8   9
ATOM      9  C19 ZIN A   1      19.617  -3.928   7.443  0.00  0.00     0.202 C 
ATOM     10  O20 ZIN A   1      20.393  -3.909   6.503  0.00  0.00    -0.647 OA
ATOM     11  O21 ZIN A   1      19.711  -4.796   8.294  0.00  0.00    -0.647 OA
ENDBRANCH   8   9
ENDBRANCH   3   8
ENDBRANCH   2   3
ENDBRANCH   1   2
BRANCH   1  12
ATOM     12  N8  ZIN A   1      17.891   0.955   9.697  0.00  0.00    -0.050 N 
ATOM     13  H9  ZIN A   1      16.918   1.198   9.805  0.00  0.00     0.281 HD
BRANCH  12  14
ATOM     14  C10 ZIN A   1      18.269  -0.024  10.725  0.00  0.00     0.348 C 
BRANCH  14  15
ATOM     15  C11 ZIN A   1      17.025  -0.582  11.369  0.00  0.00     0.199 C 
ATOM     16  O12 ZIN A   1      16.027   0.111  11.469  0.00  0.00    -0.647 OA
ATOM     17  O13 ZIN A   1      17.016  -1.727  11.788  0.00  0.00    -0.647 OA
ENDBRANCH  14  15
ENDBRANCH  12  14
BRANCH  12  18
ATOM     18  C14 ZIN A   1      18.715   2.163   9.844  0.00  0.00     0.348 C 
BRANCH  18  19
ATOM     19  C15 ZIN A   1      17.858   3.298  10.340  0.00  0.00     0.199 C 
ATOM     20  O16 ZIN A   1      17.133   3.138  11.307  0.00  0.00    -0.647 OA
ATOM     21  O17 ZIN A   1      17.890   4.379   9.774  0.00  0.00    -0.647 OA
ENDBRANCH  18  19
ENDBRANCH  12  18
ENDBRANCH   1  12
TORSDOF 11
ENDMDL
MODEL 3
REMARK VINA RESULT:      -5.3      4.545      8.153
REMARK  11 active torsions:
REMARK  status: ('A' for Active; 'I' for Inactive)
REMARK    1  A    between atoms: C2_2  and  C4_4 
REMARK    2  A    between atoms: C4_4  and  N5_5 
REMARK    3  A    between atoms: N5_5  and  C6_6 
REMARK    4  A    between atoms: N5_5  and  C18_18 
REMARK    5  A    between atoms: C6_6  and  C7_7 
REMARK    6  A    between atoms: C7_7  and  N8_8 
REMARK    7  A    between atoms: N8_8  and  C10_10 
REMARK    8  A    between atoms: N8_8  and  C14_14 
REMARK    9  A    between atoms: C10_10  and  C11_11 
REMARK   10  A    between atoms: C14_14  and  C15_15 
REMARK   11  A    between atoms: C18_18  and  C19_19 
ROOT
ATOM      1  C7  ZIN A   1      18.958  -0.991   8.527  0.00  0.00     0.266 C 
ENDROOT
BRANCH   1   2
ATOM      2  C6  ZIN A   1      17.979   0.171   8.343  0.00  0.00     0.301 C 
BRANCH   2   3
ATOM      3  N5  ZIN A   1      17.846   0.903   9.609  0.00  0.00     0.110 N 
BRANCH   3   4
ATOM      4  C4  ZIN A   1      18.624   2.149   9.582  0.00  0.00     0.385 C 
BRANCH   4   5
ATOM      5  C2  ZIN A   1      18.195   3.032  10.726  0.00  0.00     0.202 C 
ATOM      6  O1  ZIN A   1      17.018   3.316  10.869  0.00  0.00    -0.647 OA
ATOM      7  O3  ZIN A   1      19.026   3.462  11.509  0.00  0.00    -0.647 OA
ENDBRANCH   4   5
ENDBRANCH   3   4
BRANCH   3   8
ATOM      8  C18 ZIN A   1      18.238   0.061  10.747  0.00  0.00     0.385 C 
BRANCH   8   9
ATOM      9  C19 ZIN A   1      17.002  -0.468  11.429  0.00  0.00     0.202 C 
ATOM     10  O20 ZIN A   1      15.994   0.215  11.479  0.00  0.00    -0.647 OA
ATOM     11  O21 ZIN A   1      17.012  -1.580  11.929  0.00  0.00    -0.647 OA
ENDBRANCH   8   9
ENDBRANCH   3   8
ENDBRANCH   2   3
ENDBRANCH   1   2
BRANCH   1  12
ATOM     12  N8  ZIN A   1      19.059  -1.749   7.272  0.00  0.00    -0.050 N 
ATOM     13  H9  ZIN A   1      20.027  -1.819   6.998  0.00  0.00     0.281 HD
BRANCH  12  14
ATOM     14  C10 ZIN A   1      18.508  -3.097   7.469  0.00  0.00     0.348 C 
BRANCH  14  15
ATOM     15  C11 ZIN A   1      19.597  -4.119   7.267  0.00  0.00     0.199 C 
ATOM     16  O12 ZIN A   1      19.549  -5.186   7.854  0.00  0.00    -0.647 OA
ATOM     17  O13 ZIN A   1      20.526  -3.880   6.515  0.00  0.00    -0.647 OA
ENDBRANCH  14  15
ENDBRANCH  12  14
BRANCH  12  18
ATOM     18  C14 ZIN A   1      18.301  -1.058   6.221  0.00  0.00     0.348 C 
BRANCH  18  19
ATOM     19  C15 ZIN A   1      19.237  -0.647   5.114  0.00  0.00     0.199 C 
ATOM     20  O16 ZIN A   1      19.826  -1.496   4.467  0.00  0.00    -0.647 OA
ATOM     21  O17 ZIN A   1      19.406   0.535   4.866  0.00  0.00    -0.647 OA
ENDBRANCH  18  19
ENDBRANCH  12  18
ENDBRANCH   1  12
TORSDOF 11
ENDMDL
MODEL 4
REMARK VINA RESULT:      -5.1      4.283      7.842
REMARK  11 active torsions:
REMARK  status: ('A' for Active; 'I' for Inactive)
REMARK    1  A    between atoms: C2_2  and  C4_4 
REMARK    2  A    between atoms: C4_4  and  N5_5 
REMARK    3  A    between atoms: N5_5  and  C6_6 
REMARK    4  A    between atoms: N5_5  and  C18_18 
REMARK    5  A    between atoms: C6_6  and  C7_7 
REMARK    6  A    between atoms: C7_7  and  N8_8 
REMARK    7  A    between atoms: N8_8  and  C10_10 
REMARK    8  A    between atoms: N8_8  and  C14_14 
REMARK    9  A    between atoms: C10_10  and  C11_11 
REMARK   10  A    between atoms: C14_14  and  C15_15 
REMARK   11  A    between atoms: C18_18  and  C19_19 
ROOT
ATOM      1  C7  ZIN A   1      17.843  -1.713   8.678  0.00  0.00     0.266 C 
ENDROOT
BRANCH   1   2
ATOM      2  C6  ZIN A   1      18.754  -1.887   9.896  0.00  0.00     0.301 C 
BRANCH   2   3
ATOM      3  N5  ZIN A   1      17.986  -1.630  11.121  0.00  0.00     0.110 N 
BRANCH   3   4
ATOM      4  C4  ZIN A   1      18.255  -0.282  11.640  0.00  0.00     0.385 C 
BRANCH   4   5
ATOM      5  C2  ZIN A   1      17.020   0.568  11.490  0.00  0.00     0.202 C 
ATOM      6  O1  ZIN A   1      15.915   0.060  11.575  0.00  0.00    -0.647 OA
ATOM      7  O3  ZIN A   1      17.126   1.767  11.286  0.00  0.00    -0.647 OA
ENDBRANCH   4   5
ENDBRANCH   3   4
BRANCH   3   8
ATOM      8  C18 ZIN A   1      18.264  -2.652  12.139  0.00  0.00     0.385 C 
BRANCH   8   9
ATOM      9  C19 ZIN A   1      17.748  -3.987  11.666  0.00  0.00     0.202 C 
ATOM     10  O20 ZIN A   1      18.519  -4.920  11.518  0.00  0.00    -0.647 OA
ATOM     11  O21 ZIN A   1      16.561  -4.133  11.431  0.00  0.00    -0.647 OA
ENDBRANCH   8   9
ENDBRANCH   3   8
ENDBRANCH   2   3
ENDBRANCH   1   2
BRANCH   1  12
ATOM     12  N8  ZIN A   1      18.575  -1.008   7.617  0.00  0.00    -0.050 N 
ATOM     13  H9  ZIN A   1      17.924  -0.492   7.044  0.00  0.00     0.281 HD
BRANCH  12  14
ATOM     14  C10 ZIN A   1      19.539  -0.078   8.222  0.00  0.00     0.348 C 
BRANCH  14  15
ATOM     15  C11 ZIN A   1      19.178   1.336   7.843  0.00  0.00     0.199 C 
ATOM     16  O12 ZIN A   1      18.908   1.607   6.685  0.00  0.00    -0.647 OA
ATOM     17  O13 ZIN A   1      19.156   2.208   8.693  0.00  0.00    -0.647 OA
ENDBRANCH  14  15
ENDBRANCH  12  14
BRANCH  12  18
ATOM     18  C14 ZIN A   1      19.291  -1.984   6.785  0.00  0.00     0.348 C 
BRANCH  18  19
ATOM     19  C15 ZIN A   1      19.076  -1.658   5.330  0.00  0.00     0.199 C 
ATOM     20  O16 ZIN A   1      19.910  -1.011   4.720  0.00  0.00    -0.647 OA
ATOM     21  O17 ZIN A   1      18.067  -2.041   4.762  0.00  0.00    -0.647 OA
ENDBRANCH  18  19
ENDBRANCH  12  18
ENDBRANCH   1  12
TORSDOF 11
ENDMDL
MODEL 5
REMARK VINA RESULT:      -5.1      4.772      7.121
REMARK  11 active torsions:
REMARK  status: ('A' for Active; 'I' for Inactive)
REMARK    1  A    between atoms: C2_2  and  C4_4 
REMARK    2  A    between atoms: C4_4  and  N5_5 
REMARK    3  A    between atoms: N5_5  and  C6_6 
REMARK    4  A    between atoms: N5_5  and  C18_18 
REMARK    5  A    between atoms: C6_6  and  C7_7 
REMARK    6  A    between atoms: C7_7  and  N8_8 
REMARK    7  A    between atoms: N8_8  and  C10_10 
REMARK    8  A    between atoms: N8_8  and  C14_14 
REMARK    9  A    between atoms: C10_10  and  C11_11 
REMARK   10  A    between atoms: C14_14  and  C15_15 
REMARK   11  A    between atoms: C18_18  and  C19_19 
ROOT
ATOM      1  C7  ZIN A   1      18.056  -1.061   9.349  0.00  0.00     0.266 C 
ENDROOT
BRANCH   1   2
ATOM      2  C6  ZIN A   1      19.396  -0.892   8.629  0.00  0.00     0.301 C 
BRANCH   2   3
ATOM      3  N5  ZIN A   1      19.279  -1.395   7.255  0.00  0.00     0.110 N 
BRANCH   3   4
ATOM      4  C4  ZIN A   1      18.640  -0.401   6.382  0.00  0.00     0.385 C 
BRANCH   4   5
ATOM      5  C2  ZIN A   1      18.884  -0.768   4.941  0.00  0.00     0.202 C 
ATOM      6  O1  ZIN A   1      20.021  -0.959   4.544  0.00  0.00    -0.647 OA
ATOM      7  O3  ZIN A   1      17.943  -0.878   4.172  0.00  0.00    -0.647 OA
ENDBRANCH   4   5
ENDBRANCH   3   4
BRANCH   3   8
ATOM      8  C18 ZIN A   1      18.552  -2.670   7.222  0.00  0.00     0.385 C 
BRANCH   8   9
ATOM      9  C19 ZIN A   1      19.537  -3.811   7.249  0.00  0.00     0.202 C 
ATOM     10  O20 ZIN A   1      19.395  -4.720   8.049  0.00  0.00    -0.647 OA
ATOM     11  O21 ZIN A   1      20.475  -3.825   6.470  0.00  0.00    -0.647 OA
ENDBRANCH   8   9
ENDBRANCH   3   8
ENDBRANCH   2   3
ENDBRANCH   1   2
BRANCH   1  12
ATOM     12  N8  ZIN A   1      18.297  -1.398  10.759  0.00  0.00    -0.050 N 
ATOM     13  H9  ZIN A   1      17.523  -1.939  11.113  0.00  0.00     0.281 HD
BRANCH  12  14
ATOM     14  C10 ZIN A   1      19.534  -2.183  10.870  0.00  0.00     0.348 C 
BRANCH  14  15
ATOM     15  C11 ZIN A   1      19.218  -3.540  11.446  0.00  0.00     0.199 C 
ATOM     16  O12 ZIN A   1      18.098  -3.778  11.865  0.00  0.00    -0.647 OA
ATOM     17  O13 ZIN A   1      20.082  -4.398  11.494  0.00  0.00    -0.647 OA
ENDBRANCH  14  15
ENDBRANCH  12  14
BRANCH  12  18
ATOM     18  C14 ZIN A   1      18.429  -0.162  11.542  0.00  0.00     0.348 C 
BRANCH  18  19
ATOM     19  C15 ZIN A   1      17.121   0.584  11.526  0.00  0.00     0.199 C 
ATOM     20  O16 ZIN A   1      16.078  -0.007  11.748  0.00  0.00    -0.647 OA
ATOM     21  O17 ZIN A   1      17.104   1.781  11.292  0.00  0.00    -0.647 OA
ENDBRANCH  18  19
ENDBRANCH  12  18
ENDBRANCH   1  12
TORSDOF 11
ENDMDL
MODEL 6
REMARK VINA RESULT:      -5.1      4.727      8.451
REMARK  11 active torsions:
REMARK  status: ('A' for Active; 'I' for Inactive)
REMARK    1  A    between atoms: C2_2  and  C4_4 
REMARK    2  A    between atoms: C4_4  and  N5_5 
REMARK    3  A    between atoms: N5_5  and  C6_6 
REMARK    4  A    between atoms: N5_5  and  C18_18 
REMARK    5  A    between atoms: C6_6  and  C7_7 
REMARK    6  A    between atoms: C7_7  and  N8_8 
REMARK    7  A    between atoms: N8_8  and  C10_10 
REMARK    8  A    between atoms: N8_8  and  C14_14 
REMARK    9  A    between atoms: C10_10  and  C11_11 
REMARK   10  A    between atoms: C14_14  and  C15_15 
REMARK   11  A    between atoms: C18_18  and  C19_19 
ROOT
ATOM      1  C7  ZIN A   1      18.592  -0.669   8.408  0.00  0.00     0.266 C 
ENDROOT
BRANCH   1   2
ATOM      2  C6  ZIN A   1      19.496  -0.908   9.619  0.00  0.00     0.301 C 
BRANCH   2   3
ATOM      3  N5  ZIN A   1      18.668  -1.165  10.804  0.00  0.00     0.110 N 
BRANCH   3   4
ATOM      4  C4  ZIN A   1      18.558   0.036  11.642  0.00  0.00     0.385 C 
BRANCH   4   5
ATOM      5  C2  ZIN A   1      17.206   0.669  11.437  0.00  0.00     0.202 C 
ATOM      6  O1  ZIN A   1      16.193   0.029  11.659  0.00  0.00    -0.647 OA
ATOM      7  O3  ZIN A   1      17.125   1.824  11.051  0.00  0.00    -0.647 OA
ENDBRANCH   4   5
ENDBRANCH   3   4
BRANCH   3   8
ATOM      8  C18 ZIN A   1      19.193  -2.299  11.576  0.00  0.00     0.385 C 
BRANCH   8   9
ATOM      9  C19 ZIN A   1      18.225  -3.452  11.496  0.00  0.00     0.202 C 
ATOM     10  O20 ZIN A   1      17.025  -3.238  11.446  0.00  0.00    -0.647 OA
ATOM     11  O21 ZIN A   1      18.641  -4.598  11.481  0.00  0.00    -0.647 OA
ENDBRANCH   8   9
ENDBRANCH   3   8
ENDBRANCH   2   3
ENDBRANCH   1   2
BRANCH   1  12
ATOM     12  N8  ZIN A   1      18.971  -1.589   7.326  0.00  0.00    -0.050 N 
ATOM     13  H9  ZIN A   1      19.967  -1.541   7.177  0.00  0.00     0.281 HD
BRANCH  12  14
ATOM     14  C10 ZIN A   1      18.596  -2.961   7.696  0.00  0.00     0.348 C 
BRANCH  14  15
ATOM     15  C11 ZIN A   1      19.316  -3.937   6.801  0.00  0.00     0.199 C 
ATOM     16  O12 ZIN A   1      20.495  -3.770   6.541  0.00  0.00    -0.647 OA
ATOM     17  O13 ZIN A   1      18.719  -4.893   6.337  0.00  0.00    -0.647 OA
ENDBRANCH  14  15
ENDBRANCH  12  14
BRANCH  12  18
ATOM     18  C14 ZIN A   1      18.272  -1.206   6.091  0.00  0.00     0.348 C 
BRANCH  18  19
ATOM     19  C15 ZIN A   1      19.262  -0.631   5.113  0.00  0.00     0.199 C 
ATOM     20  O16 ZIN A   1      19.868  -1.367   4.353  0.00  0.00    -0.647 OA
ATOM     21  O17 ZIN A   1      19.456   0.574   5.079  0.00  0.00    -0.647 OA
ENDBRANCH  18  19
ENDBRANCH  12  18
ENDBRANCH   1  12
TORSDOF 11
ENDMDL
MODEL 7
REMARK VINA RESULT:      -5.1      2.513      4.282
REMARK  11 active torsions:
REMARK  status: ('A' for Active; 'I' for Inactive)
REMARK    1  A    between atoms: C2_2  and  C4_4 
REMARK    2  A    between atoms: C4_4  and  N5_5 
REMARK    3  A    between atoms: N5_5  and  C6_6 
REMARK    4  A    between atoms: N5_5  and  C18_18 
REMARK    5  A    between atoms: C6_6  and  C7_7 
REMARK    6  A    between atoms: C7_7  and  N8_8 
REMARK    7  A    between atoms: N8_8  and  C10_10 
REMARK    8  A    between atoms: N8_8  and  C14_14 
REMARK    9  A    between atoms: C10_10  and  C11_11 
REMARK   10  A    between atoms: C14_14  and  C15_15 
REMARK   11  A    between atoms: C18_18  and  C19_19 
ROOT
ATOM      1  C7  ZIN A   1      20.631   0.369  11.636  0.00  0.00     0.266 C 
ENDROOT
BRANCH   1   2
ATOM      2  C6  ZIN A   1      20.463  -1.047  11.081  0.00  0.00     0.301 C 
BRANCH   2   3
ATOM      3  N5  ZIN A   1      19.272  -1.099  10.225  0.00  0.00     0.110 N 
BRANCH   3   4
ATOM      4  C4  ZIN A   1      18.703  -2.453  10.194  0.00  0.00     0.385 C 
BRANCH   4   5
ATOM      5  C2  ZIN A   1      17.858  -2.669  11.424  0.00  0.00     0.202 C 
ATOM      6  O1  ZIN A   1      16.951  -1.898  11.684  0.00  0.00    -0.647 OA
ATOM      7  O3  ZIN A   1      18.081  -3.619  12.157  0.00  0.00    -0.647 OA
ENDBRANCH   4   5
ENDBRANCH   3   4
BRANCH   3   8
ATOM      8  C18 ZIN A   1      19.579  -0.626   8.869  0.00  0.00     0.385 C 
BRANCH   8   9
ATOM      9  C19 ZIN A   1      18.684   0.539   8.528  0.00  0.00     0.202 C 
ATOM     10  O20 ZIN A   1      17.486   0.365   8.386  0.00  0.00    -0.647 OA
ATOM     11  O21 ZIN A   1      19.159   1.654   8.396  0.00  0.00    -0.647 OA
ENDBRANCH   8   9
ENDBRANCH   3   8
ENDBRANCH   2   3
ENDBRANCH   1   2
BRANCH   1  12
ATOM     12  N8  ZIN A   1      19.422   0.751  12.380  0.00  0.00    -0.050 N 
ATOM     13  H9  ZIN A   1      18.664   0.135  12.127  0.00  0.00     0.281 HD
BRANCH  12  14
ATOM     14  C10 ZIN A   1      19.680   0.642  13.822  0.00  0.00     0.348 C 
BRANCH  14  15
ATOM     15  C11 ZIN A   1      18.967  -0.567  14.370  0.00  0.00     0.199 C 
ATOM     16  O12 ZIN A   1      17.770  -0.519  14.597  0.00  0.00    -0.647 OA
ATOM     17  O13 ZIN A   1      19.587  -1.594  14.587  0.00  0.00    -0.647 OA
ENDBRANCH  14  15
ENDBRANCH  12  14
BRANCH  12  18
ATOM     18  C14 ZIN A   1      19.060   2.135  12.049  0.00  0.00     0.348 C 
BRANCH  18  19
ATOM     19  C15 ZIN A   1      17.631   2.181  11.574  0.00  0.00     0.199 C 
ATOM     20  O16 ZIN A   1      17.185   3.202  11.080  0.00  0.00    -0.647 OA
ATOM     21  O17 ZIN A   1      16.920   1.196  11.684  0.00  0.00    -0.647 OA
ENDBRANCH  18  19
ENDBRANCH  12  18
ENDBRANCH   1  12
TORSDOF 11
ENDMDL
MODEL 8
REMARK VINA RESULT:      -5.1      1.162      2.868
REMARK  11 active torsions:
REMARK  status: ('A' for Active; 'I' for Inactive)
REMARK    1  A    between atoms: C2_2  and  C4_4 
REMARK    2  A    between atoms: C4_4  and  N5_5 
REMARK    3  A    between atoms: N5_5  and  C6_6 
REMARK    4  A    between atoms: N5_5  and  C18_18 
REMARK    5  A    between atoms: C6_6  and  C7_7 
REMARK    6  A    between atoms: C7_7  and  N8_8 
REMARK    7  A    between atoms: N8_8  and  C10_10 
REMARK    8  A    between atoms: N8_8  and  C14_14 
REMARK    9  A    between atoms: C10_10  and  C11_11 
REMARK   10  A    between atoms: C14_14  and  C15_15 
REMARK   11  A    between atoms: C18_18  and  C19_19 
ROOT
ATOM      1  C7  ZIN A   1      17.845   2.118  14.495  0.00  0.00     0.266 C 
ENDROOT
BRANCH   1   2
ATOM      2  C6  ZIN A   1      18.938   1.688  13.513  0.00  0.00     0.301 C 
BRANCH   2   3
ATOM      3  N5  ZIN A   1      18.342   1.438  12.196  0.00  0.00     0.110 N 
BRANCH   3   4
ATOM      4  C4  ZIN A   1      18.470   0.024  11.818  0.00  0.00     0.385 C 
BRANCH   4   5
ATOM      5  C2  ZIN A   1      17.104  -0.613  11.789  0.00  0.00     0.202 C 
ATOM      6  O1  ZIN A   1      16.106   0.086  11.768  0.00  0.00    -0.647 OA
ATOM      7  O3  ZIN A   1      16.998  -1.828  11.781  0.00  0.00    -0.647 OA
ENDBRANCH   4   5
ENDBRANCH   3   4
BRANCH   3   8
ATOM      8  C18 ZIN A   1      18.936   2.311  11.175  0.00  0.00     0.385 C 
BRANCH   8   9
ATOM      9  C19 ZIN A   1      18.184   3.617  11.131  0.00  0.00     0.202 C 
ATOM     10  O20 ZIN A   1      18.661   4.613  11.648  0.00  0.00    -0.647 OA
ATOM     11  O21 ZIN A   1      17.100   3.677  10.576  0.00  0.00    -0.647 OA
ENDBRANCH   8   9
ENDBRANCH   3   8
ENDBRANCH   2   3
ENDBRANCH   1   2
BRANCH   1  12
ATOM     12  N8  ZIN A   1      18.167   1.614  15.837  0.00  0.00    -0.050 N 
ATOM     13  H9  ZIN A   1      17.331   1.603  16.402  0.00  0.00     0.281 HD
BRANCH  12  14
ATOM     14  C10 ZIN A   1      18.705   0.251  15.732  0.00  0.00     0.348 C 
BRANCH  14  15
ATOM     15  C11 ZIN A   1      17.736  -0.721  16.356  0.00  0.00     0.199 C 
ATOM     16  O12 ZIN A   1      16.665  -0.325  16.782  0.00  0.00    -0.647 OA
ATOM     17  O13 ZIN A   1      18.023  -1.903  16.434  0.00  0.00    -0.647 OA
ENDBRANCH  14  15
ENDBRANCH  12  14
BRANCH  12  18
ATOM     18  C14 ZIN A   1      19.167   2.490  16.462  0.00  0.00     0.348 C 
BRANCH  18  19
ATOM     19  C15 ZIN A   1      18.965   2.499  17.954  0.00  0.00     0.199 C 
ATOM     20  O16 ZIN A   1      19.757   1.923  18.680  0.00  0.00    -0.647 OA
ATOM     21  O17 ZIN A   1      18.009   3.083  18.437  0.00  0.00    -0.647 OA
ENDBRANCH  18  19
ENDBRANCH  12  18
ENDBRANCH   1  12
TORSDOF 11
ENDMDL
MODEL 9
REMARK VINA RESULT:      -4.9      4.618      7.855
REMARK  11 active torsions:
REMARK  status: ('A' for Active; 'I' for Inactive)
REMARK    1  A    between atoms: C2_2  and  C4_4 
REMARK    2  A    between atoms: C4_4  and  N5_5 
REMARK    3  A    between atoms: N5_5  and  C6_6 
REMARK    4  A    between atoms: N5_5  and  C18_18 
REMARK    5  A    between atoms: C6_6  and  C7_7 
REMARK    6  A    between atoms: C7_7  and  N8_8 
REMARK    7  A    between atoms: N8_8  and  C10_10 
REMARK    8  A    between atoms: N8_8  and  C14_14 
REMARK    9  A    between atoms: C10_10  and  C11_11 
REMARK   10  A    between atoms: C14_14  and  C15_15 
REMARK   11  A    between atoms: C18_18  and  C19_19 
ROOT
ATOM      1  C7  ZIN A   1      19.524  -0.764   8.478  0.00  0.00     0.266 C 
ENDROOT
BRANCH   1   2
ATOM      2  C6  ZIN A   1      18.886  -1.385   9.723  0.00  0.00     0.301 C 
BRANCH   2   3
ATOM      3  N5  ZIN A   1      18.367  -0.319  10.589  0.00  0.00     0.110 N 
BRANCH   3   4
ATOM      4  C4  ZIN A   1      17.627  -0.878  11.728  0.00  0.00     0.385 C 
BRANCH   4   5
ATOM      5  C2  ZIN A   1      18.393  -0.620  13.000  0.00  0.00     0.202 C 
ATOM      6  O1  ZIN A   1      18.278  -1.380  13.946  0.00  0.00    -0.647 OA
ATOM      7  O3  ZIN A   1      19.131   0.348  13.081  0.00  0.00    -0.647 OA
ENDBRANCH   4   5
ENDBRANCH   3   4
BRANCH   3   8
ATOM      8  C18 ZIN A   1      17.532   0.618   9.826  0.00  0.00     0.385 C 
BRANCH   8   9
ATOM      9  C19 ZIN A   1      17.852   2.031  10.243  0.00  0.00     0.202 C 
ATOM     10  O20 ZIN A   1      17.168   2.588  11.085  0.00  0.00    -0.647 OA
ATOM     11  O21 ZIN A   1      18.796   2.616   9.740  0.00  0.00    -0.647 OA
ENDBRANCH   8   9
ENDBRANCH   3   8
ENDBRANCH   2   3
ENDBRANCH   1   2
BRANCH   1  12
ATOM     12  N8  ZIN A   1      19.392  -1.692   7.346  0.00  0.00    -0.050 N 
ATOM     13  H9  ZIN A   1      20.300  -1.859   6.940  0.00  0.00     0.281 HD
BRANCH  12  14
ATOM     14  C10 ZIN A   1      18.827  -2.963   7.819  0.00  0.00     0.348 C 
BRANCH  14  15
ATOM     15  C11 ZIN A   1      19.432  -4.103   7.040  0.00  0.00     0.199 C 
ATOM     16  O12 ZIN A   1      18.806  -5.138   6.889  0.00  0.00    -0.647 OA
ATOM     17  O13 ZIN A   1      20.546  -3.990   6.560  0.00  0.00    -0.647 OA
ENDBRANCH  14  15
ENDBRANCH  12  14
BRANCH  12  18
ATOM     18  C14 ZIN A   1      18.503  -1.107   6.334  0.00  0.00     0.348 C 
BRANCH  18  19
ATOM     19  C15 ZIN A   1      19.311  -0.697   5.131  0.00  0.00     0.199 C 
ATOM     20  O16 ZIN A   1      19.804  -1.547   4.409  0.00  0.00    -0.647 OA
ATOM     21  O17 ZIN A   1      19.474   0.485   4.879  0.00  0.00    -0.647 OA
ENDBRANCH  18  19
ENDBRANCH  12  18
ENDBRANCH   1  12
TORSDOF 11
ENDMDL
