MODEL 1
REMARK VINA RESULT:      -6.0      0.000      0.000
REMARK  7 active torsions:
REMARK  status: ('A' for Active; 'I' for Inactive)
REMARK    1  A    between atoms: N1_1  and  C2_2 
REMARK    2  A    between atoms: C2_2  and  C4_3 
REMARK    3  A    between atoms: C2_2  and  C7_6 
REMARK    4  A    between atoms: C7_6  and  O9_7 
REMARK    5  A    between atoms: C7_6  and  C10_8 
REMARK    6  A    between atoms: C13_11  and  O14_12 
REMARK    7  A    between atoms: C15_13  and  O16_14 
ROOT
ATOM      1  C10 ZIN A   1      18.276  -0.204   8.783  0.00  0.00    -0.024 A 
ATOM      2  C11 ZIN A   1      18.827   1.061   8.701  0.00  0.00     0.013 A 
ATOM      3  C12 ZIN A   1      18.488   2.027   9.631  0.00  0.00     0.040 A 
ATOM      4  C13 ZIN A   1      17.594   1.728  10.646  0.00  0.00     0.098 A 
ATOM      5  C15 ZIN A   1      17.040   0.454  10.728  0.00  0.00     0.099 A 
ATOM      6  C17 ZIN A   1      17.380  -0.507   9.792  0.00  0.00     0.049 A 
ENDROOT
BRANCH   1   7
ATOM      7  C7  ZIN A   1      18.650  -1.254   7.768  0.00  0.00     0.195 C 
BRANCH   7   8
ATOM      8  C2  ZIN A   1      18.537  -0.665   6.360  0.00  0.00     0.350 C 
BRANCH   8   9
ATOM      9  N1  ZIN A   1      17.140  -0.736   5.911  0.00  0.00     0.096 N 
ATOM     10  H18 ZIN A   1      16.653   0.125   6.108  0.00  0.00     0.314 HD
ATOM     11  H19 ZIN A   1      17.088  -0.965   4.930  0.00  0.00     0.314 HD
ENDBRANCH   8   9
BRANCH   8  12
ATOM     12  C4  ZIN A   1      19.410  -1.451   5.416  0.00  0.00     0.210 C 
ATOM     13  O5  ZIN A   1      19.848  -0.923   4.408  0.00  0.00    -0.646 OA
ATOM     14  O6  ZIN A   1      19.676  -2.616   5.658  0.00  0.00    -0.646 OA
ENDBRANCH   8  12
ENDBRANCH   7   8
BRANCH   7  15
ATOM     15  O9  ZIN A   1      17.768  -2.370   7.891  0.00  0.00    -0.388 OA
ATOM     16  H20 ZIN A   1      17.791  -2.974   7.135  0.00  0.00     0.210 HD
ENDBRANCH   7  15
ENDBRANCH   1   7
BRANCH   5  17
ATOM     17  O16 ZIN A   1      16.162   0.156  11.723  0.00  0.00    -0.358 OA
ATOM     18  H24 ZIN A   1      16.039   0.867  12.366  0.00  0.00     0.217 HD
ENDBRANCH   5  17
BRANCH   4  19
ATOM     19  O14 ZIN A   1      17.259   2.677  11.561  0.00  0.00    -0.358 OA
ATOM     20  H23 ZIN A   1      17.489   2.444  12.471  0.00  0.00     0.217 HD
ENDBRANCH   4  19
TORSDOF 7
ENDMDL
MODEL 2
REMARK VINA RESULT:      -5.8      1.900      5.553
REMARK  7 active torsions:
REMARK  status: ('A' for Active; 'I' for Inactive)
REMARK    1  A    between atoms: N1_1  and  C2_2 
REMARK    2  A    between atoms: C2_2  and  C4_3 
REMARK    3  A    between atoms: C2_2  and  C7_6 
REMARK    4  A    between atoms: C7_6  and  O9_7 
REMARK    5  A    between atoms: C7_6  and  C10_8 
REMARK    6  A    between atoms: C13_11  and  O14_12 
REMARK    7  A    between atoms: C15_13  and  O16_14 
ROOT
ATOM      1  C10 ZIN A   1      18.307  -0.108   7.639  0.00  0.00    -0.024 A 
ATOM      2  C11 ZIN A   1      18.163   0.614   6.469  0.00  0.00     0.013 A 
ATOM      3  C12 ZIN A   1      18.612   0.091   5.270  0.00  0.00     0.040 A 
ATOM      4  C13 ZIN A   1      19.210  -1.158   5.241  0.00  0.00     0.098 A 
ATOM      5  C15 ZIN A   1      19.355  -1.885   6.419  0.00  0.00     0.099 A 
ATOM      6  C17 ZIN A   1      18.907  -1.354   7.617  0.00  0.00     0.049 A 
ENDROOT
BRANCH   1   7
ATOM      7  C7  ZIN A   1      17.814   0.467   8.942  0.00  0.00     0.195 C 
BRANCH   7   8
ATOM      8  C2  ZIN A   1      18.708   1.637   9.355  0.00  0.00     0.350 C 
BRANCH   8   9
ATOM      9  N1  ZIN A   1      19.856   1.131  10.120  0.00  0.00     0.096 N 
ATOM     10  H18 ZIN A   1      20.357   0.429   9.596  0.00  0.00     0.314 HD
ATOM     11  H19 ZIN A   1      20.468   1.884  10.394  0.00  0.00     0.314 HD
ENDBRANCH   8   9
BRANCH   8  12
ATOM     12  C4  ZIN A   1      17.919   2.596  10.209  0.00  0.00     0.210 C 
ATOM     13  O5  ZIN A   1      17.180   2.170  11.080  0.00  0.00    -0.646 OA
ATOM     14  O6  ZIN A   1      18.019   3.798  10.028  0.00  0.00    -0.646 OA
ENDBRANCH   8  12
ENDBRANCH   7   8
BRANCH   7  15
ATOM     15  O9  ZIN A   1      17.853  -0.543   9.953  0.00  0.00    -0.388 OA
ATOM     16  H20 ZIN A   1      17.129  -1.182   9.897  0.00  0.00     0.210 HD
ENDBRANCH   7  15
ENDBRANCH   1   7
BRANCH   5  17
ATOM     17  O16 ZIN A   1      19.941  -3.112   6.394  0.00  0.00    -0.358 OA
ATOM     18  H24 ZIN A   1      19.724  -3.667   7.156  0.00  0.00     0.217 HD
ENDBRANCH   5  17
BRANCH   4  19
ATOM     19  O14 ZIN A   1      19.653  -1.674   4.063  0.00  0.00    -0.358 OA
ATOM     20  H23 ZIN A   1      19.552  -1.075   3.309  0.00  0.00     0.217 HD
ENDBRANCH   4  19
TORSDOF 7
ENDMDL
MODEL 3
REMARK VINA RESULT:      -5.7      4.125      5.533
REMARK  7 active torsions:
REMARK  status: ('A' for Active; 'I' for Inactive)
REMARK    1  A    between atoms: N1_1  and  C2_2 
REMARK    2  A    between atoms: C2_2  and  C4_3 
REMARK    3  A    between atoms: C2_2  and  C7_6 
REMARK    4  A    between atoms: C7_6  and  O9_7 
REMARK    5  A    between atoms: C7_6  and  C10_8 
REMARK    6  A    between atoms: C13_11  and  O14_12 
REMARK    7  A    between atoms: C15_13  and  O16_14 
ROOT
ATOM      1  C10 ZIN A   1      19.615   0.425  13.322  0.00  0.00    -0.024 A 
ATOM      2  C11 ZIN A   1      19.489  -0.930  13.564  0.00  0.00     0.013 A 
ATOM      3  C12 ZIN A   1      18.829  -1.374  14.696  0.00  0.00     0.040 A 
ATOM      4  C13 ZIN A   1      18.295  -0.461  15.590  0.00  0.00     0.098 A 
ATOM      5  C15 ZIN A   1      18.423   0.904  15.346  0.00  0.00     0.099 A 
ATOM      6  C17 ZIN A   1      19.088   1.342  14.213  0.00  0.00     0.049 A 
ENDROOT
BRANCH   1   7
ATOM      7  C7  ZIN A   1      20.333   0.904  12.087  0.00  0.00     0.195 C 
BRANCH   7   8
ATOM      8  C2  ZIN A   1      19.749   0.209  10.855  0.00  0.00     0.350 C 
BRANCH   8   9
ATOM      9  N1  ZIN A   1      20.840  -0.350  10.045  0.00  0.00     0.096 N 
ATOM     10  H18 ZIN A   1      20.739  -1.348   9.943  0.00  0.00     0.314 HD
ATOM     11  H19 ZIN A   1      20.889   0.102   9.145  0.00  0.00     0.314 HD
ENDBRANCH   8   9
BRANCH   8  12
ATOM     12  C4  ZIN A   1      18.974   1.208  10.035  0.00  0.00     0.210 C 
ATOM     13  O5  ZIN A   1      17.928   0.878   9.502  0.00  0.00    -0.646 OA
ATOM     14  O6  ZIN A   1      19.393   2.345   9.903  0.00  0.00    -0.646 OA
ENDBRANCH   8  12
ENDBRANCH   7   8
BRANCH   7  15
ATOM     15  O9  ZIN A   1      21.724   0.594  12.194  0.00  0.00    -0.388 OA
ATOM     16  H20 ZIN A   1      22.308   1.297  11.876  0.00  0.00     0.210 HD
ENDBRANCH   7  15
ENDBRANCH   1   7
BRANCH   5  17
ATOM     17  O16 ZIN A   1      17.900   1.804  16.221  0.00  0.00    -0.358 OA
ATOM     18  H24 ZIN A   1      18.209   2.710  16.085  0.00  0.00     0.217 HD
ENDBRANCH   5  17
BRANCH   4  19
ATOM     19  O14 ZIN A   1      17.647  -0.896  16.703  0.00  0.00    -0.358 OA
ATOM     20  H23 ZIN A   1      17.891  -0.422  17.511  0.00  0.00     0.217 HD
ENDBRANCH   4  19
TORSDOF 7
ENDMDL
MODEL 4
REMARK VINA RESULT:      -5.6      2.558      5.462
REMARK  7 active torsions:
REMARK  status: ('A' for Active; 'I' for Inactive)
REMARK    1  A    between atoms: N1_1  and  C2_2 
REMARK    2  A    between atoms: C2_2  and  C4_3 
REMARK    3  A    between atoms: C2_2  and  C7_6 
REMARK    4  A    between atoms: C7_6  and  O9_7 
REMARK    5  A    between atoms: C7_6  and  C10_8 
REMARK    6  A    between atoms: C13_11  and  O14_12 
REMARK    7  A    between atoms: C15_13  and  O16_14 
ROOT
ATOM      1  C10 ZIN A   1      19.167  -0.686   8.373  0.00  0.00    -0.024 A 
ATOM      2  C11 ZIN A   1      19.009   0.636   8.004  0.00  0.00     0.013 A 
ATOM      3  C12 ZIN A   1      19.031   0.991   6.667  0.00  0.00     0.040 A 
ATOM      4  C13 ZIN A   1      19.212   0.020   5.696  0.00  0.00     0.098 A 
ATOM      5  C15 ZIN A   1      19.371  -1.311   6.068  0.00  0.00     0.099 A 
ATOM      6  C17 ZIN A   1      19.353  -1.660   7.408  0.00  0.00     0.049 A 
ENDROOT
BRANCH   1   7
ATOM      7  C7  ZIN A   1      19.142  -1.068   9.831  0.00  0.00     0.195 C 
BRANCH   7   8
ATOM      8  C2  ZIN A   1      20.007  -0.091  10.629  0.00  0.00     0.350 C 
BRANCH   8   9
ATOM      9  N1  ZIN A   1      21.385  -0.597  10.693  0.00  0.00     0.096 N 
ATOM     10  H18 ZIN A   1      21.895  -0.162  11.448  0.00  0.00     0.314 HD
ATOM     11  H19 ZIN A   1      21.397  -1.601  10.780  0.00  0.00     0.314 HD
ENDBRANCH   8   9
BRANCH   8  12
ATOM     12  C4  ZIN A   1      19.456   0.043  12.026  0.00  0.00     0.210 C 
ATOM     13  O5  ZIN A   1      19.355   1.145  12.538  0.00  0.00    -0.646 OA
ATOM     14  O6  ZIN A   1      19.112  -0.950  12.644  0.00  0.00    -0.646 OA
ENDBRANCH   8  12
ENDBRANCH   7   8
BRANCH   7  15
ATOM     15  O9  ZIN A   1      19.652  -2.393   9.986  0.00  0.00    -0.388 OA
ATOM     16  H20 ZIN A   1      19.141  -3.068   9.517  0.00  0.00     0.210 HD
ENDBRANCH   7  15
ENDBRANCH   1   7
BRANCH   5  17
ATOM     17  O16 ZIN A   1      19.550  -2.268   5.118  0.00  0.00    -0.358 OA
ATOM     18  H24 ZIN A   1      19.294  -1.991   4.228  0.00  0.00     0.217 HD
ENDBRANCH   5  17
BRANCH   4  19
ATOM     19  O14 ZIN A   1      19.234   0.368   4.381  0.00  0.00    -0.358 OA
ATOM     20  H23 ZIN A   1      18.696  -0.203   3.815  0.00  0.00     0.217 HD
ENDBRANCH   4  19
TORSDOF 7
ENDMDL
MODEL 5
REMARK VINA RESULT:      -5.5      2.630      5.368
REMARK  7 active torsions:
REMARK  status: ('A' for Active; 'I' for Inactive)
REMARK    1  A    between atoms: N1_1  and  C2_2 
REMARK    2  A    between atoms: C2_2  and  C4_3 
REMARK    3  A    between atoms: C2_2  and  C7_6 
REMARK    4  A    between atoms: C7_6  and  O9_7 
REMARK    5  A    between atoms: C7_6  and  C10_8 
REMARK    6  A    between atoms: C13_11  and  O14_12 
REMARK    7  A    between atoms: C15_13  and  O16_14 
ROOT
ATOM      1  C10 ZIN A   1      18.767  -1.759   7.685  0.00  0.00    -0.024 A 
ATOM      2  C11 ZIN A   1      18.696  -0.388   7.846  0.00  0.00     0.013 A 
ATOM      3  C12 ZIN A   1      18.912   0.451   6.768  0.00  0.00     0.040 A 
ATOM      4  C13 ZIN A   1      19.201  -0.083   5.523  0.00  0.00     0.098 A 
ATOM      5  C15 ZIN A   1      19.273  -1.463   5.360  0.00  0.00     0.099 A 
ATOM      6  C17 ZIN A   1      19.059  -2.298   6.445  0.00  0.00     0.049 A 
ENDROOT
BRANCH   1   7
ATOM      7  C7  ZIN A   1      18.529  -2.668   8.863  0.00  0.00     0.195 C 
BRANCH   7   8
ATOM      8  C2  ZIN A   1      18.656  -1.867  10.160  0.00  0.00     0.350 C 
BRANCH   8   9
ATOM      9  N1  ZIN A   1      19.980  -2.102  10.752  0.00  0.00     0.096 N 
ATOM     10  H18 ZIN A   1      20.612  -2.505  10.077  0.00  0.00     0.314 HD
ATOM     11  H19 ZIN A   1      20.358  -1.252  11.140  0.00  0.00     0.314 HD
ENDBRANCH   8   9
BRANCH   8  12
ATOM     12  C4  ZIN A   1      17.587  -2.304  11.128  0.00  0.00     0.210 C 
ATOM     13  O5  ZIN A   1      16.970  -1.472  11.770  0.00  0.00    -0.646 OA
ATOM     14  O6  ZIN A   1      17.340  -3.489  11.269  0.00  0.00    -0.646 OA
ENDBRANCH   8  12
ENDBRANCH   7   8
BRANCH   7  15
ATOM     15  O9  ZIN A   1      19.495  -3.720   8.855  0.00  0.00    -0.388 OA
ATOM     16  H20 ZIN A   1      19.858  -3.926   9.728  0.00  0.00     0.210 HD
ENDBRANCH   7  15
ENDBRANCH   1   7
BRANCH   5  17
ATOM     17  O16 ZIN A   1      19.556  -1.992   4.140  0.00  0.00    -0.358 OA
ATOM     18  H24 ZIN A   1      20.309  -1.578   3.697  0.00  0.00     0.217 HD
ENDBRANCH   5  17
BRANCH   4  19
ATOM     19  O14 ZIN A   1      19.415   0.740   4.462  0.00  0.00    -0.358 OA
ATOM     20  H23 ZIN A   1      19.226   1.672   4.643  0.00  0.00     0.217 HD
ENDBRANCH   4  19
TORSDOF 7
ENDMDL
MODEL 6
REMARK VINA RESULT:      -5.4      1.903      5.483
REMARK  7 active torsions:
REMARK  status: ('A' for Active; 'I' for Inactive)
REMARK    1  A    between atoms: N1_1  and  C2_2 
REMARK    2  A    between atoms: C2_2  and  C4_3 
REMARK    3  A    between atoms: C2_2  and  C7_6 
REMARK    4  A    between atoms: C7_6  and  O9_7 
REMARK    5  A    between atoms: C7_6  and  C10_8 
REMARK    6  A    between atoms: C13_11  and  O14_12 
REMARK    7  A    between atoms: C15_13  and  O16_14 
ROOT
ATOM      1  C10 ZIN A   1      19.126  -0.190   8.094  0.00  0.00    -0.024 A 
ATOM      2  C11 ZIN A   1      18.922   0.796   7.147  0.00  0.00     0.013 A 
ATOM      3  C12 ZIN A   1      18.972   0.486   5.800  0.00  0.00     0.040 A 
ATOM      4  C13 ZIN A   1      19.226  -0.814   5.397  0.00  0.00     0.098 A 
ATOM      5  C15 ZIN A   1      19.432  -1.807   6.351  0.00  0.00     0.099 A 
ATOM      6  C17 ZIN A   1      19.385  -1.490   7.698  0.00  0.00     0.049 A 
ENDROOT
BRANCH   1   7
ATOM      7  C7  ZIN A   1      19.069   0.153   9.560  0.00  0.00     0.195 C 
BRANCH   7   8
ATOM      8  C2  ZIN A   1      17.697   0.743   9.894  0.00  0.00     0.350 C 
BRANCH   8   9
ATOM      9  N1  ZIN A   1      17.805   2.204  10.000  0.00  0.00     0.096 N 
ATOM     10  H18 ZIN A   1      17.085   2.576  10.601  0.00  0.00     0.314 HD
ATOM     11  H19 ZIN A   1      18.721   2.476  10.321  0.00  0.00     0.314 HD
ENDBRANCH   8   9
BRANCH   8  12
ATOM     12  C4  ZIN A   1      17.213   0.178  11.204  0.00  0.00     0.210 C 
ATOM     13  O5  ZIN A   1      16.022  -0.014  11.383  0.00  0.00    -0.646 OA
ATOM     14  O6  ZIN A   1      18.011  -0.086  12.087  0.00  0.00    -0.646 OA
ENDBRANCH   8  12
ENDBRANCH   7   8
BRANCH   7  15
ATOM     15  O9  ZIN A   1      20.086   1.109   9.865  0.00  0.00    -0.388 OA
ATOM     16  H20 ZIN A   1      20.030   1.922   9.343  0.00  0.00     0.210 HD
ENDBRANCH   7  15
ENDBRANCH   1   7
BRANCH   5  17
ATOM     17  O16 ZIN A   1      19.683  -3.085   5.961  0.00  0.00    -0.358 OA
ATOM     18  H24 ZIN A   1      20.276  -3.569   6.552  0.00  0.00     0.217 HD
ENDBRANCH   5  17
BRANCH   4  19
ATOM     19  O14 ZIN A   1      19.276  -1.121   4.073  0.00  0.00    -0.358 OA
ATOM     20  H23 ZIN A   1      20.007  -0.698   3.599  0.00  0.00     0.217 HD
ENDBRANCH   4  19
TORSDOF 7
ENDMDL
MODEL 7
REMARK VINA RESULT:      -5.4      2.502      5.479
REMARK  7 active torsions:
REMARK  status: ('A' for Active; 'I' for Inactive)
REMARK    1  A    between atoms: N1_1  and  C2_2 
REMARK    2  A    between atoms: C2_2  and  C4_3 
REMARK    3  A    between atoms: C2_2  and  C7_6 
REMARK    4  A    between atoms: C7_6  and  O9_7 
REMARK    5  A    between atoms: C7_6  and  C10_8 
REMARK    6  A    between atoms: C13_11  and  O14_12 
REMARK    7  A    between atoms: C15_13  and  O16_14 
ROOT
ATOM      1  C10 ZIN A   1      18.955   0.797   9.024  0.00  0.00    -0.024 A 
ATOM      2  C11 ZIN A   1      19.203   1.706   8.013  0.00  0.00     0.013 A 
ATOM      3  C12 ZIN A   1      18.945   1.368   6.697  0.00  0.00     0.040 A 
ATOM      4  C13 ZIN A   1      18.438   0.116   6.390  0.00  0.00     0.098 A 
ATOM      5  C15 ZIN A   1      18.190  -0.799   7.408  0.00  0.00     0.099 A 
ATOM      6  C17 ZIN A   1      18.454  -0.457   8.723  0.00  0.00     0.049 A 
ENDROOT
BRANCH   1   7
ATOM      7  C7  ZIN A   1      19.237   1.171  10.456  0.00  0.00     0.195 C 
BRANCH   7   8
ATOM      8  C2  ZIN A   1      19.374   2.691  10.569  0.00  0.00     0.350 C 
BRANCH   8   9
ATOM      9  N1  ZIN A   1      20.401   3.017  11.568  0.00  0.00     0.096 N 
ATOM     10  H18 ZIN A   1      20.801   3.926  11.391  0.00  0.00     0.314 HD
ATOM     11  H19 ZIN A   1      20.026   2.963  12.503  0.00  0.00     0.314 HD
ENDBRANCH   8   9
BRANCH   8  12
ATOM     12  C4  ZIN A   1      18.055   3.284  10.993  0.00  0.00     0.210 C 
ATOM     13  O5  ZIN A   1      17.823   4.464  10.788  0.00  0.00    -0.646 OA
ATOM     14  O6  ZIN A   1      17.220   2.586  11.541  0.00  0.00    -0.646 OA
ENDBRANCH   8  12
ENDBRANCH   7   8
BRANCH   7  15
ATOM     15  O9  ZIN A   1      20.452   0.550  10.881  0.00  0.00    -0.388 OA
ATOM     16  H20 ZIN A   1      21.055   0.333  10.157  0.00  0.00     0.210 HD
ENDBRANCH   7  15
ENDBRANCH   1   7
BRANCH   5  17
ATOM     17  O16 ZIN A   1      17.693  -2.030   7.112  0.00  0.00    -0.358 OA
ATOM     18  H24 ZIN A   1      17.866  -2.316   6.204  0.00  0.00     0.217 HD
ENDBRANCH   5  17
BRANCH   4  19
ATOM     19  O14 ZIN A   1      18.185  -0.218   5.096  0.00  0.00    -0.358 OA
ATOM     20  H23 ZIN A   1      18.683  -0.987   4.784  0.00  0.00     0.217 HD
ENDBRANCH   4  19
TORSDOF 7
ENDMDL
MODEL 8
REMARK VINA RESULT:      -5.3      2.679      3.215
REMARK  7 active torsions:
REMARK  status: ('A' for Active; 'I' for Inactive)
REMARK    1  A    between atoms: N1_1  and  C2_2 
REMARK    2  A    between atoms: C2_2  and  C4_3 
REMARK    3  A    between atoms: C2_2  and  C7_6 
REMARK    4  A    between atoms: C7_6  and  O9_7 
REMARK    5  A    between atoms: C7_6  and  C10_8 
REMARK    6  A    between atoms: C13_11  and  O14_12 
REMARK    7  A    between atoms: C15_13  and  O16_14 
ROOT
ATOM      1  C10 ZIN A   1      18.831  -0.875   8.954  0.00  0.00    -0.024 A 
ATOM      2  C11 ZIN A   1      18.031  -1.706   9.714  0.00  0.00     0.013 A 
ATOM      3  C12 ZIN A   1      18.410  -2.051  10.999  0.00  0.00     0.040 A 
ATOM      4  C13 ZIN A   1      19.595  -1.562  11.525  0.00  0.00     0.098 A 
ATOM      5  C15 ZIN A   1      20.400  -0.725  10.759  0.00  0.00     0.099 A 
ATOM      6  C17 ZIN A   1      20.017  -0.388   9.472  0.00  0.00     0.049 A 
ENDROOT
BRANCH   1   7
ATOM      7  C7  ZIN A   1      18.411  -0.502   7.555  0.00  0.00     0.195 C 
BRANCH   7   8
ATOM      8  C2  ZIN A   1      18.619  -1.698   6.624  0.00  0.00     0.350 C 
BRANCH   8   9
ATOM      9  N1  ZIN A   1      19.798  -2.459   7.060  0.00  0.00     0.096 N 
ATOM     10  H18 ZIN A   1      19.558  -3.103   7.799  0.00  0.00     0.314 HD
ATOM     11  H19 ZIN A   1      20.223  -2.942   6.284  0.00  0.00     0.314 HD
ENDBRANCH   8   9
BRANCH   8  12
ATOM     12  C4  ZIN A   1      18.832  -1.207   5.215  0.00  0.00     0.210 C 
ATOM     13  O5  ZIN A   1      17.897  -0.747   4.582  0.00  0.00    -0.646 OA
ATOM     14  O6  ZIN A   1      19.938  -1.271   4.707  0.00  0.00    -0.646 OA
ENDBRANCH   8  12
ENDBRANCH   7   8
BRANCH   7  15
ATOM     15  O9  ZIN A   1      19.199   0.600   7.100  0.00  0.00    -0.388 OA
ATOM     16  H20 ZIN A   1      19.456   1.215   7.801  0.00  0.00     0.210 HD
ENDBRANCH   7  15
ENDBRANCH   1   7
BRANCH   5  17
ATOM     17  O16 ZIN A   1      21.565  -0.244  11.271  0.00  0.00    -0.358 OA
ATOM     18  H24 ZIN A   1      22.349  -0.743  11.004  0.00  0.00     0.217 HD
ENDBRANCH   5  17
BRANCH   4  19
ATOM     19  O14 ZIN A   1      19.970  -1.901  12.788  0.00  0.00    -0.358 OA
ATOM     20  H23 ZIN A   1      19.920  -2.849  12.972  0.00  0.00     0.217 HD
ENDBRANCH   4  19
TORSDOF 7
ENDMDL
MODEL 9
REMARK VINA RESULT:      -5.3      1.825      5.615
REMARK  7 active torsions:
REMARK  status: ('A' for Active; 'I' for Inactive)
REMARK    1  A    between atoms: N1_1  and  C2_2 
REMARK    2  A    between atoms: C2_2  and  C4_3 
REMARK    3  A    between atoms: C2_2  and  C7_6 
REMARK    4  A    between atoms: C7_6  and  O9_7 
REMARK    5  A    between atoms: C7_6  and  C10_8 
REMARK    6  A    between atoms: C13_11  and  O14_12 
REMARK    7  A    between atoms: C15_13  and  O16_14 
ROOT
ATOM      1  C10 ZIN A   1      18.522  -0.766   7.942  0.00  0.00    -0.024 A 
ATOM      2  C11 ZIN A   1      18.554  -2.104   7.598  0.00  0.00     0.013 A 
ATOM      3  C12 ZIN A   1      18.916  -2.485   6.319  0.00  0.00     0.040 A 
ATOM      4  C13 ZIN A   1      19.245  -1.523   5.378  0.00  0.00     0.098 A 
ATOM      5  C15 ZIN A   1      19.212  -0.175   5.723  0.00  0.00     0.099 A 
ATOM      6  C17 ZIN A   1      18.845   0.199   7.005  0.00  0.00     0.049 A 
ENDROOT
BRANCH   1   7
ATOM      7  C7  ZIN A   1      18.128  -0.357   9.338  0.00  0.00     0.195 C 
BRANCH   7   8
ATOM      8  C2  ZIN A   1      18.455   1.123   9.547  0.00  0.00     0.350 C 
BRANCH   8   9
ATOM      9  N1  ZIN A   1      19.834   1.256  10.036  0.00  0.00     0.096 N 
ATOM     10  H18 ZIN A   1      20.218   2.156   9.791  0.00  0.00     0.314 HD
ATOM     11  H19 ZIN A   1      19.881   1.101  11.031  0.00  0.00     0.314 HD
ENDBRANCH   8   9
BRANCH   8  12
ATOM     12  C4  ZIN A   1      17.504   1.709  10.559  0.00  0.00     0.210 C 
ATOM     13  O5  ZIN A   1      17.350   2.916  10.623  0.00  0.00    -0.646 OA
ATOM     14  O6  ZIN A   1      16.890   0.975  11.315  0.00  0.00    -0.646 OA
ENDBRANCH   8  12
ENDBRANCH   7   8
BRANCH   7  15
ATOM     15  O9  ZIN A   1      18.852  -1.144  10.286  0.00  0.00    -0.388 OA
ATOM     16  H20 ZIN A   1      19.779  -1.289  10.049  0.00  0.00     0.210 HD
ENDBRANCH   7  15
ENDBRANCH   1   7
BRANCH   5  17
ATOM     17  O16 ZIN A   1      19.534   0.772   4.803  0.00  0.00    -0.358 OA
ATOM     18  H24 ZIN A   1      18.782   1.300   4.501  0.00  0.00     0.217 HD
ENDBRANCH   5  17
BRANCH   4  19
ATOM     19  O14 ZIN A   1      19.600  -1.895   4.119  0.00  0.00    -0.358 OA
ATOM     20  H23 ZIN A   1      19.443  -1.215   3.449  0.00  0.00     0.217 HD
ENDBRANCH   4  19
TORSDOF 7
ENDMDL
