MODEL 1
REMARK VINA RESULT:      -6.4      0.000      0.000
REMARK  5 active torsions:
REMARK  status: ('A' for Active; 'I' for Inactive)
REMARK    1  A    between atoms: C2_2  and  O4_3 
REMARK    2  A    between atoms: C2_2  and  C5_4 
REMARK    3  A    between atoms: C5_4  and  O7_5 
REMARK    4  A    between atoms: C5_4  and  C8_6 
REMARK    5  A    between atoms: C18_15  and  N19_16 
ROOT
ATOM      1  C8  ZIN A   1      17.830   0.314  16.576  0.00  0.00     0.131 C 
ATOM      2  C10 ZIN A   1      18.039  -1.155  16.184  0.00  0.00     0.149 C 
ATOM      3  N11 ZIN A   1      19.239  -1.244  15.340  0.00  0.00    -0.370 N 
ATOM      4  C12 ZIN A   1      19.408  -0.329  14.312  0.00  0.00     0.175 A 
ATOM      5  C13 ZIN A   1      18.667   0.845  14.304  0.00  0.00     0.146 A 
ATOM      6  N14 ZIN A   1      17.741   1.107  15.338  0.00  0.00    -0.373 N 
ATOM      7  C15 ZIN A   1      18.853   1.759  13.261  0.00  0.00     0.313 A 
ATOM      8  O16 ZIN A   1      18.217   2.802  13.224  0.00  0.00    -0.263 OA
ATOM      9  N17 ZIN A   1      19.749   1.461  12.295  0.00  0.00    -0.020 NA
ATOM     10  C18 ZIN A   1      20.449   0.295  12.346  0.00  0.00     0.725 A 
ATOM     11  N20 ZIN A   1      20.280  -0.568  13.326  0.00  0.00    -0.043 NA
ATOM     12  H28 ZIN A   1      19.903  -1.932  15.500  0.00  0.00     0.161 HD
ATOM     13  H29 ZIN A   1      17.062   1.793  15.235  0.00  0.00     0.160 HD
ENDROOT
BRANCH   1  14
ATOM     14  C5  ZIN A   1      19.011   0.800  17.416  0.00  0.00     0.170 C 
BRANCH  14  15
ATOM     15  C2  ZIN A   1      18.595   2.036  18.216  0.00  0.00     0.145 C 
ATOM     16  C1  ZIN A   1      17.292   1.746  18.962  0.00  0.00     0.042 C 
BRANCH  15  17
ATOM     17  O4  ZIN A   1      19.621   2.362  19.156  0.00  0.00    -0.393 OA
ATOM     18  H24 ZIN A   1      19.396   2.151  20.072  0.00  0.00     0.210 HD
ENDBRANCH  15  17
ENDBRANCH  14  15
BRANCH  14  19
ATOM     19  O7  ZIN A   1      19.413  -0.236  18.316  0.00  0.00    -0.391 OA
ATOM     20  H25 ZIN A   1      18.732  -0.903  18.476  0.00  0.00     0.210 HD
ENDBRANCH  14  19
ENDBRANCH   1  14
BRANCH  10  21
ATOM     21  N19 ZIN A   1      21.353   0.012  11.355  0.00  0.00    -0.231 N 
ATOM     22  H30 ZIN A   1      21.308  -0.836  10.884  0.00  0.00     0.174 HD
ATOM     23  H31 ZIN A   1      22.038   0.658  11.124  0.00  0.00     0.174 HD
ENDBRANCH  10  21
TORSDOF 5
ENDMDL
MODEL 2
REMARK VINA RESULT:      -6.3      2.378      5.668
REMARK  5 active torsions:
REMARK  status: ('A' for Active; 'I' for Inactive)
REMARK    1  A    between atoms: C2_2  and  O4_3 
REMARK    2  A    between atoms: C2_2  and  C5_4 
REMARK    3  A    between atoms: C5_4  and  O7_5 
REMARK    4  A    between atoms: C5_4  and  C8_6 
REMARK    5  A    between atoms: C18_15  and  N19_16 
ROOT
ATOM      1  C8  ZIN A   1      18.707   0.849  12.497  0.00  0.00     0.131 C 
ATOM      2  C10 ZIN A   1      18.478   2.341  12.776  0.00  0.00     0.149 C 
ATOM      3  N11 ZIN A   1      19.124   2.679  14.052  0.00  0.00    -0.370 N 
ATOM      4  C12 ZIN A   1      18.944   1.840  15.141  0.00  0.00     0.175 A 
ATOM      5  C13 ZIN A   1      18.478   0.547  14.947  0.00  0.00     0.146 A 
ATOM      6  N14 ZIN A   1      18.185   0.086  13.644  0.00  0.00    -0.373 N 
ATOM      7  C15 ZIN A   1      18.305  -0.287  16.057  0.00  0.00     0.313 A 
ATOM      8  O16 ZIN A   1      17.898  -1.431  15.921  0.00  0.00    -0.263 OA
ATOM      9  N17 ZIN A   1      18.598   0.201  17.282  0.00  0.00    -0.020 NA
ATOM     10  C18 ZIN A   1      19.049   1.478  17.420  0.00  0.00     0.725 A 
ATOM     11  N20 ZIN A   1      19.215   2.267  16.380  0.00  0.00    -0.043 NA
ATOM     12  H28 ZIN A   1      19.670   3.476  14.132  0.00  0.00     0.161 HD
ATOM     13  H29 ZIN A   1      17.653  -0.714  13.508  0.00  0.00     0.160 HD
ENDROOT
BRANCH   1  14
ATOM     14  C5  ZIN A   1      20.202   0.576  12.333  0.00  0.00     0.170 C 
BRANCH  14  15
ATOM     15  C2  ZIN A   1      20.414  -0.460  11.228  0.00  0.00     0.145 C 
ATOM     16  C1  ZIN A   1      19.696  -0.004   9.956  0.00  0.00     0.042 C 
BRANCH  15  17
ATOM     17  O4  ZIN A   1      21.812  -0.595  10.963  0.00  0.00    -0.393 OA
ATOM     18  H24 ZIN A   1      22.126  -0.057  10.224  0.00  0.00     0.210 HD
ENDBRANCH  15  17
ENDBRANCH  14  15
BRANCH  14  19
ATOM     19  O7  ZIN A   1      20.872   1.789  11.982  0.00  0.00    -0.391 OA
ATOM     20  H25 ZIN A   1      20.520   2.217  11.190  0.00  0.00     0.210 HD
ENDBRANCH  14  19
ENDBRANCH   1  14
BRANCH  10  21
ATOM     21  N19 ZIN A   1      19.339   1.953  18.673  0.00  0.00    -0.231 N 
ATOM     22  H30 ZIN A   1      20.121   2.511  18.812  0.00  0.00     0.174 HD
ATOM     23  H31 ZIN A   1      18.763   1.733  19.422  0.00  0.00     0.174 HD
ENDBRANCH  10  21
TORSDOF 5
ENDMDL
MODEL 3
REMARK VINA RESULT:      -6.3      6.087      9.300
REMARK  5 active torsions:
REMARK  status: ('A' for Active; 'I' for Inactive)
REMARK    1  A    between atoms: C2_2  and  O4_3 
REMARK    2  A    between atoms: C2_2  and  C5_4 
REMARK    3  A    between atoms: C5_4  and  O7_5 
REMARK    4  A    between atoms: C5_4  and  C8_6 
REMARK    5  A    between atoms: C18_15  and  N19_16 
ROOT
ATOM      1  C8  ZIN A   1      17.896  -1.035   6.056  0.00  0.00     0.131 C 
ATOM      2  C10 ZIN A   1      17.930   0.431   5.601  0.00  0.00     0.149 C 
ATOM      3  N11 ZIN A   1      18.869   1.162   6.463  0.00  0.00    -0.370 N 
ATOM      4  C12 ZIN A   1      18.812   0.971   7.835  0.00  0.00     0.175 A 
ATOM      5  C13 ZIN A   1      18.150  -0.134   8.351  0.00  0.00     0.146 A 
ATOM      6  N14 ZIN A   1      17.531  -1.061   7.482  0.00  0.00    -0.373 N 
ATOM      7  C15 ZIN A   1      18.105  -0.313   9.738  0.00  0.00     0.313 A 
ATOM      8  O16 ZIN A   1      17.530  -1.276  10.225  0.00  0.00    -0.263 OA
ATOM      9  N17 ZIN A   1      18.710   0.602  10.527  0.00  0.00    -0.020 NA
ATOM     10  C18 ZIN A   1      19.345   1.670   9.972  0.00  0.00     0.725 A 
ATOM     11  N20 ZIN A   1      19.392   1.844   8.668  0.00  0.00    -0.043 NA
ATOM     12  H28 ZIN A   1      19.520   1.770   6.078  0.00  0.00     0.161 HD
ATOM     13  H29 ZIN A   1      16.881  -1.698   7.817  0.00  0.00     0.160 HD
ENDROOT
BRANCH   1  14
ATOM     14  C5  ZIN A   1      19.274  -1.669   5.864  0.00  0.00     0.170 C 
BRANCH  14  15
ATOM     15  C2  ZIN A   1      19.118  -3.176   5.652  0.00  0.00     0.145 C 
ATOM     16  C1  ZIN A   1      19.971  -3.927   6.678  0.00  0.00     0.042 C 
BRANCH  15  17
ATOM     17  O4  ZIN A   1      17.746  -3.540   5.816  0.00  0.00    -0.393 OA
ATOM     18  H24 ZIN A   1      17.361  -3.257   6.657  0.00  0.00     0.210 HD
ENDBRANCH  15  17
ENDBRANCH  14  15
BRANCH  14  19
ATOM     19  O7  ZIN A   1      19.909  -1.092   4.721  0.00  0.00    -0.391 OA
ATOM     20  H25 ZIN A   1      19.425  -0.349   4.336  0.00  0.00     0.210 HD
ENDBRANCH  14  19
ENDBRANCH   1  14
BRANCH  10  21
ATOM     21  N19 ZIN A   1      19.953   2.587  10.790  0.00  0.00    -0.231 N 
ATOM     22  H30 ZIN A   1      19.951   3.528  10.551  0.00  0.00     0.174 HD
ATOM     23  H31 ZIN A   1      20.384   2.297  11.609  0.00  0.00     0.174 HD
ENDBRANCH  10  21
TORSDOF 5
ENDMDL
MODEL 4
REMARK VINA RESULT:      -6.1      6.175      8.985
REMARK  5 active torsions:
REMARK  status: ('A' for Active; 'I' for Inactive)
REMARK    1  A    between atoms: C2_2  and  O4_3 
REMARK    2  A    between atoms: C2_2  and  C5_4 
REMARK    3  A    between atoms: C5_4  and  O7_5 
REMARK    4  A    between atoms: C5_4  and  C8_6 
REMARK    5  A    between atoms: C18_15  and  N19_16 
ROOT
ATOM      1  C8  ZIN A   1      18.320  -2.989   7.554  0.00  0.00     0.131 C 
ATOM      2  C10 ZIN A   1      18.997  -1.613   7.621  0.00  0.00     0.149 C 
ATOM      3  N11 ZIN A   1      19.818  -1.559   8.838  0.00  0.00    -0.370 N 
ATOM      4  C12 ZIN A   1      19.280  -2.012  10.034  0.00  0.00     0.175 A 
ATOM      5  C13 ZIN A   1      18.152  -2.820  10.021  0.00  0.00     0.146 A 
ATOM      6  N14 ZIN A   1      17.549  -3.179   8.794  0.00  0.00    -0.373 N 
ATOM      7  C15 ZIN A   1      17.625  -3.270  11.236  0.00  0.00     0.313 A 
ATOM      8  O16 ZIN A   1      16.633  -3.984  11.261  0.00  0.00    -0.263 OA
ATOM      9  N17 ZIN A   1      18.236  -2.898  12.382  0.00  0.00    -0.020 NA
ATOM     10  C18 ZIN A   1      19.339  -2.101  12.342  0.00  0.00     0.725 A 
ATOM     11  N20 ZIN A   1      19.840  -1.675  11.202  0.00  0.00    -0.043 NA
ATOM     12  H28 ZIN A   1      20.723  -1.213   8.807  0.00  0.00     0.161 HD
ATOM     13  H29 ZIN A   1      16.650  -3.542   8.770  0.00  0.00     0.160 HD
ENDROOT
BRANCH   1  14
ATOM     14  C5  ZIN A   1      19.381  -4.084   7.433  0.00  0.00     0.170 C 
BRANCH  14  15
ATOM     15  C2  ZIN A   1      18.791  -5.290   6.700  0.00  0.00     0.145 C 
ATOM     16  C1  ZIN A   1      18.036  -4.812   5.458  0.00  0.00     0.042 C 
BRANCH  15  17
ATOM     17  O4  ZIN A   1      19.845  -6.171   6.308  0.00  0.00    -0.393 OA
ATOM     18  H24 ZIN A   1      19.632  -7.108   6.408  0.00  0.00     0.210 HD
ENDBRANCH  15  17
ENDBRANCH  14  15
BRANCH  14  19
ATOM     19  O7  ZIN A   1      20.501  -3.582   6.699  0.00  0.00    -0.391 OA
ATOM     20  H25 ZIN A   1      20.946  -4.248   6.158  0.00  0.00     0.210 HD
ENDBRANCH  14  19
ENDBRANCH   1  14
BRANCH  10  21
ATOM     21  N19 ZIN A   1      19.943  -1.734  13.516  0.00  0.00    -0.231 N 
ATOM     22  H30 ZIN A   1      19.646  -0.939  13.988  0.00  0.00     0.174 HD
ATOM     23  H31 ZIN A   1      20.668  -2.268  13.877  0.00  0.00     0.174 HD
ENDBRANCH  10  21
TORSDOF 5
ENDMDL
MODEL 5
REMARK VINA RESULT:      -6.0      4.383      6.344
REMARK  5 active torsions:
REMARK  status: ('A' for Active; 'I' for Inactive)
REMARK    1  A    between atoms: C2_2  and  O4_3 
REMARK    2  A    between atoms: C2_2  and  C5_4 
REMARK    3  A    between atoms: C5_4  and  O7_5 
REMARK    4  A    between atoms: C5_4  and  C8_6 
REMARK    5  A    between atoms: C18_15  and  N19_16 
ROOT
ATOM      1  C8  ZIN A   1      20.317  -0.511  10.957  0.00  0.00     0.131 C 
ATOM      2  C10 ZIN A   1      20.027  -0.146   9.495  0.00  0.00     0.149 C 
ATOM      3  N11 ZIN A   1      18.801  -0.840   9.078  0.00  0.00    -0.370 N 
ATOM      4  C12 ZIN A   1      18.645  -2.181   9.394  0.00  0.00     0.175 A 
ATOM      5  C13 ZIN A   1      19.439  -2.755  10.377  0.00  0.00     0.146 A 
ATOM      6  N14 ZIN A   1      20.407  -1.977  11.052  0.00  0.00    -0.373 N 
ATOM      7  C15 ZIN A   1      19.267  -4.109  10.686  0.00  0.00     0.313 A 
ATOM      8  O16 ZIN A   1      19.949  -4.645  11.546  0.00  0.00    -0.263 OA
ATOM      9  N17 ZIN A   1      18.330  -4.810  10.011  0.00  0.00    -0.020 NA
ATOM     10  C18 ZIN A   1      17.578  -4.201   9.053  0.00  0.00     0.725 A 
ATOM     11  N20 ZIN A   1      17.734  -2.928   8.759  0.00  0.00    -0.043 NA
ATOM     12  H28 ZIN A   1      18.109  -0.367   8.589  0.00  0.00     0.161 HD
ATOM     13  H29 ZIN A   1      21.113  -2.400  11.565  0.00  0.00     0.160 HD
ENDROOT
BRANCH   1  14
ATOM     14  C5  ZIN A   1      19.184  -0.004  11.851  0.00  0.00     0.170 C 
BRANCH  14  15
ATOM     15  C2  ZIN A   1      19.732   0.299  13.247  0.00  0.00     0.145 C 
ATOM     16  C1  ZIN A   1      19.276  -0.789  14.222  0.00  0.00     0.042 C 
BRANCH  15  17
ATOM     17  O4  ZIN A   1      21.160   0.330  13.202  0.00  0.00    -0.393 OA
ATOM     18  H24 ZIN A   1      21.548   1.128  13.584  0.00  0.00     0.210 HD
ENDBRANCH  15  17
ENDBRANCH  14  15
BRANCH  14  19
ATOM     19  O7  ZIN A   1      18.630   1.187  11.289  0.00  0.00    -0.391 OA
ATOM     20  H25 ZIN A   1      17.664   1.211  11.294  0.00  0.00     0.210 HD
ENDBRANCH  14  19
ENDBRANCH   1  14
BRANCH  10  21
ATOM     21  N19 ZIN A   1      16.633  -4.932   8.379  0.00  0.00    -0.231 N 
ATOM     22  H30 ZIN A   1      16.867  -5.792   7.996  0.00  0.00     0.174 HD
ATOM     23  H31 ZIN A   1      15.731  -4.589   8.285  0.00  0.00     0.174 HD
ENDBRANCH  10  21
TORSDOF 5
ENDMDL
MODEL 6
REMARK VINA RESULT:      -5.9      4.615      6.271
REMARK  5 active torsions:
REMARK  status: ('A' for Active; 'I' for Inactive)
REMARK    1  A    between atoms: C2_2  and  O4_3 
REMARK    2  A    between atoms: C2_2  and  C5_4 
REMARK    3  A    between atoms: C5_4  and  O7_5 
REMARK    4  A    between atoms: C5_4  and  C8_6 
REMARK    5  A    between atoms: C18_15  and  N19_16 
ROOT
ATOM      1  C8  ZIN A   1      18.447  -0.410  10.984  0.00  0.00     0.131 C 
ATOM      2  C10 ZIN A   1      17.690  -1.745  10.973  0.00  0.00     0.149 C 
ATOM      3  N11 ZIN A   1      18.298  -2.615   9.957  0.00  0.00    -0.370 N 
ATOM      4  C12 ZIN A   1      18.587  -2.089   8.707  0.00  0.00     0.175 A 
ATOM      5  C13 ZIN A   1      18.642  -0.714   8.532  0.00  0.00     0.146 A 
ATOM      6  N14 ZIN A   1      18.402   0.151   9.623  0.00  0.00    -0.373 N 
ATOM      7  C15 ZIN A   1      18.939  -0.201   7.264  0.00  0.00     0.313 A 
ATOM      8  O16 ZIN A   1      18.996   1.005   7.076  0.00  0.00    -0.263 OA
ATOM      9  N17 ZIN A   1      19.159  -1.069   6.253  0.00  0.00    -0.020 NA
ATOM     10  C18 ZIN A   1      19.090  -2.410   6.475  0.00  0.00     0.725 A 
ATOM     11  N20 ZIN A   1      18.814  -2.899   7.665  0.00  0.00    -0.043 NA
ATOM     12  H28 ZIN A   1      18.495  -3.543  10.158  0.00  0.00     0.161 HD
ATOM     13  H29 ZIN A   1      18.211   1.091   9.479  0.00  0.00     0.160 HD
ENDROOT
BRANCH   1  14
ATOM     14  C5  ZIN A   1      19.900  -0.642  11.399  0.00  0.00     0.170 C 
BRANCH  14  15
ATOM     15  C2  ZIN A   1      20.372   0.518  12.279  0.00  0.00     0.145 C 
ATOM     16  C1  ZIN A   1      19.975   0.250  13.732  0.00  0.00     0.042 C 
BRANCH  15  17
ATOM     17  O4  ZIN A   1      21.793   0.636  12.188  0.00  0.00    -0.393 OA
ATOM     18  H24 ZIN A   1      22.178   1.253  12.824  0.00  0.00     0.210 HD
ENDBRANCH  15  17
ENDBRANCH  14  15
BRANCH  14  19
ATOM     19  O7  ZIN A   1      19.997  -1.865  12.132  0.00  0.00    -0.391 OA
ATOM     20  H25 ZIN A   1      20.295  -1.754  13.045  0.00  0.00     0.210 HD
ENDBRANCH  14  19
ENDBRANCH   1  14
BRANCH  10  21
ATOM     21  N19 ZIN A   1      19.317  -3.274   5.434  0.00  0.00    -0.231 N 
ATOM     22  H30 ZIN A   1      19.283  -4.232   5.582  0.00  0.00     0.174 HD
ATOM     23  H31 ZIN A   1      19.511  -2.927   4.550  0.00  0.00     0.174 HD
ENDBRANCH  10  21
TORSDOF 5
ENDMDL
MODEL 7
REMARK VINA RESULT:      -5.8      4.614      6.998
REMARK  5 active torsions:
REMARK  status: ('A' for Active; 'I' for Inactive)
REMARK    1  A    between atoms: C2_2  and  O4_3 
REMARK    2  A    between atoms: C2_2  and  C5_4 
REMARK    3  A    between atoms: C5_4  and  O7_5 
REMARK    4  A    between atoms: C5_4  and  C8_6 
REMARK    5  A    between atoms: C18_15  and  N19_16 
ROOT
ATOM      1  C8  ZIN A   1      18.214  -2.259   8.865  0.00  0.00     0.131 C 
ATOM      2  C10 ZIN A   1      19.440  -1.483   8.365  0.00  0.00     0.149 C 
ATOM      3  N11 ZIN A   1      20.091  -0.850   9.520  0.00  0.00    -0.370 N 
ATOM      4  C12 ZIN A   1      19.309  -0.183  10.452  0.00  0.00     0.175 A 
ATOM      5  C13 ZIN A   1      17.941  -0.412  10.495  0.00  0.00     0.146 A 
ATOM      6  N14 ZIN A   1      17.344  -1.319   9.590  0.00  0.00    -0.373 N 
ATOM      7  C15 ZIN A   1      17.168   0.267  11.443  0.00  0.00     0.313 A 
ATOM      8  O16 ZIN A   1      15.961   0.089  11.508  0.00  0.00    -0.263 OA
ATOM      9  N17 ZIN A   1      17.786   1.125  12.284  0.00  0.00    -0.020 NA
ATOM     10  C18 ZIN A   1      19.131   1.317  12.199  0.00  0.00     0.725 A 
ATOM     11  N20 ZIN A   1      19.864   0.680  11.311  0.00  0.00    -0.043 NA
ATOM     12  H28 ZIN A   1      21.053  -0.898   9.631  0.00  0.00     0.161 HD
ATOM     13  H29 ZIN A   1      16.384  -1.321   9.451  0.00  0.00     0.160 HD
ENDROOT
BRANCH   1  14
ATOM     14  C5  ZIN A   1      18.658  -3.381   9.805  0.00  0.00     0.170 C 
BRANCH  14  15
ATOM     15  C2  ZIN A   1      17.661  -4.538   9.726  0.00  0.00     0.145 C 
ATOM     16  C1  ZIN A   1      16.873  -4.623  11.036  0.00  0.00     0.042 C 
BRANCH  15  17
ATOM     17  O4  ZIN A   1      16.758  -4.316   8.641  0.00  0.00    -0.393 OA
ATOM     18  H24 ZIN A   1      17.165  -3.901   7.869  0.00  0.00     0.210 HD
ENDBRANCH  15  17
ENDBRANCH  14  15
BRANCH  14  19
ATOM     19  O7  ZIN A   1      19.954  -3.843   9.416  0.00  0.00    -0.391 OA
ATOM     20  H25 ZIN A   1      20.287  -3.440   8.603  0.00  0.00     0.210 HD
ENDBRANCH  14  19
ENDBRANCH   1  14
BRANCH  10  21
ATOM     21  N19 ZIN A   1      19.738   2.193  13.062  0.00  0.00    -0.231 N 
ATOM     22  H30 ZIN A   1      20.624   1.999  13.407  0.00  0.00     0.174 HD
ATOM     23  H31 ZIN A   1      19.282   3.006  13.329  0.00  0.00     0.174 HD
ENDBRANCH  10  21
TORSDOF 5
ENDMDL
MODEL 8
REMARK VINA RESULT:      -5.8      2.731      4.157
REMARK  5 active torsions:
REMARK  status: ('A' for Active; 'I' for Inactive)
REMARK    1  A    between atoms: C2_2  and  O4_3 
REMARK    2  A    between atoms: C2_2  and  C5_4 
REMARK    3  A    between atoms: C5_4  and  O7_5 
REMARK    4  A    between atoms: C5_4  and  C8_6 
REMARK    5  A    between atoms: C18_15  and  N19_16 
ROOT
ATOM      1  C8  ZIN A   1      19.196   1.437  13.940  0.00  0.00     0.131 C 
ATOM      2  C10 ZIN A   1      18.338   2.582  13.383  0.00  0.00     0.149 C 
ATOM      3  N11 ZIN A   1      17.563   2.069  12.245  0.00  0.00    -0.370 N 
ATOM      4  C12 ZIN A   1      18.201   1.292  11.291  0.00  0.00     0.175 A 
ATOM      5  C13 ZIN A   1      19.428   0.713  11.581  0.00  0.00     0.146 A 
ATOM      6  N14 ZIN A   1      20.030   0.917  12.843  0.00  0.00    -0.373 N 
ATOM      7  C15 ZIN A   1      20.056  -0.072  10.607  0.00  0.00     0.313 A 
ATOM      8  O16 ZIN A   1      21.138  -0.596  10.830  0.00  0.00    -0.263 OA
ATOM      9  N17 ZIN A   1      19.441  -0.236   9.415  0.00  0.00    -0.020 NA
ATOM     10  C18 ZIN A   1      18.238   0.356   9.179  0.00  0.00     0.725 A 
ATOM     11  N20 ZIN A   1      17.642   1.093  10.091  0.00  0.00    -0.043 NA
ATOM     12  H28 ZIN A   1      16.618   2.271  12.163  0.00  0.00     0.161 HD
ATOM     13  H29 ZIN A   1      20.969   0.721  12.983  0.00  0.00     0.160 HD
ENDROOT
BRANCH   1  14
ATOM     14  C5  ZIN A   1      18.292   0.325  14.473  0.00  0.00     0.170 C 
BRANCH  14  15
ATOM     15  C2  ZIN A   1      19.119  -0.642  15.322  0.00  0.00     0.145 C 
ATOM     16  C1  ZIN A   1      18.184  -1.489  16.188  0.00  0.00     0.042 C 
BRANCH  15  17
ATOM     17  O4  ZIN A   1      19.879  -1.497  14.465  0.00  0.00    -0.393 OA
ATOM     18  H24 ZIN A   1      20.563  -1.039  13.959  0.00  0.00     0.210 HD
ENDBRANCH  15  17
ENDBRANCH  14  15
BRANCH  14  19
ATOM     19  O7  ZIN A   1      17.257   0.896  15.276  0.00  0.00    -0.391 OA
ATOM     20  H25 ZIN A   1      17.302   0.649  16.209  0.00  0.00     0.210 HD
ENDBRANCH  14  19
ENDBRANCH   1  14
BRANCH  10  21
ATOM     21  N19 ZIN A   1      17.632   0.177   7.962  0.00  0.00    -0.231 N 
ATOM     22  H30 ZIN A   1      17.906   0.712   7.200  0.00  0.00     0.174 HD
ATOM     23  H31 ZIN A   1      16.930  -0.484   7.862  0.00  0.00     0.174 HD
ENDBRANCH  10  21
TORSDOF 5
ENDMDL
MODEL 9
REMARK VINA RESULT:      -5.8      2.961      3.601
REMARK  5 active torsions:
REMARK  status: ('A' for Active; 'I' for Inactive)
REMARK    1  A    between atoms: C2_2  and  O4_3 
REMARK    2  A    between atoms: C2_2  and  C5_4 
REMARK    3  A    between atoms: C5_4  and  O7_5 
REMARK    4  A    between atoms: C5_4  and  C8_6 
REMARK    5  A    between atoms: C18_15  and  N19_16 
ROOT
ATOM      1  C8  ZIN A   1      18.350   3.306  15.525  0.00  0.00     0.131 C 
ATOM      2  C10 ZIN A   1      18.940   1.892  15.438  0.00  0.00     0.149 C 
ATOM      3  N11 ZIN A   1      19.715   1.789  14.193  0.00  0.00    -0.370 N 
ATOM      4  C12 ZIN A   1      19.165   2.274  13.016  0.00  0.00     0.175 A 
ATOM      5  C13 ZIN A   1      18.090   3.149  13.065  0.00  0.00     0.146 A 
ATOM      6  N14 ZIN A   1      17.551   3.544  14.311  0.00  0.00    -0.373 N 
ATOM      7  C15 ZIN A   1      17.550   3.631  11.868  0.00  0.00     0.313 A 
ATOM      8  O16 ZIN A   1      16.603   4.404  11.875  0.00  0.00    -0.263 OA
ATOM      9  N17 ZIN A   1      18.099   3.223  10.703  0.00  0.00    -0.020 NA
ATOM     10  C18 ZIN A   1      19.152   2.361  10.708  0.00  0.00     0.725 A 
ATOM     11  N20 ZIN A   1      19.665   1.905  11.830  0.00  0.00    -0.043 NA
ATOM     12  H28 ZIN A   1      20.598   1.388  14.195  0.00  0.00     0.161 HD
ATOM     13  H29 ZIN A   1      16.677   3.959  14.365  0.00  0.00     0.160 HD
ENDROOT
BRANCH   1  14
ATOM     14  C5  ZIN A   1      19.479   4.334  15.609  0.00  0.00     0.170 C 
BRANCH  14  15
ATOM     15  C2  ZIN A   1      18.941   5.637  16.204  0.00  0.00     0.145 C 
ATOM     16  C1  ZIN A   1      18.944   6.727  15.130  0.00  0.00     0.042 C 
BRANCH  15  17
ATOM     17  O4  ZIN A   1      17.607   5.432  16.671  0.00  0.00    -0.393 OA
ATOM     18  H24 ZIN A   1      16.961   5.287  15.967  0.00  0.00     0.210 HD
ENDBRANCH  15  17
ENDBRANCH  14  15
BRANCH  14  19
ATOM     19  O7  ZIN A   1      20.524   3.827  16.442  0.00  0.00    -0.391 OA
ATOM     20  H25 ZIN A   1      20.956   4.500  16.985  0.00  0.00     0.210 HD
ENDBRANCH  14  19
ENDBRANCH   1  14
BRANCH  10  21
ATOM     21  N19 ZIN A   1      19.694   1.958   9.514  0.00  0.00    -0.231 N 
ATOM     22  H30 ZIN A   1      19.434   1.108   9.125  0.00  0.00     0.174 HD
ATOM     23  H31 ZIN A   1      20.337   2.523   9.057  0.00  0.00     0.174 HD
ENDBRANCH  10  21
TORSDOF 5
ENDMDL
