MODEL 1
REMARK VINA RESULT:     -10.3      0.000      0.000
REMARK  9 active torsions:
REMARK  status: ('A' for Active; 'I' for Inactive)
REMARK       I    between atoms: C4_4  and  N5_5 
REMARK       I    between atoms: C4_4  and  N30_30 
REMARK    1  A    between atoms: N5_5  and  C6_6 
REMARK    2  A    between atoms: C6_6  and  C7_7 
REMARK    3  A    between atoms: C7_7  and  C8_8 
REMARK    4  A    between atoms: C8_8  and  C9_9 
REMARK    5  A    between atoms: C9_9  and  C10_10 
REMARK    6  A    between atoms: C10_10  and  C11_11 
REMARK    7  A    between atoms: C11_11  and  N12_12 
REMARK       I    between atoms: N12_12  and  C13_13 
REMARK       I    between atoms: C13_13  and  N17_17 
REMARK       I    between atoms: N17_17  and  C18_18 
REMARK       I    between atoms: C18_18  and  N22_22 
REMARK    8  A    between atoms: N22_22  and  C23_23 
REMARK       I    between atoms: N30_30  and  C31_31 
REMARK       I    between atoms: C31_31  and  N35_35 
REMARK    9  A    between atoms: N35_35  and  C36_36 
ROOT
ATOM      1  C8  ZIN A   1      16.408  -4.975   9.997  0.00  0.00     0.002 C 
ENDROOT
BRANCH   1   2
ATOM      2  C7  ZIN A   1      17.581  -5.838  10.467  0.00  0.00     0.020 C 
BRANCH   2   3
ATOM      3  C6  ZIN A   1      18.881  -5.037  10.359  0.00  0.00     0.138 C 
BRANCH   3   4
ATOM      4  N5  ZIN A   1      18.604  -3.621  10.609  0.00  0.00    -0.226 N 
ATOM      5  C4  ZIN A   1      19.616  -2.783  11.011  0.00  0.00     0.686 C 
ATOM      6  N1  ZIN A   1      20.822  -3.249  11.169  0.00  0.00    -0.234 N 
ATOM      7  N30 ZIN A   1      19.355  -1.450  11.247  0.00  0.00    -0.023 N 
ATOM      8  H2  ZIN A   1      21.516  -2.683  11.543  0.00  0.00     0.174 HD
ATOM      9  H3  ZIN A   1      21.025  -4.164  10.919  0.00  0.00     0.174 HD
ATOM     10  C31 ZIN A   1      20.392  -0.582  11.522  0.00  0.00     0.690 C 
ATOM     11  H63 ZIN A   1      18.443  -1.122  11.221  0.00  0.00     0.203 HD
ATOM     12  N32 ZIN A   1      21.537  -0.724  10.917  0.00  0.00    -0.234 N 
ATOM     13  N35 ZIN A   1      20.217   0.433  12.435  0.00  0.00    -0.192 N 
ATOM     14  H33 ZIN A   1      22.289  -0.162  11.163  0.00  0.00     0.174 HD
ATOM     15  H34 ZIN A   1      21.638  -1.391  10.220  0.00  0.00     0.174 HD
ATOM     16  H64 ZIN A   1      20.681   1.277  12.316  0.00  0.00     0.184 HD
ATOM     17  H43 ZIN A   1      17.705  -3.275  10.491  0.00  0.00     0.177 HD
BRANCH  13  18
ATOM     18  C36 ZIN A   1      19.370   0.247  13.533  0.00  0.00     0.049 A 
ATOM     19  C42 ZIN A   1      18.282   1.090  13.722  0.00  0.00     0.032 A 
ATOM     20  C41 ZIN A   1      17.445   0.902  14.805  0.00  0.00     0.026 A 
ATOM     21  C39 ZIN A   1      17.696  -0.118  15.706  0.00  0.00     0.034 A 
ATOM     22  C38 ZIN A   1      18.783  -0.956  15.522  0.00  0.00     0.026 A 
ATOM     23 Cl40 ZIN A   1      16.645  -0.348  17.069  0.00  0.00    -0.084 Cl
ATOM     24  C37 ZIN A   1      19.619  -0.776  14.439  0.00  0.00     0.032 A 
ENDBRANCH  13  18
ENDBRANCH   3   4
ENDBRANCH   2   3
ENDBRANCH   1   2
BRANCH   1  25
ATOM     25  C9  ZIN A   1      15.583  -5.751   8.969  0.00  0.00     0.002 C 
BRANCH  25  26
ATOM     26  C10 ZIN A   1      16.428  -6.885   8.387  0.00  0.00     0.020 C 
BRANCH  26  27
ATOM     27  C11 ZIN A   1      16.367  -6.835   6.859  0.00  0.00     0.138 C 
BRANCH  27  28
ATOM     28  N12 ZIN A   1      16.445  -5.442   6.413  0.00  0.00    -0.226 N 
ATOM     29  C13 ZIN A   1      17.386  -5.070   5.481  0.00  0.00     0.686 C 
ATOM     30  N14 ZIN A   1      18.207  -5.957   4.996  0.00  0.00    -0.234 N 
ATOM     31  N17 ZIN A   1      17.459  -3.758   5.061  0.00  0.00    -0.023 N 
ATOM     32  H15 ZIN A   1      18.902  -5.687   4.376  0.00  0.00     0.174 HD
ATOM     33  H16 ZIN A   1      18.124  -6.888   5.254  0.00  0.00     0.174 HD
ATOM     34  C18 ZIN A   1      18.332  -3.406   4.053  0.00  0.00     0.690 C 
ATOM     35  H57 ZIN A   1      16.897  -3.085   5.474  0.00  0.00     0.203 HD
ATOM     36  N19 ZIN A   1      18.523  -4.208   3.045  0.00  0.00    -0.234 N 
ATOM     37  N22 ZIN A   1      19.003  -2.205   4.113  0.00  0.00    -0.192 N 
ATOM     38  H20 ZIN A   1      19.135  -3.959   2.335  0.00  0.00     0.174 HD
ATOM     39  H21 ZIN A   1      18.052  -5.055   3.005  0.00  0.00     0.174 HD
ATOM     40  H58 ZIN A   1      19.556  -1.920   3.369  0.00  0.00     0.184 HD
ATOM     41  H56 ZIN A   1      15.834  -4.781   6.775  0.00  0.00     0.177 HD
BRANCH  37  42
ATOM     42  C23 ZIN A   1      18.888  -1.396   5.248  0.00  0.00     0.049 A 
ATOM     43  C29 ZIN A   1      19.374  -1.841   6.471  0.00  0.00     0.032 A 
ATOM     44  C28 ZIN A   1      19.263  -1.039   7.590  0.00  0.00     0.026 A 
ATOM     45  C26 ZIN A   1      18.659   0.202   7.497  0.00  0.00     0.034 A 
ATOM     46  C25 ZIN A   1      18.169   0.647   6.280  0.00  0.00     0.026 A 
ATOM     47 Cl27 ZIN A   1      18.515   1.205   8.906  0.00  0.00    -0.084 Cl
ATOM     48  C24 ZIN A   1      18.282  -0.150   5.157  0.00  0.00     0.032 A 
ENDBRANCH  37  42
ENDBRANCH  27  28
ENDBRANCH  26  27
ENDBRANCH  25  26
ENDBRANCH   1  25
TORSDOF 9
ENDMDL
MODEL 2
REMARK VINA RESULT:      -9.8      4.299     11.153
REMARK  9 active torsions:
REMARK  status: ('A' for Active; 'I' for Inactive)
REMARK       I    between atoms: C4_4  and  N5_5 
REMARK       I    between atoms: C4_4  and  N30_30 
REMARK    1  A    between atoms: N5_5  and  C6_6 
REMARK    2  A    between atoms: C6_6  and  C7_7 
REMARK    3  A    between atoms: C7_7  and  C8_8 
REMARK    4  A    between atoms: C8_8  and  C9_9 
REMARK    5  A    between atoms: C9_9  and  C10_10 
REMARK    6  A    between atoms: C10_10  and  C11_11 
REMARK    7  A    between atoms: C11_11  and  N12_12 
REMARK       I    between atoms: N12_12  and  C13_13 
REMARK       I    between atoms: C13_13  and  N17_17 
REMARK       I    between atoms: N17_17  and  C18_18 
REMARK       I    between atoms: C18_18  and  N22_22 
REMARK    8  A    between atoms: N22_22  and  C23_23 
REMARK       I    between atoms: N30_30  and  C31_31 
REMARK       I    between atoms: C31_31  and  N35_35 
REMARK    9  A    between atoms: N35_35  and  C36_36 
ROOT
ATOM      1  C8  ZIN A   1      18.984   6.349  14.542  0.00  0.00     0.002 C 
ENDROOT
BRANCH   1   2
ATOM      2  C7  ZIN A   1      18.170   5.219  13.908  0.00  0.00     0.020 C 
BRANCH   2   3
ATOM      3  C6  ZIN A   1      18.813   4.808  12.582  0.00  0.00     0.138 C 
BRANCH   3   4
ATOM      4  N5  ZIN A   1      18.597   3.377  12.356  0.00  0.00    -0.226 N 
ATOM      5  C4  ZIN A   1      19.648   2.573  11.986  0.00  0.00     0.686 C 
ATOM      6  N1  ZIN A   1      20.836   3.084  11.835  0.00  0.00    -0.234 N 
ATOM      7  N30 ZIN A   1      19.443   1.226  11.774  0.00  0.00    -0.023 N 
ATOM      8  H2  ZIN A   1      21.557   2.538  11.483  0.00  0.00     0.174 HD
ATOM      9  H3  ZIN A   1      20.999   4.011  12.069  0.00  0.00     0.174 HD
ATOM     10  C31 ZIN A   1      20.518   0.395  11.532  0.00  0.00     0.690 C 
ATOM     11  H63 ZIN A   1      18.545   0.862  11.795  0.00  0.00     0.203 HD
ATOM     12  N32 ZIN A   1      21.648   0.595  12.149  0.00  0.00    -0.234 N 
ATOM     13  N35 ZIN A   1      20.397  -0.644  10.638  0.00  0.00    -0.192 N 
ATOM     14  H33 ZIN A   1      22.424   0.059  11.925  0.00  0.00     0.174 HD
ATOM     15  H34 ZIN A   1      21.711   1.279  12.834  0.00  0.00     0.174 HD
ATOM     16  H64 ZIN A   1      20.892  -1.466  10.780  0.00  0.00     0.184 HD
ATOM     17  H43 ZIN A   1      17.711   2.998  12.470  0.00  0.00     0.177 HD
BRANCH  13  18
ATOM     18  C36 ZIN A   1      19.560  -0.515   9.524  0.00  0.00     0.049 A 
ATOM     19  C42 ZIN A   1      19.705   0.569   8.667  0.00  0.00     0.032 A 
ATOM     20  C41 ZIN A   1      18.880   0.692   7.566  0.00  0.00     0.026 A 
ATOM     21  C39 ZIN A   1      17.903  -0.257   7.323  0.00  0.00     0.034 A 
ATOM     22  C38 ZIN A   1      17.752  -1.334   8.179  0.00  0.00     0.026 A 
ATOM     23 Cl40 ZIN A   1      16.863  -0.095   5.942  0.00  0.00    -0.084 Cl
ATOM     24  C37 ZIN A   1      18.578  -1.465   9.278  0.00  0.00     0.032 A 
ENDBRANCH  13  18
ENDBRANCH   3   4
ENDBRANCH   2   3
ENDBRANCH   1   2
BRANCH   1  25
ATOM     25  C9  ZIN A   1      18.062   7.527  14.862  0.00  0.00     0.002 C 
BRANCH  25  26
ATOM     26  C10 ZIN A   1      16.614   7.039  14.921  0.00  0.00     0.020 C 
BRANCH  26  27
ATOM     27  C11 ZIN A   1      16.177   6.913  16.382  0.00  0.00     0.138 C 
BRANCH  27  28
ATOM     28  N12 ZIN A   1      16.274   5.513  16.802  0.00  0.00    -0.226 N 
ATOM     29  C13 ZIN A   1      17.269   5.121  17.666  0.00  0.00     0.686 C 
ATOM     30  N14 ZIN A   1      18.125   5.996  18.112  0.00  0.00    -0.234 N 
ATOM     31  N17 ZIN A   1      17.359   3.802  18.061  0.00  0.00    -0.023 N 
ATOM     32  H15 ZIN A   1      18.856   5.711  18.683  0.00  0.00     0.174 HD
ATOM     33  H16 ZIN A   1      18.032   6.931  17.874  0.00  0.00     0.174 HD
ATOM     34  C18 ZIN A   1      18.292   3.429  19.007  0.00  0.00     0.690 C 
ATOM     35  H57 ZIN A   1      16.767   3.139  17.675  0.00  0.00     0.203 HD
ATOM     36  N19 ZIN A   1      18.552   4.215  20.013  0.00  0.00    -0.234 N 
ATOM     37  N22 ZIN A   1      18.949   2.225  18.887  0.00  0.00    -0.192 N 
ATOM     38  H20 ZIN A   1      19.206   3.951  20.679  0.00  0.00     0.174 HD
ATOM     39  H21 ZIN A   1      18.090   5.064  20.096  0.00  0.00     0.174 HD
ATOM     40  H58 ZIN A   1      19.546   1.926  19.590  0.00  0.00     0.184 HD
ATOM     41  H56 ZIN A   1      15.637   4.861  16.470  0.00  0.00     0.177 HD
BRANCH  37  42
ATOM     42  C23 ZIN A   1      18.757   1.435  17.749  0.00  0.00     0.049 A 
ATOM     43  C29 ZIN A   1      18.033   0.252  17.839  0.00  0.00     0.032 A 
ATOM     44  C28 ZIN A   1      17.840  -0.525  16.713  0.00  0.00     0.026 A 
ATOM     45  C26 ZIN A   1      18.376  -0.132  15.500  0.00  0.00     0.034 A 
ATOM     46  C25 ZIN A   1      19.102   1.042  15.408  0.00  0.00     0.026 A 
ATOM     47 Cl27 ZIN A   1      18.138  -1.114  14.088  0.00  0.00    -0.084 Cl
ATOM     48  C24 ZIN A   1      19.294   1.826  16.530  0.00  0.00     0.032 A 
ENDBRANCH  37  42
ENDBRANCH  27  28
ENDBRANCH  26  27
ENDBRANCH  25  26
ENDBRANCH   1  25
TORSDOF 9
ENDMDL
MODEL 3
REMARK VINA RESULT:      -9.8      4.193      8.502
REMARK  9 active torsions:
REMARK  status: ('A' for Active; 'I' for Inactive)
REMARK       I    between atoms: C4_4  and  N5_5 
REMARK       I    between atoms: C4_4  and  N30_30 
REMARK    1  A    between atoms: N5_5  and  C6_6 
REMARK    2  A    between atoms: C6_6  and  C7_7 
REMARK    3  A    between atoms: C7_7  and  C8_8 
REMARK    4  A    between atoms: C8_8  and  C9_9 
REMARK    5  A    between atoms: C9_9  and  C10_10 
REMARK    6  A    between atoms: C10_10  and  C11_11 
REMARK    7  A    between atoms: C11_11  and  N12_12 
REMARK       I    between atoms: N12_12  and  C13_13 
REMARK       I    between atoms: C13_13  and  N17_17 
REMARK       I    between atoms: N17_17  and  C18_18 
REMARK       I    between atoms: C18_18  and  N22_22 
REMARK    8  A    between atoms: N22_22  and  C23_23 
REMARK       I    between atoms: N30_30  and  C31_31 
REMARK       I    between atoms: C31_31  and  N35_35 
REMARK    9  A    between atoms: N35_35  and  C36_36 
ROOT
ATOM      1  C8  ZIN A   1      15.869   5.757  14.211  0.00  0.00     0.002 C 
ENDROOT
BRANCH   1   2
ATOM      2  C7  ZIN A   1      15.484   6.967  15.063  0.00  0.00     0.020 C 
BRANCH   2   3
ATOM      3  C6  ZIN A   1      16.213   6.898  16.407  0.00  0.00     0.138 C 
BRANCH   3   4
ATOM      4  N5  ZIN A   1      16.089   5.548  16.962  0.00  0.00    -0.226 N 
ATOM      5  C4  ZIN A   1      17.121   5.005  17.687  0.00  0.00     0.686 C 
ATOM      6  N1  ZIN A   1      18.211   5.691  17.882  0.00  0.00    -0.234 N 
ATOM      7  N30 ZIN A   1      17.004   3.734  18.209  0.00  0.00    -0.023 N 
ATOM      8  H2  ZIN A   1      18.976   5.276  18.312  0.00  0.00     0.174 HD
ATOM      9  H3  ZIN A   1      18.261   6.615  17.592  0.00  0.00     0.174 HD
ATOM     10  C31 ZIN A   1      17.983   3.239  19.047  0.00  0.00     0.690 C 
ATOM     11  H63 ZIN A   1      16.234   3.188  17.988  0.00  0.00     0.203 HD
ATOM     12  N32 ZIN A   1      18.573   4.030  19.897  0.00  0.00    -0.234 N 
ATOM     13  N35 ZIN A   1      18.335   1.910  18.983  0.00  0.00    -0.192 N 
ATOM     14  H33 ZIN A   1      19.311   3.701  20.434  0.00  0.00     0.174 HD
ATOM     15  H34 ZIN A   1      18.273   4.947  19.995  0.00  0.00     0.174 HD
ATOM     16  H64 ZIN A   1      18.620   1.445  19.785  0.00  0.00     0.184 HD
ATOM     17  H43 ZIN A   1      15.276   5.038  16.817  0.00  0.00     0.177 HD
BRANCH  13  18
ATOM     18  C36 ZIN A   1      18.283   1.231  17.761  0.00  0.00     0.049 A 
ATOM     19  C42 ZIN A   1      19.136   1.595  16.726  0.00  0.00     0.032 A 
ATOM     20  C41 ZIN A   1      19.085   0.919  15.522  0.00  0.00     0.026 A 
ATOM     21  C39 ZIN A   1      18.180  -0.112  15.343  0.00  0.00     0.034 A 
ATOM     22  C38 ZIN A   1      17.326  -0.473  16.372  0.00  0.00     0.026 A 
ATOM     23 Cl40 ZIN A   1      18.115  -0.954  13.827  0.00  0.00    -0.084 Cl
ATOM     24  C37 ZIN A   1      17.376   0.196  17.579  0.00  0.00     0.032 A 
ENDBRANCH  13  18
ENDBRANCH   3   4
ENDBRANCH   2   3
ENDBRANCH   1   2
BRANCH   1  25
ATOM     25  C9  ZIN A   1      16.651   6.226  12.982  0.00  0.00     0.002 C 
BRANCH  25  26
ATOM     26  C10 ZIN A   1      17.144   5.010  12.196  0.00  0.00     0.020 C 
BRANCH  26  27
ATOM     27  C11 ZIN A   1      17.706   3.969  13.167  0.00  0.00     0.138 C 
BRANCH  27  28
ATOM     28  N12 ZIN A   1      17.862   2.688  12.474  0.00  0.00    -0.226 N 
ATOM     29  C13 ZIN A   1      19.118   2.217  12.172  0.00  0.00     0.686 C 
ATOM     30  N14 ZIN A   1      20.170   2.912  12.502  0.00  0.00    -0.234 N 
ATOM     31  N17 ZIN A   1      19.264   1.011  11.519  0.00  0.00    -0.023 N 
ATOM     32  H15 ZIN A   1      21.053   2.605  12.247  0.00  0.00     0.174 HD
ATOM     33  H16 ZIN A   1      20.070   3.735  13.005  0.00  0.00     0.174 HD
ATOM     34  C18 ZIN A   1      20.524   0.491  11.307  0.00  0.00     0.690 C 
ATOM     35  H57 ZIN A   1      18.482   0.530  11.210  0.00  0.00     0.203 HD
ATOM     36  N19 ZIN A   1      21.444   0.618  12.220  0.00  0.00    -0.234 N 
ATOM     37  N22 ZIN A   1      20.809  -0.164  10.130  0.00  0.00    -0.192 N 
ATOM     38  H20 ZIN A   1      22.329   0.250  12.073  0.00  0.00     0.174 HD
ATOM     39  H21 ZIN A   1      21.244   1.081  13.049  0.00  0.00     0.174 HD
ATOM     40  H58 ZIN A   1      21.668  -0.598  10.012  0.00  0.00     0.184 HD
ATOM     41  H56 ZIN A   1      17.079   2.172  12.227  0.00  0.00     0.177 HD
BRANCH  37  42
ATOM     42  C23 ZIN A   1      19.860  -0.200   9.103  0.00  0.00     0.049 A 
ATOM     43  C29 ZIN A   1      19.632   0.929   8.327  0.00  0.00     0.032 A 
ATOM     44  C28 ZIN A   1      18.697   0.890   7.310  0.00  0.00     0.026 A 
ATOM     45  C26 ZIN A   1      17.980  -0.269   7.072  0.00  0.00     0.034 A 
ATOM     46  C25 ZIN A   1      18.201  -1.395   7.848  0.00  0.00     0.026 A 
ATOM     47 Cl27 ZIN A   1      16.801  -0.314   5.799  0.00  0.00    -0.084 Cl
ATOM     48  C24 ZIN A   1      19.139  -1.362   8.862  0.00  0.00     0.032 A 
ENDBRANCH  37  42
ENDBRANCH  27  28
ENDBRANCH  26  27
ENDBRANCH  25  26
ENDBRANCH   1  25
TORSDOF 9
ENDMDL
MODEL 4
REMARK VINA RESULT:      -9.6      2.398      5.108
REMARK  9 active torsions:
REMARK  status: ('A' for Active; 'I' for Inactive)
REMARK       I    between atoms: C4_4  and  N5_5 
REMARK       I    between atoms: C4_4  and  N30_30 
REMARK    1  A    between atoms: N5_5  and  C6_6 
REMARK    2  A    between atoms: C6_6  and  C7_7 
REMARK    3  A    between atoms: C7_7  and  C8_8 
REMARK    4  A    between atoms: C8_8  and  C9_9 
REMARK    5  A    between atoms: C9_9  and  C10_10 
REMARK    6  A    between atoms: C10_10  and  C11_11 
REMARK    7  A    between atoms: C11_11  and  N12_12 
REMARK       I    between atoms: N12_12  and  C13_13 
REMARK       I    between atoms: C13_13  and  N17_17 
REMARK       I    between atoms: N17_17  and  C18_18 
REMARK       I    between atoms: C18_18  and  N22_22 
REMARK    8  A    between atoms: N22_22  and  C23_23 
REMARK       I    between atoms: N30_30  and  C31_31 
REMARK       I    between atoms: C31_31  and  N35_35 
REMARK    9  A    between atoms: N35_35  and  C36_36 
ROOT
ATOM      1  C8  ZIN A   1      18.383   0.481   6.461  0.00  0.00     0.002 C 
ENDROOT
BRANCH   1   2
ATOM      2  C7  ZIN A   1      17.069   0.117   7.155  0.00  0.00     0.020 C 
BRANCH   2   3
ATOM      3  C6  ZIN A   1      17.362  -0.767   8.370  0.00  0.00     0.138 C 
BRANCH   3   4
ATOM      4  N5  ZIN A   1      17.917   0.054   9.449  0.00  0.00    -0.226 N 
ATOM      5  C4  ZIN A   1      19.058  -0.349  10.101  0.00  0.00     0.686 C 
ATOM      6  N1  ZIN A   1      19.645  -1.460   9.761  0.00  0.00    -0.234 N 
ATOM      7  N30 ZIN A   1      19.580   0.425  11.117  0.00  0.00    -0.023 N 
ATOM      8  H2  ZIN A   1      20.393  -1.792  10.281  0.00  0.00     0.174 HD
ATOM      9  H3  ZIN A   1      19.330  -1.959   8.991  0.00  0.00     0.174 HD
ATOM     10  C31 ZIN A   1      20.794   0.092  11.682  0.00  0.00     0.690 C 
ATOM     11  H63 ZIN A   1      19.095   1.202  11.434  0.00  0.00     0.203 HD
ATOM     12  N32 ZIN A   1      21.748  -0.392  10.939  0.00  0.00    -0.234 N 
ATOM     13  N35 ZIN A   1      20.997   0.270  13.032  0.00  0.00    -0.192 N 
ATOM     14  H33 ZIN A   1      22.574  -0.696  11.347  0.00  0.00     0.174 HD
ATOM     15  H34 ZIN A   1      21.632  -0.448   9.978  0.00  0.00     0.174 HD
ATOM     16  H64 ZIN A   1      21.878   0.502  13.363  0.00  0.00     0.184 HD
ATOM     17  H43 ZIN A   1      17.480   0.882   9.701  0.00  0.00     0.177 HD
BRANCH  13  18
ATOM     18  C36 ZIN A   1      19.931   0.118  13.925  0.00  0.00     0.049 A 
ATOM     19  C42 ZIN A   1      19.276   1.238  14.423  0.00  0.00     0.032 A 
ATOM     20  C41 ZIN A   1      18.221   1.085  15.301  0.00  0.00     0.026 A 
ATOM     21  C39 ZIN A   1      17.823  -0.181  15.694  0.00  0.00     0.034 A 
ATOM     22  C38 ZIN A   1      18.478  -1.298  15.203  0.00  0.00     0.026 A 
ATOM     23 Cl40 ZIN A   1      16.501  -0.369  16.803  0.00  0.00    -0.084 Cl
ATOM     24  C37 ZIN A   1      19.530  -1.151  14.321  0.00  0.00     0.032 A 
ENDBRANCH  13  18
ENDBRANCH   3   4
ENDBRANCH   2   3
ENDBRANCH   1   2
BRANCH   1  25
ATOM     25  C9  ZIN A   1      18.352  -0.017   5.015  0.00  0.00     0.002 C 
BRANCH  25  26
ATOM     26  C10 ZIN A   1      19.431  -1.084   4.819  0.00  0.00     0.020 C 
BRANCH  26  27
ATOM     27  C11 ZIN A   1      18.773  -2.410   4.432  0.00  0.00     0.138 C 
BRANCH  27  28
ATOM     28  N12 ZIN A   1      18.029  -2.939   5.578  0.00  0.00    -0.226 N 
ATOM     29  C13 ZIN A   1      18.641  -3.799   6.458  0.00  0.00     0.686 C 
ATOM     30  N14 ZIN A   1      19.884  -4.144   6.273  0.00  0.00    -0.234 N 
ATOM     31  N17 ZIN A   1      17.940  -4.297   7.537  0.00  0.00    -0.023 N 
ATOM     32  H15 ZIN A   1      20.302  -4.788   6.865  0.00  0.00     0.174 HD
ATOM     33  H16 ZIN A   1      20.391  -3.756   5.543  0.00  0.00     0.174 HD
ATOM     34  C18 ZIN A   1      18.583  -5.077   8.475  0.00  0.00     0.690 C 
ATOM     35  H57 ZIN A   1      16.996  -4.098   7.635  0.00  0.00     0.203 HD
ATOM     36  N19 ZIN A   1      19.805  -4.799   8.828  0.00  0.00    -0.234 N 
ATOM     37  N22 ZIN A   1      17.932  -6.151   9.040  0.00  0.00    -0.192 N 
ATOM     38  H20 ZIN A   1      20.256  -5.346   9.490  0.00  0.00     0.174 HD
ATOM     39  H21 ZIN A   1      20.265  -4.044   8.429  0.00  0.00     0.174 HD
ATOM     40  H58 ZIN A   1      18.352  -6.652   9.755  0.00  0.00     0.184 HD
ATOM     41  H56 ZIN A   1      17.103  -2.683   5.716  0.00  0.00     0.177 HD
BRANCH  37  42
ATOM     42  C23 ZIN A   1      16.663  -6.520   8.579  0.00  0.00     0.049 A 
ATOM     43  C29 ZIN A   1      16.498  -7.705   7.872  0.00  0.00     0.032 A 
ATOM     44  C28 ZIN A   1      15.243  -8.069   7.422  0.00  0.00     0.026 A 
ATOM     45  C26 ZIN A   1      14.155  -7.251   7.665  0.00  0.00     0.034 A 
ATOM     46  C25 ZIN A   1      14.318  -6.067   8.364  0.00  0.00     0.026 A 
ATOM     47 Cl27 ZIN A   1      12.581  -7.708   7.092  0.00  0.00    -0.084 Cl
ATOM     48  C24 ZIN A   1      15.569  -5.700   8.821  0.00  0.00     0.032 A 
ENDBRANCH  37  42
ENDBRANCH  27  28
ENDBRANCH  26  27
ENDBRANCH  25  26
ENDBRANCH   1  25
TORSDOF 9
ENDMDL
MODEL 5
REMARK VINA RESULT:      -9.2      1.898      7.804
REMARK  9 active torsions:
REMARK  status: ('A' for Active; 'I' for Inactive)
REMARK       I    between atoms: C4_4  and  N5_5 
REMARK       I    between atoms: C4_4  and  N30_30 
REMARK    1  A    between atoms: N5_5  and  C6_6 
REMARK    2  A    between atoms: C6_6  and  C7_7 
REMARK    3  A    between atoms: C7_7  and  C8_8 
REMARK    4  A    between atoms: C8_8  and  C9_9 
REMARK    5  A    between atoms: C9_9  and  C10_10 
REMARK    6  A    between atoms: C10_10  and  C11_11 
REMARK    7  A    between atoms: C11_11  and  N12_12 
REMARK       I    between atoms: N12_12  and  C13_13 
REMARK       I    between atoms: C13_13  and  N17_17 
REMARK       I    between atoms: N17_17  and  C18_18 
REMARK       I    between atoms: C18_18  and  N22_22 
REMARK    8  A    between atoms: N22_22  and  C23_23 
REMARK       I    between atoms: N30_30  and  C31_31 
REMARK       I    between atoms: C31_31  and  N35_35 
REMARK    9  A    between atoms: N35_35  and  C36_36 
ROOT
ATOM      1  C8  ZIN A   1      18.105   0.202   5.388  0.00  0.00     0.002 C 
ENDROOT
BRANCH   1   2
ATOM      2  C7  ZIN A   1      19.317  -0.468   4.738  0.00  0.00     0.020 C 
BRANCH   2   3
ATOM      3  C6  ZIN A   1      18.950  -1.895   4.323  0.00  0.00     0.138 C 
BRANCH   3   4
ATOM      4  N5  ZIN A   1      19.449  -2.839   5.326  0.00  0.00    -0.226 N 
ATOM      5  C4  ZIN A   1      18.706  -3.947   5.657  0.00  0.00     0.686 C 
ATOM      6  N1  ZIN A   1      17.559  -4.157   5.079  0.00  0.00    -0.234 N 
ATOM      7  N30 ZIN A   1      19.177  -4.836   6.601  0.00  0.00    -0.023 N 
ATOM      8  H2  ZIN A   1      16.991  -4.885   5.378  0.00  0.00     0.174 HD
ATOM      9  H3  ZIN A   1      17.268  -3.583   4.353  0.00  0.00     0.174 HD
ATOM     10  C31 ZIN A   1      18.498  -6.013   6.838  0.00  0.00     0.690 C 
ATOM     11  H63 ZIN A   1      19.984  -4.633   7.098  0.00  0.00     0.203 HD
ATOM     12  N32 ZIN A   1      17.934  -6.650   5.851  0.00  0.00    -0.234 N 
ATOM     13  N35 ZIN A   1      18.416  -6.515   8.117  0.00  0.00    -0.192 N 
ATOM     14  H33 ZIN A   1      17.395  -7.437   6.027  0.00  0.00     0.174 HD
ATOM     15  H34 ZIN A   1      18.055  -6.338   4.941  0.00  0.00     0.174 HD
ATOM     16  H64 ZIN A   1      18.391  -7.473   8.261  0.00  0.00     0.184 HD
ATOM     17  H43 ZIN A   1      20.305  -2.682   5.755  0.00  0.00     0.177 HD
BRANCH  13  18
ATOM     18  C36 ZIN A   1      18.369  -5.641   9.209  0.00  0.00     0.049 A 
ATOM     19  C42 ZIN A   1      17.148  -5.157   9.660  0.00  0.00     0.032 A 
ATOM     20  C41 ZIN A   1      17.104  -4.298  10.741  0.00  0.00     0.026 A 
ATOM     21  C39 ZIN A   1      18.276  -3.912  11.367  0.00  0.00     0.034 A 
ATOM     22  C38 ZIN A   1      19.494  -4.389  10.916  0.00  0.00     0.026 A 
ATOM     23 Cl40 ZIN A   1      18.217  -2.827  12.722  0.00  0.00    -0.084 Cl
ATOM     24  C37 ZIN A   1      19.543  -5.252   9.839  0.00  0.00     0.032 A 
ENDBRANCH  13  18
ENDBRANCH   3   4
ENDBRANCH   2   3
ENDBRANCH   1   2
BRANCH   1  25
ATOM     25  C9  ZIN A   1      18.368   0.394   6.883  0.00  0.00     0.002 C 
BRANCH  25  26
ATOM     26  C10 ZIN A   1      17.362  -0.429   7.689  0.00  0.00     0.020 C 
BRANCH  26  27
ATOM     27  C11 ZIN A   1      18.095  -1.190   8.795  0.00  0.00     0.138 C 
BRANCH  27  28
ATOM     28  N12 ZIN A   1      17.890  -0.508  10.075  0.00  0.00    -0.226 N 
ATOM     29  C13 ZIN A   1      18.943   0.121  10.696  0.00  0.00     0.686 C 
ATOM     30  N14 ZIN A   1      20.124   0.110  10.145  0.00  0.00    -0.234 N 
ATOM     31  N17 ZIN A   1      18.750   0.763  11.901  0.00  0.00    -0.023 N 
ATOM     32  H15 ZIN A   1      20.877   0.512  10.604  0.00  0.00     0.174 HD
ATOM     33  H16 ZIN A   1      20.249  -0.298   9.274  0.00  0.00     0.174 HD
ATOM     34  C18 ZIN A   1      19.781   1.481  12.472  0.00  0.00     0.690 C 
ATOM     35  H57 ZIN A   1      17.890   0.711  12.346  0.00  0.00     0.203 HD
ATOM     36  N19 ZIN A   1      20.587   2.176  11.721  0.00  0.00    -0.234 N 
ATOM     37  N22 ZIN A   1      19.958   1.462  13.838  0.00  0.00    -0.192 N 
ATOM     38  H20 ZIN A   1      21.309   2.682  12.123  0.00  0.00     0.174 HD
ATOM     39  H21 ZIN A   1      20.463   2.186  10.759  0.00  0.00     0.174 HD
ATOM     40  H58 ZIN A   1      20.631   2.027  14.247  0.00  0.00     0.184 HD
ATOM     41  H56 ZIN A   1      17.011  -0.501  10.486  0.00  0.00     0.177 HD
BRANCH  37  42
ATOM     42  C23 ZIN A   1      19.166   0.627  14.633  0.00  0.00     0.049 A 
ATOM     43  C29 ZIN A   1      19.626  -0.636  14.986  0.00  0.00     0.032 A 
ATOM     44  C28 ZIN A   1      18.845  -1.458  15.776  0.00  0.00     0.026 A 
ATOM     45  C26 ZIN A   1      17.602  -1.029  16.206  0.00  0.00     0.034 A 
ATOM     46  C25 ZIN A   1      17.140   0.227  15.852  0.00  0.00     0.026 A 
ATOM     47 Cl27 ZIN A   1      16.620  -2.066  17.193  0.00  0.00    -0.084 Cl
ATOM     48  C24 ZIN A   1      17.919   1.055  15.067  0.00  0.00     0.032 A 
ENDBRANCH  37  42
ENDBRANCH  27  28
ENDBRANCH  26  27
ENDBRANCH  25  26
ENDBRANCH   1  25
TORSDOF 9
ENDMDL
MODEL 6
REMARK VINA RESULT:      -9.2      4.462     10.775
REMARK  9 active torsions:
REMARK  status: ('A' for Active; 'I' for Inactive)
REMARK       I    between atoms: C4_4  and  N5_5 
REMARK       I    between atoms: C4_4  and  N30_30 
REMARK    1  A    between atoms: N5_5  and  C6_6 
REMARK    2  A    between atoms: C6_6  and  C7_7 
REMARK    3  A    between atoms: C7_7  and  C8_8 
REMARK    4  A    between atoms: C8_8  and  C9_9 
REMARK    5  A    between atoms: C9_9  and  C10_10 
REMARK    6  A    between atoms: C10_10  and  C11_11 
REMARK    7  A    between atoms: C11_11  and  N12_12 
REMARK       I    between atoms: N12_12  and  C13_13 
REMARK       I    between atoms: C13_13  and  N17_17 
REMARK       I    between atoms: N17_17  and  C18_18 
REMARK       I    between atoms: C18_18  and  N22_22 
REMARK    8  A    between atoms: N22_22  and  C23_23 
REMARK       I    between atoms: N30_30  and  C31_31 
REMARK       I    between atoms: C31_31  and  N35_35 
REMARK    9  A    between atoms: N35_35  and  C36_36 
ROOT
ATOM      1  C8  ZIN A   1      17.261   4.632  12.254  0.00  0.00     0.002 C 
ENDROOT
BRANCH   1   2
ATOM      2  C7  ZIN A   1      17.059   4.724  10.740  0.00  0.00     0.020 C 
BRANCH   2   3
ATOM      3  C6  ZIN A   1      17.768   3.551  10.059  0.00  0.00     0.138 C 
BRANCH   3   4
ATOM      4  N5  ZIN A   1      17.750   2.386  10.948  0.00  0.00    -0.226 N 
ATOM      5  C4  ZIN A   1      18.901   1.665  11.158  0.00  0.00     0.686 C 
ATOM      6  N1  ZIN A   1      20.006   2.017  10.567  0.00  0.00    -0.234 N 
ATOM      7  N30 ZIN A   1      18.883   0.569  11.996  0.00  0.00    -0.023 N 
ATOM      8  H2  ZIN A   1      20.795   1.456  10.640  0.00  0.00     0.174 HD
ATOM      9  H3  ZIN A   1      20.041   2.836  10.050  0.00  0.00     0.174 HD
ATOM     10  C31 ZIN A   1      20.062  -0.075  12.312  0.00  0.00     0.690 C 
ATOM     11  H63 ZIN A   1      18.044   0.251  12.362  0.00  0.00     0.203 HD
ATOM     12  N32 ZIN A   1      21.155   0.612  12.481  0.00  0.00    -0.234 N 
ATOM     13  N35 ZIN A   1      20.082  -1.445  12.448  0.00  0.00    -0.192 N 
ATOM     14  H33 ZIN A   1      21.998   0.155  12.629  0.00  0.00     0.174 HD
ATOM     15  H34 ZIN A   1      21.126   1.581  12.459  0.00  0.00     0.174 HD
ATOM     16  H64 ZIN A   1      20.687  -1.860  13.083  0.00  0.00     0.184 HD
ATOM     17  H43 ZIN A   1      16.926   2.126  11.388  0.00  0.00     0.177 HD
BRANCH  13  18
ATOM     18  C36 ZIN A   1      19.231  -2.237  11.671  0.00  0.00     0.049 A 
ATOM     19  C42 ZIN A   1      18.195  -2.941  12.272  0.00  0.00     0.032 A 
ATOM     20  C41 ZIN A   1      17.353  -3.720  11.502  0.00  0.00     0.026 A 
ATOM     21  C39 ZIN A   1      17.547  -3.807  10.135  0.00  0.00     0.034 A 
ATOM     22  C38 ZIN A   1      18.582  -3.111   9.534  0.00  0.00     0.026 A 
ATOM     23 Cl40 ZIN A   1      16.491  -4.792   9.171  0.00  0.00    -0.084 Cl
ATOM     24  C37 ZIN A   1      19.423  -2.327  10.298  0.00  0.00     0.032 A 
ENDBRANCH  13  18
ENDBRANCH   3   4
ENDBRANCH   2   3
ENDBRANCH   1   2
BRANCH   1  25
ATOM     25  C9  ZIN A   1      16.223   5.505  12.962  0.00  0.00     0.002 C 
BRANCH  25  26
ATOM     26  C10 ZIN A   1      16.936   6.580  13.784  0.00  0.00     0.020 C 
BRANCH  26  27
ATOM     27  C11 ZIN A   1      16.173   6.812  15.090  0.00  0.00     0.138 C 
BRANCH  27  28
ATOM     28  N12 ZIN A   1      16.217   5.596  15.904  0.00  0.00    -0.226 N 
ATOM     29  C13 ZIN A   1      17.101   5.501  16.953  0.00  0.00     0.686 C 
ATOM     30  N14 ZIN A   1      17.900   6.495  17.222  0.00  0.00    -0.234 N 
ATOM     31  N17 ZIN A   1      17.142   4.355  17.720  0.00  0.00    -0.023 N 
ATOM     32  H15 ZIN A   1      18.557   6.410  17.931  0.00  0.00     0.174 HD
ATOM     33  H16 ZIN A   1      17.838   7.319  16.715  0.00  0.00     0.174 HD
ATOM     34  C18 ZIN A   1      17.955   4.300  18.833  0.00  0.00     0.690 C 
ATOM     35  H57 ZIN A   1      16.599   3.590  17.477  0.00  0.00     0.203 HD
ATOM     36  N19 ZIN A   1      18.094   5.349  19.592  0.00  0.00    -0.234 N 
ATOM     37  N22 ZIN A   1      18.620   3.135  19.142  0.00  0.00    -0.192 N 
ATOM     38  H20 ZIN A   1      18.664   5.310  20.376  0.00  0.00     0.174 HD
ATOM     39  H21 ZIN A   1      17.627   6.171  19.373  0.00  0.00     0.174 HD
ATOM     40  H58 ZIN A   1      19.128   3.070  19.966  0.00  0.00     0.184 HD
ATOM     41  H56 ZIN A   1      15.623   4.856  15.704  0.00  0.00     0.177 HD
BRANCH  37  42
ATOM     42  C23 ZIN A   1      18.563   2.045  18.267  0.00  0.00     0.049 A 
ATOM     43  C29 ZIN A   1      17.822   0.919  18.606  0.00  0.00     0.032 A 
ATOM     44  C28 ZIN A   1      17.763  -0.154  17.738  0.00  0.00     0.026 A 
ATOM     45  C26 ZIN A   1      18.450  -0.114  16.538  0.00  0.00     0.034 A 
ATOM     46  C25 ZIN A   1      19.193   1.004  16.200  0.00  0.00     0.026 A 
ATOM     47 Cl27 ZIN A   1      18.380  -1.467  15.453  0.00  0.00    -0.084 Cl
ATOM     48  C24 ZIN A   1      19.251   2.082  17.062  0.00  0.00     0.032 A 
ENDBRANCH  37  42
ENDBRANCH  27  28
ENDBRANCH  26  27
ENDBRANCH  25  26
ENDBRANCH   1  25
TORSDOF 9
ENDMDL
MODEL 7
REMARK VINA RESULT:      -9.0      3.429      7.072
REMARK  9 active torsions:
REMARK  status: ('A' for Active; 'I' for Inactive)
REMARK       I    between atoms: C4_4  and  N5_5 
REMARK       I    between atoms: C4_4  and  N30_30 
REMARK    1  A    between atoms: N5_5  and  C6_6 
REMARK    2  A    between atoms: C6_6  and  C7_7 
REMARK    3  A    between atoms: C7_7  and  C8_8 
REMARK    4  A    between atoms: C8_8  and  C9_9 
REMARK    5  A    between atoms: C9_9  and  C10_10 
REMARK    6  A    between atoms: C10_10  and  C11_11 
REMARK    7  A    between atoms: C11_11  and  N12_12 
REMARK       I    between atoms: N12_12  and  C13_13 
REMARK       I    between atoms: C13_13  and  N17_17 
REMARK       I    between atoms: N17_17  and  C18_18 
REMARK       I    between atoms: C18_18  and  N22_22 
REMARK    8  A    between atoms: N22_22  and  C23_23 
REMARK       I    between atoms: N30_30  and  C31_31 
REMARK       I    between atoms: C31_31  and  N35_35 
REMARK    9  A    between atoms: N35_35  and  C36_36 
ROOT
ATOM      1  C8  ZIN A   1      18.358   2.685  10.734  0.00  0.00     0.002 C 
ENDROOT
BRANCH   1   2
ATOM      2  C7  ZIN A   1      17.334   3.820  10.799  0.00  0.00     0.020 C 
BRANCH   2   3
ATOM      3  C6  ZIN A   1      17.933   5.004  11.563  0.00  0.00     0.138 C 
BRANCH   3   4
ATOM      4  N5  ZIN A   1      17.733   4.809  13.001  0.00  0.00    -0.226 N 
ATOM      5  C4  ZIN A   1      18.817   4.655  13.831  0.00  0.00     0.686 C 
ATOM      6  N1  ZIN A   1      20.022   4.682  13.339  0.00  0.00    -0.234 N 
ATOM      7  N30 ZIN A   1      18.627   4.472  15.185  0.00  0.00    -0.023 N 
ATOM      8  H2  ZIN A   1      20.782   4.480  13.908  0.00  0.00     0.174 HD
ATOM      9  H3  ZIN A   1      20.160   4.898  12.404  0.00  0.00     0.174 HD
ATOM     10  C31 ZIN A   1      19.713   4.449  16.036  0.00  0.00     0.690 C 
ATOM     11  H63 ZIN A   1      17.732   4.358  15.539  0.00  0.00     0.203 HD
ATOM     12  N32 ZIN A   1      20.728   5.236  15.819  0.00  0.00    -0.234 N 
ATOM     13  N35 ZIN A   1      19.725   3.593  17.114  0.00  0.00    -0.192 N 
ATOM     14  H33 ZIN A   1      21.521   5.169  16.372  0.00  0.00     0.174 HD
ATOM     15  H34 ZIN A   1      20.688   5.891  15.104  0.00  0.00     0.174 HD
ATOM     16  H64 ZIN A   1      20.175   3.852  17.934  0.00  0.00     0.184 HD
ATOM     17  H43 ZIN A   1      16.834   4.790  13.366  0.00  0.00     0.177 HD
BRANCH  13  18
ATOM     18  C36 ZIN A   1      19.086   2.351  17.029  0.00  0.00     0.049 A 
ATOM     19  C42 ZIN A   1      19.245   1.565  15.895  0.00  0.00     0.032 A 
ATOM     20  C41 ZIN A   1      18.618   0.337  15.814  0.00  0.00     0.026 A 
ATOM     21  C39 ZIN A   1      17.823  -0.105  16.857  0.00  0.00     0.034 A 
ATOM     22  C38 ZIN A   1      17.658   0.680  17.986  0.00  0.00     0.026 A 
ATOM     23 Cl40 ZIN A   1      17.030  -1.646  16.750  0.00  0.00    -0.084 Cl
ATOM     24  C37 ZIN A   1      18.288   1.905  18.073  0.00  0.00     0.032 A 
ENDBRANCH  13  18
ENDBRANCH   3   4
ENDBRANCH   2   3
ENDBRANCH   1   2
BRANCH   1  25
ATOM     25  C9  ZIN A   1      19.242   2.865   9.499  0.00  0.00     0.002 C 
BRANCH  25  26
ATOM     26  C10 ZIN A   1      18.710   1.995   8.359  0.00  0.00     0.020 C 
BRANCH  26  27
ATOM     27  C11 ZIN A   1      19.594   0.755   8.209  0.00  0.00     0.138 C 
BRANCH  27  28
ATOM     28  N12 ZIN A   1      18.943  -0.390   8.850  0.00  0.00    -0.226 N 
ATOM     29  C13 ZIN A   1      19.536  -1.005   9.927  0.00  0.00     0.686 C 
ATOM     30  N14 ZIN A   1      20.679  -0.569  10.377  0.00  0.00    -0.234 N 
ATOM     31  N17 ZIN A   1      18.923  -2.083  10.530  0.00  0.00    -0.023 N 
ATOM     32  H15 ZIN A   1      21.121  -1.031  11.105  0.00  0.00     0.174 HD
ATOM     33  H16 ZIN A   1      21.086   0.219   9.985  0.00  0.00     0.174 HD
ATOM     34  C18 ZIN A   1      19.466  -2.635  11.672  0.00  0.00     0.690 C 
ATOM     35  H57 ZIN A   1      18.110  -2.452  10.152  0.00  0.00     0.203 HD
ATOM     36  N19 ZIN A   1      20.006  -1.866  12.574  0.00  0.00    -0.234 N 
ATOM     37  N22 ZIN A   1      19.438  -3.999  11.857  0.00  0.00    -0.192 N 
ATOM     38  H20 ZIN A   1      20.385  -2.254  13.378  0.00  0.00     0.174 HD
ATOM     39  H21 ZIN A   1      20.027  -0.906  12.442  0.00  0.00     0.174 HD
ATOM     40  H58 ZIN A   1      19.747  -4.381  12.693  0.00  0.00     0.184 HD
ATOM     41  H56 ZIN A   1      18.093  -0.715   8.514  0.00  0.00     0.177 HD
BRANCH  37  42
ATOM     42  C23 ZIN A   1      18.964  -4.833  10.839  0.00  0.00     0.049 A 
ATOM     43  C29 ZIN A   1      17.672  -5.340  10.900  0.00  0.00     0.032 A 
ATOM     44  C28 ZIN A   1      17.205  -6.159   9.891  0.00  0.00     0.026 A 
ATOM     45  C26 ZIN A   1      18.025  -6.484   8.826  0.00  0.00     0.034 A 
ATOM     46  C25 ZIN A   1      19.315  -5.985   8.764  0.00  0.00     0.026 A 
ATOM     47 Cl27 ZIN A   1      17.437  -7.520   7.563  0.00  0.00    -0.084 Cl
ATOM     48  C24 ZIN A   1      19.785  -5.161   9.768  0.00  0.00     0.032 A 
ENDBRANCH  37  42
ENDBRANCH  27  28
ENDBRANCH  26  27
ENDBRANCH  25  26
ENDBRANCH   1  25
TORSDOF 9
ENDMDL
MODEL 8
REMARK VINA RESULT:      -8.9      3.491      7.178
REMARK  9 active torsions:
REMARK  status: ('A' for Active; 'I' for Inactive)
REMARK       I    between atoms: C4_4  and  N5_5 
REMARK       I    between atoms: C4_4  and  N30_30 
REMARK    1  A    between atoms: N5_5  and  C6_6 
REMARK    2  A    between atoms: C6_6  and  C7_7 
REMARK    3  A    between atoms: C7_7  and  C8_8 
REMARK    4  A    between atoms: C8_8  and  C9_9 
REMARK    5  A    between atoms: C9_9  and  C10_10 
REMARK    6  A    between atoms: C10_10  and  C11_11 
REMARK    7  A    between atoms: C11_11  and  N12_12 
REMARK       I    between atoms: N12_12  and  C13_13 
REMARK       I    between atoms: C13_13  and  N17_17 
REMARK       I    between atoms: N17_17  and  C18_18 
REMARK       I    between atoms: C18_18  and  N22_22 
REMARK    8  A    between atoms: N22_22  and  C23_23 
REMARK       I    between atoms: N30_30  and  C31_31 
REMARK       I    between atoms: C31_31  and  N35_35 
REMARK    9  A    between atoms: N35_35  and  C36_36 
ROOT
ATOM      1  C8  ZIN A   1      19.186  -0.621  17.299  0.00  0.00     0.002 C 
ENDROOT
BRANCH   1   2
ATOM      2  C7  ZIN A   1      18.814  -0.052  18.670  0.00  0.00     0.020 C 
BRANCH   2   3
ATOM      3  C6  ZIN A   1      18.607   1.460  18.556  0.00  0.00     0.138 C 
BRANCH   3   4
ATOM      4  N5  ZIN A   1      19.392   1.978  17.433  0.00  0.00    -0.226 N 
ATOM      5  C4  ZIN A   1      19.262   3.291  17.051  0.00  0.00     0.686 C 
ATOM      6  N1  ZIN A   1      18.441   4.075  17.687  0.00  0.00    -0.234 N 
ATOM      7  N30 ZIN A   1      20.003   3.778  15.993  0.00  0.00    -0.023 N 
ATOM      8  H2  ZIN A   1      18.277   4.975  17.360  0.00  0.00     0.174 HD
ATOM      9  H3  ZIN A   1      17.987   3.760  18.483  0.00  0.00     0.174 HD
ATOM     10  C31 ZIN A   1      19.972   5.124  15.692  0.00  0.00     0.690 C 
ATOM     11  H63 ZIN A   1      20.543   3.174  15.461  0.00  0.00     0.203 HD
ATOM     12  N32 ZIN A   1      19.910   6.004  16.651  0.00  0.00    -0.234 N 
ATOM     13  N35 ZIN A   1      20.007   5.537  14.380  0.00  0.00    -0.192 N 
ATOM     14  H33 ZIN A   1      19.814   6.946  16.439  0.00  0.00     0.174 HD
ATOM     15  H34 ZIN A   1      19.961   5.718  17.576  0.00  0.00     0.174 HD
ATOM     16  H64 ZIN A   1      20.443   6.371  14.146  0.00  0.00     0.184 HD
ATOM     17  H43 ZIN A   1      20.005   1.393  16.961  0.00  0.00     0.177 HD
BRANCH  13  18
ATOM     18  C36 ZIN A   1      19.414   4.753  13.384  0.00  0.00     0.049 A 
ATOM     19  C42 ZIN A   1      20.208   4.081  12.464  0.00  0.00     0.032 A 
ATOM     20  C41 ZIN A   1      19.621   3.304  11.484  0.00  0.00     0.026 A 
ATOM     21  C39 ZIN A   1      18.243   3.203  11.413  0.00  0.00     0.034 A 
ATOM     22  C38 ZIN A   1      17.449   3.877  12.326  0.00  0.00     0.026 A 
ATOM     23 Cl40 ZIN A   1      17.507   2.231  10.177  0.00  0.00    -0.084 Cl
ATOM     24  C37 ZIN A   1      18.031   4.650  13.311  0.00  0.00     0.032 A 
ENDBRANCH  13  18
ENDBRANCH   3   4
ENDBRANCH   2   3
ENDBRANCH   1   2
BRANCH   1  25
ATOM     25  C9  ZIN A   1      17.955  -1.273  16.666  0.00  0.00     0.002 C 
BRANCH  25  26
ATOM     26  C10 ZIN A   1      17.338  -0.314  15.647  0.00  0.00     0.020 C 
BRANCH  26  27
ATOM     27  C11 ZIN A   1      18.414   0.146  14.662  0.00  0.00     0.138 C 
BRANCH  27  28
ATOM     28  N12 ZIN A   1      18.109  -0.372  13.326  0.00  0.00    -0.226 N 
ATOM     29  C13 ZIN A   1      18.873  -1.381  12.788  0.00  0.00     0.686 C 
ATOM     30  N14 ZIN A   1      19.869  -1.875  13.466  0.00  0.00    -0.234 N 
ATOM     31  N17 ZIN A   1      18.584  -1.868  11.530  0.00  0.00    -0.023 N 
ATOM     32  H15 ZIN A   1      20.438  -2.552  13.068  0.00  0.00     0.174 HD
ATOM     33  H16 ZIN A   1      20.042  -1.567  14.369  0.00  0.00     0.174 HD
ATOM     34  C18 ZIN A   1      19.285  -2.947  11.032  0.00  0.00     0.690 C 
ATOM     35  H57 ZIN A   1      17.889  -1.453  10.997  0.00  0.00     0.203 HD
ATOM     36  N19 ZIN A   1      19.624  -3.925  11.822  0.00  0.00    -0.234 N 
ATOM     37  N22 ZIN A   1      19.626  -2.990   9.699  0.00  0.00    -0.192 N 
ATOM     38  H20 ZIN A   1      20.114  -4.685  11.472  0.00  0.00     0.174 HD
ATOM     39  H21 ZIN A   1      19.386  -3.893  12.762  0.00  0.00     0.174 HD
ATOM     40  H58 ZIN A   1      20.048  -3.782   9.332  0.00  0.00     0.184 HD
ATOM     41  H56 ZIN A   1      17.367  -0.003  12.821  0.00  0.00     0.177 HD
BRANCH  37  42
ATOM     42  C23 ZIN A   1      19.364  -1.890   8.875  0.00  0.00     0.049 A 
ATOM     43  C29 ZIN A   1      19.879  -0.641   9.199  0.00  0.00     0.032 A 
ATOM     44  C28 ZIN A   1      19.624   0.443   8.381  0.00  0.00     0.026 A 
ATOM     45  C26 ZIN A   1      18.846   0.288   7.247  0.00  0.00     0.034 A 
ATOM     46  C25 ZIN A   1      18.327  -0.955   6.925  0.00  0.00     0.026 A 
ATOM     47 Cl27 ZIN A   1      18.521   1.653   6.226  0.00  0.00    -0.084 Cl
ATOM     48  C24 ZIN A   1      18.584  -2.043   7.737  0.00  0.00     0.032 A 
ENDBRANCH  37  42
ENDBRANCH  27  28
ENDBRANCH  26  27
ENDBRANCH  25  26
ENDBRANCH   1  25
TORSDOF 9
ENDMDL
MODEL 9
REMARK VINA RESULT:      -8.9      3.884      6.663
REMARK  9 active torsions:
REMARK  status: ('A' for Active; 'I' for Inactive)
REMARK       I    between atoms: C4_4  and  N5_5 
REMARK       I    between atoms: C4_4  and  N30_30 
REMARK    1  A    between atoms: N5_5  and  C6_6 
REMARK    2  A    between atoms: C6_6  and  C7_7 
REMARK    3  A    between atoms: C7_7  and  C8_8 
REMARK    4  A    between atoms: C8_8  and  C9_9 
REMARK    5  A    between atoms: C9_9  and  C10_10 
REMARK    6  A    between atoms: C10_10  and  C11_11 
REMARK    7  A    between atoms: C11_11  and  N12_12 
REMARK       I    between atoms: N12_12  and  C13_13 
REMARK       I    between atoms: C13_13  and  N17_17 
REMARK       I    between atoms: N17_17  and  C18_18 
REMARK       I    between atoms: C18_18  and  N22_22 
REMARK    8  A    between atoms: N22_22  and  C23_23 
REMARK       I    between atoms: N30_30  and  C31_31 
REMARK       I    between atoms: C31_31  and  N35_35 
REMARK    9  A    between atoms: N35_35  and  C36_36 
ROOT
ATOM      1  C8  ZIN A   1      18.811  -1.056  15.453  0.00  0.00     0.002 C 
ENDROOT
BRANCH   1   2
ATOM      2  C7  ZIN A   1      17.894  -0.736  16.636  0.00  0.00     0.020 C 
BRANCH   2   3
ATOM      3  C6  ZIN A   1      18.659   0.106  17.660  0.00  0.00     0.138 C 
BRANCH   3   4
ATOM      4  N5  ZIN A   1      19.247   1.271  16.994  0.00  0.00    -0.226 N 
ATOM      5  C4  ZIN A   1      18.719   2.522  17.204  0.00  0.00     0.686 C 
ATOM      6  N1  ZIN A   1      17.696   2.672  17.995  0.00  0.00    -0.234 N 
ATOM      7  N30 ZIN A   1      19.274   3.618  16.576  0.00  0.00    -0.023 N 
ATOM      8  H2  ZIN A   1      17.264   3.538  18.070  0.00  0.00     0.174 HD
ATOM      9  H3  ZIN A   1      17.362   1.918  18.504  0.00  0.00     0.174 HD
ATOM     10  C31 ZIN A   1      18.831   4.888  16.886  0.00  0.00     0.690 C 
ATOM     11  H63 ZIN A   1      19.974   3.497  15.916  0.00  0.00     0.203 HD
ATOM     12  N32 ZIN A   1      18.501   5.181  18.112  0.00  0.00    -0.234 N 
ATOM     13  N35 ZIN A   1      18.737   5.844  15.901  0.00  0.00    -0.192 N 
ATOM     14  H33 ZIN A   1      18.120   6.049  18.317  0.00  0.00     0.174 HD
ATOM     15  H34 ZIN A   1      18.638   4.531  18.819  0.00  0.00     0.174 HD
ATOM     16  H64 ZIN A   1      18.895   6.777  16.114  0.00  0.00     0.184 HD
ATOM     17  H43 ZIN A   1      20.010   1.158  16.405  0.00  0.00     0.177 HD
BRANCH  13  18
ATOM     18  C36 ZIN A   1      18.413   5.470  14.592  0.00  0.00     0.049 A 
ATOM     19  C42 ZIN A   1      17.087   5.465  14.178  0.00  0.00     0.032 A 
ATOM     20  C41 ZIN A   1      16.770   5.100  12.884  0.00  0.00     0.026 A 
ATOM     21  C39 ZIN A   1      17.772   4.729  12.004  0.00  0.00     0.034 A 
ATOM     22  C38 ZIN A   1      19.093   4.728  12.416  0.00  0.00     0.026 A 
ATOM     23 Cl40 ZIN A   1      17.370   4.264  10.380  0.00  0.00    -0.084 Cl
ATOM     24  C37 ZIN A   1      19.416   5.097  13.707  0.00  0.00     0.032 A 
ENDBRANCH  13  18
ENDBRANCH   3   4
ENDBRANCH   2   3
ENDBRANCH   1   2
BRANCH   1  25
ATOM     25  C9  ZIN A   1      18.119  -0.657  14.148  0.00  0.00     0.002 C 
BRANCH  25  26
ATOM     26  C10 ZIN A   1      18.539  -1.618  13.034  0.00  0.00     0.020 C 
BRANCH  26  27
ATOM     27  C11 ZIN A   1      17.495  -1.588  11.916  0.00  0.00     0.138 C 
BRANCH  27  28
ATOM     28  N12 ZIN A   1      18.170  -1.465  10.621  0.00  0.00    -0.226 N 
ATOM     29  C13 ZIN A   1      18.350  -0.226  10.054  0.00  0.00     0.686 C 
ATOM     30  N14 ZIN A   1      17.920   0.840  10.669  0.00  0.00    -0.234 N 
ATOM     31  N17 ZIN A   1      18.985  -0.110   8.836  0.00  0.00    -0.023 N 
ATOM     32  H15 ZIN A   1      18.003   1.709  10.248  0.00  0.00     0.174 HD
ATOM     33  H16 ZIN A   1      17.518   0.764  11.548  0.00  0.00     0.174 HD
ATOM     34  C18 ZIN A   1      19.257   1.139   8.316  0.00  0.00     0.690 C 
ATOM     35  H57 ZIN A   1      19.241  -0.906   8.345  0.00  0.00     0.203 HD
ATOM     36  N19 ZIN A   1      19.626   2.107   9.105  0.00  0.00    -0.234 N 
ATOM     37  N22 ZIN A   1      19.138   1.361   6.963  0.00  0.00    -0.192 N 
ATOM     38  H20 ZIN A   1      19.820   2.984   8.739  0.00  0.00     0.174 HD
ATOM     39  H21 ZIN A   1      19.708   1.950  10.059  0.00  0.00     0.174 HD
ATOM     40  H58 ZIN A   1      19.404   2.214   6.586  0.00  0.00     0.184 HD
ATOM     41  H56 ZIN A   1      18.489  -2.258  10.163  0.00  0.00     0.177 HD
BRANCH  37  42
ATOM     42  C23 ZIN A   1      18.631   0.357   6.131  0.00  0.00     0.049 A 
ATOM     43  C29 ZIN A   1      19.473  -0.300   5.242  0.00  0.00     0.032 A 
ATOM     44  C28 ZIN A   1      18.972  -1.295   4.425  0.00  0.00     0.026 A 
ATOM     45  C26 ZIN A   1      17.631  -1.630   4.484  0.00  0.00     0.034 A 
ATOM     46  C25 ZIN A   1      16.789  -0.974   5.365  0.00  0.00     0.026 A 
ATOM     47 Cl27 ZIN A   1      17.002  -2.876   3.451  0.00  0.00    -0.084 Cl
ATOM     48  C24 ZIN A   1      17.286   0.018   6.188  0.00  0.00     0.032 A 
ENDBRANCH  37  42
ENDBRANCH  27  28
ENDBRANCH  26  27
ENDBRANCH  25  26
ENDBRANCH   1  25
TORSDOF 9
ENDMDL
