MODEL 1
REMARK VINA RESULT:      -6.0      0.000      0.000
REMARK  9 active torsions:
REMARK  status: ('A' for Active; 'I' for Inactive)
REMARK    1  A    between atoms: C2_2  and  C3_3 
REMARK    2  A    between atoms: C3_3  and  C4_4 
REMARK    3  A    between atoms: C4_4  and  C6_6 
REMARK    4  A    between atoms: C4_4  and  C11_11 
REMARK    5  A    between atoms: C6_6  and  O7_7 
REMARK    6  A    between atoms: O7_7  and  C8_8 
REMARK       I    between atoms: C8_8  and  N9_9 
REMARK    7  A    between atoms: C11_11  and  O12_12 
REMARK    8  A    between atoms: O12_12  and  C13_13 
REMARK       I    between atoms: C13_13  and  N15_15 
REMARK    9  A    between atoms: N15_15  and  C16_16 
ROOT
ATOM      1  C4  ZIN A   1      18.846   0.909   8.518  0.00  0.00     0.000 C 
ATOM      2  C5  ZIN A   1      17.471   0.254   8.660  0.00  0.00     0.019 C 
ENDROOT
BRANCH   1   3
ATOM      3  C3  ZIN A   1      19.034   1.396   7.081  0.00  0.00     0.013 C 
BRANCH   3   4
ATOM      4  C2  ZIN A   1      18.339   0.431   6.119  0.00  0.00    -0.004 C 
ATOM      5  C1  ZIN A   1      19.275   0.111   4.952  0.00  0.00     0.005 C 
ENDBRANCH   3   4
ENDBRANCH   1   3
BRANCH   1   6
ATOM      6  C6  ZIN A   1      19.934  -0.110   8.859  0.00  0.00     0.192 C 
BRANCH   6   7
ATOM      7  O7  ZIN A   1      19.487  -0.944   9.962  0.00  0.00    -0.303 OA
BRANCH   7   8
ATOM      8  C8  ZIN A   1      20.244  -0.945  11.074  0.00  0.00     0.358 C 
ATOM      9  N9  ZIN A   1      21.539  -0.576  11.008  0.00  0.00    -0.346 N 
ATOM     10  H31 ZIN A   1      21.925  -0.309  10.159  0.00  0.00     0.161 HD
ATOM     11  H32 ZIN A   1      22.085  -0.577  11.810  0.00  0.00     0.161 HD
ATOM     12  O10 ZIN A   1      19.761  -1.278  12.138  0.00  0.00    -0.239 OA
ENDBRANCH   7   8
ENDBRANCH   6   7
ENDBRANCH   1   6
BRANCH   1  13
ATOM     13  C11 ZIN A   1      18.945   2.099   9.476  0.00  0.00     0.192 C 
BRANCH  13  14
ATOM     14  O12 ZIN A   1      17.640   2.365  10.055  0.00  0.00    -0.303 OA
BRANCH  14  15
ATOM     15  C13 ZIN A   1      17.580   3.295  11.026  0.00  0.00     0.360 C 
ATOM     16  O14 ZIN A   1      16.633   4.053  11.085  0.00  0.00    -0.239 OA
ATOM     17  N15 ZIN A   1      18.574   3.385  11.934  0.00  0.00    -0.333 N 
ATOM     18  H35 ZIN A   1      19.330   2.780  11.887  0.00  0.00     0.165 HD
BRANCH  17  19
ATOM     19  C16 ZIN A   1      18.509   4.398  12.991  0.00  0.00     0.078 C 
ATOM     20  C17 ZIN A   1      18.140   3.727  14.317  0.00  0.00     0.032 C 
ATOM     21  C18 ZIN A   1      19.871   5.081  13.126  0.00  0.00     0.032 C 
ENDBRANCH  17  19
ENDBRANCH  14  15
ENDBRANCH  13  14
ENDBRANCH   1  13
TORSDOF 9
ENDMDL
MODEL 2
REMARK VINA RESULT:      -6.0      1.462      1.617
REMARK  9 active torsions:
REMARK  status: ('A' for Active; 'I' for Inactive)
REMARK    1  A    between atoms: C2_2  and  C3_3 
REMARK    2  A    between atoms: C3_3  and  C4_4 
REMARK    3  A    between atoms: C4_4  and  C6_6 
REMARK    4  A    between atoms: C4_4  and  C11_11 
REMARK    5  A    between atoms: C6_6  and  O7_7 
REMARK    6  A    between atoms: O7_7  and  C8_8 
REMARK       I    between atoms: C8_8  and  N9_9 
REMARK    7  A    between atoms: C11_11  and  O12_12 
REMARK    8  A    between atoms: O12_12  and  C13_13 
REMARK       I    between atoms: C13_13  and  N15_15 
REMARK    9  A    between atoms: N15_15  and  C16_16 
ROOT
ATOM      1  C4  ZIN A   1      18.670   0.827   8.495  0.00  0.00     0.000 C 
ATOM      2  C5  ZIN A   1      17.390  -0.009   8.469  0.00  0.00     0.019 C 
ENDROOT
BRANCH   1   3
ATOM      3  C3  ZIN A   1      18.919   1.423   7.109  0.00  0.00     0.013 C 
BRANCH   3   4
ATOM      4  C2  ZIN A   1      18.229   0.561   6.051  0.00  0.00    -0.004 C 
ATOM      5  C1  ZIN A   1      19.241   0.171   4.971  0.00  0.00     0.005 C 
ENDBRANCH   3   4
ENDBRANCH   1   3
BRANCH   1   6
ATOM      6  C6  ZIN A   1      19.852  -0.062   8.888  0.00  0.00     0.192 C 
BRANCH   6   7
ATOM      7  O7  ZIN A   1      19.460  -0.929   9.986  0.00  0.00    -0.303 OA
BRANCH   7   8
ATOM      8  C8  ZIN A   1      20.230  -0.905  11.089  0.00  0.00     0.358 C 
ATOM      9  N9  ZIN A   1      21.539  -0.596  10.991  0.00  0.00    -0.346 N 
ATOM     10  H31 ZIN A   1      21.925  -0.390  10.126  0.00  0.00     0.161 HD
ATOM     11  H32 ZIN A   1      22.093  -0.579  11.786  0.00  0.00     0.161 HD
ATOM     12  O10 ZIN A   1      19.746  -1.162  12.174  0.00  0.00    -0.239 OA
ENDBRANCH   7   8
ENDBRANCH   6   7
ENDBRANCH   1   6
BRANCH   1  13
ATOM     13  C11 ZIN A   1      18.521   1.957   9.517  0.00  0.00     0.192 C 
BRANCH  13  14
ATOM     14  O12 ZIN A   1      17.364   1.702  10.356  0.00  0.00    -0.303 OA
BRANCH  14  15
ATOM     15  C13 ZIN A   1      17.467   2.032  11.656  0.00  0.00     0.360 C 
ATOM     16  O14 ZIN A   1      17.248   3.172  12.013  0.00  0.00    -0.239 OA
ATOM     17  N15 ZIN A   1      17.815   1.097  12.563  0.00  0.00    -0.333 N 
ATOM     18  H35 ZIN A   1      17.990   0.186  12.278  0.00  0.00     0.165 HD
BRANCH  17  19
ATOM     19  C16 ZIN A   1      17.927   1.456  13.979  0.00  0.00     0.078 C 
ATOM     20  C17 ZIN A   1      17.341   0.333  14.837  0.00  0.00     0.032 C 
ATOM     21  C18 ZIN A   1      19.401   1.657  14.338  0.00  0.00     0.032 C 
ENDBRANCH  17  19
ENDBRANCH  14  15
ENDBRANCH  13  14
ENDBRANCH   1  13
TORSDOF 9
ENDMDL
MODEL 3
REMARK VINA RESULT:      -5.9      0.874      1.188
REMARK  9 active torsions:
REMARK  status: ('A' for Active; 'I' for Inactive)
REMARK    1  A    between atoms: C2_2  and  C3_3 
REMARK    2  A    between atoms: C3_3  and  C4_4 
REMARK    3  A    between atoms: C4_4  and  C6_6 
REMARK    4  A    between atoms: C4_4  and  C11_11 
REMARK    5  A    between atoms: C6_6  and  O7_7 
REMARK    6  A    between atoms: O7_7  and  C8_8 
REMARK       I    between atoms: C8_8  and  N9_9 
REMARK    7  A    between atoms: C11_11  and  O12_12 
REMARK    8  A    between atoms: O12_12  and  C13_13 
REMARK       I    between atoms: C13_13  and  N15_15 
REMARK    9  A    between atoms: N15_15  and  C16_16 
ROOT
ATOM      1  C4  ZIN A   1      18.802   0.788   8.398  0.00  0.00     0.000 C 
ATOM      2  C5  ZIN A   1      17.410   0.158   8.482  0.00  0.00     0.019 C 
ENDROOT
BRANCH   1   3
ATOM      3  C3  ZIN A   1      19.085   1.210   6.955  0.00  0.00     0.013 C 
BRANCH   3   4
ATOM      4  C2  ZIN A   1      18.360   0.266   5.995  0.00  0.00    -0.004 C 
ATOM      5  C1  ZIN A   1      19.273  -0.056   4.810  0.00  0.00     0.005 C 
ENDBRANCH   3   4
ENDBRANCH   1   3
BRANCH   1   6
ATOM      6  C6  ZIN A   1      19.851  -0.231   8.847  0.00  0.00     0.192 C 
BRANCH   6   7
ATOM      7  O7  ZIN A   1      19.422  -0.849  10.090  0.00  0.00    -0.303 OA
BRANCH   7   8
ATOM      8  C8  ZIN A   1      20.253  -0.742  11.144  0.00  0.00     0.358 C 
ATOM      9  N9  ZIN A   1      21.574  -0.561  10.946  0.00  0.00    -0.346 N 
ATOM     10  H31 ZIN A   1      21.925  -0.506  10.044  0.00  0.00     0.161 HD
ATOM     11  H32 ZIN A   1      22.172  -0.484  11.705  0.00  0.00     0.161 HD
ATOM     12  O10 ZIN A   1      19.811  -0.810  12.274  0.00  0.00    -0.239 OA
ENDBRANCH   7   8
ENDBRANCH   6   7
ENDBRANCH   1   6
BRANCH   1  13
ATOM     13  C11 ZIN A   1      18.861   2.016   9.309  0.00  0.00     0.192 C 
BRANCH  13  14
ATOM     14  O12 ZIN A   1      17.601   2.156  10.017  0.00  0.00    -0.303 OA
BRANCH  14  15
ATOM     15  C13 ZIN A   1      17.661   2.574  11.294  0.00  0.00     0.360 C 
ATOM     16  O14 ZIN A   1      17.793   1.768  12.193  0.00  0.00    -0.239 OA
ATOM     17  N15 ZIN A   1      17.574   3.890  11.577  0.00  0.00    -0.333 N 
ATOM     18  H35 ZIN A   1      17.469   4.534  10.859  0.00  0.00     0.165 HD
BRANCH  17  19
ATOM     19  C16 ZIN A   1      17.639   4.346  12.968  0.00  0.00     0.078 C 
ATOM     20  C17 ZIN A   1      19.033   4.908  13.254  0.00  0.00     0.032 C 
ATOM     21  C18 ZIN A   1      16.592   5.438  13.195  0.00  0.00     0.032 C 
ENDBRANCH  17  19
ENDBRANCH  14  15
ENDBRANCH  13  14
ENDBRANCH   1  13
TORSDOF 9
ENDMDL
MODEL 4
REMARK VINA RESULT:      -5.9      2.642      5.402
REMARK  9 active torsions:
REMARK  status: ('A' for Active; 'I' for Inactive)
REMARK    1  A    between atoms: C2_2  and  C3_3 
REMARK    2  A    between atoms: C3_3  and  C4_4 
REMARK    3  A    between atoms: C4_4  and  C6_6 
REMARK    4  A    between atoms: C4_4  and  C11_11 
REMARK    5  A    between atoms: C6_6  and  O7_7 
REMARK    6  A    between atoms: O7_7  and  C8_8 
REMARK       I    between atoms: C8_8  and  N9_9 
REMARK    7  A    between atoms: C11_11  and  O12_12 
REMARK    8  A    between atoms: O12_12  and  C13_13 
REMARK       I    between atoms: C13_13  and  N15_15 
REMARK    9  A    between atoms: N15_15  and  C16_16 
ROOT
ATOM      1  C4  ZIN A   1      18.432   0.976   9.500  0.00  0.00     0.000 C 
ATOM      2  C5  ZIN A   1      18.790   1.571   8.137  0.00  0.00     0.019 C 
ENDROOT
BRANCH   1   3
ATOM      3  C3  ZIN A   1      17.776   2.049  10.370  0.00  0.00     0.013 C 
BRANCH   3   4
ATOM      4  C2  ZIN A   1      18.612   3.329  10.320  0.00  0.00    -0.004 C 
ATOM      5  C1  ZIN A   1      17.685   4.540  10.195  0.00  0.00     0.005 C 
ENDBRANCH   3   4
ENDBRANCH   1   3
BRANCH   1   6
ATOM      6  C6  ZIN A   1      19.702   0.469  10.186  0.00  0.00     0.192 C 
BRANCH   6   7
ATOM      7  O7  ZIN A   1      19.382   0.031  11.534  0.00  0.00    -0.303 OA
BRANCH   7   8
ATOM      8  C8  ZIN A   1      20.292   0.286  12.492  0.00  0.00     0.358 C 
ATOM      9  N9  ZIN A   1      21.556   0.607  12.152  0.00  0.00    -0.346 N 
ATOM     10  H31 ZIN A   1      21.810   0.655  11.218  0.00  0.00     0.161 HD
ATOM     11  H32 ZIN A   1      22.212   0.791  12.843  0.00  0.00     0.161 HD
ATOM     12  O10 ZIN A   1      19.973   0.227  13.663  0.00  0.00    -0.239 OA
ENDBRANCH   7   8
ENDBRANCH   6   7
ENDBRANCH   1   6
BRANCH   1  13
ATOM     13  C11 ZIN A   1      17.458  -0.189   9.308  0.00  0.00     0.192 C 
BRANCH  13  14
ATOM     14  O12 ZIN A   1      18.023  -1.144   8.371  0.00  0.00    -0.303 OA
BRANCH  14  15
ATOM     15  C13 ZIN A   1      18.237  -2.392   8.824  0.00  0.00     0.360 C 
ATOM     16  O14 ZIN A   1      18.545  -3.276   8.049  0.00  0.00    -0.239 OA
ATOM     17  N15 ZIN A   1      18.109  -2.663  10.139  0.00  0.00    -0.333 N 
ATOM     18  H35 ZIN A   1      17.863  -1.957  10.757  0.00  0.00     0.165 HD
BRANCH  17  19
ATOM     19  C16 ZIN A   1      18.342  -4.022  10.633  0.00  0.00     0.078 C 
ATOM     20  C17 ZIN A   1      19.602  -4.040  11.502  0.00  0.00     0.032 C 
ATOM     21  C18 ZIN A   1      17.141  -4.475  11.465  0.00  0.00     0.032 C 
ENDBRANCH  17  19
ENDBRANCH  14  15
ENDBRANCH  13  14
ENDBRANCH   1  13
TORSDOF 9
ENDMDL
MODEL 5
REMARK VINA RESULT:      -5.8      3.165      6.273
REMARK  9 active torsions:
REMARK  status: ('A' for Active; 'I' for Inactive)
REMARK    1  A    between atoms: C2_2  and  C3_3 
REMARK    2  A    between atoms: C3_3  and  C4_4 
REMARK    3  A    between atoms: C4_4  and  C6_6 
REMARK    4  A    between atoms: C4_4  and  C11_11 
REMARK    5  A    between atoms: C6_6  and  O7_7 
REMARK    6  A    between atoms: O7_7  and  C8_8 
REMARK       I    between atoms: C8_8  and  N9_9 
REMARK    7  A    between atoms: C11_11  and  O12_12 
REMARK    8  A    between atoms: O12_12  and  C13_13 
REMARK       I    between atoms: C13_13  and  N15_15 
REMARK    9  A    between atoms: N15_15  and  C16_16 
ROOT
ATOM      1  C4  ZIN A   1      18.622   0.294   8.532  0.00  0.00     0.000 C 
ATOM      2  C5  ZIN A   1      17.399   0.223   9.448  0.00  0.00     0.019 C 
ENDROOT
BRANCH   1   3
ATOM      3  C3  ZIN A   1      19.223   1.699   8.590  0.00  0.00     0.013 C 
BRANCH   3   4
ATOM      4  C2  ZIN A   1      18.507   2.517   9.666  0.00  0.00    -0.004 C 
ATOM      5  C1  ZIN A   1      19.501   2.895  10.766  0.00  0.00     0.005 C 
ENDBRANCH   3   4
ENDBRANCH   1   3
BRANCH   1   6
ATOM      6  C6  ZIN A   1      18.203  -0.023   7.095  0.00  0.00     0.192 C 
BRANCH   6   7
ATOM      7  O7  ZIN A   1      19.162  -0.940   6.503  0.00  0.00    -0.303 OA
BRANCH   7   8
ATOM      8  C8  ZIN A   1      19.481  -0.740   5.211  0.00  0.00     0.358 C 
ATOM      9  N9  ZIN A   1      19.567   0.514   4.724  0.00  0.00    -0.346 N 
ATOM     10  H31 ZIN A   1      19.400   1.272   5.306  0.00  0.00     0.161 HD
ATOM     11  H32 ZIN A   1      19.797   0.658   3.793  0.00  0.00     0.161 HD
ATOM     12  O10 ZIN A   1      19.692  -1.690   4.483  0.00  0.00    -0.239 OA
ENDBRANCH   7   8
ENDBRANCH   6   7
ENDBRANCH   1   6
BRANCH   1  13
ATOM     13  C11 ZIN A   1      19.665  -0.725   8.995  0.00  0.00     0.192 C 
BRANCH  13  14
ATOM     14  O12 ZIN A   1      19.396  -1.104  10.370  0.00  0.00    -0.303 OA
BRANCH  14  15
ATOM     15  C13 ZIN A   1      19.536  -2.405  10.684  0.00  0.00     0.360 C 
ATOM     16  O14 ZIN A   1      19.860  -2.728  11.810  0.00  0.00    -0.239 OA
ATOM     17  N15 ZIN A   1      19.318  -3.352   9.749  0.00  0.00    -0.333 N 
ATOM     18  H35 ZIN A   1      19.060  -3.094   8.850  0.00  0.00     0.165 HD
BRANCH  17  19
ATOM     19  C16 ZIN A   1      19.471  -4.768  10.091  0.00  0.00     0.078 C 
ATOM     20  C17 ZIN A   1      18.093  -5.378  10.359  0.00  0.00     0.032 C 
ATOM     21  C18 ZIN A   1      20.137  -5.504   8.926  0.00  0.00     0.032 C 
ENDBRANCH  17  19
ENDBRANCH  14  15
ENDBRANCH  13  14
ENDBRANCH   1  13
TORSDOF 9
ENDMDL
MODEL 6
REMARK VINA RESULT:      -5.8      2.923      4.840
REMARK  9 active torsions:
REMARK  status: ('A' for Active; 'I' for Inactive)
REMARK    1  A    between atoms: C2_2  and  C3_3 
REMARK    2  A    between atoms: C3_3  and  C4_4 
REMARK    3  A    between atoms: C4_4  and  C6_6 
REMARK    4  A    between atoms: C4_4  and  C11_11 
REMARK    5  A    between atoms: C6_6  and  O7_7 
REMARK    6  A    between atoms: O7_7  and  C8_8 
REMARK       I    between atoms: C8_8  and  N9_9 
REMARK    7  A    between atoms: C11_11  and  O12_12 
REMARK    8  A    between atoms: O12_12  and  C13_13 
REMARK       I    between atoms: C13_13  and  N15_15 
REMARK    9  A    between atoms: N15_15  and  C16_16 
ROOT
ATOM      1  C4  ZIN A   1      18.842   0.606   8.207  0.00  0.00     0.000 C 
ATOM      2  C5  ZIN A   1      17.418   0.307   8.679  0.00  0.00     0.019 C 
ENDROOT
BRANCH   1   3
ATOM      3  C3  ZIN A   1      19.259   1.996   8.690  0.00  0.00     0.013 C 
BRANCH   3   4
ATOM      4  C2  ZIN A   1      18.311   2.457   9.798  0.00  0.00    -0.004 C 
ATOM      5  C1  ZIN A   1      19.111   3.168  10.892  0.00  0.00     0.005 C 
ENDBRANCH   3   4
ENDBRANCH   1   3
BRANCH   1   6
ATOM      6  C6  ZIN A   1      18.893   0.561   6.678  0.00  0.00     0.192 C 
BRANCH   6   7
ATOM      7  O7  ZIN A   1      18.611  -0.791   6.226  0.00  0.00    -0.303 OA
BRANCH   7   8
ATOM      8  C8  ZIN A   1      18.854  -1.064   4.930  0.00  0.00     0.358 C 
ATOM      9  N9  ZIN A   1      17.832  -1.348   4.098  0.00  0.00    -0.346 N 
ATOM     10  H31 ZIN A   1      16.922  -1.354   4.433  0.00  0.00     0.161 HD
ATOM     11  H32 ZIN A   1      18.007  -1.545   3.165  0.00  0.00     0.161 HD
ATOM     12  O10 ZIN A   1      19.995  -1.056   4.511  0.00  0.00    -0.239 OA
ENDBRANCH   7   8
ENDBRANCH   6   7
ENDBRANCH   1   6
BRANCH   1  13
ATOM     13  C11 ZIN A   1      19.799  -0.441   8.780  0.00  0.00     0.192 C 
BRANCH  13  14
ATOM     14  O12 ZIN A   1      19.233  -1.004   9.993  0.00  0.00    -0.303 OA
BRANCH  14  15
ATOM     15  C13 ZIN A   1      19.823  -0.669  11.155  0.00  0.00     0.360 C 
ATOM     16  O14 ZIN A   1      20.984  -0.312  11.166  0.00  0.00    -0.239 OA
ATOM     17  N15 ZIN A   1      19.125  -0.733  12.307  0.00  0.00    -0.333 N 
ATOM     18  H35 ZIN A   1      18.199  -1.018  12.298  0.00  0.00     0.165 HD
BRANCH  17  19
ATOM     19  C16 ZIN A   1      19.768  -0.368  13.573  0.00  0.00     0.078 C 
ATOM     20  C17 ZIN A   1      19.357   1.053  13.962  0.00  0.00     0.032 C 
ATOM     21  C18 ZIN A   1      19.329  -1.345  14.666  0.00  0.00     0.032 C 
ENDBRANCH  17  19
ENDBRANCH  14  15
ENDBRANCH  13  14
ENDBRANCH   1  13
TORSDOF 9
ENDMDL
MODEL 7
REMARK VINA RESULT:      -5.8      3.463      6.085
REMARK  9 active torsions:
REMARK  status: ('A' for Active; 'I' for Inactive)
REMARK    1  A    between atoms: C2_2  and  C3_3 
REMARK    2  A    between atoms: C3_3  and  C4_4 
REMARK    3  A    between atoms: C4_4  and  C6_6 
REMARK    4  A    between atoms: C4_4  and  C11_11 
REMARK    5  A    between atoms: C6_6  and  O7_7 
REMARK    6  A    between atoms: O7_7  and  C8_8 
REMARK       I    between atoms: C8_8  and  N9_9 
REMARK    7  A    between atoms: C11_11  and  O12_12 
REMARK    8  A    between atoms: O12_12  and  C13_13 
REMARK       I    between atoms: C13_13  and  N15_15 
REMARK    9  A    between atoms: N15_15  and  C16_16 
ROOT
ATOM      1  C4  ZIN A   1      18.542   0.314   8.156  0.00  0.00     0.000 C 
ATOM      2  C5  ZIN A   1      19.514   1.491   8.263  0.00  0.00     0.019 C 
ENDROOT
BRANCH   1   3
ATOM      3  C3  ZIN A   1      17.933   0.280   6.753  0.00  0.00     0.013 C 
BRANCH   3   4
ATOM      4  C2  ZIN A   1      18.969   0.759   5.735  0.00  0.00    -0.004 C 
ATOM      5  C1  ZIN A   1      19.189  -0.327   4.680  0.00  0.00     0.005 C 
ENDBRANCH   3   4
ENDBRANCH   1   3
BRANCH   1   6
ATOM      6  C6  ZIN A   1      17.428   0.476   9.192  0.00  0.00     0.192 C 
BRANCH   6   7
ATOM      7  O7  ZIN A   1      17.936   0.122  10.506  0.00  0.00    -0.303 OA
BRANCH   7   8
ATOM      8  C8  ZIN A   1      17.067  -0.442  11.366  0.00  0.00     0.358 C 
ATOM      9  N9  ZIN A   1      17.400  -1.574  12.016  0.00  0.00    -0.346 N 
ATOM     10  H31 ZIN A   1      18.266  -1.983  11.865  0.00  0.00     0.161 HD
ATOM     11  H32 ZIN A   1      16.773  -1.980  12.635  0.00  0.00     0.161 HD
ATOM     12  O10 ZIN A   1      15.981   0.071  11.555  0.00  0.00    -0.239 OA
ENDBRANCH   7   8
ENDBRANCH   6   7
ENDBRANCH   1   6
BRANCH   1  13
ATOM     13  C11 ZIN A   1      19.294  -0.993   8.417  0.00  0.00     0.192 C 
BRANCH  13  14
ATOM     14  O12 ZIN A   1      18.561  -2.100   7.829  0.00  0.00    -0.303 OA
BRANCH  14  15
ATOM     15  C13 ZIN A   1      18.229  -3.116   8.646  0.00  0.00     0.360 C 
ATOM     16  O14 ZIN A   1      18.651  -3.142   9.786  0.00  0.00    -0.239 OA
ATOM     17  N15 ZIN A   1      17.431  -4.107   8.200  0.00  0.00    -0.333 N 
ATOM     18  H35 ZIN A   1      17.095  -4.086   7.290  0.00  0.00     0.165 HD
BRANCH  17  19
ATOM     19  C16 ZIN A   1      17.070  -5.213   9.090  0.00  0.00     0.078 C 
ATOM     20  C17 ZIN A   1      15.596  -5.570   8.887  0.00  0.00     0.032 C 
ATOM     21  C18 ZIN A   1      17.939  -6.430   8.767  0.00  0.00     0.032 C 
ENDBRANCH  17  19
ENDBRANCH  14  15
ENDBRANCH  13  14
ENDBRANCH   1  13
TORSDOF 9
ENDMDL
MODEL 8
REMARK VINA RESULT:      -5.7      2.385      5.087
REMARK  9 active torsions:
REMARK  status: ('A' for Active; 'I' for Inactive)
REMARK    1  A    between atoms: C2_2  and  C3_3 
REMARK    2  A    between atoms: C3_3  and  C4_4 
REMARK    3  A    between atoms: C4_4  and  C6_6 
REMARK    4  A    between atoms: C4_4  and  C11_11 
REMARK    5  A    between atoms: C6_6  and  O7_7 
REMARK    6  A    between atoms: O7_7  and  C8_8 
REMARK       I    between atoms: C8_8  and  N9_9 
REMARK    7  A    between atoms: C11_11  and  O12_12 
REMARK    8  A    between atoms: O12_12  and  C13_13 
REMARK       I    between atoms: C13_13  and  N15_15 
REMARK    9  A    between atoms: N15_15  and  C16_16 
ROOT
ATOM      1  C4  ZIN A   1      18.939   0.756   9.223  0.00  0.00     0.000 C 
ATOM      2  C5  ZIN A   1      20.104  -0.217   9.410  0.00  0.00     0.019 C 
ENDROOT
BRANCH   1   3
ATOM      3  C3  ZIN A   1      19.025   1.397   7.837  0.00  0.00     0.013 C 
BRANCH   3   4
ATOM      4  C2  ZIN A   1      18.295   0.517   6.822  0.00  0.00    -0.004 C 
ATOM      5  C1  ZIN A   1      19.118   0.431   5.535  0.00  0.00     0.005 C 
ENDBRANCH   3   4
ENDBRANCH   1   3
BRANCH   1   6
ATOM      6  C6  ZIN A   1      19.007   1.847  10.295  0.00  0.00     0.192 C 
BRANCH   6   7
ATOM      7  O7  ZIN A   1      18.678   3.130   9.699  0.00  0.00    -0.303 OA
BRANCH   7   8
ATOM      8  C8  ZIN A   1      17.696   3.841  10.285  0.00  0.00     0.358 C 
ATOM      9  N9  ZIN A   1      17.491   5.125   9.931  0.00  0.00    -0.346 N 
ATOM     10  H31 ZIN A   1      18.050   5.537   9.253  0.00  0.00     0.161 HD
ATOM     11  H32 ZIN A   1      16.784   5.637  10.353  0.00  0.00     0.161 HD
ATOM     12  O10 ZIN A   1      16.995   3.325  11.133  0.00  0.00    -0.239 OA
ENDBRANCH   7   8
ENDBRANCH   6   7
ENDBRANCH   1   6
BRANCH   1  13
ATOM     13  C11 ZIN A   1      17.616  -0.002   9.353  0.00  0.00     0.192 C 
BRANCH  13  14
ATOM     14  O12 ZIN A   1      17.165   0.041  10.732  0.00  0.00    -0.303 OA
BRANCH  14  15
ATOM     15  C13 ZIN A   1      17.376  -1.059  11.478  0.00  0.00     0.360 C 
ATOM     16  O14 ZIN A   1      17.431  -0.971  12.689  0.00  0.00    -0.239 OA
ATOM     17  N15 ZIN A   1      17.528  -2.259  10.882  0.00  0.00    -0.333 N 
ATOM     18  H35 ZIN A   1      17.485  -2.329   9.916  0.00  0.00     0.165 HD
BRANCH  17  19
ATOM     19  C16 ZIN A   1      17.758  -3.456  11.695  0.00  0.00     0.078 C 
ATOM     20  C17 ZIN A   1      16.812  -4.569  11.240  0.00  0.00     0.032 C 
ATOM     21  C18 ZIN A   1      19.207  -3.917  11.524  0.00  0.00     0.032 C 
ENDBRANCH  17  19
ENDBRANCH  14  15
ENDBRANCH  13  14
ENDBRANCH   1  13
TORSDOF 9
ENDMDL
MODEL 9
REMARK VINA RESULT:      -5.6      2.798      4.386
REMARK  9 active torsions:
REMARK  status: ('A' for Active; 'I' for Inactive)
REMARK    1  A    between atoms: C2_2  and  C3_3 
REMARK    2  A    between atoms: C3_3  and  C4_4 
REMARK    3  A    between atoms: C4_4  and  C6_6 
REMARK    4  A    between atoms: C4_4  and  C11_11 
REMARK    5  A    between atoms: C6_6  and  O7_7 
REMARK    6  A    between atoms: O7_7  and  C8_8 
REMARK       I    between atoms: C8_8  and  N9_9 
REMARK    7  A    between atoms: C11_11  and  O12_12 
REMARK    8  A    between atoms: O12_12  and  C13_13 
REMARK       I    between atoms: C13_13  and  N15_15 
REMARK    9  A    between atoms: N15_15  and  C16_16 
ROOT
ATOM      1  C4  ZIN A   1      18.419   2.184  11.016  0.00  0.00     0.000 C 
ATOM      2  C5  ZIN A   1      17.204   1.258  10.943  0.00  0.00     0.019 C 
ENDROOT
BRANCH   1   3
ATOM      3  C3  ZIN A   1      18.140   3.458  10.218  0.00  0.00     0.013 C 
BRANCH   3   4
ATOM      4  C2  ZIN A   1      18.014   4.644  11.176  0.00  0.00    -0.004 C 
ATOM      5  C1  ZIN A   1      16.556   5.105  11.228  0.00  0.00     0.005 C 
ENDBRANCH   3   4
ENDBRANCH   1   3
BRANCH   1   6
ATOM      6  C6  ZIN A   1      19.641   1.472  10.431  0.00  0.00     0.192 C 
BRANCH   6   7
ATOM      7  O7  ZIN A   1      19.404   0.039  10.418  0.00  0.00    -0.303 OA
BRANCH   7   8
ATOM      8  C8  ZIN A   1      20.243  -0.725  11.142  0.00  0.00     0.358 C 
ATOM      9  N9  ZIN A   1      21.574  -0.627  10.957  0.00  0.00    -0.346 N 
ATOM     10  H31 ZIN A   1      21.928  -0.005  10.302  0.00  0.00     0.161 HD
ATOM     11  H32 ZIN A   1      22.178  -1.178  11.478  0.00  0.00     0.161 HD
ATOM     12  O10 ZIN A   1      19.799  -1.504  11.963  0.00  0.00    -0.239 OA
ENDBRANCH   7   8
ENDBRANCH   6   7
ENDBRANCH   1   6
BRANCH   1  13
ATOM     13  C11 ZIN A   1      18.694   2.549  12.477  0.00  0.00     0.192 C 
BRANCH  13  14
ATOM     14  O12 ZIN A   1      17.778   1.823  13.339  0.00  0.00    -0.303 OA
BRANCH  14  15
ATOM     15  C13 ZIN A   1      18.310   1.186  14.398  0.00  0.00     0.360 C 
ATOM     16  O14 ZIN A   1      19.489   0.891  14.401  0.00  0.00    -0.239 OA
ATOM     17  N15 ZIN A   1      17.534   0.874  15.456  0.00  0.00    -0.333 N 
ATOM     18  H35 ZIN A   1      16.593   1.109  15.453  0.00  0.00     0.165 HD
BRANCH  17  19
ATOM     19  C16 ZIN A   1      18.113   0.180  16.609  0.00  0.00     0.078 C 
ATOM     20  C17 ZIN A   1      17.659   0.869  17.898  0.00  0.00     0.032 C 
ATOM     21  C18 ZIN A   1      17.643  -1.276  16.616  0.00  0.00     0.032 C 
ENDBRANCH  17  19
ENDBRANCH  14  15
ENDBRANCH  13  14
ENDBRANCH   1  13
TORSDOF 9
ENDMDL
