MODEL 1
REMARK VINA RESULT:     -10.0      0.000      0.000
REMARK  3 active torsions:
REMARK  status: ('A' for Active; 'I' for Inactive)
REMARK    1  A    between atoms: C2_2  and  C3_3 
REMARK    2  A    between atoms: C8_8  and  N9_9 
REMARK    3  A    between atoms: C12_12  and  N13_13 
ROOT
ATOM      1  C3  ZIN A   1      17.801  -0.007   7.989  0.00  0.00    -0.036 A 
ATOM      2  C4  ZIN A   1      17.913   1.224   8.589  0.00  0.00     0.025 A 
ATOM      3  C5  ZIN A   1      18.413   1.327   9.891  0.00  0.00     0.023 A 
ATOM      4  C6  ZIN A   1      18.805   0.186  10.591  0.00  0.00    -0.028 A 
ATOM      5  C7  ZIN A   1      18.682  -1.049   9.979  0.00  0.00     0.033 A 
ATOM      6  C8  ZIN A   1      18.179  -1.152   8.688  0.00  0.00     0.017 A 
ATOM      7  C21 ZIN A   1      19.371   0.226  11.985  0.00  0.00     0.024 C 
ATOM      8  C22 ZIN A   1      18.715  -0.874  12.820  0.00  0.00     0.027 C 
ATOM      9  C23 ZIN A   1      20.878  -0.033  11.917  0.00  0.00     0.027 C 
ATOM     10  C24 ZIN A   1      19.134   1.553  12.650  0.00  0.00     0.037 A 
ATOM     11  C25 ZIN A   1      18.745   2.685  11.970  0.00  0.00     0.051 A 
ATOM     12  C26 ZIN A   1      18.632   3.754  12.940  0.00  0.00     0.007 A 
ATOM     13  C27 ZIN A   1      18.285   5.103  12.834  0.00  0.00     0.016 A 
ATOM     14  C28 ZIN A   1      18.279   5.841  13.989  0.00  0.00     0.024 A 
ATOM     15  C29 ZIN A   1      18.604   5.277  15.227  0.00  0.00     0.046 A 
ATOM     16  C30 ZIN A   1      18.578   6.102  16.396  0.00  0.00     0.099 C 
ATOM     17  N31 ZIN A   1      18.556   6.757  17.325  0.00  0.00    -0.191 NA
ATOM     18  C32 ZIN A   1      18.955   3.928  15.353  0.00  0.00     0.053 A 
ATOM     19  C33 ZIN A   1      18.966   3.169  14.190  0.00  0.00     0.045 A 
ATOM     20  N34 ZIN A   1      19.258   1.849  13.967  0.00  0.00    -0.357 N 
ATOM     21  C35 ZIN A   1      18.512   2.669  10.518  0.00  0.00     0.195 C 
ATOM     22  O36 ZIN A   1      18.406   3.694   9.869  0.00  0.00    -0.287 OA
ATOM     23  H70 ZIN A   1      19.517   1.216  14.655  0.00  0.00     0.166 HD
ENDROOT
BRANCH   1  24
ATOM     24  C2  ZIN A   1      17.266  -0.120   6.584  0.00  0.00     0.036 C 
ATOM     25  C1  ZIN A   1      18.307   0.410   5.597  0.00  0.00     0.010 C 
ENDBRANCH   1  24
BRANCH   6  26
ATOM     26  N9  ZIN A   1      18.062  -2.400   8.087  0.00  0.00    -0.283 NA
ATOM     27  C20 ZIN A   1      19.301  -2.766   7.389  0.00  0.00     0.098 C 
ATOM     28  C19 ZIN A   1      19.088  -4.072   6.621  0.00  0.00     0.050 C 
ATOM     29  C12 ZIN A   1      18.688  -5.177   7.604  0.00  0.00     0.225 C 
ATOM     30  C11 ZIN A   1      17.423  -4.750   8.352  0.00  0.00     0.050 C 
ATOM     31  C10 ZIN A   1      17.685  -3.424   9.070  0.00  0.00     0.098 C 
BRANCH  29  32
ATOM     32  N13 ZIN A   1      18.426  -6.420   6.865  0.00  0.00     0.097 N 
ATOM     33  C18 ZIN A   1      17.634  -7.356   7.675  0.00  0.00     0.299 C 
ATOM     34  C17 ZIN A   1      17.436  -8.658   6.892  0.00  0.00     0.198 C 
ATOM     35  O16 ZIN A   1      16.811  -8.363   5.640  0.00  0.00    -0.388 OA
ATOM     36  C15 ZIN A   1      17.556  -7.454   4.825  0.00  0.00     0.198 C 
ATOM     37  C14 ZIN A   1      17.756  -6.141   5.587  0.00  0.00     0.299 C 
ENDBRANCH  29  32
ENDBRANCH   6  26
TORSDOF 3
ENDMDL
MODEL 2
REMARK VINA RESULT:      -9.8      2.327     11.017
REMARK  3 active torsions:
REMARK  status: ('A' for Active; 'I' for Inactive)
REMARK    1  A    between atoms: C2_2  and  C3_3 
REMARK    2  A    between atoms: C8_8  and  N9_9 
REMARK    3  A    between atoms: C12_12  and  N13_13 
ROOT
ATOM      1  C3  ZIN A   1      18.038  -0.590  13.574  0.00  0.00    -0.036 A 
ATOM      2  C4  ZIN A   1      18.174  -1.858  13.062  0.00  0.00     0.025 A 
ATOM      3  C5  ZIN A   1      18.305  -2.047  11.683  0.00  0.00     0.023 A 
ATOM      4  C6  ZIN A   1      18.305  -0.956  10.815  0.00  0.00    -0.028 A 
ATOM      5  C7  ZIN A   1      18.161   0.316  11.341  0.00  0.00     0.033 A 
ATOM      6  C8  ZIN A   1      18.024   0.504  12.711  0.00  0.00     0.017 A 
ATOM      7  C21 ZIN A   1      18.463  -1.085   9.324  0.00  0.00     0.024 C 
ATOM      8  C22 ZIN A   1      17.437  -0.186   8.634  0.00  0.00     0.027 C 
ATOM      9  C23 ZIN A   1      19.870  -0.627   8.933  0.00  0.00     0.027 C 
ATOM     10  C24 ZIN A   1      18.265  -2.501   8.858  0.00  0.00     0.037 A 
ATOM     11  C25 ZIN A   1      18.262  -3.586   9.706  0.00  0.00     0.051 A 
ATOM     12  C26 ZIN A   1      18.055  -4.768   8.894  0.00  0.00     0.007 A 
ATOM     13  C27 ZIN A   1      17.968  -6.128   9.199  0.00  0.00     0.016 A 
ATOM     14  C28 ZIN A   1      17.761  -6.991   8.154  0.00  0.00     0.024 A 
ATOM     15  C29 ZIN A   1      17.639  -6.539   6.836  0.00  0.00     0.046 A 
ATOM     16  C30 ZIN A   1      17.422  -7.492   5.790  0.00  0.00     0.099 C 
ATOM     17  N31 ZIN A   1      17.249  -8.249   4.960  0.00  0.00    -0.191 NA
ATOM     18  C32 ZIN A   1      17.725  -5.180   6.512  0.00  0.00     0.053 A 
ATOM     19  C33 ZIN A   1      17.936  -4.295   7.561  0.00  0.00     0.045 A 
ATOM     20  N34 ZIN A   1      18.066  -2.932   7.589  0.00  0.00    -0.357 N 
ATOM     21  C35 ZIN A   1      18.438  -3.430  11.158  0.00  0.00     0.195 C 
ATOM     22  O36 ZIN A   1      18.678  -4.377  11.885  0.00  0.00    -0.287 OA
ATOM     23  H70 ZIN A   1      18.022  -2.355   6.810  0.00  0.00     0.166 HD
ENDROOT
BRANCH   1  24
ATOM     24  C2  ZIN A   1      17.900  -0.383  15.061  0.00  0.00     0.036 C 
ATOM     25  C1  ZIN A   1      18.931  -1.244  15.793  0.00  0.00     0.010 C 
ENDBRANCH   1  24
BRANCH   6  26
ATOM     26  N9  ZIN A   1      17.881   1.788  13.224  0.00  0.00    -0.283 NA
ATOM     27  C20 ZIN A   1      19.054   2.169  14.022  0.00  0.00     0.098 C 
ATOM     28  C19 ZIN A   1      18.801   3.524  14.687  0.00  0.00     0.050 C 
ATOM     29  C12 ZIN A   1      18.533   4.575  13.607  0.00  0.00     0.225 C 
ATOM     30  C11 ZIN A   1      17.338   4.132  12.759  0.00  0.00     0.050 C 
ATOM     31  C10 ZIN A   1      17.633   2.759  12.150  0.00  0.00     0.098 C 
BRANCH  29  32
ATOM     32  N13 ZIN A   1      18.232   5.866  14.242  0.00  0.00     0.097 N 
ATOM     33  C18 ZIN A   1      16.897   6.343  13.857  0.00  0.00     0.299 C 
ATOM     34  C17 ZIN A   1      16.650   7.715  14.491  0.00  0.00     0.198 C 
ATOM     35  O16 ZIN A   1      16.799   7.612  15.910  0.00  0.00    -0.388 OA
ATOM     36  C15 ZIN A   1      18.089   7.150  16.320  0.00  0.00     0.198 C 
ATOM     37  C14 ZIN A   1      18.351   5.773  15.704  0.00  0.00     0.299 C 
ENDBRANCH  29  32
ENDBRANCH   6  26
TORSDOF 3
ENDMDL
MODEL 3
REMARK VINA RESULT:      -9.5      2.500     11.014
REMARK  3 active torsions:
REMARK  status: ('A' for Active; 'I' for Inactive)
REMARK    1  A    between atoms: C2_2  and  C3_3 
REMARK    2  A    between atoms: C8_8  and  N9_9 
REMARK    3  A    between atoms: C12_12  and  N13_13 
ROOT
ATOM      1  C3  ZIN A   1      19.241  -1.098  10.437  0.00  0.00    -0.036 A 
ATOM      2  C4  ZIN A   1      19.265  -2.205   9.621  0.00  0.00     0.025 A 
ATOM      3  C5  ZIN A   1      18.919  -2.088   8.271  0.00  0.00     0.023 A 
ATOM      4  C6  ZIN A   1      18.551  -0.854   7.738  0.00  0.00    -0.028 A 
ATOM      5  C7  ZIN A   1      18.525   0.253   8.569  0.00  0.00     0.033 A 
ATOM      6  C8  ZIN A   1      18.862   0.136   9.912  0.00  0.00     0.017 A 
ATOM      7  C21 ZIN A   1      18.189  -0.653   6.292  0.00  0.00     0.024 C 
ATOM      8  C22 ZIN A   1      16.935   0.219   6.208  0.00  0.00     0.027 C 
ATOM      9  C23 ZIN A   1      19.342   0.064   5.585  0.00  0.00     0.027 C 
ATOM     10  C24 ZIN A   1      17.924  -1.957   5.592  0.00  0.00     0.037 A 
ATOM     11  C25 ZIN A   1      18.282  -3.183   6.110  0.00  0.00     0.051 A 
ATOM     12  C26 ZIN A   1      17.876  -4.191   5.152  0.00  0.00     0.007 A 
ATOM     13  C27 ZIN A   1      17.981  -5.583   5.134  0.00  0.00     0.016 A 
ATOM     14  C28 ZIN A   1      17.474  -6.235   4.039  0.00  0.00     0.024 A 
ATOM     15  C29 ZIN A   1      16.875  -5.545   2.981  0.00  0.00     0.046 A 
ATOM     16  C30 ZIN A   1      16.365  -6.285   1.867  0.00  0.00     0.099 C 
ATOM     17  N31 ZIN A   1      15.959  -6.873   0.983  0.00  0.00    -0.191 NA
ATOM     18  C32 ZIN A   1      16.761  -4.150   2.981  0.00  0.00     0.053 A 
ATOM     19  C33 ZIN A   1      17.272  -3.476   4.083  0.00  0.00     0.045 A 
ATOM     20  N34 ZIN A   1      17.322  -2.143   4.392  0.00  0.00    -0.357 N 
ATOM     21  C35 ZIN A   1      18.942  -3.303   7.418  0.00  0.00     0.195 C 
ATOM     22  O36 ZIN A   1      19.476  -4.337   7.779  0.00  0.00    -0.287 OA
ATOM     23  H70 ZIN A   1      16.976  -1.431   3.831  0.00  0.00     0.166 HD
ENDROOT
BRANCH   1  24
ATOM     24  C2  ZIN A   1      19.617  -1.220  11.891  0.00  0.00     0.036 C 
ATOM     25  C1  ZIN A   1      19.169  -2.584  12.421  0.00  0.00     0.010 C 
ENDBRANCH   1  24
BRANCH   6  26
ATOM     26  N9  ZIN A   1      18.831   1.257  10.735  0.00  0.00    -0.283 NA
ATOM     27  C20 ZIN A   1      19.322   2.444  10.024  0.00  0.00     0.098 C 
ATOM     28  C19 ZIN A   1      19.411   3.621  10.997  0.00  0.00     0.050 C 
ATOM     29  C12 ZIN A   1      18.025   3.895  11.587  0.00  0.00     0.225 C 
ATOM     30  C11 ZIN A   1      17.515   2.629  12.280  0.00  0.00     0.050 C 
ATOM     31  C10 ZIN A   1      17.482   1.479  11.269  0.00  0.00     0.098 C 
BRANCH  29  32
ATOM     32  N13 ZIN A   1      18.115   4.987  12.566  0.00  0.00     0.097 N 
ATOM     33  C18 ZIN A   1      16.867   5.112  13.332  0.00  0.00     0.299 C 
ATOM     34  C17 ZIN A   1      16.983   6.297  14.296  0.00  0.00     0.198 C 
ATOM     35  O16 ZIN A   1      18.121   6.107  15.141  0.00  0.00    -0.388 OA
ATOM     36  C15 ZIN A   1      19.354   5.982  14.428  0.00  0.00     0.198 C 
ATOM     37  C14 ZIN A   1      19.262   4.795  13.465  0.00  0.00     0.299 C 
ENDBRANCH  29  32
ENDBRANCH   6  26
TORSDOF 3
ENDMDL
MODEL 4
REMARK VINA RESULT:      -9.4      3.058      3.910
REMARK  3 active torsions:
REMARK  status: ('A' for Active; 'I' for Inactive)
REMARK    1  A    between atoms: C2_2  and  C3_3 
REMARK    2  A    between atoms: C8_8  and  N9_9 
REMARK    3  A    between atoms: C12_12  and  N13_13 
ROOT
ATOM      1  C3  ZIN A   1      19.179   0.076   7.678  0.00  0.00    -0.036 A 
ATOM      2  C4  ZIN A   1      19.412   0.639   8.910  0.00  0.00     0.025 A 
ATOM      3  C5  ZIN A   1      19.345  -0.148  10.065  0.00  0.00     0.023 A 
ATOM      4  C6  ZIN A   1      19.044  -1.507   9.980  0.00  0.00    -0.028 A 
ATOM      5  C7  ZIN A   1      18.805  -2.062   8.735  0.00  0.00     0.033 A 
ATOM      6  C8  ZIN A   1      18.865  -1.279   7.588  0.00  0.00     0.017 A 
ATOM      7  C21 ZIN A   1      18.977  -2.415  11.178  0.00  0.00     0.024 C 
ATOM      8  C22 ZIN A   1      17.732  -3.297  11.065  0.00  0.00     0.027 C 
ATOM      9  C23 ZIN A   1      20.220  -3.308  11.196  0.00  0.00     0.027 C 
ATOM     10  C24 ZIN A   1      18.913  -1.642  12.466  0.00  0.00     0.037 A 
ATOM     11  C25 ZIN A   1      19.206  -0.300  12.562  0.00  0.00     0.051 A 
ATOM     12  C26 ZIN A   1      19.045   0.079  13.950  0.00  0.00     0.007 A 
ATOM     13  C27 ZIN A   1      19.207   1.287  14.632  0.00  0.00     0.016 A 
ATOM     14  C28 ZIN A   1      18.961   1.283  15.981  0.00  0.00     0.024 A 
ATOM     15  C29 ZIN A   1      18.563   0.124  16.654  0.00  0.00     0.046 A 
ATOM     16  C30 ZIN A   1      18.321   0.187  18.064  0.00  0.00     0.099 C 
ATOM     17  N31 ZIN A   1      18.127   0.238  19.183  0.00  0.00    -0.191 NA
ATOM     18  C32 ZIN A   1      18.396  -1.096  15.989  0.00  0.00     0.053 A 
ATOM     19  C33 ZIN A   1      18.643  -1.106  14.622  0.00  0.00     0.045 A 
ATOM     20  N34 ZIN A   1      18.576  -2.109  13.693  0.00  0.00    -0.357 N 
ATOM     21  C35 ZIN A   1      19.590   0.491  11.383  0.00  0.00     0.195 C 
ATOM     22  O36 ZIN A   1      20.081   1.601  11.481  0.00  0.00    -0.287 OA
ATOM     23  H70 ZIN A   1      18.323  -3.026  13.885  0.00  0.00     0.166 HD
ENDROOT
BRANCH   1  24
ATOM     24  C2  ZIN A   1      19.254   0.920   6.432  0.00  0.00     0.036 C 
ATOM     25  C1  ZIN A   1      18.879   2.364   6.771  0.00  0.00     0.010 C 
ENDBRANCH   1  24
BRANCH   6  26
ATOM     26  N9  ZIN A   1      18.622  -1.852   6.345  0.00  0.00    -0.283 NA
ATOM     27  C20 ZIN A   1      18.504  -3.312   6.452  0.00  0.00     0.098 C 
ATOM     28  C19 ZIN A   1      18.383  -3.918   5.053  0.00  0.00     0.050 C 
ATOM     29  C12 ZIN A   1      17.149  -3.338   4.355  0.00  0.00     0.225 C 
ATOM     30  C11 ZIN A   1      17.275  -1.814   4.299  0.00  0.00     0.050 C 
ATOM     31  C10 ZIN A   1      17.428  -1.267   5.721  0.00  0.00     0.098 C 
BRANCH  29  32
ATOM     32  N13 ZIN A   1      17.060  -3.874   2.990  0.00  0.00     0.097 N 
ATOM     33  C18 ZIN A   1      17.975  -5.010   2.809  0.00  0.00     0.299 C 
ATOM     34  C17 ZIN A   1      17.894  -5.498   1.360  0.00  0.00     0.198 C 
ATOM     35  O16 ZIN A   1      16.539  -5.839   1.053  0.00  0.00    -0.388 OA
ATOM     36  C15 ZIN A   1      15.621  -4.755   1.217  0.00  0.00     0.198 C 
ATOM     37  C14 ZIN A   1      15.680  -4.259   2.664  0.00  0.00     0.299 C 
ENDBRANCH  29  32
ENDBRANCH   6  26
TORSDOF 3
ENDMDL
MODEL 5
REMARK VINA RESULT:      -9.1      2.352      3.137
REMARK  3 active torsions:
REMARK  status: ('A' for Active; 'I' for Inactive)
REMARK    1  A    between atoms: C2_2  and  C3_3 
REMARK    2  A    between atoms: C8_8  and  N9_9 
REMARK    3  A    between atoms: C12_12  and  N13_13 
ROOT
ATOM      1  C3  ZIN A   1      18.288  -1.465   7.654  0.00  0.00    -0.036 A 
ATOM      2  C4  ZIN A   1      18.631  -0.566   8.635  0.00  0.00     0.025 A 
ATOM      3  C5  ZIN A   1      18.885  -1.010   9.937  0.00  0.00     0.023 A 
ATOM      4  C6  ZIN A   1      18.797  -2.366  10.252  0.00  0.00    -0.028 A 
ATOM      5  C7  ZIN A   1      18.445  -3.262   9.258  0.00  0.00     0.033 A 
ATOM      6  C8  ZIN A   1      18.187  -2.819   7.966  0.00  0.00     0.017 A 
ATOM      7  C21 ZIN A   1      19.078  -2.914  11.625  0.00  0.00     0.024 C 
ATOM      8  C22 ZIN A   1      17.990  -3.926  11.989  0.00  0.00     0.027 C 
ATOM      9  C23 ZIN A   1      20.433  -3.625  11.609  0.00  0.00     0.027 C 
ATOM     10  C24 ZIN A   1      19.107  -1.832  12.668  0.00  0.00     0.037 A 
ATOM     11  C25 ZIN A   1      19.192  -0.491  12.368  0.00  0.00     0.051 A 
ATOM     12  C26 ZIN A   1      19.207   0.232  13.623  0.00  0.00     0.007 A 
ATOM     13  C27 ZIN A   1      19.284   1.590  13.938  0.00  0.00     0.016 A 
ATOM     14  C28 ZIN A   1      19.271   1.927  15.268  0.00  0.00     0.024 A 
ATOM     15  C29 ZIN A   1      19.183   0.958  16.273  0.00  0.00     0.046 A 
ATOM     16  C30 ZIN A   1      19.173   1.375  17.642  0.00  0.00     0.099 C 
ATOM     17  N31 ZIN A   1      19.164   1.707  18.729  0.00  0.00    -0.191 NA
ATOM     18  C32 ZIN A   1      19.105  -0.407  15.977  0.00  0.00     0.053 A 
ATOM     19  C33 ZIN A   1      19.119  -0.762  14.634  0.00  0.00     0.045 A 
ATOM     20  N34 ZIN A   1      19.060  -1.982  14.014  0.00  0.00    -0.357 N 
ATOM     21  C35 ZIN A   1      19.242  -0.014  10.978  0.00  0.00     0.195 C 
ATOM     22  O36 ZIN A   1      19.556   1.129  10.698  0.00  0.00    -0.287 OA
ATOM     23  H70 ZIN A   1      18.993  -2.834  14.474  0.00  0.00     0.166 HD
ENDROOT
BRANCH   1  24
ATOM     24  C2  ZIN A   1      18.018  -0.990   6.250  0.00  0.00     0.036 C 
ATOM     25  C1  ZIN A   1      18.141   0.534   6.195  0.00  0.00     0.010 C 
ENDBRANCH   1  24
BRANCH   6  26
ATOM     26  N9  ZIN A   1      17.834  -3.733   6.979  0.00  0.00    -0.283 NA
ATOM     27  C20 ZIN A   1      18.940  -3.939   6.034  0.00  0.00     0.098 C 
ATOM     28  C19 ZIN A   1      18.470  -4.833   4.885  0.00  0.00     0.050 C 
ATOM     29  C12 ZIN A   1      18.000  -6.176   5.450  0.00  0.00     0.225 C 
ATOM     30  C11 ZIN A   1      16.881  -5.930   6.466  0.00  0.00     0.050 C 
ATOM     31  C10 ZIN A   1      17.398  -5.004   7.570  0.00  0.00     0.098 C 
BRANCH  29  32
ATOM     32  N13 ZIN A   1      17.494  -7.018   4.356  0.00  0.00     0.097 N 
ATOM     33  C18 ZIN A   1      16.231  -7.668   4.734  0.00  0.00     0.299 C 
ATOM     34  C17 ZIN A   1      15.771  -8.579   3.593  0.00  0.00     0.198 C 
ATOM     35  O16 ZIN A   1      15.646  -7.807   2.395  0.00  0.00    -0.388 OA
ATOM     36  C15 ZIN A   1      16.858  -7.160   1.997  0.00  0.00     0.198 C 
ATOM     37  C14 ZIN A   1      17.328  -6.235   3.123  0.00  0.00     0.299 C 
ENDBRANCH  29  32
ENDBRANCH   6  26
TORSDOF 3
ENDMDL
MODEL 6
REMARK VINA RESULT:      -9.0      1.542      2.254
REMARK  3 active torsions:
REMARK  status: ('A' for Active; 'I' for Inactive)
REMARK    1  A    between atoms: C2_2  and  C3_3 
REMARK    2  A    between atoms: C8_8  and  N9_9 
REMARK    3  A    between atoms: C12_12  and  N13_13 
ROOT
ATOM      1  C3  ZIN A   1      18.495  -2.061   6.920  0.00  0.00    -0.036 A 
ATOM      2  C4  ZIN A   1      18.858  -0.829   7.412  0.00  0.00     0.025 A 
ATOM      3  C5  ZIN A   1      18.956  -0.627   8.792  0.00  0.00     0.023 A 
ATOM      4  C6  ZIN A   1      18.691  -1.668   9.682  0.00  0.00    -0.028 A 
ATOM      5  C7  ZIN A   1      18.321  -2.902   9.176  0.00  0.00     0.033 A 
ATOM      6  C8  ZIN A   1      18.218  -3.101   7.804  0.00  0.00     0.017 A 
ATOM      7  C21 ZIN A   1      18.798  -1.526  11.176  0.00  0.00     0.024 C 
ATOM      8  C22 ZIN A   1      17.579  -2.180  11.827  0.00  0.00     0.027 C 
ATOM      9  C23 ZIN A   1      20.063  -2.244  11.654  0.00  0.00     0.027 C 
ATOM     10  C24 ZIN A   1      18.866  -0.085  11.600  0.00  0.00     0.037 A 
ATOM     11  C25 ZIN A   1      19.125   0.951  10.731  0.00  0.00     0.051 A 
ATOM     12  C26 ZIN A   1      19.120   2.175  11.506  0.00  0.00     0.007 A 
ATOM     13  C27 ZIN A   1      19.325   3.515  11.168  0.00  0.00     0.016 A 
ATOM     14  C28 ZIN A   1      19.243   4.435  12.182  0.00  0.00     0.024 A 
ATOM     15  C29 ZIN A   1      18.967   4.058  13.500  0.00  0.00     0.046 A 
ATOM     16  C30 ZIN A   1      18.895   5.068  14.512  0.00  0.00     0.099 C 
ATOM     17  N31 ZIN A   1      18.837   5.870  15.315  0.00  0.00    -0.191 NA
ATOM     18  C32 ZIN A   1      18.761   2.721  13.857  0.00  0.00     0.053 A 
ATOM     19  C33 ZIN A   1      18.841   1.778  12.840  0.00  0.00     0.045 A 
ATOM     20  N34 ZIN A   1      18.695   0.416  12.848  0.00  0.00    -0.357 N 
ATOM     21  C35 ZIN A   1      19.338   0.717   9.295  0.00  0.00     0.195 C 
ATOM     22  O36 ZIN A   1      19.800   1.573   8.562  0.00  0.00    -0.287 OA
ATOM     23  H70 ZIN A   1      18.497  -0.115  13.635  0.00  0.00     0.166 HD
ENDROOT
BRANCH   1  24
ATOM     24  C2  ZIN A   1      18.392  -2.282   5.433  0.00  0.00     0.036 C 
ATOM     25  C1  ZIN A   1      17.636  -1.116   4.795  0.00  0.00     0.010 C 
ENDBRANCH   1  24
BRANCH   6  26
ATOM     26  N9  ZIN A   1      17.845  -4.347   7.311  0.00  0.00    -0.283 NA
ATOM     27  C20 ZIN A   1      19.024  -5.139   6.938  0.00  0.00     0.098 C 
ATOM     28  C19 ZIN A   1      18.574  -6.439   6.268  0.00  0.00     0.050 C 
ATOM     29  C12 ZIN A   1      17.691  -7.229   7.238  0.00  0.00     0.225 C 
ATOM     30  C11 ZIN A   1      16.497  -6.364   7.648  0.00  0.00     0.050 C 
ATOM     31  C10 ZIN A   1      17.007  -5.066   8.279  0.00  0.00     0.098 C 
BRANCH  29  32
ATOM     32  N13 ZIN A   1      17.209  -8.451   6.579  0.00  0.00     0.097 N 
ATOM     33  C18 ZIN A   1      15.988  -8.951   7.226  0.00  0.00     0.299 C 
ATOM     34  C17 ZIN A   1      15.556 -10.255   6.548  0.00  0.00     0.198 C 
ATOM     35  O16 ZIN A   1      15.370 -10.019   5.150  0.00  0.00    -0.388 OA
ATOM     36  C15 ZIN A   1      16.540  -9.531   4.488  0.00  0.00     0.198 C 
ATOM     37  C14 ZIN A   1      16.983  -8.221   5.145  0.00  0.00     0.299 C 
ENDBRANCH  29  32
ENDBRANCH   6  26
TORSDOF 3
ENDMDL
MODEL 7
REMARK VINA RESULT:      -8.8      3.354     11.510
REMARK  3 active torsions:
REMARK  status: ('A' for Active; 'I' for Inactive)
REMARK    1  A    between atoms: C2_2  and  C3_3 
REMARK    2  A    between atoms: C8_8  and  N9_9 
REMARK    3  A    between atoms: C12_12  and  N13_13 
ROOT
ATOM      1  C3  ZIN A   1      18.215   1.262  15.342  0.00  0.00    -0.036 A 
ATOM      2  C4  ZIN A   1      18.547   0.367  14.352  0.00  0.00     0.025 A 
ATOM      3  C5  ZIN A   1      18.854   0.825  13.067  0.00  0.00     0.023 A 
ATOM      4  C6  ZIN A   1      18.830   2.189  12.776  0.00  0.00    -0.028 A 
ATOM      5  C7  ZIN A   1      18.488   3.080  13.778  0.00  0.00     0.033 A 
ATOM      6  C8  ZIN A   1      18.177   2.625  15.054  0.00  0.00     0.017 A 
ATOM      7  C21 ZIN A   1      19.169   2.752  11.422  0.00  0.00     0.024 C 
ATOM      8  C22 ZIN A   1      18.134   3.815  11.051  0.00  0.00     0.027 C 
ATOM      9  C23 ZIN A   1      20.552   3.405  11.488  0.00  0.00     0.027 C 
ATOM     10  C24 ZIN A   1      19.182   1.689  10.359  0.00  0.00     0.037 A 
ATOM     11  C25 ZIN A   1      19.204   0.340  10.634  0.00  0.00     0.051 A 
ATOM     12  C26 ZIN A   1      19.223  -0.359   9.365  0.00  0.00     0.007 A 
ATOM     13  C27 ZIN A   1      19.253  -1.713   9.025  0.00  0.00     0.016 A 
ATOM     14  C28 ZIN A   1      19.261  -2.024   7.689  0.00  0.00     0.024 A 
ATOM     15  C29 ZIN A   1      19.240  -1.033   6.702  0.00  0.00     0.046 A 
ATOM     16  C30 ZIN A   1      19.249  -1.424   5.325  0.00  0.00     0.099 C 
ATOM     17  N31 ZIN A   1      19.256  -1.734   4.231  0.00  0.00    -0.191 NA
ATOM     18  C32 ZIN A   1      19.210   0.328   7.023  0.00  0.00     0.053 A 
ATOM     19  C33 ZIN A   1      19.203   0.657   8.373  0.00  0.00     0.045 A 
ATOM     20  N34 ZIN A   1      19.177   1.866   9.015  0.00  0.00    -0.357 N 
ATOM     21  C35 ZIN A   1      19.197  -0.165  12.015  0.00  0.00     0.195 C 
ATOM     22  O36 ZIN A   1      19.457  -1.325  12.280  0.00  0.00    -0.287 OA
ATOM     23  H70 ZIN A   1      19.157   2.729   8.571  0.00  0.00     0.166 HD
ENDROOT
BRANCH   1  24
ATOM     24  C2  ZIN A   1      17.888   0.771  16.728  0.00  0.00     0.036 C 
ATOM     25  C1  ZIN A   1      18.357  -0.677  16.880  0.00  0.00     0.010 C 
ENDBRANCH   1  24
BRANCH   6  26
ATOM     26  N9  ZIN A   1      17.837   3.533  16.050  0.00  0.00    -0.283 NA
ATOM     27  C20 ZIN A   1      18.957   3.744  16.975  0.00  0.00     0.098 C 
ATOM     28  C19 ZIN A   1      18.502   4.631  18.135  0.00  0.00     0.050 C 
ATOM     29  C12 ZIN A   1      18.013   5.973  17.583  0.00  0.00     0.225 C 
ATOM     30  C11 ZIN A   1      16.879   5.723  16.586  0.00  0.00     0.050 C 
ATOM     31  C10 ZIN A   1      17.381   4.803  15.470  0.00  0.00     0.098 C 
BRANCH  29  32
ATOM     32  N13 ZIN A   1      17.520   6.809  18.687  0.00  0.00     0.097 N 
ATOM     33  C18 ZIN A   1      16.446   7.703  18.232  0.00  0.00     0.299 C 
ATOM     34  C17 ZIN A   1      16.005   8.594  19.396  0.00  0.00     0.198 C 
ATOM     35  O16 ZIN A   1      15.596   7.770  20.492  0.00  0.00    -0.388 OA
ATOM     36  C15 ZIN A   1      16.618   6.887  20.961  0.00  0.00     0.198 C 
ATOM     37  C14 ZIN A   1      17.066   5.979  19.812  0.00  0.00     0.299 C 
ENDBRANCH  29  32
ENDBRANCH   6  26
TORSDOF 3
ENDMDL
MODEL 8
REMARK VINA RESULT:      -8.7      2.041      3.476
REMARK  3 active torsions:
REMARK  status: ('A' for Active; 'I' for Inactive)
REMARK    1  A    between atoms: C2_2  and  C3_3 
REMARK    2  A    between atoms: C8_8  and  N9_9 
REMARK    3  A    between atoms: C12_12  and  N13_13 
ROOT
ATOM      1  C3  ZIN A   1      18.499  -3.719  11.307  0.00  0.00    -0.036 A 
ATOM      2  C4  ZIN A   1      18.472  -2.893  12.406  0.00  0.00     0.025 A 
ATOM      3  C5  ZIN A   1      18.343  -1.510  12.240  0.00  0.00     0.023 A 
ATOM      4  C6  ZIN A   1      18.237  -0.956  10.965  0.00  0.00    -0.028 A 
ATOM      5  C7  ZIN A   1      18.270  -1.797   9.866  0.00  0.00     0.033 A 
ATOM      6  C8  ZIN A   1      18.405  -3.170  10.030  0.00  0.00     0.017 A 
ATOM      7  C21 ZIN A   1      18.074   0.519  10.716  0.00  0.00     0.024 C 
ATOM      8  C22 ZIN A   1      19.007   0.938   9.579  0.00  0.00     0.027 C 
ATOM      9  C23 ZIN A   1      16.627   0.796  10.300  0.00  0.00     0.027 C 
ATOM     10  C24 ZIN A   1      18.394   1.334  11.937  0.00  0.00     0.037 A 
ATOM     11  C25 ZIN A   1      18.503   0.798  13.201  0.00  0.00     0.051 A 
ATOM     12  C26 ZIN A   1      18.807   1.886  14.107  0.00  0.00     0.007 A 
ATOM     13  C27 ZIN A   1      19.019   1.945  15.486  0.00  0.00     0.016 A 
ATOM     14  C28 ZIN A   1      19.292   3.176  16.026  0.00  0.00     0.024 A 
ATOM     15  C29 ZIN A   1      19.358   4.329  15.237  0.00  0.00     0.046 A 
ATOM     16  C30 ZIN A   1      19.648   5.584  15.862  0.00  0.00     0.099 C 
ATOM     17  N31 ZIN A   1      19.880   6.580  16.358  0.00  0.00    -0.191 NA
ATOM     18  C32 ZIN A   1      19.147   4.290  13.854  0.00  0.00     0.053 A 
ATOM     19  C33 ZIN A   1      18.868   3.049  13.295  0.00  0.00     0.045 A 
ATOM     20  N34 ZIN A   1      18.617   2.669  12.003  0.00  0.00    -0.357 N 
ATOM     21  C35 ZIN A   1      18.330  -0.642  13.444  0.00  0.00     0.195 C 
ATOM     22  O36 ZIN A   1      18.184  -1.095  14.566  0.00  0.00    -0.287 OA
ATOM     23  H70 ZIN A   1      18.600   3.271  11.242  0.00  0.00     0.166 HD
ENDROOT
BRANCH   1  24
ATOM     24  C2  ZIN A   1      18.634  -5.210  11.483  0.00  0.00     0.036 C 
ATOM     25  C1  ZIN A   1      17.377  -5.760  12.159  0.00  0.00     0.010 C 
ENDBRANCH   1  24
BRANCH   6  26
ATOM     26  N9  ZIN A   1      18.437  -4.001   8.916  0.00  0.00    -0.283 NA
ATOM     27  C20 ZIN A   1      17.110  -4.569   8.645  0.00  0.00     0.098 C 
ATOM     28  C19 ZIN A   1      17.213  -5.587   7.507  0.00  0.00     0.050 C 
ATOM     29  C12 ZIN A   1      17.756  -4.892   6.255  0.00  0.00     0.225 C 
ATOM     30  C11 ZIN A   1      19.116  -4.268   6.577  0.00  0.00     0.050 C 
ATOM     31  C10 ZIN A   1      18.958  -3.288   7.742  0.00  0.00     0.098 C 
BRANCH  29  32
ATOM     32  N13 ZIN A   1      17.911  -5.877   5.175  0.00  0.00     0.097 N 
ATOM     33  C18 ZIN A   1      17.140  -7.095   5.460  0.00  0.00     0.299 C 
ATOM     34  C17 ZIN A   1      17.377  -8.115   4.342  0.00  0.00     0.198 C 
ATOM     35  O16 ZIN A   1      17.020  -7.529   3.087  0.00  0.00    -0.388 OA
ATOM     36  C15 ZIN A   1      17.752  -6.340   2.777  0.00  0.00     0.198 C 
ATOM     37  C14 ZIN A   1      17.519  -5.304   3.880  0.00  0.00     0.299 C 
ENDBRANCH  29  32
ENDBRANCH   6  26
TORSDOF 3
ENDMDL
MODEL 9
REMARK VINA RESULT:      -7.1      1.859      2.797
REMARK  3 active torsions:
REMARK  status: ('A' for Active; 'I' for Inactive)
REMARK    1  A    between atoms: C2_2  and  C3_3 
REMARK    2  A    between atoms: C8_8  and  N9_9 
REMARK    3  A    between atoms: C12_12  and  N13_13 
ROOT
ATOM      1  C3  ZIN A   1      18.646  -1.834   6.437  0.00  0.00    -0.036 A 
ATOM      2  C4  ZIN A   1      19.031  -0.671   7.061  0.00  0.00     0.025 A 
ATOM      3  C5  ZIN A   1      19.040  -0.594   8.457  0.00  0.00     0.023 A 
ATOM      4  C6  ZIN A   1      18.664  -1.692   9.230  0.00  0.00    -0.028 A 
ATOM      5  C7  ZIN A   1      18.272  -2.856   8.591  0.00  0.00     0.033 A 
ATOM      6  C8  ZIN A   1      18.257  -2.931   7.204  0.00  0.00     0.017 A 
ATOM      7  C21 ZIN A   1      18.671  -1.686  10.734  0.00  0.00     0.024 C 
ATOM      8  C22 ZIN A   1      17.378  -2.327  11.242  0.00  0.00     0.027 C 
ATOM      9  C23 ZIN A   1      19.863  -2.509  11.230  0.00  0.00     0.027 C 
ATOM     10  C24 ZIN A   1      18.777  -0.293  11.290  0.00  0.00     0.037 A 
ATOM     11  C25 ZIN A   1      19.146   0.799  10.536  0.00  0.00     0.051 A 
ATOM     12  C26 ZIN A   1      19.144   1.951  11.415  0.00  0.00     0.007 A 
ATOM     13  C27 ZIN A   1      19.436   3.302  11.214  0.00  0.00     0.016 A 
ATOM     14  C28 ZIN A   1      19.326   4.134  12.298  0.00  0.00     0.024 A 
ATOM     15  C29 ZIN A   1      18.940   3.660  13.556  0.00  0.00     0.046 A 
ATOM     16  C30 ZIN A   1      18.844   4.581  14.648  0.00  0.00     0.099 C 
ATOM     17  N31 ZIN A   1      18.767   5.313  15.514  0.00  0.00    -0.191 NA
ATOM     18  C32 ZIN A   1      18.645   2.310  13.777  0.00  0.00     0.053 A 
ATOM     19  C33 ZIN A   1      18.753   1.455  12.687  0.00  0.00     0.045 A 
ATOM     20  N34 ZIN A   1      18.541   0.108  12.563  0.00  0.00    -0.357 N 
ATOM     21  C35 ZIN A   1      19.449   0.679   9.102  0.00  0.00     0.195 C 
ATOM     22  O36 ZIN A   1      20.002   1.569   8.482  0.00  0.00    -0.287 OA
ATOM     23  H70 ZIN A   1      18.263  -0.478  13.285  0.00  0.00     0.166 HD
ENDROOT
BRANCH   1  24
ATOM     24  C2  ZIN A   1      18.639  -1.921   4.933  0.00  0.00     0.036 C 
ATOM     25  C1  ZIN A   1      18.447  -0.523   4.342  0.00  0.00     0.010 C 
ENDBRANCH   1  24
BRANCH   6  26
ATOM     26  N9  ZIN A   1      17.862  -4.108   6.577  0.00  0.00    -0.283 NA
ATOM     27  C20 ZIN A   1      17.219  -3.826   5.287  0.00  0.00     0.098 C 
ATOM     28  C19 ZIN A   1      16.669  -5.126   4.696  0.00  0.00     0.050 C 
ATOM     29  C12 ZIN A   1      17.817  -6.122   4.509  0.00  0.00     0.225 C 
ATOM     30  C11 ZIN A   1      18.500  -6.361   5.858  0.00  0.00     0.050 C 
ATOM     31  C10 ZIN A   1      18.997  -5.025   6.415  0.00  0.00     0.098 C 
BRANCH  29  32
ATOM     32  N13 ZIN A   1      17.286  -7.392   3.996  0.00  0.00     0.097 N 
ATOM     33  C18 ZIN A   1      15.819  -7.354   3.914  0.00  0.00     0.299 C 
ATOM     34  C17 ZIN A   1      15.305  -8.715   3.433  0.00  0.00     0.198 C 
ATOM     35  O16 ZIN A   1      15.910  -9.028   2.175  0.00  0.00    -0.388 OA
ATOM     36  C15 ZIN A   1      17.338  -9.074   2.218  0.00  0.00     0.198 C 
ATOM     37  C14 ZIN A   1      17.872  -7.718   2.688  0.00  0.00     0.299 C 
ENDBRANCH  29  32
ENDBRANCH   6  26
TORSDOF 3
ENDMDL
