MODEL 1
REMARK VINA RESULT:      -4.9      0.000      0.000
REMARK  6 active torsions:
REMARK  status: ('A' for Active; 'I' for Inactive)
REMARK    1  A    between atoms: N1_1  and  C5_5 
REMARK    2  A    between atoms: C5_5  and  C6_6 
REMARK    3  A    between atoms: C6_6  and  C7_7 
REMARK    4  A    between atoms: C7_7  and  O8_8 
REMARK    5  A    between atoms: C7_7  and  P9_9 
REMARK    6  A    between atoms: C7_7  and  P13_13 
ROOT
ATOM      1  C7  RES d   1      19.431   2.872  12.067  0.00  0.00     0.286 C 
ENDROOT
BRANCH   1   2
ATOM      2  C6  RES d   1      19.372   1.435  12.589  0.00  0.00     0.095 C 
BRANCH   2   3
ATOM      3  C5  RES d   1      20.241   0.535  11.707  0.00  0.00     0.234 C 
BRANCH   3   4
ATOM      4  N1  RES d   1      21.624   0.556  12.199  0.00  0.00    -0.079 N 
ATOM      5  H2  RES d   1      21.644   0.250  13.161  0.00  0.00     0.274 HD
ATOM      6  H3  RES d   1      21.990   1.495  12.137  0.00  0.00     0.274 HD
ATOM      7  H4  RES d   1      22.190  -0.063  11.638  0.00  0.00     0.274 HD
ENDBRANCH   3   4
ENDBRANCH   2   3
ENDBRANCH   1   2
BRANCH   1   8
ATOM      8  O8  RES d   1      20.773   3.190  11.698  0.00  0.00    -0.365 OA
ATOM      9  H21 RES d   1      20.875   4.064  11.297  0.00  0.00     0.212 HD
ENDBRANCH   1   8
BRANCH   1  10
ATOM     10  P9  RES d   1      18.346   3.033  10.610  0.00  0.00     0.310 P 
ATOM     11  O10 RES d   1      17.049   2.182  10.827  0.00  0.00    -0.637 OA
ATOM     12  O11 RES d   1      17.956   4.538  10.413  0.00  0.00    -0.637 OA
ATOM     13  O12 RES d   1      19.102   2.518   9.338  0.00  0.00    -0.637 OA
ENDBRANCH   1  10
BRANCH   1  14
ATOM     14  P13 RES d   1      18.872   4.016  13.371  0.00  0.00     0.310 P 
ATOM     15  O14 RES d   1      17.342   4.301  13.195  0.00  0.00    -0.637 OA
ATOM     16  O15 RES d   1      19.125   3.371  14.775  0.00  0.00    -0.637 OA
ATOM     17  O16 RES d   1      19.669   5.361  13.262  0.00  0.00    -0.637 OA
ENDBRANCH   1  14
TORSDOF 6
ENDMDL
MODEL 2
REMARK VINA RESULT:      -4.9      2.108      3.406
REMARK  6 active torsions:
REMARK  status: ('A' for Active; 'I' for Inactive)
REMARK    1  A    between atoms: N1_1  and  C5_5 
REMARK    2  A    between atoms: C5_5  and  C6_6 
REMARK    3  A    between atoms: C6_6  and  C7_7 
REMARK    4  A    between atoms: C7_7  and  O8_8 
REMARK    5  A    between atoms: C7_7  and  P9_9 
REMARK    6  A    between atoms: C7_7  and  P13_13 
ROOT
ATOM      1  C7  RES d   1      18.935   0.654  10.707  0.00  0.00     0.286 C 
ENDROOT
BRANCH   1   2
ATOM      2  C6  RES d   1      19.164   0.509  12.213  0.00  0.00     0.095 C 
BRANCH   2   3
ATOM      3  C5  RES d   1      20.506  -0.184  12.461  0.00  0.00     0.234 C 
BRANCH   3   4
ATOM      4  N1  RES d   1      21.597   0.777  12.258  0.00  0.00    -0.079 N 
ATOM      5  H2  RES d   1      21.302   1.692  12.564  0.00  0.00     0.274 HD
ATOM      6  H3  RES d   1      21.838   0.812  11.278  0.00  0.00     0.274 HD
ATOM      7  H4  RES d   1      22.404   0.488  12.792  0.00  0.00     0.274 HD
ENDBRANCH   3   4
ENDBRANCH   2   3
ENDBRANCH   1   2
BRANCH   1   8
ATOM      8  O8  RES d   1      20.065   0.139  10.002  0.00  0.00    -0.365 OA
ATOM      9  H21 RES d   1      20.916   0.359  10.407  0.00  0.00     0.212 HD
ENDBRANCH   1   8
BRANCH   1  10
ATOM     10  P9  RES d   1      17.444  -0.279  10.227  0.00  0.00     0.310 P 
ATOM     11  O10 RES d   1      16.262   0.094  11.185  0.00  0.00    -0.637 OA
ATOM     12  O11 RES d   1      17.054   0.081   8.753  0.00  0.00    -0.637 OA
ATOM     13  O12 RES d   1      17.734  -1.816  10.330  0.00  0.00    -0.637 OA
ENDBRANCH   1  10
BRANCH   1  14
ATOM     14  P13 RES d   1      18.710   2.415  10.294  0.00  0.00     0.310 P 
ATOM     15  O14 RES d   1      18.937   2.623   8.758  0.00  0.00    -0.637 OA
ATOM     16  O15 RES d   1      17.257   2.859  10.671  0.00  0.00    -0.637 OA
ATOM     17  O16 RES d   1      19.745   3.275  11.096  0.00  0.00    -0.637 OA
ENDBRANCH   1  14
TORSDOF 6
ENDMDL
MODEL 3
REMARK VINA RESULT:      -4.9      4.186      5.456
REMARK  6 active torsions:
REMARK  status: ('A' for Active; 'I' for Inactive)
REMARK    1  A    between atoms: N1_1  and  C5_5 
REMARK    2  A    between atoms: C5_5  and  C6_6 
REMARK    3  A    between atoms: C6_6  and  C7_7 
REMARK    4  A    between atoms: C7_7  and  O8_8 
REMARK    5  A    between atoms: C7_7  and  P9_9 
REMARK    6  A    between atoms: C7_7  and  P13_13 
ROOT
ATOM      1  C7  RES d   1      19.289  -0.880  10.746  0.00  0.00     0.286 C 
ENDROOT
BRANCH   1   2
ATOM      2  C6  RES d   1      19.302   0.443  11.514  0.00  0.00     0.095 C 
BRANCH   2   3
ATOM      3  C5  RES d   1      20.285   0.345  12.683  0.00  0.00     0.234 C 
BRANCH   3   4
ATOM      4  N1  RES d   1      21.633   0.697  12.219  0.00  0.00    -0.079 N 
ATOM      5  H2  RES d   1      21.857   0.159  11.394  0.00  0.00     0.274 HD
ATOM      6  H3  RES d   1      22.304   0.492  12.945  0.00  0.00     0.274 HD
ATOM      7  H4  RES d   1      21.668   1.681  11.997  0.00  0.00     0.274 HD
ENDBRANCH   3   4
ENDBRANCH   2   3
ENDBRANCH   1   2
BRANCH   1   8
ATOM      8  O8  RES d   1      20.561  -1.517  10.873  0.00  0.00    -0.365 OA
ATOM      9  H21 RES d   1      20.526  -2.482  10.814  0.00  0.00     0.212 HD
ENDBRANCH   1   8
BRANCH   1  10
ATOM     10  P9  RES d   1      17.995  -1.966  11.432  0.00  0.00     0.310 P 
ATOM     11  O10 RES d   1      17.568  -3.017  10.351  0.00  0.00    -0.637 OA
ATOM     12  O11 RES d   1      18.552  -2.711  12.693  0.00  0.00    -0.637 OA
ATOM     13  O12 RES d   1      16.752  -1.104  11.841  0.00  0.00    -0.637 OA
ENDBRANCH   1  10
BRANCH   1  14
ATOM     14  P13 RES d   1      18.943  -0.558   8.986  0.00  0.00     0.310 P 
ATOM     15  O14 RES d   1      19.699   0.738   8.534  0.00  0.00    -0.637 OA
ATOM     16  O15 RES d   1      19.430  -1.773   8.127  0.00  0.00    -0.637 OA
ATOM     17  O16 RES d   1      17.402  -0.360   8.785  0.00  0.00    -0.637 OA
ENDBRANCH   1  14
TORSDOF 6
ENDMDL
MODEL 4
REMARK VINA RESULT:      -4.9      2.333      3.969
REMARK  6 active torsions:
REMARK  status: ('A' for Active; 'I' for Inactive)
REMARK    1  A    between atoms: N1_1  and  C5_5 
REMARK    2  A    between atoms: C5_5  and  C6_6 
REMARK    3  A    between atoms: C6_6  and  C7_7 
REMARK    4  A    between atoms: C7_7  and  O8_8 
REMARK    5  A    between atoms: C7_7  and  P9_9 
REMARK    6  A    between atoms: C7_7  and  P13_13 
ROOT
ATOM      1  C7  RES d   1      18.625   0.435  11.603  0.00  0.00     0.286 C 
ENDROOT
BRANCH   1   2
ATOM      2  C6  RES d   1      19.766   0.309  10.592  0.00  0.00     0.095 C 
BRANCH   2   3
ATOM      3  C5  RES d   1      20.965  -0.370  11.258  0.00  0.00     0.234 C 
BRANCH   3   4
ATOM      4  N1  RES d   1      21.657   0.595  12.122  0.00  0.00    -0.079 N 
ATOM      5  H2  RES d   1      20.977   1.139  12.631  0.00  0.00     0.274 HD
ATOM      6  H3  RES d   1      22.222   1.210  11.555  0.00  0.00     0.274 HD
ATOM      7  H4  RES d   1      22.248   0.101  12.773  0.00  0.00     0.274 HD
ENDBRANCH   3   4
ENDBRANCH   2   3
ENDBRANCH   1   2
BRANCH   1   8
ATOM      8  O8  RES d   1      19.007  -0.185  12.832  0.00  0.00    -0.365 OA
ATOM      9  H21 RES d   1      19.560  -0.970  12.721  0.00  0.00     0.212 HD
ENDBRANCH   1   8
BRANCH   1  10
ATOM     10  P9  RES d   1      18.267   2.198  11.898  0.00  0.00     0.310 P 
ATOM     11  O10 RES d   1      17.668   2.378  13.334  0.00  0.00    -0.637 OA
ATOM     12  O11 RES d   1      19.590   3.027  11.776  0.00  0.00    -0.637 OA
ATOM     13  O12 RES d   1      17.233   2.705  10.835  0.00  0.00    -0.637 OA
ENDBRANCH   1  10
BRANCH   1  14
ATOM     14  P13 RES d   1      17.137  -0.386  10.945  0.00  0.00     0.310 P 
ATOM     15  O14 RES d   1      17.220  -1.925  11.230  0.00  0.00    -0.637 OA
ATOM     16  O15 RES d   1      15.863   0.205  11.639  0.00  0.00    -0.637 OA
ATOM     17  O16 RES d   1      17.049  -0.146   9.399  0.00  0.00    -0.637 OA
ENDBRANCH   1  14
TORSDOF 6
ENDMDL
MODEL 5
REMARK VINA RESULT:      -4.9      1.730      2.450
REMARK  6 active torsions:
REMARK  status: ('A' for Active; 'I' for Inactive)
REMARK    1  A    between atoms: N1_1  and  C5_5 
REMARK    2  A    between atoms: C5_5  and  C6_6 
REMARK    3  A    between atoms: C6_6  and  C7_7 
REMARK    4  A    between atoms: C7_7  and  O8_8 
REMARK    5  A    between atoms: C7_7  and  P9_9 
REMARK    6  A    between atoms: C7_7  and  P13_13 
ROOT
ATOM      1  C7  RES d   1      19.367   1.616  11.849  0.00  0.00     0.286 C 
ENDROOT
BRANCH   1   2
ATOM      2  C6  RES d   1      19.174   0.345  11.019  0.00  0.00     0.095 C 
BRANCH   2   3
ATOM      3  C5  RES d   1      20.157  -0.728  11.493  0.00  0.00     0.234 C 
BRANCH   3   4
ATOM      4  N1  RES d   1      21.426  -0.582  10.769  0.00  0.00    -0.079 N 
ATOM      5  H2  RES d   1      21.843   0.309  10.994  0.00  0.00     0.274 HD
ATOM      6  H3  RES d   1      21.255  -0.631   9.775  0.00  0.00     0.274 HD
ATOM      7  H4  RES d   1      22.055  -1.325  11.038  0.00  0.00     0.274 HD
ENDBRANCH   3   4
ENDBRANCH   2   3
ENDBRANCH   1   2
BRANCH   1   8
ATOM      8  O8  RES d   1      20.762   1.896  11.974  0.00  0.00    -0.365 OA
ATOM      9  H21 RES d   1      21.070   2.622  11.415  0.00  0.00     0.212 HD
ENDBRANCH   1   8
BRANCH   1  10
ATOM     10  P9  RES d   1      18.540   3.014  11.019  0.00  0.00     0.310 P 
ATOM     11  O10 RES d   1      18.839   2.961   9.483  0.00  0.00    -0.637 OA
ATOM     12  O11 RES d   1      16.994   2.920  11.254  0.00  0.00    -0.637 OA
ATOM     13  O12 RES d   1      19.077   4.362  11.610  0.00  0.00    -0.637 OA
ENDBRANCH   1  10
BRANCH   1  14
ATOM     14  P13 RES d   1      18.643   1.377  13.504  0.00  0.00     0.310 P 
ATOM     15  O14 RES d   1      18.199   2.762  14.085  0.00  0.00    -0.637 OA
ATOM     16  O15 RES d   1      17.399   0.432  13.399  0.00  0.00    -0.637 OA
ATOM     17  O16 RES d   1      19.711   0.732  14.452  0.00  0.00    -0.637 OA
ENDBRANCH   1  14
TORSDOF 6
ENDMDL
MODEL 6
REMARK VINA RESULT:      -4.9      4.158      5.314
REMARK  6 active torsions:
REMARK  status: ('A' for Active; 'I' for Inactive)
REMARK    1  A    between atoms: N1_1  and  C5_5 
REMARK    2  A    between atoms: C5_5  and  C6_6 
REMARK    3  A    between atoms: C6_6  and  C7_7 
REMARK    4  A    between atoms: C7_7  and  O8_8 
REMARK    5  A    between atoms: C7_7  and  P9_9 
REMARK    6  A    between atoms: C7_7  and  P13_13 
ROOT
ATOM      1  C7  RES d   1      19.287  -0.834  10.670  0.00  0.00     0.286 C 
ENDROOT
BRANCH   1   2
ATOM      2  C6  RES d   1      19.306   0.466  11.477  0.00  0.00     0.095 C 
BRANCH   2   3
ATOM      3  C5  RES d   1      20.294   0.331  12.639  0.00  0.00     0.234 C 
BRANCH   3   4
ATOM      4  N1  RES d   1      21.641   0.694  12.181  0.00  0.00    -0.079 N 
ATOM      5  H2  RES d   1      21.859   1.631  12.487  0.00  0.00     0.274 HD
ATOM      6  H3  RES d   1      21.677   0.653  11.174  0.00  0.00     0.274 HD
ATOM      7  H4  RES d   1      22.313   0.049  12.568  0.00  0.00     0.274 HD
ENDBRANCH   3   4
ENDBRANCH   2   3
ENDBRANCH   1   2
BRANCH   1   8
ATOM      8  O8  RES d   1      20.558  -1.478  10.775  0.00  0.00    -0.365 OA
ATOM      9  H21 RES d   1      21.271  -0.896  11.073  0.00  0.00     0.212 HD
ENDBRANCH   1   8
BRANCH   1  10
ATOM     10  P9  RES d   1      17.991  -1.936  11.325  0.00  0.00     0.310 P 
ATOM     11  O10 RES d   1      18.534  -2.690  12.587  0.00  0.00    -0.637 OA
ATOM     12  O11 RES d   1      16.736  -1.087  11.724  0.00  0.00    -0.637 OA
ATOM     13  O12 RES d   1      17.589  -2.979  10.227  0.00  0.00    -0.637 OA
ENDBRANCH   1  10
BRANCH   1  14
ATOM     14  P13 RES d   1      18.939  -0.458   8.921  0.00  0.00     0.310 P 
ATOM     15  O14 RES d   1      17.396  -0.277   8.723  0.00  0.00    -0.637 OA
ATOM     16  O15 RES d   1      19.676   0.863   8.514  0.00  0.00    -0.637 OA
ATOM     17  O16 RES d   1      19.446  -1.637   8.023  0.00  0.00    -0.637 OA
ENDBRANCH   1  14
TORSDOF 6
ENDMDL
MODEL 7
REMARK VINA RESULT:      -4.9      3.369      4.376
REMARK  6 active torsions:
REMARK  status: ('A' for Active; 'I' for Inactive)
REMARK    1  A    between atoms: N1_1  and  C5_5 
REMARK    2  A    between atoms: C5_5  and  C6_6 
REMARK    3  A    between atoms: C6_6  and  C7_7 
REMARK    4  A    between atoms: C7_7  and  O8_8 
REMARK    5  A    between atoms: C7_7  and  P9_9 
REMARK    6  A    between atoms: C7_7  and  P13_13 
ROOT
ATOM      1  C7  RES d   1      18.190   0.140  10.114  0.00  0.00     0.286 C 
ENDROOT
BRANCH   1   2
ATOM      2  C6  RES d   1      17.375  -0.081   8.839  0.00  0.00     0.095 C 
BRANCH   2   3
ATOM      3  C5  RES d   1      18.087  -1.102   7.948  0.00  0.00     0.234 C 
BRANCH   3   4
ATOM      4  N1  RES d   1      17.703  -2.459   8.356  0.00  0.00    -0.079 N 
ATOM      5  H2  RES d   1      17.452  -2.998   7.540  0.00  0.00     0.274 HD
ATOM      6  H3  RES d   1      16.913  -2.412   8.983  0.00  0.00     0.274 HD
ATOM      7  H4  RES d   1      18.479  -2.902   8.825  0.00  0.00     0.274 HD
ENDBRANCH   3   4
ENDBRANCH   2   3
ENDBRANCH   1   2
BRANCH   1   8
ATOM      8  O8  RES d   1      19.427  -0.568  10.017  0.00  0.00    -0.365 OA
ATOM      9  H21 RES d   1      19.368  -1.500  10.270  0.00  0.00     0.212 HD
ENDBRANCH   1   8
BRANCH   1  10
ATOM     10  P9  RES d   1      18.524   1.920  10.320  0.00  0.00     0.310 P 
ATOM     11  O10 RES d   1      17.255   2.626  10.907  0.00  0.00    -0.637 OA
ATOM     12  O11 RES d   1      19.731   2.115  11.300  0.00  0.00    -0.637 OA
ATOM     13  O12 RES d   1      18.875   2.550   8.928  0.00  0.00    -0.637 OA
ENDBRANCH   1  10
BRANCH   1  14
ATOM     14  P13 RES d   1      17.250  -0.473  11.550  0.00  0.00     0.310 P 
ATOM     15  O14 RES d   1      15.802   0.124  11.520  0.00  0.00    -0.637 OA
ATOM     16  O15 RES d   1      17.171  -2.036  11.495  0.00  0.00    -0.637 OA
ATOM     17  O16 RES d   1      17.968  -0.032  12.871  0.00  0.00    -0.637 OA
ENDBRANCH   1  14
TORSDOF 6
ENDMDL
MODEL 8
REMARK VINA RESULT:      -4.8      2.047      2.938
REMARK  6 active torsions:
REMARK  status: ('A' for Active; 'I' for Inactive)
REMARK    1  A    between atoms: N1_1  and  C5_5 
REMARK    2  A    between atoms: C5_5  and  C6_6 
REMARK    3  A    between atoms: C6_6  and  C7_7 
REMARK    4  A    between atoms: C7_7  and  O8_8 
REMARK    5  A    between atoms: C7_7  and  P9_9 
REMARK    6  A    between atoms: C7_7  and  P13_13 
ROOT
ATOM      1  C7  RES d   1      18.829   0.982  11.158  0.00  0.00     0.286 C 
ENDROOT
BRANCH   1   2
ATOM      2  C6  RES d   1      19.595   0.236  12.253  0.00  0.00     0.095 C 
BRANCH   2   3
ATOM      3  C5  RES d   1      21.099   0.409  12.031  0.00  0.00     0.234 C 
BRANCH   3   4
ATOM      4  N1  RES d   1      21.569  -0.590  11.062  0.00  0.00    -0.079 N 
ATOM      5  H2  RES d   1      22.198  -1.233  11.519  0.00  0.00     0.274 HD
ATOM      6  H3  RES d   1      22.052  -0.126  10.307  0.00  0.00     0.274 HD
ATOM      7  H4  RES d   1      20.779  -1.098  10.693  0.00  0.00     0.274 HD
ENDBRANCH   3   4
ENDBRANCH   2   3
ENDBRANCH   1   2
BRANCH   1   8
ATOM      8  O8  RES d   1      19.705   1.250  10.063  0.00  0.00    -0.365 OA
ATOM      9  H21 RES d   1      19.854   2.192   9.899  0.00  0.00     0.212 HD
ENDBRANCH   1   8
BRANCH   1  10
ATOM     10  P9  RES d   1      17.436  -0.045  10.585  0.00  0.00     0.310 P 
ATOM     11  O10 RES d   1      17.085   0.328   9.104  0.00  0.00    -0.637 OA
ATOM     12  O11 RES d   1      17.837  -1.558  10.661  0.00  0.00    -0.637 OA
ATOM     13  O12 RES d   1      16.188   0.211  11.497  0.00  0.00    -0.637 OA
ENDBRANCH   1  10
BRANCH   1  14
ATOM     14  P13 RES d   1      18.191   2.554  11.826  0.00  0.00     0.310 P 
ATOM     15  O14 RES d   1      17.010   3.061  10.930  0.00  0.00    -0.637 OA
ATOM     16  O15 RES d   1      17.677   2.330  13.288  0.00  0.00    -0.637 OA
ATOM     17  O16 RES d   1      19.337   3.621  11.832  0.00  0.00    -0.637 OA
ENDBRANCH   1  14
TORSDOF 6
ENDMDL
MODEL 9
REMARK VINA RESULT:      -4.6      3.303      4.548
REMARK  6 active torsions:
REMARK  status: ('A' for Active; 'I' for Inactive)
REMARK    1  A    between atoms: N1_1  and  C5_5 
REMARK    2  A    between atoms: C5_5  and  C6_6 
REMARK    3  A    between atoms: C6_6  and  C7_7 
REMARK    4  A    between atoms: C7_7  and  O8_8 
REMARK    5  A    between atoms: C7_7  and  P9_9 
REMARK    6  A    between atoms: C7_7  and  P13_13 
ROOT
ATOM      1  C7  RES d   1      18.630   0.689  11.133  0.00  0.00     0.286 C 
ENDROOT
BRANCH   1   2
ATOM      2  C6  RES d   1      18.294   2.149  11.446  0.00  0.00     0.095 C 
BRANCH   2   3
ATOM      3  C5  RES d   1      19.394   2.749  12.324  0.00  0.00     0.234 C 
BRANCH   3   4
ATOM      4  N1  RES d   1      20.564   3.063  11.496  0.00  0.00    -0.079 N 
ATOM      5  H2  RES d   1      21.138   3.747  11.967  0.00  0.00     0.274 HD
ATOM      6  H3  RES d   1      20.259   3.436  10.609  0.00  0.00     0.274 HD
ATOM      7  H4  RES d   1      21.103   2.224  11.340  0.00  0.00     0.274 HD
ENDBRANCH   3   4
ENDBRANCH   2   3
ENDBRANCH   1   2
BRANCH   1   8
ATOM      8  O8  RES d   1      19.866   0.341  11.758  0.00  0.00    -0.365 OA
ATOM      9  H21 RES d   1      20.601   0.927  11.531  0.00  0.00     0.212 HD
ENDBRANCH   1   8
BRANCH   1  10
ATOM     10  P9  RES d   1      17.303  -0.389  11.769  0.00  0.00     0.310 P 
ATOM     11  O10 RES d   1      17.447  -0.534  13.322  0.00  0.00    -0.637 OA
ATOM     12  O11 RES d   1      15.910   0.243  11.430  0.00  0.00    -0.637 OA
ATOM     13  O12 RES d   1      17.413  -1.801  11.100  0.00  0.00    -0.637 OA
ENDBRANCH   1  10
BRANCH   1  14
ATOM     14  P13 RES d   1      18.777   0.472   9.330  0.00  0.00     0.310 P 
ATOM     15  O14 RES d   1      17.356   0.242   8.713  0.00  0.00    -0.637 OA
ATOM     16  O15 RES d   1      19.418   1.755   8.700  0.00  0.00    -0.637 OA
ATOM     17  O16 RES d   1      19.685  -0.769   9.026  0.00  0.00    -0.637 OA
ENDBRANCH   1  14
TORSDOF 6
ENDMDL
