MODEL 1
REMARK VINA RESULT:      -9.9      0.000      0.000
REMARK  12 active torsions:
REMARK  status: ('A' for Active; 'I' for Inactive)
REMARK    1  A    between atoms: C2_2  and  C3_3 
REMARK    2  A    between atoms: C3_3  and  C4_4 
REMARK    3  A    between atoms: C4_4  and  C5_5 
REMARK    4  A    between atoms: C5_5  and  C6_6 
REMARK    5  A    between atoms: C6_6  and  C7_7 
REMARK    6  A    between atoms: C16_16  and  C17_17 
REMARK    7  A    between atoms: C17_17  and  C19_18 
REMARK    8  A    between atoms: C17_17  and  C21_20 
REMARK    9  A    between atoms: C25_24  and  N26_25 
REMARK   10  A    between atoms: N26_25  and  S27_26 
REMARK   11  A    between atoms: S27_26  and  C30_29 
REMARK   12  A    between atoms: C33_32  and  C34_33 
ROOT
ATOM      1  C17 ZIN A   1      19.048   0.144  14.925  0.00  0.00     0.039 C 
ENDROOT
BRANCH   1   2
ATOM      2  C16 ZIN A   1      18.957   0.745  13.521  0.00  0.00     0.163 C 
ATOM      3  C14 ZIN A   1      17.663   0.313  12.855  0.00  0.00     0.144 C 
ATOM      4  C13 ZIN A   1      17.583  -1.112  12.348  0.00  0.00     0.118 C 
ATOM      5  O15 ZIN A   1      16.734   1.074  12.736  0.00  0.00    -0.297 OA
ATOM      6  C4  ZIN A   1      18.811  -1.382  11.469  0.00  0.00     0.077 C 
ATOM      7  O43 ZIN A   1      20.016  -1.038  12.208  0.00  0.00    -0.309 OA
ATOM      8  C41 ZIN A   1      20.095   0.230  12.663  0.00  0.00     0.271 C 
ATOM      9  O42 ZIN A   1      21.042   0.930  12.397  0.00  0.00    -0.264 OA
BRANCH   6  10
ATOM     10  C3  ZIN A   1      18.851  -2.864  11.088  0.00  0.00     0.038 C 
BRANCH  10  11
ATOM     11  C2  ZIN A   1      18.005  -3.667  12.079  0.00  0.00    -0.002 C 
ATOM     12  C1  ZIN A   1      17.112  -4.643  11.311  0.00  0.00     0.005 C 
ENDBRANCH  10  11
ENDBRANCH   6  10
BRANCH   6  13
ATOM     13  C5  ZIN A   1      18.728  -0.531  10.200  0.00  0.00     0.043 C 
BRANCH  13  14
ATOM     14  C6  ZIN A   1      17.936  -1.287   9.131  0.00  0.00     0.041 C 
BRANCH  14  15
ATOM     15  C7  ZIN A   1      18.387  -0.842   7.763  0.00  0.00    -0.058 A 
ATOM     16  C12 ZIN A   1      18.327   0.495   7.417  0.00  0.00     0.007 A 
ATOM     17  C11 ZIN A   1      18.745   0.904   6.164  0.00  0.00     0.001 A 
ATOM     18  C10 ZIN A   1      19.213  -0.024   5.255  0.00  0.00     0.000 A 
ATOM     19  C9  ZIN A   1      19.269  -1.362   5.599  0.00  0.00     0.001 A 
ATOM     20  C8  ZIN A   1      18.855  -1.771   6.853  0.00  0.00     0.007 A 
ENDBRANCH  14  15
ENDBRANCH  13  14
ENDBRANCH   6  13
ENDBRANCH   1   2
BRANCH   1  21
ATOM     21  C19 ZIN A   1      17.879  -0.819  15.143  0.00  0.00     0.006 C 
ATOM     22  C20 ZIN A   1      18.327  -1.969  16.048  0.00  0.00     0.006 C 
ENDBRANCH   1  21
BRANCH   1  23
ATOM     23  C21 ZIN A   1      18.987   1.247  15.949  0.00  0.00    -0.051 A 
ATOM     24  C40 ZIN A   1      19.430   2.514  15.623  0.00  0.00     0.037 A 
ATOM     25  C25 ZIN A   1      19.369   3.533  16.566  0.00  0.00     0.043 A 
ATOM     26  C24 ZIN A   1      18.873   3.270  17.837  0.00  0.00     0.030 A 
ATOM     27  C23 ZIN A   1      18.436   2.000  18.157  0.00  0.00     0.003 A 
ATOM     28  C22 ZIN A   1      18.494   0.989  17.214  0.00  0.00     0.007 A 
BRANCH  25  29
ATOM     29  N26 ZIN A   1      19.810   4.817  16.239  0.00  0.00    -0.279 N 
ATOM     30  H71 ZIN A   1      20.670   5.130  16.559  0.00  0.00     0.179 HD
BRANCH  29  31
ATOM     31  S27 ZIN A   1      18.864   5.805  15.305  0.00  0.00     0.280 S 
ATOM     32  O28 ZIN A   1      17.568   5.787  15.889  0.00  0.00    -0.199 OA
ATOM     33  O29 ZIN A   1      19.608   6.998  15.101  0.00  0.00    -0.199 OA
BRANCH  31  34
ATOM     34  C30 ZIN A   1      18.709   5.038  13.726  0.00  0.00     0.171 A 
ATOM     35  N39 ZIN A   1      19.793   4.710  13.051  0.00  0.00    -0.247 NA
ATOM     36  C38 ZIN A   1      19.726   4.130  11.869  0.00  0.00     0.134 A 
ATOM     37  C33 ZIN A   1      18.503   3.853  11.287  0.00  0.00     0.065 A 
ATOM     38  C32 ZIN A   1      17.341   4.189  11.964  0.00  0.00     0.021 A 
ATOM     39  C31 ZIN A   1      17.452   4.793  13.207  0.00  0.00     0.046 A 
BRANCH  37  40
ATOM     40  C34 ZIN A   1      18.434   3.196   9.932  0.00  0.00     0.418 C 
ATOM     41  F35 ZIN A   1      19.631   2.520   9.680  0.00  0.00    -0.166 F 
ATOM     42  F36 ZIN A   1      17.371   2.286   9.909  0.00  0.00    -0.166 F 
ATOM     43  F37 ZIN A   1      18.234   4.172   8.950  0.00  0.00    -0.166 F 
ENDBRANCH  37  40
ENDBRANCH  31  34
ENDBRANCH  29  31
ENDBRANCH  25  29
ENDBRANCH   1  23
TORSDOF 12
ENDMDL
MODEL 2
REMARK VINA RESULT:      -9.8      4.412      9.053
REMARK  12 active torsions:
REMARK  status: ('A' for Active; 'I' for Inactive)
REMARK    1  A    between atoms: C2_2  and  C3_3 
REMARK    2  A    between atoms: C3_3  and  C4_4 
REMARK    3  A    between atoms: C4_4  and  C5_5 
REMARK    4  A    between atoms: C5_5  and  C6_6 
REMARK    5  A    between atoms: C6_6  and  C7_7 
REMARK    6  A    between atoms: C16_16  and  C17_17 
REMARK    7  A    between atoms: C17_17  and  C19_18 
REMARK    8  A    between atoms: C17_17  and  C21_20 
REMARK    9  A    between atoms: C25_24  and  N26_25 
REMARK   10  A    between atoms: N26_25  and  S27_26 
REMARK   11  A    between atoms: S27_26  and  C30_29 
REMARK   12  A    between atoms: C33_32  and  C34_33 
ROOT
ATOM      1  C17 ZIN A   1      19.006   0.904   9.289  0.00  0.00     0.039 C 
ENDROOT
BRANCH   1   2
ATOM      2  C16 ZIN A   1      19.122  -0.337  10.175  0.00  0.00     0.163 C 
ATOM      3  C14 ZIN A   1      17.928  -0.420  11.108  0.00  0.00     0.144 C 
ATOM      4  C13 ZIN A   1      17.899   0.530  12.288  0.00  0.00     0.118 C 
ATOM      5  O15 ZIN A   1      17.036  -1.211  10.918  0.00  0.00    -0.297 OA
ATOM      6  C4  ZIN A   1      19.234   0.415  13.035  0.00  0.00     0.077 C 
ATOM      7  O43 ZIN A   1      20.328   0.603  12.095  0.00  0.00    -0.309 OA
ATOM      8  C41 ZIN A   1      20.361  -0.239  11.041  0.00  0.00     0.271 C 
ATOM      9  O42 ZIN A   1      21.347  -0.893  10.797  0.00  0.00    -0.264 OA
BRANCH   6  10
ATOM     10  C3  ZIN A   1      19.304   1.490  14.123  0.00  0.00     0.038 C 
BRANCH  10  11
ATOM     11  C2  ZIN A   1      18.138   2.466  13.952  0.00  0.00    -0.002 C 
ATOM     12  C1  ZIN A   1      18.675   3.897  13.906  0.00  0.00     0.005 C 
ENDBRANCH  10  11
ENDBRANCH   6  10
BRANCH   6  13
ATOM     13  C5  ZIN A   1      19.342  -0.969  13.677  0.00  0.00     0.043 C 
BRANCH  13  14
ATOM     14  C6  ZIN A   1      18.049  -1.284  14.432  0.00  0.00     0.041 C 
BRANCH  14  15
ATOM     15  C7  ZIN A   1      18.180  -0.828  15.863  0.00  0.00    -0.058 A 
ATOM     16  C12 ZIN A   1      19.293  -1.183  16.602  0.00  0.00     0.007 A 
ATOM     17  C11 ZIN A   1      19.415  -0.761  17.913  0.00  0.00     0.001 A 
ATOM     18  C10 ZIN A   1      18.420   0.006  18.488  0.00  0.00     0.000 A 
ATOM     19  C9  ZIN A   1      17.305   0.358  17.750  0.00  0.00     0.001 A 
ATOM     20  C8  ZIN A   1      17.184  -0.060  16.438  0.00  0.00     0.007 A 
ENDBRANCH  14  15
ENDBRANCH  13  14
ENDBRANCH   6  13
ENDBRANCH   1   2
BRANCH   1  21
ATOM     21  C19 ZIN A   1      17.752   1.691   9.676  0.00  0.00     0.006 C 
ATOM     22  C20 ZIN A   1      18.136   3.139   9.991  0.00  0.00     0.006 C 
ENDBRANCH   1  21
BRANCH   1  23
ATOM     23  C21 ZIN A   1      18.908   0.484   7.845  0.00  0.00    -0.051 A 
ATOM     24  C40 ZIN A   1      18.471  -0.788   7.526  0.00  0.00     0.037 A 
ATOM     25  C25 ZIN A   1      18.374  -1.173   6.195  0.00  0.00     0.043 A 
ATOM     26  C24 ZIN A   1      18.729  -0.283   5.190  0.00  0.00     0.030 A 
ATOM     27  C23 ZIN A   1      19.170   0.985   5.516  0.00  0.00     0.003 A 
ATOM     28  C22 ZIN A   1      19.260   1.368   6.842  0.00  0.00     0.007 A 
BRANCH  25  29
ATOM     29  N26 ZIN A   1      17.928  -2.456   5.868  0.00  0.00    -0.279 N 
ATOM     30  H71 ZIN A   1      17.100  -2.570   5.376  0.00  0.00     0.179 HD
BRANCH  29  31
ATOM     31  S27 ZIN A   1      18.811  -3.781   6.323  0.00  0.00     0.280 S 
ATOM     32  O28 ZIN A   1      18.335  -4.867   5.540  0.00  0.00    -0.199 OA
ATOM     33  O29 ZIN A   1      20.171  -3.371   6.339  0.00  0.00    -0.199 OA
BRANCH  31  34
ATOM     34  C30 ZIN A   1      18.381  -4.146   7.993  0.00  0.00     0.171 A 
ATOM     35  N39 ZIN A   1      17.180  -4.614   8.269  0.00  0.00    -0.247 NA
ATOM     36  C38 ZIN A   1      16.816  -4.906   9.502  0.00  0.00     0.134 A 
ATOM     37  C33 ZIN A   1      17.687  -4.718  10.560  0.00  0.00     0.065 A 
ATOM     38  C32 ZIN A   1      18.956  -4.222  10.309  0.00  0.00     0.021 A 
ATOM     39  C31 ZIN A   1      19.304  -3.932   8.998  0.00  0.00     0.046 A 
BRANCH  37  40
ATOM     40  C34 ZIN A   1      17.261  -5.048  11.967  0.00  0.00     0.418 C 
ATOM     41  F35 ZIN A   1      15.885  -4.838  12.100  0.00  0.00    -0.166 F 
ATOM     42  F36 ZIN A   1      17.557  -6.388  12.242  0.00  0.00    -0.166 F 
ATOM     43  F37 ZIN A   1      17.947  -4.225  12.867  0.00  0.00    -0.166 F 
ENDBRANCH  37  40
ENDBRANCH  31  34
ENDBRANCH  29  31
ENDBRANCH  25  29
ENDBRANCH   1  23
TORSDOF 12
ENDMDL
MODEL 3
REMARK VINA RESULT:      -9.5      3.422      7.646
REMARK  12 active torsions:
REMARK  status: ('A' for Active; 'I' for Inactive)
REMARK    1  A    between atoms: C2_2  and  C3_3 
REMARK    2  A    between atoms: C3_3  and  C4_4 
REMARK    3  A    between atoms: C4_4  and  C5_5 
REMARK    4  A    between atoms: C5_5  and  C6_6 
REMARK    5  A    between atoms: C6_6  and  C7_7 
REMARK    6  A    between atoms: C16_16  and  C17_17 
REMARK    7  A    between atoms: C17_17  and  C19_18 
REMARK    8  A    between atoms: C17_17  and  C21_20 
REMARK    9  A    between atoms: C25_24  and  N26_25 
REMARK   10  A    between atoms: N26_25  and  S27_26 
REMARK   11  A    between atoms: S27_26  and  C30_29 
REMARK   12  A    between atoms: C33_32  and  C34_33 
ROOT
ATOM      1  C17 ZIN A   1      18.447  -2.703  11.318  0.00  0.00     0.039 C 
ENDROOT
BRANCH   1   2
ATOM      2  C16 ZIN A   1      18.393  -1.176  11.227  0.00  0.00     0.163 C 
ATOM      3  C14 ZIN A   1      19.704  -0.582  11.708  0.00  0.00     0.144 C 
ATOM      4  C13 ZIN A   1      19.959  -0.574  13.201  0.00  0.00     0.118 C 
ATOM      5  O15 ZIN A   1      20.512  -0.134  10.931  0.00  0.00    -0.297 OA
ATOM      6  C4  ZIN A   1      18.743   0.053  13.896  0.00  0.00     0.077 C 
ATOM      7  O43 ZIN A   1      17.535  -0.633  13.463  0.00  0.00    -0.309 OA
ATOM      8  C41 ZIN A   1      17.301  -0.644  12.133  0.00  0.00     0.271 C 
ATOM      9  O42 ZIN A   1      16.254  -0.244  11.682  0.00  0.00    -0.264 OA
BRANCH   6  10
ATOM     10  C3  ZIN A   1      18.893  -0.088  15.413  0.00  0.00     0.038 C 
BRANCH  10  11
ATOM     11  C2  ZIN A   1      18.014  -1.239  15.908  0.00  0.00    -0.002 C 
ATOM     12  C1  ZIN A   1      16.965  -0.696  16.880  0.00  0.00     0.005 C 
ENDBRANCH  10  11
ENDBRANCH   6  10
BRANCH   6  13
ATOM     13  C5  ZIN A   1      18.651   1.535  13.528  0.00  0.00     0.043 C 
BRANCH  13  14
ATOM     14  C6  ZIN A   1      18.111   2.324  14.722  0.00  0.00     0.041 C 
BRANCH  14  15
ATOM     15  C7  ZIN A   1      18.700   3.711  14.716  0.00  0.00    -0.058 A 
ATOM     16  C12 ZIN A   1      18.646   4.490  15.857  0.00  0.00     0.007 A 
ATOM     17  C11 ZIN A   1      19.190   5.761  15.853  0.00  0.00     0.001 A 
ATOM     18  C10 ZIN A   1      19.778   6.257  14.706  0.00  0.00     0.000 A 
ATOM     19  C9  ZIN A   1      19.828   5.480  13.563  0.00  0.00     0.001 A 
ATOM     20  C8  ZIN A   1      19.288   4.208  13.568  0.00  0.00     0.007 A 
ENDBRANCH  14  15
ENDBRANCH  13  14
ENDBRANCH   6  13
ENDBRANCH   1   2
BRANCH   1  21
ATOM     21  C19 ZIN A   1      19.818  -3.132  11.847  0.00  0.00     0.006 C 
ATOM     22  C20 ZIN A   1      20.025  -4.624  11.574  0.00  0.00     0.006 C 
ENDBRANCH   1  21
BRANCH   1  23
ATOM     23  C21 ZIN A   1      18.229  -3.296   9.951  0.00  0.00    -0.051 A 
ATOM     24  C40 ZIN A   1      18.907  -2.783   8.861  0.00  0.00     0.037 A 
ATOM     25  C25 ZIN A   1      18.710  -3.334   7.601  0.00  0.00     0.043 A 
ATOM     26  C24 ZIN A   1      17.824  -4.391   7.439  0.00  0.00     0.030 A 
ATOM     27  C23 ZIN A   1      17.146  -4.896   8.532  0.00  0.00     0.003 A 
ATOM     28  C22 ZIN A   1      17.348  -4.348   9.786  0.00  0.00     0.007 A 
BRANCH  25  29
ATOM     29  N26 ZIN A   1      19.397  -2.822   6.498  0.00  0.00    -0.279 N 
ATOM     30  H71 ZIN A   1      20.197  -3.265   6.176  0.00  0.00     0.179 HD
BRANCH  29  31
ATOM     31  S27 ZIN A   1      18.845  -1.456   5.740  0.00  0.00     0.280 S 
ATOM     32  O28 ZIN A   1      19.882  -1.038   4.863  0.00  0.00    -0.199 OA
ATOM     33  O29 ZIN A   1      17.525  -1.744   5.303  0.00  0.00    -0.199 OA
BRANCH  31  34
ATOM     34  C30 ZIN A   1      18.699  -0.201   6.969  0.00  0.00     0.171 A 
ATOM     35  N39 ZIN A   1      19.695   0.642   7.162  0.00  0.00    -0.247 NA
ATOM     36  C38 ZIN A   1      19.628   1.599   8.066  0.00  0.00     0.134 A 
ATOM     37  C33 ZIN A   1      18.504   1.746   8.859  0.00  0.00     0.065 A 
ATOM     38  C32 ZIN A   1      17.440   0.875   8.689  0.00  0.00     0.021 A 
ATOM     39  C31 ZIN A   1      17.545  -0.115   7.724  0.00  0.00     0.046 A 
BRANCH  37  40
ATOM     40  C34 ZIN A   1      18.439   2.839   9.895  0.00  0.00     0.418 C 
ATOM     41  F35 ZIN A   1      19.619   2.844  10.643  0.00  0.00    -0.166 F 
ATOM     42  F36 ZIN A   1      18.284   4.076   9.259  0.00  0.00    -0.166 F 
ATOM     43  F37 ZIN A   1      17.350   2.612  10.743  0.00  0.00    -0.166 F 
ENDBRANCH  37  40
ENDBRANCH  31  34
ENDBRANCH  29  31
ENDBRANCH  25  29
ENDBRANCH   1  23
TORSDOF 12
ENDMDL
MODEL 4
REMARK VINA RESULT:      -9.4      4.650      9.549
REMARK  12 active torsions:
REMARK  status: ('A' for Active; 'I' for Inactive)
REMARK    1  A    between atoms: C2_2  and  C3_3 
REMARK    2  A    between atoms: C3_3  and  C4_4 
REMARK    3  A    between atoms: C4_4  and  C5_5 
REMARK    4  A    between atoms: C5_5  and  C6_6 
REMARK    5  A    between atoms: C6_6  and  C7_7 
REMARK    6  A    between atoms: C16_16  and  C17_17 
REMARK    7  A    between atoms: C17_17  and  C19_18 
REMARK    8  A    between atoms: C17_17  and  C21_20 
REMARK    9  A    between atoms: C25_24  and  N26_25 
REMARK   10  A    between atoms: N26_25  and  S27_26 
REMARK   11  A    between atoms: S27_26  and  C30_29 
REMARK   12  A    between atoms: C33_32  and  C34_33 
ROOT
ATOM      1  C17 ZIN A   1      19.415  -0.048   8.017  0.00  0.00     0.039 C 
ENDROOT
BRANCH   1   2
ATOM      2  C16 ZIN A   1      19.353  -0.916   9.275  0.00  0.00     0.163 C 
ATOM      3  C14 ZIN A   1      17.921  -1.015   9.765  0.00  0.00     0.144 C 
ATOM      4  C13 ZIN A   1      17.338   0.196  10.463  0.00  0.00     0.118 C 
ATOM      5  O15 ZIN A   1      17.271  -2.020   9.605  0.00  0.00    -0.297 OA
ATOM      6  C4  ZIN A   1      18.306   0.629  11.572  0.00  0.00     0.077 C 
ATOM      7  O43 ZIN A   1      19.636   0.800  11.008  0.00  0.00    -0.309 OA
ATOM      8  C41 ZIN A   1      20.163  -0.275  10.384  0.00  0.00     0.271 C 
ATOM      9  O42 ZIN A   1      21.244  -0.710  10.700  0.00  0.00    -0.264 OA
BRANCH   6  10
ATOM     10  C3  ZIN A   1      17.833   1.953  12.175  0.00  0.00     0.038 C 
BRANCH  10  11
ATOM     11  C2  ZIN A   1      18.504   3.117  11.442  0.00  0.00    -0.002 C 
ATOM     12  C1  ZIN A   1      17.432   4.051  10.880  0.00  0.00     0.005 C 
ENDBRANCH  10  11
ENDBRANCH   6  10
BRANCH   6  13
ATOM     13  C5  ZIN A   1      18.346  -0.443  12.662  0.00  0.00     0.043 C 
BRANCH  13  14
ATOM     14  C6  ZIN A   1      17.326  -0.102  13.750  0.00  0.00     0.041 C 
BRANCH  14  15
ATOM     15  C7  ZIN A   1      17.964  -0.262  15.106  0.00  0.00    -0.058 A 
ATOM     16  C12 ZIN A   1      17.923   0.778  16.015  0.00  0.00     0.007 A 
ATOM     17  C11 ZIN A   1      18.505   0.631  17.261  0.00  0.00     0.001 A 
ATOM     18  C10 ZIN A   1      19.136  -0.553  17.593  0.00  0.00     0.000 A 
ATOM     19  C9  ZIN A   1      19.182  -1.592  16.681  0.00  0.00     0.001 A 
ATOM     20  C8  ZIN A   1      18.596  -1.446  15.438  0.00  0.00     0.007 A 
ENDBRANCH  14  15
ENDBRANCH  13  14
ENDBRANCH   6  13
ENDBRANCH   1   2
BRANCH   1  21
ATOM     21  C19 ZIN A   1      18.356   1.053   8.105  0.00  0.00     0.006 C 
ATOM     22  C20 ZIN A   1      19.030   2.422   7.978  0.00  0.00     0.006 C 
ENDBRANCH   1  21
BRANCH   1  23
ATOM     23  C21 ZIN A   1      19.151  -0.901   6.804  0.00  0.00    -0.051 A 
ATOM     24  C40 ZIN A   1      19.443  -2.251   6.835  0.00  0.00     0.037 A 
ATOM     25  C25 ZIN A   1      19.193  -3.040   5.718  0.00  0.00     0.043 A 
ATOM     26  C24 ZIN A   1      18.662  -2.465   4.570  0.00  0.00     0.030 A 
ATOM     27  C23 ZIN A   1      18.379  -1.114   4.544  0.00  0.00     0.003 A 
ATOM     28  C22 ZIN A   1      18.623  -0.332   5.660  0.00  0.00     0.007 A 
BRANCH  25  29
ATOM     29  N26 ZIN A   1      19.481  -4.406   5.748  0.00  0.00    -0.279 N 
ATOM     30  H71 ZIN A   1      20.377  -4.717   5.547  0.00  0.00     0.179 HD
BRANCH  29  31
ATOM     31  S27 ZIN A   1      18.291  -5.495   6.124  0.00  0.00     0.280 S 
ATOM     32  O28 ZIN A   1      17.109  -5.032   5.485  0.00  0.00    -0.199 OA
ATOM     33  O29 ZIN A   1      18.841  -6.785   5.900  0.00  0.00    -0.199 OA
BRANCH  31  34
ATOM     34  C30 ZIN A   1      18.000  -5.371   7.857  0.00  0.00     0.171 A 
ATOM     35  N39 ZIN A   1      16.762  -5.356   8.312  0.00  0.00    -0.247 NA
ATOM     36  C38 ZIN A   1      16.496  -5.270   9.600  0.00  0.00     0.134 A 
ATOM     37  C33 ZIN A   1      17.517  -5.180  10.528  0.00  0.00     0.065 A 
ATOM     38  C32 ZIN A   1      18.832  -5.186  10.087  0.00  0.00     0.021 A 
ATOM     39  C31 ZIN A   1      19.071  -5.284   8.726  0.00  0.00     0.046 A 
BRANCH  37  40
ATOM     40  C34 ZIN A   1      17.206  -5.075  11.998  0.00  0.00     0.418 C 
ATOM     41  F35 ZIN A   1      15.834  -4.868  12.171  0.00  0.00    -0.166 F 
ATOM     42  F36 ZIN A   1      17.583  -6.259  12.641  0.00  0.00    -0.166 F 
ATOM     43  F37 ZIN A   1      17.912  -4.000  12.549  0.00  0.00    -0.166 F 
ENDBRANCH  37  40
ENDBRANCH  31  34
ENDBRANCH  29  31
ENDBRANCH  25  29
ENDBRANCH   1  23
TORSDOF 12
ENDMDL
MODEL 5
REMARK VINA RESULT:      -9.4      2.751      5.503
REMARK  12 active torsions:
REMARK  status: ('A' for Active; 'I' for Inactive)
REMARK    1  A    between atoms: C2_2  and  C3_3 
REMARK    2  A    between atoms: C3_3  and  C4_4 
REMARK    3  A    between atoms: C4_4  and  C5_5 
REMARK    4  A    between atoms: C5_5  and  C6_6 
REMARK    5  A    between atoms: C6_6  and  C7_7 
REMARK    6  A    between atoms: C16_16  and  C17_17 
REMARK    7  A    between atoms: C17_17  and  C19_18 
REMARK    8  A    between atoms: C17_17  and  C21_20 
REMARK    9  A    between atoms: C25_24  and  N26_25 
REMARK   10  A    between atoms: N26_25  and  S27_26 
REMARK   11  A    between atoms: S27_26  and  C30_29 
REMARK   12  A    between atoms: C33_32  and  C34_33 
ROOT
ATOM      1  C17 ZIN A   1      17.920   2.288  10.324  0.00  0.00     0.039 C 
ENDROOT
BRANCH   1   2
ATOM      2  C16 ZIN A   1      18.053   1.117  11.301  0.00  0.00     0.163 C 
ATOM      3  C14 ZIN A   1      19.349   0.371  11.042  0.00  0.00     0.144 C 
ATOM      4  C13 ZIN A   1      19.405  -0.524   9.821  0.00  0.00     0.118 C 
ATOM      5  O15 ZIN A   1      20.298   0.487  11.779  0.00  0.00    -0.297 OA
ATOM      6  C4  ZIN A   1      18.189  -1.458   9.849  0.00  0.00     0.077 C 
ATOM      7  O43 ZIN A   1      16.978  -0.666  10.000  0.00  0.00    -0.309 OA
ATOM      8  C41 ZIN A   1      16.920   0.134  11.085  0.00  0.00     0.271 C 
ATOM      9  O42 ZIN A   1      15.994   0.070  11.858  0.00  0.00    -0.264 OA
BRANCH   6  10
ATOM     10  C3  ZIN A   1      18.122  -2.249   8.541  0.00  0.00     0.038 C 
BRANCH  10  11
ATOM     11  C2  ZIN A   1      19.145  -1.686   7.552  0.00  0.00    -0.002 C 
ATOM     12  C1  ZIN A   1      19.484  -2.752   6.508  0.00  0.00     0.005 C 
ENDBRANCH  10  11
ENDBRANCH   6  10
BRANCH   6  13
ATOM     13  C5  ZIN A   1      18.316  -2.427  11.026  0.00  0.00     0.043 C 
BRANCH  13  14
ATOM     14  C6  ZIN A   1      19.432  -3.434  10.738  0.00  0.00     0.041 C 
BRANCH  14  15
ATOM     15  C7  ZIN A   1      18.842  -4.677  10.124  0.00  0.00    -0.058 A 
ATOM     16  C12 ZIN A   1      17.618  -5.149  10.561  0.00  0.00     0.007 A 
ATOM     17  C11 ZIN A   1      17.074  -6.287   9.995  0.00  0.00     0.001 A 
ATOM     18  C10 ZIN A   1      17.758  -6.958   8.999  0.00  0.00     0.000 A 
ATOM     19  C9  ZIN A   1      18.983  -6.488   8.564  0.00  0.00     0.001 A 
ATOM     20  C8  ZIN A   1      19.526  -5.348   9.127  0.00  0.00     0.007 A 
ENDBRANCH  14  15
ENDBRANCH  13  14
ENDBRANCH   6  13
ENDBRANCH   1   2
BRANCH   1  21
ATOM     21  C19 ZIN A   1      19.249   2.494   9.593  0.00  0.00     0.006 C 
ATOM     22  C20 ZIN A   1      19.036   2.317   8.088  0.00  0.00     0.006 C 
ENDBRANCH   1  21
BRANCH   1  23
ATOM     23  C21 ZIN A   1      17.567   3.539  11.084  0.00  0.00    -0.051 A 
ATOM     24  C40 ZIN A   1      17.485   3.507  12.463  0.00  0.00     0.037 A 
ATOM     25  C25 ZIN A   1      17.165   4.663  13.165  0.00  0.00     0.043 A 
ATOM     26  C24 ZIN A   1      16.918   5.844  12.476  0.00  0.00     0.030 A 
ATOM     27  C23 ZIN A   1      16.997   5.867  11.098  0.00  0.00     0.003 A 
ATOM     28  C22 ZIN A   1      17.321   4.716  10.402  0.00  0.00     0.007 A 
BRANCH  25  29
ATOM     29  N26 ZIN A   1      17.086   4.637  14.559  0.00  0.00    -0.279 N 
ATOM     30  H71 ZIN A   1      16.228   4.741  14.999  0.00  0.00     0.179 HD
BRANCH  29  31
ATOM     31  S27 ZIN A   1      18.459   4.428  15.462  0.00  0.00     0.280 S 
ATOM     32  O28 ZIN A   1      19.547   4.812  14.631  0.00  0.00    -0.199 OA
ATOM     33  O29 ZIN A   1      18.201   5.018  16.728  0.00  0.00    -0.199 OA
BRANCH  31  34
ATOM     34  C30 ZIN A   1      18.638   2.698  15.746  0.00  0.00     0.171 A 
ATOM     35  N39 ZIN A   1      19.057   1.916  14.770  0.00  0.00    -0.247 NA
ATOM     36  C38 ZIN A   1      19.211   0.618  14.938  0.00  0.00     0.134 A 
ATOM     37  C33 ZIN A   1      18.923   0.023  16.154  0.00  0.00     0.065 A 
ATOM     38  C32 ZIN A   1      18.474   0.812  17.201  0.00  0.00     0.021 A 
ATOM     39  C31 ZIN A   1      18.331   2.174  16.988  0.00  0.00     0.046 A 
BRANCH  37  40
ATOM     40  C34 ZIN A   1      19.095  -1.463  16.336  0.00  0.00     0.418 C 
ATOM     41  F35 ZIN A   1      17.840  -2.064  16.477  0.00  0.00    -0.166 F 
ATOM     42  F36 ZIN A   1      19.745  -1.998  15.218  0.00  0.00    -0.166 F 
ATOM     43  F37 ZIN A   1      19.860  -1.707  17.481  0.00  0.00    -0.166 F 
ENDBRANCH  37  40
ENDBRANCH  31  34
ENDBRANCH  29  31
ENDBRANCH  25  29
ENDBRANCH   1  23
TORSDOF 12
ENDMDL
MODEL 6
REMARK VINA RESULT:      -9.1      4.244      8.991
REMARK  12 active torsions:
REMARK  status: ('A' for Active; 'I' for Inactive)
REMARK    1  A    between atoms: C2_2  and  C3_3 
REMARK    2  A    between atoms: C3_3  and  C4_4 
REMARK    3  A    between atoms: C4_4  and  C5_5 
REMARK    4  A    between atoms: C5_5  and  C6_6 
REMARK    5  A    between atoms: C6_6  and  C7_7 
REMARK    6  A    between atoms: C16_16  and  C17_17 
REMARK    7  A    between atoms: C17_17  and  C19_18 
REMARK    8  A    between atoms: C17_17  and  C21_20 
REMARK    9  A    between atoms: C25_24  and  N26_25 
REMARK   10  A    between atoms: N26_25  and  S27_26 
REMARK   11  A    between atoms: S27_26  and  C30_29 
REMARK   12  A    between atoms: C33_32  and  C34_33 
ROOT
ATOM      1  C17 ZIN A   1      18.282  -1.915  10.556  0.00  0.00     0.039 C 
ENDROOT
BRANCH   1   2
ATOM      2  C16 ZIN A   1      17.689  -1.349  11.848  0.00  0.00     0.163 C 
ATOM      3  C14 ZIN A   1      16.936  -0.065  11.553  0.00  0.00     0.144 C 
ATOM      4  C13 ZIN A   1      17.759   1.177  11.281  0.00  0.00     0.118 C 
ATOM      5  O15 ZIN A   1      15.730  -0.035  11.535  0.00  0.00    -0.297 OA
ATOM      6  C4  ZIN A   1      18.775   1.344  12.417  0.00  0.00     0.077 C 
ATOM      7  O43 ZIN A   1      19.526   0.108  12.575  0.00  0.00    -0.309 OA
ATOM      8  C41 ZIN A   1      18.801  -1.004  12.818  0.00  0.00     0.271 C 
ATOM      9  O42 ZIN A   1      19.031  -1.701  13.777  0.00  0.00    -0.264 OA
BRANCH   6  10
ATOM     10  C3  ZIN A   1      19.737   2.485  12.079  0.00  0.00     0.038 C 
BRANCH  10  11
ATOM     11  C2  ZIN A   1      19.021   3.512  11.198  0.00  0.00    -0.002 C 
ATOM     12  C1  ZIN A   1      18.748   4.779  12.011  0.00  0.00     0.005 C 
ENDBRANCH  10  11
ENDBRANCH   6  10
BRANCH   6  13
ATOM     13  C5  ZIN A   1      18.038   1.665  13.719  0.00  0.00     0.043 C 
BRANCH  13  14
ATOM     14  C6  ZIN A   1      19.039   2.174  14.758  0.00  0.00     0.041 C 
BRANCH  14  15
ATOM     15  C7  ZIN A   1      18.712   1.580  16.104  0.00  0.00    -0.058 A 
ATOM     16  C12 ZIN A   1      17.898   0.466  16.187  0.00  0.00     0.007 A 
ATOM     17  C11 ZIN A   1      17.601  -0.083  17.421  0.00  0.00     0.001 A 
ATOM     18  C10 ZIN A   1      18.110   0.488  18.571  0.00  0.00     0.000 A 
ATOM     19  C9  ZIN A   1      18.921   1.605  18.489  0.00  0.00     0.001 A 
ATOM     20  C8  ZIN A   1      19.221   2.151  17.255  0.00  0.00     0.007 A 
ENDBRANCH  14  15
ENDBRANCH  13  14
ENDBRANCH   6  13
ENDBRANCH   1   2
BRANCH   1  21
ATOM     21  C19 ZIN A   1      17.688  -1.175   9.356  0.00  0.00     0.006 C 
ATOM     22  C20 ZIN A   1      18.804  -0.453   8.597  0.00  0.00     0.006 C 
ENDBRANCH   1  21
BRANCH   1  23
ATOM     23  C21 ZIN A   1      17.955  -3.382  10.452  0.00  0.00    -0.051 A 
ATOM     24  C40 ZIN A   1      17.963  -4.004   9.219  0.00  0.00     0.037 A 
ATOM     25  C25 ZIN A   1      17.667  -5.358   9.124  0.00  0.00     0.043 A 
ATOM     26  C24 ZIN A   1      17.353  -6.079  10.269  0.00  0.00     0.030 A 
ATOM     27  C23 ZIN A   1      17.342  -5.450  11.498  0.00  0.00     0.003 A 
ATOM     28  C22 ZIN A   1      17.642  -4.102  11.590  0.00  0.00     0.007 A 
BRANCH  25  29
ATOM     29  N26 ZIN A   1      17.680  -5.992   7.879  0.00  0.00    -0.279 N 
ATOM     30  H71 ZIN A   1      16.939  -6.561   7.617  0.00  0.00     0.179 HD
BRANCH  29  31
ATOM     31  S27 ZIN A   1      18.960  -5.772   6.851  0.00  0.00     0.280 S 
ATOM     32  O28 ZIN A   1      20.126  -5.752   7.663  0.00  0.00    -0.199 OA
ATOM     33  O29 ZIN A   1      18.775  -6.685   5.779  0.00  0.00    -0.199 OA
BRANCH  31  34
ATOM     34  C30 ZIN A   1      18.805  -4.157   6.164  0.00  0.00     0.171 A 
ATOM     35  N39 ZIN A   1      19.700  -3.235   6.458  0.00  0.00    -0.247 NA
ATOM     36  C38 ZIN A   1      19.628  -2.015   5.964  0.00  0.00     0.134 A 
ATOM     37  C33 ZIN A   1      18.594  -1.655   5.119  0.00  0.00     0.065 A 
ATOM     38  C32 ZIN A   1      17.631  -2.596   4.791  0.00  0.00     0.021 A 
ATOM     39  C31 ZIN A   1      17.744  -3.870   5.327  0.00  0.00     0.046 A 
BRANCH  37  40
ATOM     40  C34 ZIN A   1      18.515  -0.256   4.563  0.00  0.00     0.418 C 
ATOM     41  F35 ZIN A   1      19.803   0.275   4.451  0.00  0.00    -0.166 F 
ATOM     42  F36 ZIN A   1      17.913  -0.290   3.300  0.00  0.00    -0.166 F 
ATOM     43  F37 ZIN A   1      17.754   0.544   5.421  0.00  0.00    -0.166 F 
ENDBRANCH  37  40
ENDBRANCH  31  34
ENDBRANCH  29  31
ENDBRANCH  25  29
ENDBRANCH   1  23
TORSDOF 12
ENDMDL
MODEL 7
REMARK VINA RESULT:      -8.7      4.240      8.695
REMARK  12 active torsions:
REMARK  status: ('A' for Active; 'I' for Inactive)
REMARK    1  A    between atoms: C2_2  and  C3_3 
REMARK    2  A    between atoms: C3_3  and  C4_4 
REMARK    3  A    between atoms: C4_4  and  C5_5 
REMARK    4  A    between atoms: C5_5  and  C6_6 
REMARK    5  A    between atoms: C6_6  and  C7_7 
REMARK    6  A    between atoms: C16_16  and  C17_17 
REMARK    7  A    between atoms: C17_17  and  C19_18 
REMARK    8  A    between atoms: C17_17  and  C21_20 
REMARK    9  A    between atoms: C25_24  and  N26_25 
REMARK   10  A    between atoms: N26_25  and  S27_26 
REMARK   11  A    between atoms: S27_26  and  C30_29 
REMARK   12  A    between atoms: C33_32  and  C34_33 
ROOT
ATOM      1  C17 ZIN A   1      18.769  -1.621  10.694  0.00  0.00     0.039 C 
ENDROOT
BRANCH   1   2
ATOM      2  C16 ZIN A   1      18.175  -0.926  11.921  0.00  0.00     0.163 C 
ATOM      3  C14 ZIN A   1      17.096   0.051  11.492  0.00  0.00     0.144 C 
ATOM      4  C13 ZIN A   1      17.546   1.352  10.861  0.00  0.00     0.118 C 
ATOM      5  O15 ZIN A   1      15.925  -0.200  11.646  0.00  0.00    -0.297 OA
ATOM      6  C4  ZIN A   1      18.589   2.000  11.781  0.00  0.00     0.077 C 
ATOM      7  O43 ZIN A   1      19.641   1.037  12.068  0.00  0.00    -0.309 OA
ATOM      8  C41 ZIN A   1      19.248  -0.125  12.630  0.00  0.00     0.271 C 
ATOM      9  O42 ZIN A   1      19.736  -0.514  13.664  0.00  0.00    -0.264 OA
BRANCH   6  10
ATOM     10  C3  ZIN A   1      19.192   3.223  11.086  0.00  0.00     0.038 C 
BRANCH  10  11
ATOM     11  C2  ZIN A   1      18.243   3.706   9.987  0.00  0.00    -0.002 C 
ATOM     12  C1  ZIN A   1      17.576   5.011  10.428  0.00  0.00     0.005 C 
ENDBRANCH  10  11
ENDBRANCH   6  10
BRANCH   6  13
ATOM     13  C5  ZIN A   1      17.920   2.433  13.087  0.00  0.00     0.043 C 
BRANCH  13  14
ATOM     14  C6  ZIN A   1      18.911   3.245  13.922  0.00  0.00     0.041 C 
BRANCH  14  15
ATOM     15  C7  ZIN A   1      18.356   4.626  14.160  0.00  0.00    -0.058 A 
ATOM     16  C12 ZIN A   1      19.199   5.653  14.541  0.00  0.00     0.007 A 
ATOM     17  C11 ZIN A   1      18.691   6.921  14.756  0.00  0.00     0.001 A 
ATOM     18  C10 ZIN A   1      17.339   7.159  14.599  0.00  0.00     0.000 A 
ATOM     19  C9  ZIN A   1      16.495   6.130  14.222  0.00  0.00     0.001 A 
ATOM     20  C8  ZIN A   1      17.003   4.864  14.004  0.00  0.00     0.007 A 
ENDBRANCH  14  15
ENDBRANCH  13  14
ENDBRANCH   6  13
ENDBRANCH   1   2
BRANCH   1  21
ATOM     21  C19 ZIN A   1      18.246  -0.945   9.424  0.00  0.00     0.006 C 
ATOM     22  C20 ZIN A   1      19.399  -0.229   8.716  0.00  0.00     0.006 C 
ENDBRANCH   1  21
BRANCH   1  23
ATOM     23  C21 ZIN A   1      18.364  -3.072  10.693  0.00  0.00    -0.051 A 
ATOM     24  C40 ZIN A   1      18.300  -3.768   9.501  0.00  0.00     0.037 A 
ATOM     25  C25 ZIN A   1      17.933  -5.108   9.500  0.00  0.00     0.043 A 
ATOM     26  C24 ZIN A   1      17.620  -5.740  10.697  0.00  0.00     0.030 A 
ATOM     27  C23 ZIN A   1      17.680  -5.037  11.884  0.00  0.00     0.003 A 
ATOM     28  C22 ZIN A   1      18.052  -3.704  11.882  0.00  0.00     0.007 A 
BRANCH  25  29
ATOM     29  N26 ZIN A   1      17.873  -5.817   8.299  0.00  0.00    -0.279 N 
ATOM     30  H71 ZIN A   1      17.119  -6.399   8.116  0.00  0.00     0.179 HD
BRANCH  29  31
ATOM     31  S27 ZIN A   1      19.090  -5.664   7.186  0.00  0.00     0.280 S 
ATOM     32  O28 ZIN A   1      20.302  -5.593   7.925  0.00  0.00    -0.199 OA
ATOM     33  O29 ZIN A   1      18.845  -6.642   6.185  0.00  0.00    -0.199 OA
BRANCH  31  34
ATOM     34  C30 ZIN A   1      18.891  -4.095   6.408  0.00  0.00     0.171 A 
ATOM     35  N39 ZIN A   1      19.783  -3.146   6.616  0.00  0.00    -0.247 NA
ATOM     36  C38 ZIN A   1      19.678  -1.959   6.051  0.00  0.00     0.134 A 
ATOM     37  C33 ZIN A   1      18.612  -1.663   5.222  0.00  0.00     0.065 A 
ATOM     38  C32 ZIN A   1      17.651  -2.634   4.984  0.00  0.00     0.021 A 
ATOM     39  C31 ZIN A   1      17.799  -3.871   5.592  0.00  0.00     0.046 A 
BRANCH  37  40
ATOM     40  C34 ZIN A   1      18.495  -0.302   4.586  0.00  0.00     0.418 C 
ATOM     41  F35 ZIN A   1      17.887  -0.423   3.333  0.00  0.00    -0.166 F 
ATOM     42  F36 ZIN A   1      17.718   0.529   5.402  0.00  0.00    -0.166 F 
ATOM     43  F37 ZIN A   1      19.770   0.253   4.435  0.00  0.00    -0.166 F 
ENDBRANCH  37  40
ENDBRANCH  31  34
ENDBRANCH  29  31
ENDBRANCH  25  29
ENDBRANCH   1  23
TORSDOF 12
ENDMDL
MODEL 8
REMARK VINA RESULT:      -8.6      2.697      4.661
REMARK  12 active torsions:
REMARK  status: ('A' for Active; 'I' for Inactive)
REMARK    1  A    between atoms: C2_2  and  C3_3 
REMARK    2  A    between atoms: C3_3  and  C4_4 
REMARK    3  A    between atoms: C4_4  and  C5_5 
REMARK    4  A    between atoms: C5_5  and  C6_6 
REMARK    5  A    between atoms: C6_6  and  C7_7 
REMARK    6  A    between atoms: C16_16  and  C17_17 
REMARK    7  A    between atoms: C17_17  and  C19_18 
REMARK    8  A    between atoms: C17_17  and  C21_20 
REMARK    9  A    between atoms: C25_24  and  N26_25 
REMARK   10  A    between atoms: N26_25  and  S27_26 
REMARK   11  A    between atoms: S27_26  and  C30_29 
REMARK   12  A    between atoms: C33_32  and  C34_33 
ROOT
ATOM      1  C17 ZIN A   1      18.604   0.294  13.305  0.00  0.00     0.039 C 
ENDROOT
BRANCH   1   2
ATOM      2  C16 ZIN A   1      17.833  -0.730  12.469  0.00  0.00     0.163 C 
ATOM      3  C14 ZIN A   1      18.798  -1.723  11.848  0.00  0.00     0.144 C 
ATOM      4  C13 ZIN A   1      19.624  -1.249  10.670  0.00  0.00     0.118 C 
ATOM      5  O15 ZIN A   1      18.904  -2.847  12.277  0.00  0.00    -0.297 OA
ATOM      6  C4  ZIN A   1      18.679  -0.628   9.634  0.00  0.00     0.077 C 
ATOM      7  O43 ZIN A   1      17.856   0.383  10.280  0.00  0.00    -0.309 OA
ATOM      8  C41 ZIN A   1      17.116  -0.031  11.331  0.00  0.00     0.271 C 
ATOM      9  O42 ZIN A   1      15.923   0.149  11.363  0.00  0.00    -0.264 OA
BRANCH   6  10
ATOM     10  C3  ZIN A   1      19.500   0.020   8.517  0.00  0.00     0.038 C 
BRANCH  10  11
ATOM     11  C2  ZIN A   1      18.888   1.375   8.154  0.00  0.00    -0.002 C 
ATOM     12  C1  ZIN A   1      18.857   1.529   6.633  0.00  0.00     0.005 C 
ENDBRANCH  10  11
ENDBRANCH   6  10
BRANCH   6  13
ATOM     13  C5  ZIN A   1      17.782  -1.717   9.043  0.00  0.00     0.043 C 
BRANCH  13  14
ATOM     14  C6  ZIN A   1      18.648  -2.764   8.339  0.00  0.00     0.041 C 
BRANCH  14  15
ATOM     15  C7  ZIN A   1      18.170  -4.144   8.710  0.00  0.00    -0.058 A 
ATOM     16  C12 ZIN A   1      18.778  -5.257   8.160  0.00  0.00     0.007 A 
ATOM     17  C11 ZIN A   1      18.342  -6.523   8.504  0.00  0.00     0.001 A 
ATOM     18  C10 ZIN A   1      17.293  -6.676   9.389  0.00  0.00     0.000 A 
ATOM     19  C9  ZIN A   1      16.681  -5.563   9.936  0.00  0.00     0.001 A 
ATOM     20  C8  ZIN A   1      17.119  -4.297   9.596  0.00  0.00     0.007 A 
ENDBRANCH  14  15
ENDBRANCH  13  14
ENDBRANCH   6  13
ENDBRANCH   1   2
BRANCH   1  21
ATOM     21  C19 ZIN A   1      20.077   0.285  12.889  0.00  0.00     0.006 C 
ATOM     22  C20 ZIN A   1      20.427   1.617  12.222  0.00  0.00     0.006 C 
ENDBRANCH   1  21
BRANCH   1  23
ATOM     23  C21 ZIN A   1      18.493  -0.063  14.764  0.00  0.00    -0.051 A 
ATOM     24  C40 ZIN A   1      17.990   0.859  15.662  0.00  0.00     0.037 A 
ATOM     25  C25 ZIN A   1      17.882   0.527  17.007  0.00  0.00     0.043 A 
ATOM     26  C24 ZIN A   1      18.290  -0.726  17.446  0.00  0.00     0.030 A 
ATOM     27  C23 ZIN A   1      18.797  -1.640  16.543  0.00  0.00     0.003 A 
ATOM     28  C22 ZIN A   1      18.898  -1.310  15.204  0.00  0.00     0.007 A 
BRANCH  25  29
ATOM     29  N26 ZIN A   1      17.369   1.454  17.917  0.00  0.00    -0.279 N 
ATOM     30  H71 ZIN A   1      16.426   1.442  18.142  0.00  0.00     0.179 HD
BRANCH  29  31
ATOM     31  S27 ZIN A   1      18.372   2.574  18.612  0.00  0.00     0.280 S 
ATOM     32  O28 ZIN A   1      17.579   3.301  19.541  0.00  0.00    -0.199 OA
ATOM     33  O29 ZIN A   1      19.558   1.881  18.976  0.00  0.00    -0.199 OA
BRANCH  31  34
ATOM     34  C30 ZIN A   1      18.831   3.717  17.350  0.00  0.00     0.171 A 
ATOM     35  N39 ZIN A   1      20.028   3.638  16.803  0.00  0.00    -0.247 NA
ATOM     36  C38 ZIN A   1      20.413   4.468  15.853  0.00  0.00     0.134 A 
ATOM     37  C33 ZIN A   1      19.568   5.465  15.402  0.00  0.00     0.065 A 
ATOM     38  C32 ZIN A   1      18.304   5.582  15.957  0.00  0.00     0.021 A 
ATOM     39  C31 ZIN A   1      17.934   4.688  16.950  0.00  0.00     0.046 A 
BRANCH  37  40
ATOM     40  C34 ZIN A   1      20.018   6.414  14.320  0.00  0.00     0.418 C 
ATOM     41  F35 ZIN A   1      20.005   5.755  13.087  0.00  0.00    -0.166 F 
ATOM     42  F36 ZIN A   1      19.150   7.511  14.272  0.00  0.00    -0.166 F 
ATOM     43  F37 ZIN A   1      21.315   6.857  14.598  0.00  0.00    -0.166 F 
ENDBRANCH  37  40
ENDBRANCH  31  34
ENDBRANCH  29  31
ENDBRANCH  25  29
ENDBRANCH   1  23
TORSDOF 12
ENDMDL
MODEL 9
REMARK VINA RESULT:      -8.6      2.917      4.571
REMARK  12 active torsions:
REMARK  status: ('A' for Active; 'I' for Inactive)
REMARK    1  A    between atoms: C2_2  and  C3_3 
REMARK    2  A    between atoms: C3_3  and  C4_4 
REMARK    3  A    between atoms: C4_4  and  C5_5 
REMARK    4  A    between atoms: C5_5  and  C6_6 
REMARK    5  A    between atoms: C6_6  and  C7_7 
REMARK    6  A    between atoms: C16_16  and  C17_17 
REMARK    7  A    between atoms: C17_17  and  C19_18 
REMARK    8  A    between atoms: C17_17  and  C21_20 
REMARK    9  A    between atoms: C25_24  and  N26_25 
REMARK   10  A    between atoms: N26_25  and  S27_26 
REMARK   11  A    between atoms: S27_26  and  C30_29 
REMARK   12  A    between atoms: C33_32  and  C34_33 
ROOT
ATOM      1  C17 ZIN A   1      17.866   1.810  14.392  0.00  0.00     0.039 C 
ENDROOT
BRANCH   1   2
ATOM      2  C16 ZIN A   1      18.311   0.721  13.413  0.00  0.00     0.163 C 
ATOM      3  C14 ZIN A   1      19.606   1.131  12.736  0.00  0.00     0.144 C 
ATOM      4  C13 ZIN A   1      19.523   2.192  11.658  0.00  0.00     0.118 C 
ATOM      5  O15 ZIN A   1      20.661   0.632  13.045  0.00  0.00    -0.297 OA
ATOM      6  C4  ZIN A   1      18.443   1.775  10.651  0.00  0.00     0.077 C 
ATOM      7  O43 ZIN A   1      17.206   1.494  11.362  0.00  0.00    -0.309 OA
ATOM      8  C41 ZIN A   1      17.271   0.550  12.324  0.00  0.00     0.271 C 
ATOM      9  O42 ZIN A   1      16.525  -0.400  12.318  0.00  0.00    -0.264 OA
BRANCH   6  10
ATOM     10  C3  ZIN A   1      18.211   2.910   9.652  0.00  0.00     0.038 C 
BRANCH  10  11
ATOM     11  C2  ZIN A   1      18.336   4.256  10.370  0.00  0.00    -0.002 C 
ATOM     12  C1  ZIN A   1      16.961   4.921  10.446  0.00  0.00     0.005 C 
ENDBRANCH  10  11
ENDBRANCH   6  10
BRANCH   6  13
ATOM     13  C5  ZIN A   1      18.900   0.521   9.903  0.00  0.00     0.043 C 
BRANCH  13  14
ATOM     14  C6  ZIN A   1      19.629   0.930   8.621  0.00  0.00     0.041 C 
BRANCH  14  15
ATOM     15  C7  ZIN A   1      19.092   0.131   7.461  0.00  0.00    -0.058 A 
ATOM     16  C12 ZIN A   1      18.549   0.780   6.368  0.00  0.00     0.007 A 
ATOM     17  C11 ZIN A   1      18.061   0.048   5.302  0.00  0.00     0.001 A 
ATOM     18  C10 ZIN A   1      18.106  -1.333   5.334  0.00  0.00     0.000 A 
ATOM     19  C9  ZIN A   1      18.644  -1.982   6.429  0.00  0.00     0.001 A 
ATOM     20  C8  ZIN A   1      19.137  -1.250   7.493  0.00  0.00     0.007 A 
ENDBRANCH  14  15
ENDBRANCH  13  14
ENDBRANCH   6  13
ENDBRANCH   1   2
BRANCH   1  21
ATOM     21  C19 ZIN A   1      18.485   3.148  13.981  0.00  0.00     0.006 C 
ATOM     22  C20 ZIN A   1      17.394   4.219  13.927  0.00  0.00     0.006 C 
ENDBRANCH   1  21
BRANCH   1  23
ATOM     23  C21 ZIN A   1      18.322   1.453  15.782  0.00  0.00    -0.051 A 
ATOM     24  C40 ZIN A   1      18.464   2.442  16.736  0.00  0.00     0.037 A 
ATOM     25  C25 ZIN A   1      18.879   2.112  18.020  0.00  0.00     0.043 A 
ATOM     26  C24 ZIN A   1      19.161   0.789  18.338  0.00  0.00     0.030 A 
ATOM     27  C23 ZIN A   1      19.021  -0.194  17.378  0.00  0.00     0.003 A 
ATOM     28  C22 ZIN A   1      18.603   0.137  16.101  0.00  0.00     0.007 A 
BRANCH  25  29
ATOM     29  N26 ZIN A   1      19.019   3.109  18.989  0.00  0.00    -0.279 N 
ATOM     30  H71 ZIN A   1      19.880   3.261  19.408  0.00  0.00     0.179 HD
BRANCH  29  31
ATOM     31  S27 ZIN A   1      17.712   4.030  19.422  0.00  0.00     0.280 S 
ATOM     32  O28 ZIN A   1      16.587   3.162  19.408  0.00  0.00    -0.199 OA
ATOM     33  O29 ZIN A   1      18.106   4.773  20.567  0.00  0.00    -0.199 OA
BRANCH  31  34
ATOM     34  C30 ZIN A   1      17.451   5.204  18.133  0.00  0.00     0.171 A 
ATOM     35  N39 ZIN A   1      18.487   5.781  17.558  0.00  0.00    -0.247 NA
ATOM     36  C38 ZIN A   1      18.340   6.661  16.586  0.00  0.00     0.134 A 
ATOM     37  C33 ZIN A   1      17.081   7.019  16.142  0.00  0.00     0.065 A 
ATOM     38  C32 ZIN A   1      15.968   6.437  16.727  0.00  0.00     0.021 A 
ATOM     39  C31 ZIN A   1      16.163   5.512  17.741  0.00  0.00     0.046 A 
BRANCH  37  40
ATOM     40  C34 ZIN A   1      16.921   8.030  15.036  0.00  0.00     0.418 C 
ATOM     41  F35 ZIN A   1      16.682   7.367  13.828  0.00  0.00    -0.166 F 
ATOM     42  F36 ZIN A   1      15.843   8.873  15.327  0.00  0.00    -0.166 F 
ATOM     43  F37 ZIN A   1      18.090   8.790  14.926  0.00  0.00    -0.166 F 
ENDBRANCH  37  40
ENDBRANCH  31  34
ENDBRANCH  29  31
ENDBRANCH  25  29
ENDBRANCH   1  23
TORSDOF 12
ENDMDL
