MODEL 1
REMARK VINA RESULT:     -10.2      0.000      0.000
REMARK  5 active torsions:
REMARK  status: ('A' for Active; 'I' for Inactive)
REMARK    1  A    between atoms: C3_3  and  C4_4 
REMARK    2  A    between atoms: C4_4  and  C5_5 
REMARK    3  A    between atoms: C5_5  and  N6_6 
REMARK    4  A    between atoms: C9_9  and  C10_10 
REMARK    5  A    between atoms: C28_28  and  O30_29 
ROOT
ATOM      1  N6  ZIN A   1      17.812   2.347  10.615  0.00  0.00     0.088 N 
ATOM      2  C7  ZIN A   1      17.444   0.927  10.549  0.00  0.00     0.273 C 
ATOM      3  C8  ZIN A   1      17.511   0.449   9.097  0.00  0.00     0.041 C 
ATOM      4  C9  ZIN A   1      18.931   0.654   8.561  0.00  0.00     0.044 C 
ATOM      5  C20 ZIN A   1      19.306   2.134   8.686  0.00  0.00     0.041 C 
ATOM      6  C21 ZIN A   1      19.188   2.563  10.150  0.00  0.00     0.273 C 
ENDROOT
BRANCH   1   7
ATOM      7  C5  ZIN A   1      17.626   2.877  11.973  0.00  0.00     0.277 C 
BRANCH   7   8
ATOM      8  C4  ZIN A   1      18.992   3.085  12.630  0.00  0.00     0.076 C 
BRANCH   8   9
ATOM      9  C3  ZIN A   1      18.953   2.565  14.044  0.00  0.00     0.036 A 
ATOM     10  C2  ZIN A   1      18.858   3.419  15.101  0.00  0.00     0.044 A 
ATOM     11  C1  ZIN A   1      18.799   4.908  14.871  0.00  0.00     0.071 C 
ATOM     12  N32 ZIN A   1      18.824   2.932  16.339  0.00  0.00    -0.237 NA
ATOM     13  C31 ZIN A   1      18.876   1.642  16.593  0.00  0.00     0.138 A 
ATOM     14  N24 ZIN A   1      18.991   0.751  15.596  0.00  0.00    -0.300 N 
ATOM     15  C28 ZIN A   1      18.806   1.235  18.045  0.00  0.00     0.188 C 
ATOM     16  C22 ZIN A   1      19.013   1.185  14.308  0.00  0.00     0.257 A 
ATOM     17  C25 ZIN A   1      19.109  -0.692  15.809  0.00  0.00     0.134 C 
ATOM     18  O23 ZIN A   1      19.087   0.385  13.391  0.00  0.00    -0.267 OA
ATOM     19  C26 ZIN A   1      18.616  -1.085  17.198  0.00  0.00     0.023 C 
ATOM     20  C27 ZIN A   1      19.318  -0.192  18.228  0.00  0.00     0.041 C 
BRANCH  15  21
ATOM     21  O30 ZIN A   1      19.607   2.127  18.823  0.00  0.00    -0.388 OA
ATOM     22  H58 ZIN A   1      19.370   3.059  18.719  0.00  0.00     0.210 HD
ENDBRANCH  15  21
ENDBRANCH   8   9
ENDBRANCH   7   8
ENDBRANCH   1   7
BRANCH   4  23
ATOM     23  C10 ZIN A   1      18.987   0.240   7.113  0.00  0.00     0.079 A 
ATOM     24  C19 ZIN A   1      18.858  -1.124   6.596  0.00  0.00     0.027 A 
ATOM     25  C13 ZIN A   1      18.970  -1.031   5.198  0.00  0.00     0.116 A 
ATOM     26  C18 ZIN A   1      18.648  -2.368   7.196  0.00  0.00     0.019 A 
ATOM     27  O12 ZIN A   1      19.159   0.271   4.902  0.00  0.00    -0.212 OA
ATOM     28  C14 ZIN A   1      18.882  -2.183   4.427  0.00  0.00     0.082 A 
ATOM     29  N11 ZIN A   1      19.165   1.026   6.096  0.00  0.00    -0.131 NA
ATOM     30  C15 ZIN A   1      18.680  -3.404   5.040  0.00  0.00     0.119 A 
ATOM     31  F16 ZIN A   1      18.594  -4.524   4.288  0.00  0.00    -0.206 F 
ATOM     32  C17 ZIN A   1      18.563  -3.490   6.422  0.00  0.00     0.043 A 
ENDBRANCH   4  23
TORSDOF 5
ENDMDL
MODEL 2
REMARK VINA RESULT:      -9.4      3.700     10.074
REMARK  5 active torsions:
REMARK  status: ('A' for Active; 'I' for Inactive)
REMARK    1  A    between atoms: C3_3  and  C4_4 
REMARK    2  A    between atoms: C4_4  and  C5_5 
REMARK    3  A    between atoms: C5_5  and  N6_6 
REMARK    4  A    between atoms: C9_9  and  C10_10 
REMARK    5  A    between atoms: C28_28  and  O30_29 
ROOT
ATOM      1  N6  ZIN A   1      17.909  -2.342  12.202  0.00  0.00     0.088 N 
ATOM      2  C7  ZIN A   1      17.364  -0.987  12.044  0.00  0.00     0.273 C 
ATOM      3  C8  ZIN A   1      17.441  -0.246  13.381  0.00  0.00     0.041 C 
ATOM      4  C9  ZIN A   1      18.901  -0.179  13.838  0.00  0.00     0.044 C 
ATOM      5  C20 ZIN A   1      19.459  -1.601  13.948  0.00  0.00     0.041 C 
ATOM      6  C21 ZIN A   1      19.323  -2.303  12.596  0.00  0.00     0.273 C 
ENDROOT
BRANCH   1   7
ATOM      7  C5  ZIN A   1      17.725  -3.130  10.976  0.00  0.00     0.277 C 
BRANCH   7   8
ATOM      8  C4  ZIN A   1      19.075  -3.308  10.278  0.00  0.00     0.076 C 
BRANCH   8   9
ATOM      9  C3  ZIN A   1      19.000  -2.732   8.887  0.00  0.00     0.036 A 
ATOM     10  C2  ZIN A   1      18.803  -3.536   7.806  0.00  0.00     0.044 A 
ATOM     11  C1  ZIN A   1      18.663  -5.026   7.984  0.00  0.00     0.071 C 
ATOM     12  N32 ZIN A   1      18.741  -2.999   6.590  0.00  0.00    -0.237 NA
ATOM     13  C31 ZIN A   1      18.859  -1.705   6.381  0.00  0.00     0.138 A 
ATOM     14  N24 ZIN A   1      19.076  -0.864   7.403  0.00  0.00    -0.300 N 
ATOM     15  C28 ZIN A   1      18.745  -1.238   4.950  0.00  0.00     0.188 C 
ATOM     16  C22 ZIN A   1      19.133  -1.348   8.671  0.00  0.00     0.257 A 
ATOM     17  C25 ZIN A   1      19.273   0.577   7.237  0.00  0.00     0.134 C 
ATOM     18  O23 ZIN A   1      19.299  -0.591   9.612  0.00  0.00    -0.267 OA
ATOM     19  C26 ZIN A   1      18.739   1.054   5.890  0.00  0.00     0.023 C 
ATOM     20  C27 ZIN A   1      19.335   0.162   4.795  0.00  0.00     0.041 C 
BRANCH  15  21
ATOM     21  O30 ZIN A   1      19.452  -2.145   4.101  0.00  0.00    -0.388 OA
ATOM     22  H58 ZIN A   1      18.915  -2.513   3.386  0.00  0.00     0.210 HD
ENDBRANCH  15  21
ENDBRANCH   8   9
ENDBRANCH   7   8
ENDBRANCH   1   7
BRANCH   4  23
ATOM     23  C10 ZIN A   1      18.976   0.498  15.183  0.00  0.00     0.079 A 
ATOM     24  C19 ZIN A   1      18.962   1.942  15.428  0.00  0.00     0.027 A 
ATOM     25  C13 ZIN A   1      19.049   2.109  16.821  0.00  0.00     0.116 A 
ATOM     26  C18 ZIN A   1      18.869   3.061  14.598  0.00  0.00     0.019 A 
ATOM     27  O12 ZIN A   1      19.119   0.876  17.363  0.00  0.00    -0.212 OA
ATOM     28  C14 ZIN A   1      19.053   3.390  17.357  0.00  0.00     0.082 A 
ATOM     29  N11 ZIN A   1      19.072  -0.091  16.335  0.00  0.00    -0.131 NA
ATOM     30  C15 ZIN A   1      18.966   4.485  16.519  0.00  0.00     0.119 A 
ATOM     31  F16 ZIN A   1      18.971   5.730  17.042  0.00  0.00    -0.206 F 
ATOM     32  C17 ZIN A   1      18.874   4.314  15.143  0.00  0.00     0.043 A 
ENDBRANCH   4  23
TORSDOF 5
ENDMDL
MODEL 3
REMARK VINA RESULT:      -9.4      3.625      9.294
REMARK  5 active torsions:
REMARK  status: ('A' for Active; 'I' for Inactive)
REMARK    1  A    between atoms: C3_3  and  C4_4 
REMARK    2  A    between atoms: C4_4  and  C5_5 
REMARK    3  A    between atoms: C5_5  and  N6_6 
REMARK    4  A    between atoms: C9_9  and  C10_10 
REMARK    5  A    between atoms: C28_28  and  O30_29 
ROOT
ATOM      1  N6  ZIN A   1      19.279   1.373   9.695  0.00  0.00     0.088 N 
ATOM      2  C7  ZIN A   1      20.008   0.373  10.486  0.00  0.00     0.273 C 
ATOM      3  C8  ZIN A   1      20.115   0.848  11.937  0.00  0.00     0.041 C 
ATOM      4  C9  ZIN A   1      18.709   1.052  12.508  0.00  0.00     0.044 C 
ATOM      5  C20 ZIN A   1      17.955   2.061  11.638  0.00  0.00     0.041 C 
ATOM      6  C21 ZIN A   1      17.910   1.552  10.196  0.00  0.00     0.273 C 
ENDROOT
BRANCH   1   7
ATOM      7  C5  ZIN A   1      19.276   1.018   8.270  0.00  0.00     0.277 C 
BRANCH   7   8
ATOM      8  C4  ZIN A   1      17.994   0.251   7.938  0.00  0.00     0.076 C 
BRANCH   8   9
ATOM      9  C3  ZIN A   1      18.328  -1.194   7.669  0.00  0.00     0.036 A 
ATOM     10  C2  ZIN A   1      18.858  -1.579   6.475  0.00  0.00     0.044 A 
ATOM     11  C1  ZIN A   1      19.112  -0.560   5.394  0.00  0.00     0.071 C 
ATOM     12  N32 ZIN A   1      19.144  -2.862   6.266  0.00  0.00    -0.237 NA
ATOM     13  C31 ZIN A   1      18.939  -3.790   7.176  0.00  0.00     0.138 A 
ATOM     14  N24 ZIN A   1      18.400  -3.477   8.364  0.00  0.00    -0.300 N 
ATOM     15  C28 ZIN A   1      19.333  -5.200   6.806  0.00  0.00     0.188 C 
ATOM     16  C22 ZIN A   1      18.101  -2.182   8.645  0.00  0.00     0.257 A 
ATOM     17  C25 ZIN A   1      18.093  -4.465   9.399  0.00  0.00     0.134 C 
ATOM     18  O23 ZIN A   1      17.639  -1.879   9.732  0.00  0.00    -0.267 OA
ATOM     19  C26 ZIN A   1      18.872  -5.758   9.175  0.00  0.00     0.023 C 
ATOM     20  C27 ZIN A   1      18.648  -6.207   7.726  0.00  0.00     0.041 C 
BRANCH  15  21
ATOM     21  O30 ZIN A   1      18.946  -5.456   5.454  0.00  0.00    -0.388 OA
ATOM     22  H58 ZIN A   1      18.045  -5.793   5.359  0.00  0.00     0.210 HD
ENDBRANCH  15  21
ENDBRANCH   8   9
ENDBRANCH   7   8
ENDBRANCH   1   7
BRANCH   4  23
ATOM     23  C10 ZIN A   1      18.809   1.577  13.917  0.00  0.00     0.079 A 
ATOM     24  C19 ZIN A   1      18.879   0.771  15.139  0.00  0.00     0.027 A 
ATOM     25  C13 ZIN A   1      18.965   1.679  16.208  0.00  0.00     0.116 A 
ATOM     26  C18 ZIN A   1      18.888  -0.603  15.390  0.00  0.00     0.019 A 
ATOM     27  O12 ZIN A   1      18.940   2.918  15.678  0.00  0.00    -0.212 OA
ATOM     28  C14 ZIN A   1      19.047   1.198  17.508  0.00  0.00     0.082 A 
ATOM     29  N11 ZIN A   1      18.844   2.824  14.271  0.00  0.00    -0.131 NA
ATOM     30  C15 ZIN A   1      19.050  -0.165  17.737  0.00  0.00     0.119 A 
ATOM     31  F16 ZIN A   1      19.131  -0.631  19.002  0.00  0.00    -0.206 F 
ATOM     32  C17 ZIN A   1      18.971  -1.059  16.675  0.00  0.00     0.043 A 
ENDBRANCH   4  23
TORSDOF 5
ENDMDL
MODEL 4
REMARK VINA RESULT:      -9.2      3.468     10.124
REMARK  5 active torsions:
REMARK  status: ('A' for Active; 'I' for Inactive)
REMARK    1  A    between atoms: C3_3  and  C4_4 
REMARK    2  A    between atoms: C4_4  and  C5_5 
REMARK    3  A    between atoms: C5_5  and  N6_6 
REMARK    4  A    between atoms: C9_9  and  C10_10 
REMARK    5  A    between atoms: C28_28  and  O30_29 
ROOT
ATOM      1  N6  ZIN A   1      18.067   0.719   9.544  0.00  0.00     0.088 N 
ATOM      2  C7  ZIN A   1      19.455   0.537   9.987  0.00  0.00     0.273 C 
ATOM      3  C8  ZIN A   1      19.634   1.154  11.376  0.00  0.00     0.041 C 
ATOM      4  C9  ZIN A   1      18.673   0.477  12.357  0.00  0.00     0.044 C 
ATOM      5  C20 ZIN A   1      17.238   0.640  11.848  0.00  0.00     0.041 C 
ATOM      6  C21 ZIN A   1      17.129   0.038  10.446  0.00  0.00     0.273 C 
ENDROOT
BRANCH   1   7
ATOM      7  C5  ZIN A   1      17.891   0.262   8.159  0.00  0.00     0.277 C 
BRANCH   7   8
ATOM      8  C4  ZIN A   1      19.203  -0.341   7.651  0.00  0.00     0.076 C 
BRANCH   8   9
ATOM      9  C3  ZIN A   1      18.902  -1.427   6.651  0.00  0.00     0.036 A 
ATOM     10  C2  ZIN A   1      18.954  -1.179   5.312  0.00  0.00     0.044 A 
ATOM     11  C1  ZIN A   1      19.307   0.196   4.808  0.00  0.00     0.071 C 
ATOM     12  N32 ZIN A   1      18.684  -2.159   4.452  0.00  0.00    -0.237 NA
ATOM     13  C31 ZIN A   1      18.368  -3.375   4.841  0.00  0.00     0.138 A 
ATOM     14  N24 ZIN A   1      18.281  -3.676   6.146  0.00  0.00    -0.300 N 
ATOM     15  C28 ZIN A   1      18.110  -4.389   3.752  0.00  0.00     0.188 C 
ATOM     16  C22 ZIN A   1      18.560  -2.724   7.074  0.00  0.00     0.257 A 
ATOM     17  C25 ZIN A   1      17.881  -4.991   6.649  0.00  0.00     0.134 C 
ATOM     18  O23 ZIN A   1      18.514  -2.991   8.263  0.00  0.00    -0.267 OA
ATOM     19  C26 ZIN A   1      18.046  -6.064   5.576  0.00  0.00     0.023 C 
ATOM     20  C27 ZIN A   1      17.337  -5.584   4.304  0.00  0.00     0.041 C 
BRANCH  15  21
ATOM     21  O30 ZIN A   1      17.349  -3.774   2.710  0.00  0.00    -0.388 OA
ATOM     22  H58 ZIN A   1      17.010  -2.897   2.935  0.00  0.00     0.210 HD
ENDBRANCH  15  21
ENDBRANCH   8   9
ENDBRANCH   7   8
ENDBRANCH   1   7
BRANCH   4  23
ATOM     23  C10 ZIN A   1      18.802   1.122  13.714  0.00  0.00     0.079 A 
ATOM     24  C19 ZIN A   1      18.885   0.425  15.000  0.00  0.00     0.027 A 
ATOM     25  C13 ZIN A   1      18.998   1.423  15.984  0.00  0.00     0.116 A 
ATOM     26  C18 ZIN A   1      18.887  -0.921  15.370  0.00  0.00     0.019 A 
ATOM     27  O12 ZIN A   1      18.975   2.611  15.348  0.00  0.00    -0.212 OA
ATOM     28  C14 ZIN A   1      19.098   1.056  17.320  0.00  0.00     0.082 A 
ATOM     29  N11 ZIN A   1      18.855   2.395  13.957  0.00  0.00    -0.131 NA
ATOM     30  C15 ZIN A   1      19.093  -0.282  17.666  0.00  0.00     0.119 A 
ATOM     31  F16 ZIN A   1      19.191  -0.637  18.966  0.00  0.00    -0.206 F 
ATOM     32  C17 ZIN A   1      18.988  -1.264  16.688  0.00  0.00     0.043 A 
ENDBRANCH   4  23
TORSDOF 5
ENDMDL
MODEL 5
REMARK VINA RESULT:      -9.2      2.332      3.844
REMARK  5 active torsions:
REMARK  status: ('A' for Active; 'I' for Inactive)
REMARK    1  A    between atoms: C3_3  and  C4_4 
REMARK    2  A    between atoms: C4_4  and  C5_5 
REMARK    3  A    between atoms: C5_5  and  N6_6 
REMARK    4  A    between atoms: C9_9  and  C10_10 
REMARK    5  A    between atoms: C28_28  and  O30_29 
ROOT
ATOM      1  N6  ZIN A   1      19.387  -1.793  12.743  0.00  0.00     0.088 N 
ATOM      2  C7  ZIN A   1      19.860  -0.687  11.902  0.00  0.00     0.273 C 
ATOM      3  C8  ZIN A   1      19.924  -1.144  10.443  0.00  0.00     0.041 C 
ATOM      4  C9  ZIN A   1      18.531  -1.592   9.992  0.00  0.00     0.044 C 
ATOM      5  C20 ZIN A   1      18.041  -2.712  10.914  0.00  0.00     0.041 C 
ATOM      6  C21 ZIN A   1      18.032  -2.210  12.359  0.00  0.00     0.273 C 
ENDROOT
BRANCH   1   7
ATOM      7  C5  ZIN A   1      19.445  -1.436  14.166  0.00  0.00     0.277 C 
BRANCH   7   8
ATOM      8  C4  ZIN A   1      18.124  -0.784  14.582  0.00  0.00     0.076 C 
BRANCH   8   9
ATOM      9  C3  ZIN A   1      18.396   0.586  15.147  0.00  0.00     0.036 A 
ATOM     10  C2  ZIN A   1      18.815   0.743  16.433  0.00  0.00     0.044 A 
ATOM     11  C1  ZIN A   1      19.007  -0.461  17.320  0.00  0.00     0.071 C 
ATOM     12  N32 ZIN A   1      19.048   1.965  16.904  0.00  0.00    -0.237 NA
ATOM     13  C31 ZIN A   1      18.893   3.047  16.172  0.00  0.00     0.138 A 
ATOM     14  N24 ZIN A   1      18.462   2.960  14.904  0.00  0.00    -0.300 N 
ATOM     15  C28 ZIN A   1      19.217   4.365  16.834  0.00  0.00     0.188 C 
ATOM     16  C22 ZIN A   1      18.222   1.739  14.359  0.00  0.00     0.257 A 
ATOM     17  C25 ZIN A   1      18.215   4.124  14.051  0.00  0.00     0.134 C 
ATOM     18  O23 ZIN A   1      17.860   1.643  13.199  0.00  0.00    -0.267 OA
ATOM     19  C26 ZIN A   1      18.937   5.359  14.582  0.00  0.00     0.023 C 
ATOM     20  C27 ZIN A   1      18.583   5.521  16.065  0.00  0.00     0.041 C 
BRANCH  15  21
ATOM     21  O30 ZIN A   1      18.714   4.355  18.172  0.00  0.00    -0.388 OA
ATOM     22  H58 ZIN A   1      18.511   3.472  18.509  0.00  0.00     0.210 HD
ENDBRANCH  15  21
ENDBRANCH   8   9
ENDBRANCH   7   8
ENDBRANCH   1   7
BRANCH   4  23
ATOM     23  C10 ZIN A   1      18.599  -2.099   8.574  0.00  0.00     0.079 A 
ATOM     24  C19 ZIN A   1      18.480  -1.291   7.358  0.00  0.00     0.027 A 
ATOM     25  C13 ZIN A   1      18.607  -2.181   6.277  0.00  0.00     0.116 A 
ATOM     26  C18 ZIN A   1      18.298   0.072   7.119  0.00  0.00     0.019 A 
ATOM     27  O12 ZIN A   1      18.777  -3.413   6.797  0.00  0.00    -0.212 OA
ATOM     28  C14 ZIN A   1      18.537  -1.693   4.979  0.00  0.00     0.082 A 
ATOM     29  N11 ZIN A   1      18.768  -3.332   8.207  0.00  0.00    -0.131 NA
ATOM     30  C15 ZIN A   1      18.351  -0.341   4.763  0.00  0.00     0.119 A 
ATOM     31  F16 ZIN A   1      18.284   0.132   3.500  0.00  0.00    -0.206 F 
ATOM     32  C17 ZIN A   1      18.232   0.535   5.836  0.00  0.00     0.043 A 
ENDBRANCH   4  23
TORSDOF 5
ENDMDL
MODEL 6
REMARK VINA RESULT:      -9.2      1.667      2.930
REMARK  5 active torsions:
REMARK  status: ('A' for Active; 'I' for Inactive)
REMARK    1  A    between atoms: C3_3  and  C4_4 
REMARK    2  A    between atoms: C4_4  and  C5_5 
REMARK    3  A    between atoms: C5_5  and  N6_6 
REMARK    4  A    between atoms: C9_9  and  C10_10 
REMARK    5  A    between atoms: C28_28  and  O30_29 
ROOT
ATOM      1  N6  ZIN A   1      18.308  -0.660  11.945  0.00  0.00     0.088 N 
ATOM      2  C7  ZIN A   1      19.666  -0.207  11.617  0.00  0.00     0.273 C 
ATOM      3  C8  ZIN A   1      19.829  -0.137  10.097  0.00  0.00     0.041 C 
ATOM      4  C9  ZIN A   1      18.793   0.833   9.522  0.00  0.00     0.044 C 
ATOM      5  C20 ZIN A   1      17.391   0.365   9.918  0.00  0.00     0.041 C 
ATOM      6  C21 ZIN A   1      17.298   0.281  11.443  0.00  0.00     0.273 C 
ENDROOT
BRANCH   1   7
ATOM      7  C5  ZIN A   1      18.158  -0.871  13.392  0.00  0.00     0.277 C 
BRANCH   7   8
ATOM      8  C4  ZIN A   1      19.442  -0.443  14.105  0.00  0.00     0.076 C 
BRANCH   8   9
ATOM      9  C3  ZIN A   1      19.097   0.457  15.263  0.00  0.00     0.036 A 
ATOM     10  C2  ZIN A   1      18.918  -0.051  16.515  0.00  0.00     0.044 A 
ATOM     11  C1  ZIN A   1      19.055  -1.532  16.759  0.00  0.00     0.071 C 
ATOM     12  N32 ZIN A   1      18.614   0.768  17.519  0.00  0.00    -0.237 NA
ATOM     13  C31 ZIN A   1      18.480   2.067  17.357  0.00  0.00     0.138 A 
ATOM     14  N24 ZIN A   1      18.624   2.625  16.145  0.00  0.00    -0.300 N 
ATOM     15  C28 ZIN A   1      18.156   2.873  18.592  0.00  0.00     0.188 C 
ATOM     16  C22 ZIN A   1      18.950   1.844  15.082  0.00  0.00     0.257 A 
ATOM     17  C25 ZIN A   1      18.435   4.052  15.883  0.00  0.00     0.134 C 
ATOM     18  O23 ZIN A   1      19.114   2.342  13.981  0.00  0.00    -0.267 OA
ATOM     19  C26 ZIN A   1      18.535   4.866  17.170  0.00  0.00     0.023 C 
ATOM     20  C27 ZIN A   1      17.595   4.240  18.208  0.00  0.00     0.041 C 
BRANCH  15  21
ATOM     21  O30 ZIN A   1      17.189   2.168  19.373  0.00  0.00    -0.388 OA
ATOM     22  H58 ZIN A   1      16.989   2.585  20.222  0.00  0.00     0.210 HD
ENDBRANCH  15  21
ENDBRANCH   8   9
ENDBRANCH   7   8
ENDBRANCH   1   7
BRANCH   4  23
ATOM     23  C10 ZIN A   1      18.910   0.859   8.019  0.00  0.00     0.079 A 
ATOM     24  C19 ZIN A   1      18.980  -0.307   7.135  0.00  0.00     0.027 A 
ATOM     25  C13 ZIN A   1      19.078   0.194   5.825  0.00  0.00     0.116 A 
ATOM     26  C18 ZIN A   1      18.953  -1.686   7.352  0.00  0.00     0.019 A 
ATOM     27  O12 ZIN A   1      19.076   1.540   5.915  0.00  0.00    -0.212 OA
ATOM     28  C14 ZIN A   1      19.159  -0.692   4.759  0.00  0.00     0.082 A 
ATOM     29  N11 ZIN A   1      18.972   1.919   7.272  0.00  0.00    -0.131 NA
ATOM     30  C15 ZIN A   1      19.136  -2.053   4.995  0.00  0.00     0.119 A 
ATOM     31  F16 ZIN A   1      19.214  -2.913   3.956  0.00  0.00    -0.206 F 
ATOM     32  C17 ZIN A   1      19.033  -2.543   6.291  0.00  0.00     0.043 A 
ENDBRANCH   4  23
TORSDOF 5
ENDMDL
MODEL 7
REMARK VINA RESULT:      -9.1      1.940      2.515
REMARK  5 active torsions:
REMARK  status: ('A' for Active; 'I' for Inactive)
REMARK    1  A    between atoms: C3_3  and  C4_4 
REMARK    2  A    between atoms: C4_4  and  C5_5 
REMARK    3  A    between atoms: C5_5  and  N6_6 
REMARK    4  A    between atoms: C9_9  and  C10_10 
REMARK    5  A    between atoms: C28_28  and  O30_29 
ROOT
ATOM      1  N6  ZIN A   1      18.658   1.820   9.679  0.00  0.00     0.088 N 
ATOM      2  C7  ZIN A   1      19.210   2.096   8.346  0.00  0.00     0.273 C 
ATOM      3  C8  ZIN A   1      19.714   0.793   7.722  0.00  0.00     0.041 C 
ATOM      4  C9  ZIN A   1      18.553  -0.201   7.619  0.00  0.00     0.044 C 
ATOM      5  C20 ZIN A   1      17.966  -0.433   9.014  0.00  0.00     0.041 C 
ATOM      6  C21 ZIN A   1      17.512   0.905   9.600  0.00  0.00     0.273 C 
ENDROOT
BRANCH   1   7
ATOM      7  C5  ZIN A   1      18.290   3.067  10.365  0.00  0.00     0.277 C 
BRANCH   7   8
ATOM      8  C4  ZIN A   1      19.326   3.377  11.447  0.00  0.00     0.076 C 
BRANCH   8   9
ATOM      9  C3  ZIN A   1      18.964   2.644  12.713  0.00  0.00     0.036 A 
ATOM     10  C2  ZIN A   1      18.139   3.210  13.638  0.00  0.00     0.044 A 
ATOM     11  C1  ZIN A   1      17.578   4.590  13.410  0.00  0.00     0.071 C 
ATOM     12  N32 ZIN A   1      17.836   2.539  14.746  0.00  0.00    -0.237 NA
ATOM     13  C31 ZIN A   1      18.301   1.333  14.993  0.00  0.00     0.138 A 
ATOM     14  N24 ZIN A   1      19.135   0.731  14.131  0.00  0.00    -0.300 N 
ATOM     15  C28 ZIN A   1      17.853   0.685  16.281  0.00  0.00     0.188 C 
ATOM     16  C22 ZIN A   1      19.470   1.357  12.973  0.00  0.00     0.257 A 
ATOM     17  C25 ZIN A   1      19.734  -0.584  14.368  0.00  0.00     0.134 C 
ATOM     18  O23 ZIN A   1      20.202   0.809  12.167  0.00  0.00    -0.267 OA
ATOM     19  C26 ZIN A   1      18.952  -1.362  15.422  0.00  0.00     0.023 C 
ATOM     20  C27 ZIN A   1      18.785  -0.465  16.655  0.00  0.00     0.041 C 
BRANCH  15  21
ATOM     21  O30 ZIN A   1      17.864   1.660  17.326  0.00  0.00    -0.388 OA
ATOM     22  H58 ZIN A   1      17.999   2.567  17.017  0.00  0.00     0.210 HD
ENDBRANCH  15  21
ENDBRANCH   8   9
ENDBRANCH   7   8
ENDBRANCH   1   7
BRANCH   4  23
ATOM     23  C10 ZIN A   1      19.058  -1.507   7.061  0.00  0.00     0.079 A 
ATOM     24  C19 ZIN A   1      19.213  -2.763   7.799  0.00  0.00     0.027 A 
ATOM     25  C13 ZIN A   1      19.707  -3.705   6.880  0.00  0.00     0.116 A 
ATOM     26  C18 ZIN A   1      18.963  -3.144   9.119  0.00  0.00     0.019 A 
ATOM     27  O12 ZIN A   1      19.845  -3.070   5.699  0.00  0.00    -0.212 OA
ATOM     28  C14 ZIN A   1      19.953  -5.006   7.301  0.00  0.00     0.082 A 
ATOM     29  N11 ZIN A   1      19.439  -1.724   5.840  0.00  0.00    -0.131 NA
ATOM     30  C15 ZIN A   1      19.704  -5.361   8.612  0.00  0.00     0.119 A 
ATOM     31  F16 ZIN A   1      19.944  -6.627   9.019  0.00  0.00    -0.206 F 
ATOM     32  C17 ZIN A   1      19.210  -4.427   9.515  0.00  0.00     0.043 A 
ENDBRANCH   4  23
TORSDOF 5
ENDMDL
MODEL 8
REMARK VINA RESULT:      -9.1      3.779      4.622
REMARK  5 active torsions:
REMARK  status: ('A' for Active; 'I' for Inactive)
REMARK    1  A    between atoms: C3_3  and  C4_4 
REMARK    2  A    between atoms: C4_4  and  C5_5 
REMARK    3  A    between atoms: C5_5  and  N6_6 
REMARK    4  A    between atoms: C9_9  and  C10_10 
REMARK    5  A    between atoms: C28_28  and  O30_29 
ROOT
ATOM      1  N6  ZIN A   1      19.661  -2.058  10.854  0.00  0.00     0.088 N 
ATOM      2  C7  ZIN A   1      18.349  -1.972  10.201  0.00  0.00     0.273 C 
ATOM      3  C8  ZIN A   1      18.162  -3.171   9.268  0.00  0.00     0.041 C 
ATOM      4  C9  ZIN A   1      18.265  -4.464  10.080  0.00  0.00     0.044 C 
ATOM      5  C20 ZIN A   1      19.622  -4.506  10.789  0.00  0.00     0.041 C 
ATOM      6  C21 ZIN A   1      19.766  -3.270  11.678  0.00  0.00     0.273 C 
ENDROOT
BRANCH   1   7
ATOM      7  C5  ZIN A   1      19.933  -0.854  11.651  0.00  0.00     0.277 C 
BRANCH   7   8
ATOM      8  C4  ZIN A   1      18.611  -0.174  12.014  0.00  0.00     0.076 C 
BRANCH   8   9
ATOM      9  C3  ZIN A   1      18.723   0.442  13.385  0.00  0.00     0.036 A 
ATOM     10  C2  ZIN A   1      18.948   1.777  13.536  0.00  0.00     0.044 A 
ATOM     11  C1  ZIN A   1      19.096   2.663  12.326  0.00  0.00     0.071 C 
ATOM     12  N32 ZIN A   1      19.041   2.293  14.759  0.00  0.00    -0.237 NA
ATOM     13  C31 ZIN A   1      18.921   1.562  15.847  0.00  0.00     0.138 A 
ATOM     14  N24 ZIN A   1      18.721   0.238  15.764  0.00  0.00    -0.300 N 
ATOM     15  C28 ZIN A   1      19.028   2.289  17.166  0.00  0.00     0.188 C 
ATOM     16  C22 ZIN A   1      18.599  -0.347  14.543  0.00  0.00     0.257 A 
ATOM     17  C25 ZIN A   1      18.634  -0.642  16.930  0.00  0.00     0.134 C 
ATOM     18  O23 ZIN A   1      18.386  -1.544  14.453  0.00  0.00    -0.267 OA
ATOM     19  C26 ZIN A   1      18.321   0.150  18.196  0.00  0.00     0.023 C 
ATOM     20  C27 ZIN A   1      19.322   1.307  18.297  0.00  0.00     0.041 C 
BRANCH  15  21
ATOM     21  O30 ZIN A   1      20.083   3.251  17.089  0.00  0.00    -0.388 OA
ATOM     22  H58 ZIN A   1      19.801   4.119  16.769  0.00  0.00     0.210 HD
ENDBRANCH  15  21
ENDBRANCH   8   9
ENDBRANCH   7   8
ENDBRANCH   1   7
BRANCH   4  23
ATOM     23  C10 ZIN A   1      18.142  -5.650   9.157  0.00  0.00     0.079 A 
ATOM     24  C19 ZIN A   1      16.902  -6.170   8.576  0.00  0.00     0.027 A 
ATOM     25  C13 ZIN A   1      17.267  -7.273   7.784  0.00  0.00     0.116 A 
ATOM     26  C18 ZIN A   1      15.562  -5.784   8.656  0.00  0.00     0.019 A 
ATOM     27  O12 ZIN A   1      18.604  -7.408   7.888  0.00  0.00    -0.212 OA
ATOM     28  C14 ZIN A   1      16.286  -7.976   7.097  0.00  0.00     0.082 A 
ATOM     29  N11 ZIN A   1      19.113  -6.399   8.736  0.00  0.00    -0.131 NA
ATOM     30  C15 ZIN A   1      14.965  -7.581   7.194  0.00  0.00     0.119 A 
ATOM     31  F16 ZIN A   1      14.012  -8.266   6.524  0.00  0.00    -0.206 F 
ATOM     32  C17 ZIN A   1      14.610  -6.486   7.973  0.00  0.00     0.043 A 
ENDBRANCH   4  23
TORSDOF 5
ENDMDL
MODEL 9
REMARK VINA RESULT:      -9.1      3.628      9.975
REMARK  5 active torsions:
REMARK  status: ('A' for Active; 'I' for Inactive)
REMARK    1  A    between atoms: C3_3  and  C4_4 
REMARK    2  A    between atoms: C4_4  and  C5_5 
REMARK    3  A    between atoms: C5_5  and  N6_6 
REMARK    4  A    between atoms: C9_9  and  C10_10 
REMARK    5  A    between atoms: C28_28  and  O30_29 
ROOT
ATOM      1  N6  ZIN A   1      18.156   0.752  11.110  0.00  0.00     0.088 N 
ATOM      2  C7  ZIN A   1      19.562   0.494  11.444  0.00  0.00     0.273 C 
ATOM      3  C8  ZIN A   1      19.735   0.499  12.965  0.00  0.00     0.041 C 
ATOM      4  C9  ZIN A   1      18.839  -0.579  13.580  0.00  0.00     0.044 C 
ATOM      5  C20 ZIN A   1      17.385  -0.314  13.176  0.00  0.00     0.041 C 
ATOM      6  C21 ZIN A   1      17.280  -0.296  11.650  0.00  0.00     0.273 C 
ENDROOT
BRANCH   1   7
ATOM      7  C5  ZIN A   1      17.977   0.891   9.658  0.00  0.00     0.277 C 
BRANCH   7   8
ATOM      8  C4  ZIN A   1      19.312   0.640   8.953  0.00  0.00     0.076 C 
BRANCH   8   9
ATOM      9  C3  ZIN A   1      19.122  -0.392   7.871  0.00  0.00     0.036 A 
ATOM     10  C2  ZIN A   1      18.966  -0.020   6.570  0.00  0.00     0.044 A 
ATOM     11  C1  ZIN A   1      18.973   1.438   6.192  0.00  0.00     0.071 C 
ATOM     12  N32 ZIN A   1      18.801  -0.954   5.636  0.00  0.00    -0.237 NA
ATOM     13  C31 ZIN A   1      18.785  -2.240   5.915  0.00  0.00     0.138 A 
ATOM     14  N24 ZIN A   1      18.912  -2.667   7.180  0.00  0.00    -0.300 N 
ATOM     15  C28 ZIN A   1      18.611  -3.183   4.749  0.00  0.00     0.188 C 
ATOM     16  C22 ZIN A   1      19.100  -1.764   8.178  0.00  0.00     0.257 A 
ATOM     17  C25 ZIN A   1      18.847  -4.077   7.569  0.00  0.00     0.134 C 
ATOM     18  O23 ZIN A   1      19.248  -2.140   9.328  0.00  0.00    -0.267 OA
ATOM     19  C26 ZIN A   1      19.100  -4.989   6.372  0.00  0.00     0.023 C 
ATOM     20  C27 ZIN A   1      18.165  -4.560   5.236  0.00  0.00     0.041 C 
BRANCH  15  21
ATOM     21  O30 ZIN A   1      17.626  -2.654   3.859  0.00  0.00    -0.388 OA
ATOM     22  H58 ZIN A   1      17.699  -1.701   3.713  0.00  0.00     0.210 HD
ENDBRANCH  15  21
ENDBRANCH   8   9
ENDBRANCH   7   8
ENDBRANCH   1   7
BRANCH   4  23
ATOM     23  C10 ZIN A   1      18.960  -0.538  15.082  0.00  0.00     0.079 A 
ATOM     24  C19 ZIN A   1      18.967   0.665  15.918  0.00  0.00     0.027 A 
ATOM     25  C13 ZIN A   1      19.097   0.224  17.246  0.00  0.00     0.116 A 
ATOM     26  C18 ZIN A   1      18.862   2.031  15.645  0.00  0.00     0.019 A 
ATOM     27  O12 ZIN A   1      19.170  -1.122  17.211  0.00  0.00    -0.212 OA
ATOM     28  C14 ZIN A   1      19.130   1.156  18.275  0.00  0.00     0.082 A 
ATOM     29  N11 ZIN A   1      19.083  -1.561  15.870  0.00  0.00    -0.131 NA
ATOM     30  C15 ZIN A   1      19.030   2.503  17.985  0.00  0.00     0.119 A 
ATOM     31  F16 ZIN A   1      19.062   3.407  18.987  0.00  0.00    -0.206 F 
ATOM     32  C17 ZIN A   1      18.896   2.933  16.670  0.00  0.00     0.043 A 
ENDBRANCH   4  23
TORSDOF 5
ENDMDL
