MODEL 1
REMARK VINA RESULT:      -6.8      0.000      0.000
REMARK  4 active torsions:
REMARK  status: ('A' for Active; 'I' for Inactive)
REMARK    1  A    between atoms: C4_4  and  C5_5 
REMARK       I    between atoms: C5_5  and  N7_7 
REMARK    2  A    between atoms: N7_7  and  N8_8 
REMARK    3  A    between atoms: N8_8  and  C9_9 
REMARK    4  A    between atoms: C9_9  and  C10_10 
ROOT
ATOM      1  C5  ZIN A   1      19.941   0.540  12.812  0.00  0.00     0.286 C 
ATOM      2  O6  ZIN A   1      20.315  -0.217  11.938  0.00  0.00    -0.265 OA
ATOM      3  N7  ZIN A   1      19.886   1.867  12.576  0.00  0.00    -0.286 N 
ATOM      4  H22 ZIN A   1      19.588   2.471  13.274  0.00  0.00     0.184 HD
ENDROOT
BRANCH   3   5
ATOM      5  N8  ZIN A   1      20.250   2.359  11.355  0.00  0.00    -0.233 NA
ATOM      6  H23 ZIN A   1      20.730   1.657  10.810  0.00  0.00     0.146 HD
BRANCH   5   7
ATOM      7  C9  ZIN A   1      19.084   2.883  10.631  0.00  0.00     0.149 C 
BRANCH   7   8
ATOM      8  C10 ZIN A   1      18.681   1.907   9.555  0.00  0.00    -0.044 A 
ATOM      9  C15 ZIN A   1      19.271   1.972   8.306  0.00  0.00     0.008 A 
ATOM     10  C14 ZIN A   1      18.902   1.076   7.321  0.00  0.00     0.001 A 
ATOM     11  C13 ZIN A   1      17.943   0.116   7.582  0.00  0.00     0.000 A 
ATOM     12  C12 ZIN A   1      17.353   0.051   8.831  0.00  0.00     0.001 A 
ATOM     13  C11 ZIN A   1      17.726   0.943   9.819  0.00  0.00     0.008 A 
ENDBRANCH   7   8
ENDBRANCH   5   7
ENDBRANCH   3   5
BRANCH   1  14
ATOM     14  C4  ZIN A   1      19.551   0.006  14.140  0.00  0.00     0.155 A 
ATOM     15  C3  ZIN A   1      19.018   0.743  15.234  0.00  0.00     0.074 A 
ATOM     16  C2  ZIN A   1      18.834  -0.191  16.196  0.00  0.00     0.077 A 
ATOM     17  C1  ZIN A   1      18.287   0.039  17.581  0.00  0.00     0.079 C 
ATOM     18  O17 ZIN A   1      19.234  -1.361  15.678  0.00  0.00    -0.218 OA
ATOM     19  N16 ZIN A   1      19.622  -1.239  14.539  0.00  0.00    -0.123 NA
ENDBRANCH   1  14
TORSDOF 4
ENDMDL
MODEL 2
REMARK VINA RESULT:      -6.8      0.213      1.180
REMARK  4 active torsions:
REMARK  status: ('A' for Active; 'I' for Inactive)
REMARK    1  A    between atoms: C4_4  and  C5_5 
REMARK       I    between atoms: C5_5  and  N7_7 
REMARK    2  A    between atoms: N7_7  and  N8_8 
REMARK    3  A    between atoms: N8_8  and  C9_9 
REMARK    4  A    between atoms: C9_9  and  C10_10 
ROOT
ATOM      1  C5  ZIN A   1      19.926   0.493  13.007  0.00  0.00     0.286 C 
ATOM      2  O6  ZIN A   1      20.232  -0.279  12.120  0.00  0.00    -0.265 OA
ATOM      3  N7  ZIN A   1      19.963   1.823  12.786  0.00  0.00    -0.286 N 
ATOM      4  H22 ZIN A   1      19.719   2.439  13.494  0.00  0.00     0.184 HD
ENDROOT
BRANCH   3   5
ATOM      5  N8  ZIN A   1      20.345   2.302  11.566  0.00  0.00    -0.233 NA
ATOM      6  H23 ZIN A   1      20.789   1.581  11.016  0.00  0.00     0.146 HD
BRANCH   5   7
ATOM      7  C9  ZIN A   1      19.203   2.883  10.848  0.00  0.00     0.149 C 
BRANCH   7   8
ATOM      8  C10 ZIN A   1      18.773   1.947   9.747  0.00  0.00    -0.044 A 
ATOM      9  C15 ZIN A   1      17.762   1.031   9.974  0.00  0.00     0.008 A 
ATOM     10  C14 ZIN A   1      17.367   0.174   8.963  0.00  0.00     0.001 A 
ATOM     11  C13 ZIN A   1      17.983   0.231   7.728  0.00  0.00     0.000 A 
ATOM     12  C12 ZIN A   1      18.994   1.147   7.501  0.00  0.00     0.001 A 
ATOM     13  C11 ZIN A   1      19.386   2.008   8.509  0.00  0.00     0.008 A 
ENDBRANCH   7   8
ENDBRANCH   5   7
ENDBRANCH   3   5
BRANCH   1  14
ATOM     14  C4  ZIN A   1      19.517  -0.027  14.334  0.00  0.00     0.155 A 
ATOM     15  C3  ZIN A   1      19.054   0.733  15.444  0.00  0.00     0.074 A 
ATOM     16  C2  ZIN A   1      18.815  -0.196  16.399  0.00  0.00     0.077 A 
ATOM     17  C1  ZIN A   1      18.307   0.057  17.795  0.00  0.00     0.079 C 
ATOM     18  O17 ZIN A   1      19.122  -1.386  15.862  0.00  0.00    -0.218 OA
ATOM     19  N16 ZIN A   1      19.502  -1.279  14.719  0.00  0.00    -0.123 NA
ENDBRANCH   1  14
TORSDOF 4
ENDMDL
MODEL 3
REMARK VINA RESULT:      -6.8      6.132      8.611
REMARK  4 active torsions:
REMARK  status: ('A' for Active; 'I' for Inactive)
REMARK    1  A    between atoms: C4_4  and  C5_5 
REMARK       I    between atoms: C5_5  and  N7_7 
REMARK    2  A    between atoms: N7_7  and  N8_8 
REMARK    3  A    between atoms: N8_8  and  C9_9 
REMARK    4  A    between atoms: C9_9  and  C10_10 
ROOT
ATOM      1  C5  ZIN A   1      19.394  -3.712   6.026  0.00  0.00     0.286 C 
ATOM      2  O6  ZIN A   1      18.580  -4.448   5.504  0.00  0.00    -0.265 OA
ATOM      3  N7  ZIN A   1      20.310  -4.217   6.877  0.00  0.00    -0.286 N 
ATOM      4  H22 ZIN A   1      20.959  -3.630   7.294  0.00  0.00     0.184 HD
ENDROOT
BRANCH   3   5
ATOM      5  N8  ZIN A   1      20.324  -5.555   7.149  0.00  0.00    -0.233 NA
ATOM      6  H23 ZIN A   1      20.930  -6.049   6.511  0.00  0.00     0.146 HD
BRANCH   5   7
ATOM      7  C9  ZIN A   1      20.713  -5.803   8.544  0.00  0.00     0.149 C 
BRANCH   7   8
ATOM      8  C10 ZIN A   1      19.513  -5.625   9.439  0.00  0.00    -0.044 A 
ATOM      9  C15 ZIN A   1      19.586  -4.782  10.533  0.00  0.00     0.008 A 
ATOM     10  C14 ZIN A   1      18.485  -4.618  11.352  0.00  0.00     0.001 A 
ATOM     11  C13 ZIN A   1      17.312  -5.297  11.080  0.00  0.00     0.000 A 
ATOM     12  C12 ZIN A   1      17.239  -6.140   9.986  0.00  0.00     0.001 A 
ATOM     13  C11 ZIN A   1      18.338  -6.300   9.163  0.00  0.00     0.008 A 
ENDBRANCH   7   8
ENDBRANCH   5   7
ENDBRANCH   3   5
BRANCH   1  14
ATOM     14  C4  ZIN A   1      19.374  -2.258   5.734  0.00  0.00     0.155 A 
ATOM     15  C3  ZIN A   1      18.976  -1.215   6.615  0.00  0.00     0.074 A 
ATOM     16  C2  ZIN A   1      19.140  -0.089   5.883  0.00  0.00     0.077 A 
ATOM     17  C1  ZIN A   1      18.863   1.324   6.328  0.00  0.00     0.079 C 
ATOM     18  O17 ZIN A   1      19.597  -0.475   4.683  0.00  0.00    -0.218 OA
ATOM     19  N16 ZIN A   1      19.727  -1.675   4.616  0.00  0.00    -0.123 NA
ENDBRANCH   1  14
TORSDOF 4
ENDMDL
MODEL 4
REMARK VINA RESULT:      -6.6      3.989      5.827
REMARK  4 active torsions:
REMARK  status: ('A' for Active; 'I' for Inactive)
REMARK    1  A    between atoms: C4_4  and  C5_5 
REMARK       I    between atoms: C5_5  and  N7_7 
REMARK    2  A    between atoms: N7_7  and  N8_8 
REMARK    3  A    between atoms: N8_8  and  C9_9 
REMARK    4  A    between atoms: C9_9  and  C10_10 
ROOT
ATOM      1  C5  ZIN A   1      19.333  -0.052  10.221  0.00  0.00     0.286 C 
ATOM      2  O6  ZIN A   1      19.721  -0.321   9.102  0.00  0.00    -0.265 OA
ATOM      3  N7  ZIN A   1      19.618  -0.877  11.250  0.00  0.00    -0.286 N 
ATOM      4  H22 ZIN A   1      19.308  -0.662  12.143  0.00  0.00     0.184 HD
ENDROOT
BRANCH   3   5
ATOM      5  N8  ZIN A   1      20.344  -2.013  11.033  0.00  0.00    -0.233 NA
ATOM      6  H23 ZIN A   1      21.335  -1.822  11.071  0.00  0.00     0.146 HD
BRANCH   5   7
ATOM      7  C9  ZIN A   1      19.973  -3.065  11.988  0.00  0.00     0.149 C 
BRANCH   7   8
ATOM      8  C10 ZIN A   1      19.067  -4.061  11.310  0.00  0.00    -0.044 A 
ATOM      9  C15 ZIN A   1      17.777  -4.247  11.771  0.00  0.00     0.008 A 
ATOM     10  C14 ZIN A   1      16.947  -5.160  11.148  0.00  0.00     0.001 A 
ATOM     11  C13 ZIN A   1      17.407  -5.888  10.067  0.00  0.00     0.000 A 
ATOM     12  C12 ZIN A   1      18.697  -5.703   9.606  0.00  0.00     0.001 A 
ATOM     13  C11 ZIN A   1      19.526  -4.785  10.225  0.00  0.00     0.008 A 
ENDBRANCH   7   8
ENDBRANCH   5   7
ENDBRANCH   3   5
BRANCH   1  14
ATOM     14  C4  ZIN A   1      18.539   1.178  10.456  0.00  0.00     0.155 A 
ATOM     15  C3  ZIN A   1      18.808   2.479   9.945  0.00  0.00     0.074 A 
ATOM     16  C2  ZIN A   1      17.803   3.238  10.442  0.00  0.00     0.077 A 
ATOM     17  C1  ZIN A   1      17.594   4.713  10.217  0.00  0.00     0.079 C 
ATOM     18  O17 ZIN A   1      17.032   2.422  11.174  0.00  0.00    -0.218 OA
ATOM     19  N16 ZIN A   1      17.446   1.287  11.169  0.00  0.00    -0.123 NA
ENDBRANCH   1  14
TORSDOF 4
ENDMDL
MODEL 5
REMARK VINA RESULT:      -6.4      2.981      3.699
REMARK  4 active torsions:
REMARK  status: ('A' for Active; 'I' for Inactive)
REMARK    1  A    between atoms: C4_4  and  C5_5 
REMARK       I    between atoms: C5_5  and  N7_7 
REMARK    2  A    between atoms: N7_7  and  N8_8 
REMARK    3  A    between atoms: N8_8  and  C9_9 
REMARK    4  A    between atoms: C9_9  and  C10_10 
ROOT
ATOM      1  C5  ZIN A   1      19.573  -1.087  11.897  0.00  0.00     0.286 C 
ATOM      2  O6  ZIN A   1      19.408  -0.520  12.959  0.00  0.00    -0.265 OA
ATOM      3  N7  ZIN A   1      19.974  -0.389  10.816  0.00  0.00    -0.286 N 
ATOM      4  H22 ZIN A   1      20.104  -0.841   9.968  0.00  0.00     0.184 HD
ENDROOT
BRANCH   3   5
ATOM      5  N8  ZIN A   1      20.196   0.955  10.915  0.00  0.00    -0.233 NA
ATOM      6  H23 ZIN A   1      21.036   1.221  10.422  0.00  0.00     0.146 HD
BRANCH   5   7
ATOM      7  C9  ZIN A   1      19.037   1.716  10.429  0.00  0.00     0.149 C 
BRANCH   7   8
ATOM      8  C10 ZIN A   1      18.640   1.211   9.065  0.00  0.00    -0.044 A 
ATOM      9  C15 ZIN A   1      17.586   0.326   8.936  0.00  0.00     0.008 A 
ATOM     10  C14 ZIN A   1      17.222  -0.136   7.685  0.00  0.00     0.001 A 
ATOM     11  C13 ZIN A   1      17.911   0.286   6.564  0.00  0.00     0.000 A 
ATOM     12  C12 ZIN A   1      18.965   1.171   6.693  0.00  0.00     0.001 A 
ATOM     13  C11 ZIN A   1      19.327   1.638   7.943  0.00  0.00     0.008 A 
ENDBRANCH   7   8
ENDBRANCH   5   7
ENDBRANCH   3   5
BRANCH   1  14
ATOM     14  C4  ZIN A   1      19.326  -2.546  11.789  0.00  0.00     0.155 A 
ATOM     15  C3  ZIN A   1      18.073  -3.211  11.898  0.00  0.00     0.074 A 
ATOM     16  C2  ZIN A   1      18.382  -4.517  11.726  0.00  0.00     0.077 A 
ATOM     17  C1  ZIN A   1      17.423  -5.680  11.748  0.00  0.00     0.079 C 
ATOM     18  O17 ZIN A   1      19.708  -4.577  11.536  0.00  0.00    -0.218 OA
ATOM     19  N16 ZIN A   1      20.216  -3.480  11.567  0.00  0.00    -0.123 NA
ENDBRANCH   1  14
TORSDOF 4
ENDMDL
MODEL 6
REMARK VINA RESULT:      -6.4      2.404      3.279
REMARK  4 active torsions:
REMARK  status: ('A' for Active; 'I' for Inactive)
REMARK    1  A    between atoms: C4_4  and  C5_5 
REMARK       I    between atoms: C5_5  and  N7_7 
REMARK    2  A    between atoms: N7_7  and  N8_8 
REMARK    3  A    between atoms: N8_8  and  C9_9 
REMARK    4  A    between atoms: C9_9  and  C10_10 
ROOT
ATOM      1  C5  ZIN A   1      19.971  -1.123  11.231  0.00  0.00     0.286 C 
ATOM      2  O6  ZIN A   1      20.853  -0.509  10.664  0.00  0.00    -0.265 OA
ATOM      3  N7  ZIN A   1      19.278  -2.073  10.570  0.00  0.00    -0.286 N 
ATOM      4  H22 ZIN A   1      18.574  -2.563  11.022  0.00  0.00     0.184 HD
ENDROOT
BRANCH   3   5
ATOM      5  N8  ZIN A   1      19.569  -2.344   9.263  0.00  0.00    -0.233 NA
ATOM      6  H23 ZIN A   1      19.968  -3.266   9.164  0.00  0.00     0.146 HD
BRANCH   5   7
ATOM      7  C9  ZIN A   1      18.378  -2.192   8.417  0.00  0.00     0.149 C 
BRANCH   7   8
ATOM      8  C10 ZIN A   1      18.686  -1.251   7.280  0.00  0.00    -0.044 A 
ATOM      9  C15 ZIN A   1      18.587   0.115   7.467  0.00  0.00     0.008 A 
ATOM     10  C14 ZIN A   1      18.871   0.977   6.424  0.00  0.00     0.001 A 
ATOM     11  C13 ZIN A   1      19.253   0.473   5.195  0.00  0.00     0.000 A 
ATOM     12  C12 ZIN A   1      19.352  -0.893   5.008  0.00  0.00     0.001 A 
ATOM     13  C11 ZIN A   1      19.074  -1.755   6.052  0.00  0.00     0.008 A 
ENDBRANCH   7   8
ENDBRANCH   5   7
ENDBRANCH   3   5
BRANCH   1  14
ATOM     14  C4  ZIN A   1      19.652  -0.825  12.648  0.00  0.00     0.155 A 
ATOM     15  C3  ZIN A   1      18.938  -1.655  13.557  0.00  0.00     0.074 A 
ATOM     16  C2  ZIN A   1      18.917  -0.939  14.705  0.00  0.00     0.077 A 
ATOM     17  C1  ZIN A   1      18.281  -1.347  16.009  0.00  0.00     0.079 C 
ATOM     18  O17 ZIN A   1      19.569   0.206  14.456  0.00  0.00    -0.218 OA
ATOM     19  N16 ZIN A   1      19.975   0.253  13.318  0.00  0.00    -0.123 NA
ENDBRANCH   1  14
TORSDOF 4
ENDMDL
MODEL 7
REMARK VINA RESULT:      -6.4      2.139      6.742
REMARK  4 active torsions:
REMARK  status: ('A' for Active; 'I' for Inactive)
REMARK    1  A    between atoms: C4_4  and  C5_5 
REMARK       I    between atoms: C5_5  and  N7_7 
REMARK    2  A    between atoms: N7_7  and  N8_8 
REMARK    3  A    between atoms: N8_8  and  C9_9 
REMARK    4  A    between atoms: C9_9  and  C10_10 
ROOT
ATOM      1  C5  ZIN A   1      18.442   1.313  10.809  0.00  0.00     0.286 C 
ATOM      2  O6  ZIN A   1      17.525   1.850  11.398  0.00  0.00    -0.265 OA
ATOM      3  N7  ZIN A   1      19.599   1.060  11.454  0.00  0.00    -0.286 N 
ATOM      4  H22 ZIN A   1      20.332   0.632  10.984  0.00  0.00     0.184 HD
ENDROOT
BRANCH   3   5
ATOM      5  N8  ZIN A   1      19.739   1.405  12.767  0.00  0.00    -0.233 NA
ATOM      6  H23 ZIN A   1      18.873   1.762  13.142  0.00  0.00     0.146 HD
BRANCH   5   7
ATOM      7  C9  ZIN A   1      20.228   0.270  13.561  0.00  0.00     0.149 C 
BRANCH   7   8
ATOM      8  C10 ZIN A   1      19.200  -0.096  14.601  0.00  0.00    -0.044 A 
ATOM      9  C15 ZIN A   1      18.150   0.762  14.866  0.00  0.00     0.008 A 
ATOM     10  C14 ZIN A   1      17.207   0.425  15.819  0.00  0.00     0.001 A 
ATOM     11  C13 ZIN A   1      17.314  -0.769  16.507  0.00  0.00     0.000 A 
ATOM     12  C12 ZIN A   1      18.365  -1.627  16.241  0.00  0.00     0.001 A 
ATOM     13  C11 ZIN A   1      19.305  -1.294  15.284  0.00  0.00     0.008 A 
ENDBRANCH   7   8
ENDBRANCH   5   7
ENDBRANCH   3   5
BRANCH   1  14
ATOM     14  C4  ZIN A   1      18.292   0.943   9.381  0.00  0.00     0.155 A 
ATOM     15  C3  ZIN A   1      19.136   1.333   8.304  0.00  0.00     0.074 A 
ATOM     16  C2  ZIN A   1      18.578   0.741   7.222  0.00  0.00     0.077 A 
ATOM     17  C1  ZIN A   1      19.068   0.822   5.799  0.00  0.00     0.079 C 
ATOM     18  O17 ZIN A   1      17.503   0.071   7.663  0.00  0.00    -0.218 OA
ATOM     19  N16 ZIN A   1      17.360   0.187   8.857  0.00  0.00    -0.123 NA
ENDBRANCH   1  14
TORSDOF 4
ENDMDL
MODEL 8
REMARK VINA RESULT:      -6.3      1.846      2.367
REMARK  4 active torsions:
REMARK  status: ('A' for Active; 'I' for Inactive)
REMARK    1  A    between atoms: C4_4  and  C5_5 
REMARK       I    between atoms: C5_5  and  N7_7 
REMARK    2  A    between atoms: N7_7  and  N8_8 
REMARK    3  A    between atoms: N8_8  and  C9_9 
REMARK    4  A    between atoms: C9_9  and  C10_10 
ROOT
ATOM      1  C5  ZIN A   1      18.620  -1.142  13.961  0.00  0.00     0.286 C 
ATOM      2  O6  ZIN A   1      19.348  -1.958  13.430  0.00  0.00    -0.265 OA
ATOM      3  N7  ZIN A   1      17.620  -0.574  13.258  0.00  0.00    -0.286 N 
ATOM      4  H22 ZIN A   1      17.039   0.078  13.682  0.00  0.00     0.184 HD
ENDROOT
BRANCH   3   5
ATOM      5  N8  ZIN A   1      17.423  -0.916  11.951  0.00  0.00    -0.233 NA
ATOM      6  H23 ZIN A   1      16.973  -1.817  11.876  0.00  0.00     0.146 HD
BRANCH   5   7
ATOM      7  C9  ZIN A   1      16.654   0.118  11.246  0.00  0.00     0.149 C 
BRANCH   7   8
ATOM      8  C10 ZIN A   1      17.514   0.740  10.175  0.00  0.00    -0.044 A 
ATOM      9  C15 ZIN A   1      18.091   1.978  10.384  0.00  0.00     0.008 A 
ATOM     10  C14 ZIN A   1      18.880   2.547   9.401  0.00  0.00     0.001 A 
ATOM     11  C13 ZIN A   1      19.090   1.879   8.210  0.00  0.00     0.000 A 
ATOM     12  C12 ZIN A   1      18.513   0.640   8.001  0.00  0.00     0.001 A 
ATOM     13  C11 ZIN A   1      17.728   0.068   8.985  0.00  0.00     0.008 A 
ENDBRANCH   7   8
ENDBRANCH   5   7
ENDBRANCH   3   5
BRANCH   1  14
ATOM     14  C4  ZIN A   1      18.837  -0.766  15.379  0.00  0.00     0.155 A 
ATOM     15  C3  ZIN A   1      18.771   0.542  15.936  0.00  0.00     0.074 A 
ATOM     16  C2  ZIN A   1      19.042   0.351  17.248  0.00  0.00     0.077 A 
ATOM     17  C1  ZIN A   1      19.106   1.410  18.318  0.00  0.00     0.079 C 
ATOM     18  O17 ZIN A   1      19.244  -0.965  17.411  0.00  0.00    -0.218 OA
ATOM     19  N16 ZIN A   1      19.123  -1.570  16.372  0.00  0.00    -0.123 NA
ENDBRANCH   1  14
TORSDOF 4
ENDMDL
MODEL 9
REMARK VINA RESULT:      -6.3      2.561      7.038
REMARK  4 active torsions:
REMARK  status: ('A' for Active; 'I' for Inactive)
REMARK    1  A    between atoms: C4_4  and  C5_5 
REMARK       I    between atoms: C5_5  and  N7_7 
REMARK    2  A    between atoms: N7_7  and  N8_8 
REMARK    3  A    between atoms: N8_8  and  C9_9 
REMARK    4  A    between atoms: C9_9  and  C10_10 
ROOT
ATOM      1  C5  ZIN A   1      19.622  -0.574   9.265  0.00  0.00     0.286 C 
ATOM      2  O6  ZIN A   1      19.097  -1.526   9.808  0.00  0.00    -0.265 OA
ATOM      3  N7  ZIN A   1      20.533   0.164   9.931  0.00  0.00    -0.286 N 
ATOM      4  H22 ZIN A   1      20.952   0.924   9.497  0.00  0.00     0.184 HD
ENDROOT
BRANCH   3   5
ATOM      5  N8  ZIN A   1      20.866  -0.158  11.215  0.00  0.00    -0.233 NA
ATOM      6  H23 ZIN A   1      21.858  -0.325  11.302  0.00  0.00     0.146 HD
BRANCH   5   7
ATOM      7  C9  ZIN A   1      20.423   0.884  12.151  0.00  0.00     0.149 C 
BRANCH   7   8
ATOM      8  C10 ZIN A   1      19.752   0.241  13.338  0.00  0.00    -0.044 A 
ATOM      9  C15 ZIN A   1      19.429  -1.102  13.305  0.00  0.00     0.008 A 
ATOM     10  C14 ZIN A   1      18.815  -1.691  14.395  0.00  0.00     0.001 A 
ATOM     11  C13 ZIN A   1      18.522  -0.937  15.515  0.00  0.00     0.000 A 
ATOM     12  C12 ZIN A   1      18.845   0.407  15.548  0.00  0.00     0.001 A 
ATOM     13  C11 ZIN A   1      19.464   0.995  14.461  0.00  0.00     0.008 A 
ENDBRANCH   7   8
ENDBRANCH   5   7
ENDBRANCH   3   5
BRANCH   1  14
ATOM     14  C4  ZIN A   1      19.256  -0.221   7.872  0.00  0.00     0.155 A 
ATOM     15  C3  ZIN A   1      18.830  -1.112   6.848  0.00  0.00     0.074 A 
ATOM     16  C2  ZIN A   1      18.622  -0.307   5.780  0.00  0.00     0.077 A 
ATOM     17  C1  ZIN A   1      18.159  -0.729   4.410  0.00  0.00     0.079 C 
ATOM     18  O17 ZIN A   1      18.911   0.941   6.178  0.00  0.00    -0.218 OA
ATOM     19  N16 ZIN A   1      19.254   0.975   7.337  0.00  0.00    -0.123 NA
ENDBRANCH   1  14
TORSDOF 4
ENDMDL
