MODEL 1
REMARK VINA RESULT:      -8.3      0.000      0.000
REMARK  3 active torsions:
REMARK  status: ('A' for Active; 'I' for Inactive)
REMARK    1  A    between atoms: C2_2  and  C4_4 
REMARK    2  A    between atoms: N6_6  and  C7_7 
REMARK    3  A    between atoms: C12_12  and  N13_13 
ROOT
ATOM      1  C4  ZIN A   1      19.009  -0.873   6.814  0.00  0.00     0.107 A 
ATOM      2  C5  ZIN A   1      19.082  -1.783   7.851  0.00  0.00     0.114 A 
ATOM      3  N6  ZIN A   1      19.109  -1.402   9.133  0.00  0.00    -0.350 N 
ATOM      4  C10 ZIN A   1      19.068  -0.078   9.520  0.00  0.00     0.050 A 
ATOM      5  C11 ZIN A   1      19.099   0.264  10.866  0.00  0.00     0.057 A 
ATOM      6  C12 ZIN A   1      19.057   1.597  11.240  0.00  0.00     0.051 A 
ATOM      7  C21 ZIN A   1      18.983   2.604  10.273  0.00  0.00     0.138 A 
ATOM      8  F22 ZIN A   1      18.944   3.899  10.652  0.00  0.00    -0.204 F 
ATOM      9  C23 ZIN A   1      18.952   2.282   8.945  0.00  0.00     0.062 A 
ATOM     10  C24 ZIN A   1      18.993   0.942   8.554  0.00  0.00     0.045 A 
ATOM     11  C25 ZIN A   1      18.966   0.566   7.130  0.00  0.00     0.202 A 
ATOM     12  O26 ZIN A   1      18.907   1.407   6.252  0.00  0.00    -0.286 OA
ENDROOT
BRANCH   6  13
ATOM     13  N13 ZIN A   1      19.088   1.938  12.590  0.00  0.00    -0.278 NA
ATOM     14  C20 ZIN A   1      17.902   2.722  12.963  0.00  0.00     0.123 C 
ATOM     15  C19 ZIN A   1      18.003   3.126  14.435  0.00  0.00     0.247 C 
ATOM     16  N16 ZIN A   1      18.095   1.920  15.269  0.00  0.00    -0.073 N 
ATOM     17  C15 ZIN A   1      19.297   1.160  14.902  0.00  0.00     0.247 C 
ATOM     18  H17 ZIN A   1      17.278   1.347  15.122  0.00  0.00     0.277 HD
ATOM     19  H18 ZIN A   1      18.149   2.187  16.240  0.00  0.00     0.277 HD
ATOM     20  C14 ZIN A   1      19.208   0.740  13.433  0.00  0.00     0.123 C 
ENDBRANCH   6  13
BRANCH   3  21
ATOM     21  C7  ZIN A   1      19.186  -2.433  10.170  0.00  0.00     0.090 A 
ATOM     22  C9  ZIN A   1      18.951  -3.884   9.743  0.00  0.00     0.028 A 
ATOM     23  C8  ZIN A   1      17.888  -3.144  10.557  0.00  0.00     0.028 A 
ENDBRANCH   3  21
BRANCH   1  24
ATOM     24  C2  ZIN A   1      18.982  -1.330   5.420  0.00  0.00     0.214 C 
ATOM     25  O1  ZIN A   1      17.958  -1.813   4.955  0.00  0.00    -0.644 OA
ATOM     26  O3  ZIN A   1      19.981  -1.224   4.722  0.00  0.00    -0.644 OA
ENDBRANCH   1  24
TORSDOF 3
ENDMDL
MODEL 2
REMARK VINA RESULT:      -8.3      1.472      1.861
REMARK  3 active torsions:
REMARK  status: ('A' for Active; 'I' for Inactive)
REMARK    1  A    between atoms: C2_2  and  C4_4 
REMARK    2  A    between atoms: N6_6  and  C7_7 
REMARK    3  A    between atoms: C12_12  and  N13_13 
ROOT
ATOM      1  C4  ZIN A   1      19.143  -2.082   7.655  0.00  0.00     0.107 A 
ATOM      2  C5  ZIN A   1      19.154  -2.461   8.984  0.00  0.00     0.114 A 
ATOM      3  N6  ZIN A   1      19.047  -1.573   9.979  0.00  0.00    -0.350 N 
ATOM      4  C10 ZIN A   1      18.918  -0.217   9.760  0.00  0.00     0.050 A 
ATOM      5  C11 ZIN A   1      18.810   0.664  10.829  0.00  0.00     0.057 A 
ATOM      6  C12 ZIN A   1      18.682   2.023  10.594  0.00  0.00     0.051 A 
ATOM      7  C21 ZIN A   1      18.660   2.518   9.287  0.00  0.00     0.138 A 
ATOM      8  F22 ZIN A   1      18.535   3.845   9.072  0.00  0.00    -0.204 F 
ATOM      9  C23 ZIN A   1      18.765   1.664   8.225  0.00  0.00     0.062 A 
ATOM     10  C24 ZIN A   1      18.895   0.291   8.447  0.00  0.00     0.045 A 
ATOM     11  C25 ZIN A   1      19.015  -0.652   7.323  0.00  0.00     0.202 A 
ATOM     12  O26 ZIN A   1      19.006  -0.268   6.167  0.00  0.00    -0.286 OA
ENDROOT
BRANCH   6  13
ATOM     13  N13 ZIN A   1      18.574   2.903  11.667  0.00  0.00    -0.278 NA
ATOM     14  C20 ZIN A   1      18.199   2.190  12.897  0.00  0.00     0.123 C 
ATOM     15  C19 ZIN A   1      18.033   3.198  14.037  0.00  0.00     0.247 C 
ATOM     16  N16 ZIN A   1      19.294   3.924  14.236  0.00  0.00    -0.073 N 
ATOM     17  C15 ZIN A   1      19.642   4.651  13.008  0.00  0.00     0.247 C 
ATOM     18  H17 ZIN A   1      20.028   3.269  14.458  0.00  0.00     0.277 HD
ATOM     19  H18 ZIN A   1      19.187   4.580  14.995  0.00  0.00     0.277 HD
ATOM     20  C14 ZIN A   1      19.822   3.656  11.860  0.00  0.00     0.123 C 
ENDBRANCH   6  13
BRANCH   3  21
ATOM     21  C7  ZIN A   1      19.067  -2.060  11.360  0.00  0.00     0.090 A 
ATOM     22  C9  ZIN A   1      19.084  -3.575  11.574  0.00  0.00     0.028 A 
ATOM     23  C8  ZIN A   1      17.815  -2.775  11.875  0.00  0.00     0.028 A 
ENDBRANCH   3  21
BRANCH   1  24
ATOM     24  C2  ZIN A   1      19.264  -3.086   6.593  0.00  0.00     0.214 C 
ATOM     25  O1  ZIN A   1      20.354  -3.586   6.345  0.00  0.00    -0.644 OA
ATOM     26  O3  ZIN A   1      18.276  -3.426   5.958  0.00  0.00    -0.644 OA
ENDBRANCH   1  24
TORSDOF 3
ENDMDL
MODEL 3
REMARK VINA RESULT:      -8.2      4.283      7.174
REMARK  3 active torsions:
REMARK  status: ('A' for Active; 'I' for Inactive)
REMARK    1  A    between atoms: C2_2  and  C4_4 
REMARK    2  A    between atoms: N6_6  and  C7_7 
REMARK    3  A    between atoms: C12_12  and  N13_13 
ROOT
ATOM      1  C4  ZIN A   1      18.716   2.938  15.472  0.00  0.00     0.107 A 
ATOM      2  C5  ZIN A   1      18.589   1.582  15.238  0.00  0.00     0.114 A 
ATOM      3  N6  ZIN A   1      18.428   1.083  14.007  0.00  0.00    -0.350 N 
ATOM      4  C10 ZIN A   1      18.376   1.877  12.880  0.00  0.00     0.050 A 
ATOM      5  C11 ZIN A   1      18.207   1.308  11.624  0.00  0.00     0.057 A 
ATOM      6  C12 ZIN A   1      18.157   2.117  10.501  0.00  0.00     0.051 A 
ATOM      7  C21 ZIN A   1      18.275   3.505  10.620  0.00  0.00     0.138 A 
ATOM      8  F22 ZIN A   1      18.222   4.282   9.517  0.00  0.00    -0.204 F 
ATOM      9  C23 ZIN A   1      18.441   4.079  11.849  0.00  0.00     0.062 A 
ATOM     10  C24 ZIN A   1      18.494   3.275  12.990  0.00  0.00     0.045 A 
ATOM     11  C25 ZIN A   1      18.667   3.866  14.328  0.00  0.00     0.202 A 
ATOM     12  O26 ZIN A   1      18.770   5.069  14.482  0.00  0.00    -0.286 OA
ENDROOT
BRANCH   6  13
ATOM     13  N13 ZIN A   1      17.987   1.545   9.243  0.00  0.00    -0.278 NA
ATOM     14  C20 ZIN A   1      19.244   1.571   8.479  0.00  0.00     0.123 C 
ATOM     15  C19 ZIN A   1      19.002   0.988   7.085  0.00  0.00     0.247 C 
ATOM     16  N16 ZIN A   1      18.513  -0.392   7.209  0.00  0.00    -0.073 N 
ATOM     17  C15 ZIN A   1      17.246  -0.399   7.952  0.00  0.00     0.247 C 
ATOM     18  H17 ZIN A   1      19.195  -0.947   7.702  0.00  0.00     0.277 HD
ATOM     19  H18 ZIN A   1      18.365  -0.779   6.289  0.00  0.00     0.277 HD
ATOM     20  C14 ZIN A   1      17.473   0.173   9.353  0.00  0.00     0.123 C 
ENDBRANCH   6  13
BRANCH   3  21
ATOM     21  C7  ZIN A   1      18.301  -0.367  13.849  0.00  0.00     0.090 A 
ATOM     22  C9  ZIN A   1      18.463  -1.231  15.102  0.00  0.00     0.028 A 
ATOM     23  C8  ZIN A   1      19.564  -1.211  14.039  0.00  0.00     0.028 A 
ENDBRANCH   3  21
BRANCH   1  24
ATOM     24  C2  ZIN A   1      18.890   3.447  16.836  0.00  0.00     0.214 C 
ATOM     25  O1  ZIN A   1      19.944   3.257  17.430  0.00  0.00    -0.644 OA
ATOM     26  O3  ZIN A   1      17.985   4.065  17.379  0.00  0.00    -0.644 OA
ENDBRANCH   1  24
TORSDOF 3
ENDMDL
MODEL 4
REMARK VINA RESULT:      -8.2      4.739      8.072
REMARK  3 active torsions:
REMARK  status: ('A' for Active; 'I' for Inactive)
REMARK    1  A    between atoms: C2_2  and  C4_4 
REMARK    2  A    between atoms: N6_6  and  C7_7 
REMARK    3  A    between atoms: C12_12  and  N13_13 
ROOT
ATOM      1  C4  ZIN A   1      18.811   1.201  16.574  0.00  0.00     0.107 A 
ATOM      2  C5  ZIN A   1      18.859   2.242  15.666  0.00  0.00     0.114 A 
ATOM      3  N6  ZIN A   1      18.780   2.040  14.345  0.00  0.00    -0.350 N 
ATOM      4  C10 ZIN A   1      18.646   0.785  13.788  0.00  0.00     0.050 A 
ATOM      5  C11 ZIN A   1      18.569   0.629  12.410  0.00  0.00     0.057 A 
ATOM      6  C12 ZIN A   1      18.436  -0.637  11.864  0.00  0.00     0.051 A 
ATOM      7  C21 ZIN A   1      18.377  -1.763  12.691  0.00  0.00     0.138 A 
ATOM      8  F22 ZIN A   1      18.248  -2.991  12.145  0.00  0.00    -0.204 F 
ATOM      9  C23 ZIN A   1      18.452  -1.626  14.048  0.00  0.00     0.062 A 
ATOM     10  C24 ZIN A   1      18.586  -0.355  14.612  0.00  0.00     0.045 A 
ATOM     11  C25 ZIN A   1      18.675  -0.177  16.071  0.00  0.00     0.202 A 
ATOM     12  O26 ZIN A   1      18.633  -1.128  16.831  0.00  0.00    -0.286 OA
ENDROOT
BRANCH   6  13
ATOM     13  N13 ZIN A   1      18.359  -0.790  10.482  0.00  0.00    -0.278 NA
ATOM     14  C20 ZIN A   1      17.422   0.180   9.897  0.00  0.00     0.123 C 
ATOM     15  C19 ZIN A   1      17.321  -0.059   8.389  0.00  0.00     0.247 C 
ATOM     16  N16 ZIN A   1      18.650   0.087   7.779  0.00  0.00    -0.073 N 
ATOM     17  C15 ZIN A   1      19.567  -0.904   8.357  0.00  0.00     0.247 C 
ATOM     18  H17 ZIN A   1      19.002   1.015   7.960  0.00  0.00     0.277 HD
ATOM     19  H18 ZIN A   1      18.580  -0.059   6.784  0.00  0.00     0.277 HD
ATOM     20  C14 ZIN A   1      19.687  -0.672   9.864  0.00  0.00     0.123 C 
ENDBRANCH   6  13
BRANCH   3  21
ATOM     21  C7  ZIN A   1      18.839   3.199  13.453  0.00  0.00     0.090 A 
ATOM     22  C9  ZIN A   1      18.899   4.585  14.099  0.00  0.00     0.028 A 
ATOM     23  C8  ZIN A   1      17.616   4.119  13.408  0.00  0.00     0.028 A 
ENDBRANCH   3  21
BRANCH   1  24
ATOM     24  C2  ZIN A   1      18.901   1.464  18.014  0.00  0.00     0.214 C 
ATOM     25  O1  ZIN A   1      19.978   1.366  18.587  0.00  0.00    -0.644 OA
ATOM     26  O3  ZIN A   1      17.901   1.786  18.641  0.00  0.00    -0.644 OA
ENDBRANCH   1  24
TORSDOF 3
ENDMDL
MODEL 5
REMARK VINA RESULT:      -8.1      2.779      4.913
REMARK  3 active torsions:
REMARK  status: ('A' for Active; 'I' for Inactive)
REMARK    1  A    between atoms: C2_2  and  C4_4 
REMARK    2  A    between atoms: N6_6  and  C7_7 
REMARK    3  A    between atoms: C12_12  and  N13_13 
ROOT
ATOM      1  C4  ZIN A   1      18.119   0.672   9.994  0.00  0.00     0.107 A 
ATOM      2  C5  ZIN A   1      17.799   1.906  10.528  0.00  0.00     0.114 A 
ATOM      3  N6  ZIN A   1      17.911   2.166  11.836  0.00  0.00    -0.350 N 
ATOM      4  C10 ZIN A   1      18.352   1.231  12.749  0.00  0.00     0.050 A 
ATOM      5  C11 ZIN A   1      18.450   1.553  14.097  0.00  0.00     0.057 A 
ATOM      6  C12 ZIN A   1      18.893   0.602  15.003  0.00  0.00     0.051 A 
ATOM      7  C21 ZIN A   1      19.244  -0.680  14.571  0.00  0.00     0.138 A 
ATOM      8  F22 ZIN A   1      19.673  -1.596  15.466  0.00  0.00    -0.204 F 
ATOM      9  C23 ZIN A   1      19.153  -1.011  13.249  0.00  0.00     0.062 A 
ATOM     10  C24 ZIN A   1      18.707  -0.063  12.325  0.00  0.00     0.045 A 
ATOM     11  C25 ZIN A   1      18.594  -0.393  10.894  0.00  0.00     0.202 A 
ATOM     12  O26 ZIN A   1      18.883  -1.498  10.472  0.00  0.00    -0.286 OA
ENDROOT
BRANCH   6  13
ATOM     13  N13 ZIN A   1      18.990   0.927  16.354  0.00  0.00    -0.278 NA
ATOM     14  C20 ZIN A   1      19.108   2.381  16.538  0.00  0.00     0.123 C 
ATOM     15  C19 ZIN A   1      19.272   2.692  18.027  0.00  0.00     0.247 C 
ATOM     16  N16 ZIN A   1      18.110   2.180  18.766  0.00  0.00    -0.073 N 
ATOM     17  C15 ZIN A   1      18.020   0.724  18.592  0.00  0.00     0.247 C 
ATOM     18  H17 ZIN A   1      17.270   2.613  18.412  0.00  0.00     0.277 HD
ATOM     19  H18 ZIN A   1      18.214   2.395  19.745  0.00  0.00     0.277 HD
ATOM     20  C14 ZIN A   1      17.846   0.397  17.107  0.00  0.00     0.123 C 
ENDBRANCH   6  13
BRANCH   3  21
ATOM     21  C7  ZIN A   1      17.551   3.501  12.319  0.00  0.00     0.090 A 
ATOM     22  C9  ZIN A   1      17.194   4.559  11.272  0.00  0.00     0.028 A 
ATOM     23  C8  ZIN A   1      18.524   4.645  12.024  0.00  0.00     0.028 A 
ENDBRANCH   3  21
BRANCH   1  24
ATOM     24  C2  ZIN A   1      17.982   0.426   8.554  0.00  0.00     0.214 C 
ATOM     25  O1  ZIN A   1      16.997  -0.161   8.126  0.00  0.00    -0.644 OA
ATOM     26  O3  ZIN A   1      18.850   0.810   7.783  0.00  0.00    -0.644 OA
ENDBRANCH   1  24
TORSDOF 3
ENDMDL
MODEL 6
REMARK VINA RESULT:      -7.9      3.873      6.718
REMARK  3 active torsions:
REMARK  status: ('A' for Active; 'I' for Inactive)
REMARK    1  A    between atoms: C2_2  and  C4_4 
REMARK    2  A    between atoms: N6_6  and  C7_7 
REMARK    3  A    between atoms: C12_12  and  N13_13 
ROOT
ATOM      1  C4  ZIN A   1      18.053   1.767  10.481  0.00  0.00     0.107 A 
ATOM      2  C5  ZIN A   1      18.287   1.402   9.169  0.00  0.00     0.114 A 
ATOM      3  N6  ZIN A   1      18.311   0.122   8.779  0.00  0.00    -0.350 N 
ATOM      4  C10 ZIN A   1      18.104  -0.929   9.650  0.00  0.00     0.050 A 
ATOM      5  C11 ZIN A   1      18.139  -2.240   9.193  0.00  0.00     0.057 A 
ATOM      6  C12 ZIN A   1      17.931  -3.285  10.079  0.00  0.00     0.051 A 
ATOM      7  C21 ZIN A   1      17.686  -3.030  11.431  0.00  0.00     0.138 A 
ATOM      8  F22 ZIN A   1      17.486  -4.059  12.284  0.00  0.00    -0.204 F 
ATOM      9  C23 ZIN A   1      17.649  -1.745  11.895  0.00  0.00     0.062 A 
ATOM     10  C24 ZIN A   1      17.856  -0.682  11.013  0.00  0.00     0.045 A 
ATOM     11  C25 ZIN A   1      17.827   0.712  11.485  0.00  0.00     0.202 A 
ATOM     12  O26 ZIN A   1      17.622   0.983  12.654  0.00  0.00    -0.286 OA
ENDROOT
BRANCH   6  13
ATOM     13  N13 ZIN A   1      17.967  -4.599   9.619  0.00  0.00    -0.278 NA
ATOM     14  C20 ZIN A   1      16.630  -5.047   9.202  0.00  0.00     0.123 C 
ATOM     15  C19 ZIN A   1      16.700  -6.510   8.761  0.00  0.00     0.247 C 
ATOM     16  N16 ZIN A   1      17.649  -6.640   7.646  0.00  0.00    -0.073 N 
ATOM     17  C15 ZIN A   1      18.984  -6.213   8.085  0.00  0.00     0.247 C 
ATOM     18  H17 ZIN A   1      17.346  -6.061   6.878  0.00  0.00     0.277 HD
ATOM     19  H18 ZIN A   1      17.685  -7.603   7.348  0.00  0.00     0.277 HD
ATOM     20  C14 ZIN A   1      18.933  -4.747   8.522  0.00  0.00     0.123 C 
ENDBRANCH   6  13
BRANCH   3  21
ATOM     21  C7  ZIN A   1      18.565  -0.178   7.369  0.00  0.00     0.090 A 
ATOM     22  C9  ZIN A   1      18.717   1.006   6.411  0.00  0.00     0.028 A 
ATOM     23  C8  ZIN A   1      17.454   0.143   6.366  0.00  0.00     0.028 A 
ENDBRANCH   3  21
BRANCH   1  24
ATOM     24  C2  ZIN A   1      18.036   3.181  10.869  0.00  0.00     0.214 C 
ATOM     25  O1  ZIN A   1      17.013   3.840  10.736  0.00  0.00    -0.644 OA
ATOM     26  O3  ZIN A   1      19.043   3.701  11.331  0.00  0.00    -0.644 OA
ENDBRANCH   1  24
TORSDOF 3
ENDMDL
MODEL 7
REMARK VINA RESULT:      -7.8      3.209      6.551
REMARK  3 active torsions:
REMARK  status: ('A' for Active; 'I' for Inactive)
REMARK    1  A    between atoms: C2_2  and  C4_4 
REMARK    2  A    between atoms: N6_6  and  C7_7 
REMARK    3  A    between atoms: C12_12  and  N13_13 
ROOT
ATOM      1  C4  ZIN A   1      17.865   2.555  11.305  0.00  0.00     0.107 A 
ATOM      2  C5  ZIN A   1      17.768   1.231  11.692  0.00  0.00     0.114 A 
ATOM      3  N6  ZIN A   1      18.012   0.223  10.847  0.00  0.00    -0.350 N 
ATOM      4  C10 ZIN A   1      18.379   0.422   9.531  0.00  0.00     0.050 A 
ATOM      5  C11 ZIN A   1      18.622  -0.661   8.695  0.00  0.00     0.057 A 
ATOM      6  C12 ZIN A   1      18.988  -0.446   7.377  0.00  0.00     0.051 A 
ATOM      7  C21 ZIN A   1      19.116   0.854   6.879  0.00  0.00     0.138 A 
ATOM      8  F22 ZIN A   1      19.473   1.048   5.591  0.00  0.00    -0.204 F 
ATOM      9  C23 ZIN A   1      18.880   1.929   7.689  0.00  0.00     0.062 A 
ATOM     10  C24 ZIN A   1      18.510   1.727   9.021  0.00  0.00     0.045 A 
ATOM     11  C25 ZIN A   1      18.245   2.865   9.916  0.00  0.00     0.202 A 
ATOM     12  O26 ZIN A   1      18.339   4.015   9.526  0.00  0.00    -0.286 OA
ENDROOT
BRANCH   6  13
ATOM     13  N13 ZIN A   1      19.231  -1.533   6.541  0.00  0.00    -0.278 NA
ATOM     14  C20 ZIN A   1      19.311  -2.782   7.311  0.00  0.00     0.123 C 
ATOM     15  C19 ZIN A   1      19.638  -3.941   6.367  0.00  0.00     0.247 C 
ATOM     16  N16 ZIN A   1      18.592  -4.045   5.340  0.00  0.00    -0.073 N 
ATOM     17  C15 ZIN A   1      18.540  -2.799   4.563  0.00  0.00     0.247 C 
ATOM     18  H17 ZIN A   1      17.700  -4.201   5.784  0.00  0.00     0.277 HD
ATOM     19  H18 ZIN A   1      18.802  -4.816   4.725  0.00  0.00     0.277 HD
ATOM     20  C14 ZIN A   1      18.205  -1.631   5.493  0.00  0.00     0.123 C 
ENDBRANCH   6  13
BRANCH   3  21
ATOM     21  C7  ZIN A   1      17.887  -1.151  11.339  0.00  0.00     0.090 A 
ATOM     22  C9  ZIN A   1      17.802  -1.354  12.853  0.00  0.00     0.028 A 
ATOM     23  C8  ZIN A   1      19.076  -1.740  12.099  0.00  0.00     0.028 A 
ENDBRANCH   3  21
BRANCH   1  24
ATOM     24  C2  ZIN A   1      17.588   3.632  12.261  0.00  0.00     0.214 C 
ATOM     25  O1  ZIN A   1      18.322   3.797  13.226  0.00  0.00    -0.644 OA
ATOM     26  O3  ZIN A   1      16.626   4.369  12.090  0.00  0.00    -0.644 OA
ENDBRANCH   1  24
TORSDOF 3
ENDMDL
MODEL 8
REMARK VINA RESULT:      -7.7      3.170      4.772
REMARK  3 active torsions:
REMARK  status: ('A' for Active; 'I' for Inactive)
REMARK    1  A    between atoms: C2_2  and  C4_4 
REMARK    2  A    between atoms: N6_6  and  C7_7 
REMARK    3  A    between atoms: C12_12  and  N13_13 
ROOT
ATOM      1  C4  ZIN A   1      17.960  -1.700  12.075  0.00  0.00     0.107 A 
ATOM      2  C5  ZIN A   1      18.200  -1.360  13.393  0.00  0.00     0.114 A 
ATOM      3  N6  ZIN A   1      18.262  -0.087  13.801  0.00  0.00    -0.350 N 
ATOM      4  C10 ZIN A   1      18.093   0.981  12.944  0.00  0.00     0.050 A 
ATOM      5  C11 ZIN A   1      18.167   2.285  13.419  0.00  0.00     0.057 A 
ATOM      6  C12 ZIN A   1      17.995   3.347  12.547  0.00  0.00     0.051 A 
ATOM      7  C21 ZIN A   1      17.747   3.120  11.191  0.00  0.00     0.138 A 
ATOM      8  F22 ZIN A   1      17.583   4.166  10.353  0.00  0.00    -0.204 F 
ATOM      9  C23 ZIN A   1      17.672   1.843  10.709  0.00  0.00     0.062 A 
ATOM     10  C24 ZIN A   1      17.842   0.762  11.577  0.00  0.00     0.045 A 
ATOM     11  C25 ZIN A   1      17.772  -0.624  11.085  0.00  0.00     0.202 A 
ATOM     12  O26 ZIN A   1      17.563  -0.872   9.911  0.00  0.00    -0.286 OA
ENDROOT
BRANCH   6  13
ATOM     13  N13 ZIN A   1      18.070   4.653  13.026  0.00  0.00    -0.278 NA
ATOM     14  C20 ZIN A   1      16.750   5.127  13.469  0.00  0.00     0.123 C 
ATOM     15  C19 ZIN A   1      16.863   6.582  13.931  0.00  0.00     0.247 C 
ATOM     16  N16 ZIN A   1      17.831   6.672  15.033  0.00  0.00    -0.073 N 
ATOM     17  C15 ZIN A   1      19.148   6.218  14.569  0.00  0.00     0.247 C 
ATOM     18  H17 ZIN A   1      17.524   6.089  15.797  0.00  0.00     0.277 HD
ATOM     19  H18 ZIN A   1      17.895   7.629  15.345  0.00  0.00     0.277 HD
ATOM     20  C14 ZIN A   1      19.054   4.761  14.112  0.00  0.00     0.123 C 
ENDBRANCH   6  13
BRANCH   3  21
ATOM     21  C7  ZIN A   1      18.521   0.184  15.216  0.00  0.00     0.090 A 
ATOM     22  C9  ZIN A   1      18.581  -1.014  16.166  0.00  0.00     0.028 A 
ATOM     23  C8  ZIN A   1      17.379  -0.068  16.204  0.00  0.00     0.028 A 
ENDBRANCH   3  21
BRANCH   1  24
ATOM     24  C2  ZIN A   1      17.901  -3.107  11.666  0.00  0.00     0.214 C 
ATOM     25  O1  ZIN A   1      18.933  -3.754  11.549  0.00  0.00    -0.644 OA
ATOM     26  O3  ZIN A   1      16.819  -3.635  11.449  0.00  0.00    -0.644 OA
ENDBRANCH   1  24
TORSDOF 3
ENDMDL
MODEL 9
REMARK VINA RESULT:      -7.7      2.502      4.178
REMARK  3 active torsions:
REMARK  status: ('A' for Active; 'I' for Inactive)
REMARK    1  A    between atoms: C2_2  and  C4_4 
REMARK    2  A    between atoms: N6_6  and  C7_7 
REMARK    3  A    between atoms: C12_12  and  N13_13 
ROOT
ATOM      1  C4  ZIN A   1      18.161   0.212   8.023  0.00  0.00     0.107 A 
ATOM      2  C5  ZIN A   1      18.073   1.358   8.790  0.00  0.00     0.114 A 
ATOM      3  N6  ZIN A   1      18.032   1.320  10.127  0.00  0.00    -0.350 N 
ATOM      4  C10 ZIN A   1      18.073   0.141  10.842  0.00  0.00     0.050 A 
ATOM      5  C11 ZIN A   1      18.027   0.156  12.230  0.00  0.00     0.057 A 
ATOM      6  C12 ZIN A   1      18.069  -1.036  12.935  0.00  0.00     0.051 A 
ATOM      7  C21 ZIN A   1      18.158  -2.257  12.260  0.00  0.00     0.138 A 
ATOM      8  F22 ZIN A   1      18.197  -3.411  12.961  0.00  0.00    -0.204 F 
ATOM      9  C23 ZIN A   1      18.204  -2.287  10.895  0.00  0.00     0.062 A 
ATOM     10  C24 ZIN A   1      18.163  -1.093  10.171  0.00  0.00     0.045 A 
ATOM     11  C25 ZIN A   1      18.206  -1.096   8.700  0.00  0.00     0.202 A 
ATOM     12  O26 ZIN A   1      18.278  -2.135   8.068  0.00  0.00    -0.286 OA
ENDROOT
BRANCH   6  13
ATOM     13  N13 ZIN A   1      18.023  -1.018  14.327  0.00  0.00    -0.278 NA
ATOM     14  C20 ZIN A   1      19.355  -1.260  14.901  0.00  0.00     0.123 C 
ATOM     15  C19 ZIN A   1      19.251  -1.291  16.427  0.00  0.00     0.247 C 
ATOM     16  N16 ZIN A   1      18.717  -0.010  16.909  0.00  0.00    -0.073 N 
ATOM     17  C15 ZIN A   1      17.377   0.206  16.346  0.00  0.00     0.247 C 
ATOM     18  H17 ZIN A   1      19.328   0.738  16.619  0.00  0.00     0.277 HD
ATOM     19  H18 ZIN A   1      18.660  -0.027  17.915  0.00  0.00     0.277 HD
ATOM     20  C14 ZIN A   1      17.465   0.250  14.819  0.00  0.00     0.123 C 
ENDBRANCH   6  13
BRANCH   3  21
ATOM     21  C7  ZIN A   1      17.939   2.582  10.862  0.00  0.00     0.090 A 
ATOM     22  C9  ZIN A   1      18.127   3.878  10.070  0.00  0.00     0.028 A 
ATOM     23  C8  ZIN A   1      19.221   3.401  11.027  0.00  0.00     0.028 A 
ENDBRANCH   3  21
BRANCH   1  24
ATOM     24  C2  ZIN A   1      18.204   0.296   6.559  0.00  0.00     0.214 C 
ATOM     25  O1  ZIN A   1      19.251   0.579   5.993  0.00  0.00    -0.644 OA
ATOM     26  O3  ZIN A   1      17.193   0.077   5.905  0.00  0.00    -0.644 OA
ENDBRANCH   1  24
TORSDOF 3
ENDMDL
