MODEL 1
REMARK VINA RESULT:      -9.2      0.000      0.000
REMARK  15 active torsions:
REMARK  status: ('A' for Active; 'I' for Inactive)
REMARK    1  A    between atoms: C2_2  and  C3_3 
REMARK    2  A    between atoms: C3_3  and  C4_4 
REMARK    3  A    between atoms: C4_4  and  C5_5 
REMARK    4  A    between atoms: C5_5  and  O7_7 
REMARK    5  A    between atoms: O7_7  and  C8_8 
REMARK    6  A    between atoms: C8_8  and  C9_9 
REMARK    7  A    between atoms: C9_9  and  C11_11 
REMARK    8  A    between atoms: C11_11  and  O12_12 
REMARK    9  A    between atoms: C15_15  and  O16_16 
REMARK   10  A    between atoms: C22_22  and  O23_23 
REMARK   11  A    between atoms: C34_34  and  O36_35 
REMARK   12  A    between atoms: O36_35  and  C37_36 
REMARK   13  A    between atoms: C40_38  and  N42_39 
REMARK       I    between atoms: N42_39  and  C43_40 
REMARK   14  A    between atoms: C43_40  and  C45_42 
REMARK   15  A    between atoms: C49_46  and  O51_47 
ROOT
ATOM      1  C11 ZIN A   1      18.950  -4.768  10.503  0.00  0.00     0.127 C 
ATOM      2  C13 ZIN A   1      19.677  -3.938  11.558  0.00  0.00     0.088 C 
ATOM      3  C14 ZIN A   1      19.090  -2.553  11.644  0.00  0.00    -0.009 A 
ATOM      4  C15 ZIN A   1      19.375  -1.804  12.794  0.00  0.00     0.088 A 
ATOM      5  C17 ZIN A   1      18.871  -0.513  12.937  0.00  0.00     0.066 A 
ATOM      6  C18 ZIN A   1      18.070   0.036  11.914  0.00  0.00     0.069 A 
ATOM      7  C19 ZIN A   1      17.538   1.404  12.058  0.00  0.00     0.200 C 
ATOM      8  O20 ZIN A   1      16.657   1.802  11.321  0.00  0.00    -0.286 OA
ATOM      9  C21 ZIN A   1      18.089   2.284  13.107  0.00  0.00     0.062 A 
ATOM     10  C22 ZIN A   1      17.827   3.656  13.094  0.00  0.00     0.083 A 
ATOM     11  C25 ZIN A   1      18.357   4.467  14.094  0.00  0.00     0.038 A 
ATOM     12  C26 ZIN A   1      19.137   3.923  15.094  0.00  0.00     0.004 A 
ATOM     13  C27 ZIN A   1      19.404   2.563  15.119  0.00  0.00     0.017 A 
ATOM     14  C28 ZIN A   1      18.886   1.736  14.130  0.00  0.00     0.032 A 
ATOM     15  C29 ZIN A   1      19.166   0.284  14.142  0.00  0.00     0.197 C 
ATOM     16  O30 ZIN A   1      19.631  -0.246  15.133  0.00  0.00    -0.286 OA
ATOM     17  C31 ZIN A   1      17.794  -0.723  10.780  0.00  0.00     0.132 A 
ATOM     18  O32 ZIN A   1      17.025  -0.202   9.793  0.00  0.00    -0.190 OA
ATOM     19  C33 ZIN A   1      18.306  -2.020  10.651  0.00  0.00     0.018 A 
ATOM     20  C34 ZIN A   1      17.953  -2.782   9.400  0.00  0.00     0.164 C 
ATOM     21  C56 ZIN A   1      18.903  -3.961   9.200  0.00  0.00     0.083 C 
ENDROOT
BRANCH  20  22
ATOM     22  O36 ZIN A   1      18.046  -1.908   8.273  0.00  0.00    -0.351 OA
BRANCH  22  23
ATOM     23  C37 ZIN A   1      19.330  -1.898   7.648  0.00  0.00     0.263 C 
ATOM     24  O55 ZIN A   1      19.613  -0.584   7.161  0.00  0.00    -0.354 OA
ATOM     25  C52 ZIN A   1      18.657  -0.094   6.216  0.00  0.00     0.151 C 
ATOM     26  C49 ZIN A   1      18.638  -1.011   4.991  0.00  0.00     0.171 C 
ATOM     27  C54 ZIN A   1      19.045   1.323   5.788  0.00  0.00     0.042 C 
ATOM     28  C40 ZIN A   1      18.309  -2.440   5.436  0.00  0.00     0.147 C 
ATOM     29  C39 ZIN A   1      19.338  -2.887   6.479  0.00  0.00     0.090 C 
BRANCH  26  30
ATOM     30  O51 ZIN A   1      19.919  -0.991   4.358  0.00  0.00    -0.391 OA
ATOM     31  H80 ZIN A   1      20.283  -1.869   4.178  0.00  0.00     0.210 HD
ENDBRANCH  26  30
BRANCH  28  32
ATOM     32  N42 ZIN A   1      18.362  -3.339   4.281  0.00  0.00    -0.240 NA
ATOM     33  C43 ZIN A   1      17.225  -3.683   3.642  0.00  0.00     0.346 C 
ATOM     34  O44 ZIN A   1      16.160  -3.249   4.026  0.00  0.00    -0.261 OA
BRANCH  33  35
ATOM     35  C45 ZIN A   1      17.279  -4.607   2.455  0.00  0.00     0.474 C 
ATOM     36  F46 ZIN A   1      18.605  -4.745   2.031  0.00  0.00    -0.162 F 
ATOM     37  F47 ZIN A   1      16.773  -5.861   2.816  0.00  0.00    -0.162 F 
ATOM     38  F48 ZIN A   1      16.509  -4.076   1.414  0.00  0.00    -0.162 F 
ENDBRANCH  33  35
ENDBRANCH  28  32
ENDBRANCH  22  23
ENDBRANCH  20  22
BRANCH   1  39
ATOM     39  C9  ZIN A   1      17.547  -5.064  10.969  0.00  0.00     0.185 C 
ATOM     40  O10 ZIN A   1      17.266  -4.964  12.139  0.00  0.00    -0.292 OA
BRANCH  39  41
ATOM     41  C8  ZIN A   1      16.495  -5.481   9.974  0.00  0.00     0.260 C 
BRANCH  41  42
ATOM     42  O7  ZIN A   1      16.791  -6.818   9.491  0.00  0.00    -0.314 OA
BRANCH  42  43
ATOM     43  C5  ZIN A   1      17.147  -6.936   8.202  0.00  0.00     0.259 C 
ATOM     44  O6  ZIN A   1      18.269  -7.279   7.915  0.00  0.00    -0.265 OA
BRANCH  43  45
ATOM     45  C4  ZIN A   1      16.146  -6.644   7.113  0.00  0.00     0.111 C 
BRANCH  45  46
ATOM     46  C3  ZIN A   1      14.820  -7.334   7.440  0.00  0.00     0.009 C 
BRANCH  46  47
ATOM     47  C2  ZIN A   1      13.659  -6.437   7.007  0.00  0.00    -0.004 C 
ATOM     48  C1  ZIN A   1      12.661  -6.302   8.159  0.00  0.00     0.005 C 
ENDBRANCH  46  47
ENDBRANCH  45  46
ENDBRANCH  43  45
ENDBRANCH  42  43
ENDBRANCH  41  42
ENDBRANCH  39  41
ENDBRANCH   1  39
BRANCH   1  49
ATOM     49  O12 ZIN A   1      19.651  -5.994  10.285  0.00  0.00    -0.382 OA
ATOM     50  H68 ZIN A   1      20.444  -5.902   9.739  0.00  0.00     0.211 HD
ENDBRANCH   1  49
BRANCH   4  51
ATOM     51  O16 ZIN A   1      20.146  -2.339  13.773  0.00  0.00    -0.359 OA
ATOM     52  H71 ZIN A   1      21.086  -2.129  13.691  0.00  0.00     0.217 HD
ENDBRANCH   4  51
BRANCH  10  53
ATOM     53  O23 ZIN A   1      17.061   4.195  12.114  0.00  0.00    -0.355 OA
ATOM     54  C24 ZIN A   1      16.363   5.402  12.427  0.00  0.00     0.210 C 
ENDBRANCH  10  53
TORSDOF 15
ENDMDL
MODEL 2
REMARK VINA RESULT:      -8.8      6.157     11.732
REMARK  15 active torsions:
REMARK  status: ('A' for Active; 'I' for Inactive)
REMARK    1  A    between atoms: C2_2  and  C3_3 
REMARK    2  A    between atoms: C3_3  and  C4_4 
REMARK    3  A    between atoms: C4_4  and  C5_5 
REMARK    4  A    between atoms: C5_5  and  O7_7 
REMARK    5  A    between atoms: O7_7  and  C8_8 
REMARK    6  A    between atoms: C8_8  and  C9_9 
REMARK    7  A    between atoms: C9_9  and  C11_11 
REMARK    8  A    between atoms: C11_11  and  O12_12 
REMARK    9  A    between atoms: C15_15  and  O16_16 
REMARK   10  A    between atoms: C22_22  and  O23_23 
REMARK   11  A    between atoms: C34_34  and  O36_35 
REMARK   12  A    between atoms: O36_35  and  C37_36 
REMARK   13  A    between atoms: C40_38  and  N42_39 
REMARK       I    between atoms: N42_39  and  C43_40 
REMARK   14  A    between atoms: C43_40  and  C45_42 
REMARK   15  A    between atoms: C49_46  and  O51_47 
ROOT
ATOM      1  C11 ZIN A   1      18.781   4.457  12.325  0.00  0.00     0.127 C 
ATOM      2  C13 ZIN A   1      19.520   3.594  11.306  0.00  0.00     0.088 C 
ATOM      3  C14 ZIN A   1      18.965   2.194  11.289  0.00  0.00    -0.009 A 
ATOM      4  C15 ZIN A   1      19.260   1.398  10.174  0.00  0.00     0.088 A 
ATOM      5  C17 ZIN A   1      18.784   0.091  10.095  0.00  0.00     0.066 A 
ATOM      6  C18 ZIN A   1      18.002  -0.427  11.147  0.00  0.00     0.069 A 
ATOM      7  C19 ZIN A   1      17.500  -1.812  11.072  0.00  0.00     0.200 C 
ATOM      8  O20 ZIN A   1      16.632  -2.194  11.833  0.00  0.00    -0.286 OA
ATOM      9  C21 ZIN A   1      18.065  -2.728  10.062  0.00  0.00     0.062 A 
ATOM     10  C22 ZIN A   1      17.835  -4.103  10.141  0.00  0.00     0.083 A 
ATOM     11  C25 ZIN A   1      18.377  -4.948   9.177  0.00  0.00     0.038 A 
ATOM     12  C26 ZIN A   1      19.139  -4.435   8.147  0.00  0.00     0.004 A 
ATOM     13  C27 ZIN A   1      19.375  -3.072   8.056  0.00  0.00     0.017 A 
ATOM     14  C28 ZIN A   1      18.844  -2.211   9.009  0.00  0.00     0.032 A 
ATOM     15  C29 ZIN A   1      19.090  -0.755   8.926  0.00  0.00     0.197 C 
ATOM     16  O30 ZIN A   1      19.538  -0.263   7.909  0.00  0.00    -0.286 OA
ATOM     17  C31 ZIN A   1      17.715   0.378  12.247  0.00  0.00     0.132 A 
ATOM     18  O32 ZIN A   1      16.963  -0.113  13.262  0.00  0.00    -0.190 OA
ATOM     19  C33 ZIN A   1      18.199   1.691  12.311  0.00  0.00     0.018 A 
ATOM     20  C34 ZIN A   1      17.835   2.503  13.527  0.00  0.00     0.164 C 
ATOM     21  C56 ZIN A   1      18.759   3.712  13.665  0.00  0.00     0.083 C 
ENDROOT
BRANCH  20  22
ATOM     22  O36 ZIN A   1      17.954   1.686  14.693  0.00  0.00    -0.351 OA
BRANCH  22  23
ATOM     23  C37 ZIN A   1      19.272   1.639  15.240  0.00  0.00     0.263 C 
ATOM     24  O55 ZIN A   1      19.575   0.301  15.640  0.00  0.00    -0.354 OA
ATOM     25  C52 ZIN A   1      18.674  -0.234  16.613  0.00  0.00     0.151 C 
ATOM     26  C49 ZIN A   1      18.733   0.617  17.884  0.00  0.00     0.171 C 
ATOM     27  C54 ZIN A   1      19.077  -1.673  16.944  0.00  0.00     0.042 C 
ATOM     28  C40 ZIN A   1      18.387   2.068  17.533  0.00  0.00     0.147 C 
ATOM     29  C39 ZIN A   1      19.355   2.566  16.456  0.00  0.00     0.090 C 
BRANCH  26  30
ATOM     30  O51 ZIN A   1      20.048   0.560  18.438  0.00  0.00    -0.391 OA
ATOM     31  H80 ZIN A   1      20.370  -0.338  18.596  0.00  0.00     0.210 HD
ENDBRANCH  26  30
BRANCH  28  32
ATOM     32  N42 ZIN A   1      18.513   2.906  18.729  0.00  0.00    -0.240 NA
ATOM     33  C43 ZIN A   1      17.592   3.857  18.985  0.00  0.00     0.346 C 
ATOM     34  O44 ZIN A   1      16.662   4.020  18.224  0.00  0.00    -0.261 OA
BRANCH  33  35
ATOM     35  C45 ZIN A   1      17.721   4.718  20.213  0.00  0.00     0.474 C 
ATOM     36  F46 ZIN A   1      18.943   4.455  20.841  0.00  0.00    -0.162 F 
ATOM     37  F47 ZIN A   1      17.668   6.068  19.845  0.00  0.00    -0.162 F 
ATOM     38  F48 ZIN A   1      16.673   4.434  21.096  0.00  0.00    -0.162 F 
ENDBRANCH  33  35
ENDBRANCH  28  32
ENDBRANCH  22  23
ENDBRANCH  20  22
BRANCH   1  39
ATOM     39  C9  ZIN A   1      17.368   4.699  11.855  0.00  0.00     0.185 C 
ATOM     40  O10 ZIN A   1      17.059   4.438  10.717  0.00  0.00    -0.292 OA
BRANCH  39  41
ATOM     41  C8  ZIN A   1      16.345   5.262  12.806  0.00  0.00     0.260 C 
BRANCH  41  42
ATOM     42  O7  ZIN A   1      16.844   6.501  13.376  0.00  0.00    -0.314 OA
BRANCH  42  43
ATOM     43  C5  ZIN A   1      16.409   6.827  14.602  0.00  0.00     0.259 C 
ATOM     44  O6  ZIN A   1      15.351   7.396  14.736  0.00  0.00    -0.265 OA
BRANCH  43  45
ATOM     45  C4  ZIN A   1      17.238   6.484  15.813  0.00  0.00     0.111 C 
BRANCH  45  46
ATOM     46  C3  ZIN A   1      18.686   6.920  15.581  0.00  0.00     0.009 C 
BRANCH  46  47
ATOM     47  C2  ZIN A   1      19.628   5.995  16.352  0.00  0.00    -0.004 C 
ATOM     48  C1  ZIN A   1      20.963   5.893  15.612  0.00  0.00     0.005 C 
ENDBRANCH  46  47
ENDBRANCH  45  46
ENDBRANCH  43  45
ENDBRANCH  42  43
ENDBRANCH  41  42
ENDBRANCH  39  41
ENDBRANCH   1  39
BRANCH   1  49
ATOM     49  O12 ZIN A   1      19.455   5.707  12.480  0.00  0.00    -0.382 OA
ATOM     50  H68 ZIN A   1      20.419   5.632  12.521  0.00  0.00     0.211 HD
ENDBRANCH   1  49
BRANCH   4  51
ATOM     51  O16 ZIN A   1      20.013   1.903   9.166  0.00  0.00    -0.359 OA
ATOM     52  H71 ZIN A   1      20.955   1.701   9.240  0.00  0.00     0.217 HD
ENDBRANCH   4  51
BRANCH  10  53
ATOM     53  O23 ZIN A   1      17.086  -4.612  11.150  0.00  0.00    -0.355 OA
ATOM     54  C24 ZIN A   1      17.707  -5.587  11.990  0.00  0.00     0.210 C 
ENDBRANCH  10  53
TORSDOF 15
ENDMDL
MODEL 3
REMARK VINA RESULT:      -6.8      0.951      1.283
REMARK  15 active torsions:
REMARK  status: ('A' for Active; 'I' for Inactive)
REMARK    1  A    between atoms: C2_2  and  C3_3 
REMARK    2  A    between atoms: C3_3  and  C4_4 
REMARK    3  A    between atoms: C4_4  and  C5_5 
REMARK    4  A    between atoms: C5_5  and  O7_7 
REMARK    5  A    between atoms: O7_7  and  C8_8 
REMARK    6  A    between atoms: C8_8  and  C9_9 
REMARK    7  A    between atoms: C9_9  and  C11_11 
REMARK    8  A    between atoms: C11_11  and  O12_12 
REMARK    9  A    between atoms: C15_15  and  O16_16 
REMARK   10  A    between atoms: C22_22  and  O23_23 
REMARK   11  A    between atoms: C34_34  and  O36_35 
REMARK   12  A    between atoms: O36_35  and  C37_36 
REMARK   13  A    between atoms: C40_38  and  N42_39 
REMARK       I    between atoms: N42_39  and  C43_40 
REMARK   14  A    between atoms: C43_40  and  C45_42 
REMARK   15  A    between atoms: C49_46  and  O51_47 
ROOT
ATOM      1  C11 ZIN A   1      18.840  -4.444  10.913  0.00  0.00     0.127 C 
ATOM      2  C13 ZIN A   1      19.540  -3.624  11.995  0.00  0.00     0.088 C 
ATOM      3  C14 ZIN A   1      19.002  -2.217  12.029  0.00  0.00    -0.009 A 
ATOM      4  C15 ZIN A   1      19.253  -1.460  13.182  0.00  0.00     0.088 A 
ATOM      5  C17 ZIN A   1      18.791  -0.150  13.279  0.00  0.00     0.066 A 
ATOM      6  C18 ZIN A   1      18.069   0.412  12.206  0.00  0.00     0.069 A 
ATOM      7  C19 ZIN A   1      17.583   1.802  12.300  0.00  0.00     0.200 C 
ATOM      8  O20 ZIN A   1      16.760   2.220  11.510  0.00  0.00    -0.286 OA
ATOM      9  C21 ZIN A   1      18.109   2.677  13.366  0.00  0.00     0.062 A 
ATOM     10  C22 ZIN A   1      17.902   4.057  13.320  0.00  0.00     0.083 A 
ATOM     11  C25 ZIN A   1      18.406   4.864  14.336  0.00  0.00     0.038 A 
ATOM     12  C26 ZIN A   1      19.109   4.308  15.385  0.00  0.00     0.004 A 
ATOM     13  C27 ZIN A   1      19.322   2.939  15.444  0.00  0.00     0.017 A 
ATOM     14  C28 ZIN A   1      18.827   2.117  14.439  0.00  0.00     0.032 A 
ATOM     15  C29 ZIN A   1      19.050   0.655  14.487  0.00  0.00     0.197 C 
ATOM     16  O30 ZIN A   1      19.440   0.124  15.509  0.00  0.00    -0.286 OA
ATOM     17  C31 ZIN A   1      17.827  -0.354  11.069  0.00  0.00     0.132 A 
ATOM     18  O32 ZIN A   1      17.133   0.180  10.033  0.00  0.00    -0.190 OA
ATOM     19  C33 ZIN A   1      18.295  -1.671  10.987  0.00  0.00     0.018 A 
ATOM     20  C34 ZIN A   1      17.982  -2.440   9.729  0.00  0.00     0.164 C 
ATOM     21  C56 ZIN A   1      18.895  -3.657   9.598  0.00  0.00     0.083 C 
ENDROOT
BRANCH  20  22
ATOM     22  O36 ZIN A   1      18.170  -1.588   8.597  0.00  0.00    -0.351 OA
BRANCH  22  23
ATOM     23  C37 ZIN A   1      19.433  -1.749   7.950  0.00  0.00     0.263 C 
ATOM     24  O55 ZIN A   1      19.859  -0.493   7.417  0.00  0.00    -0.354 OA
ATOM     25  C52 ZIN A   1      18.949   0.078   6.473  0.00  0.00     0.151 C 
ATOM     26  C49 ZIN A   1      18.796  -0.867   5.277  0.00  0.00     0.171 C 
ATOM     27  C54 ZIN A   1      19.492   1.425   5.993  0.00  0.00     0.042 C 
ATOM     28  C40 ZIN A   1      18.310  -2.232   5.774  0.00  0.00     0.147 C 
ATOM     29  C39 ZIN A   1      19.300  -2.766   6.814  0.00  0.00     0.090 C 
BRANCH  26  30
ATOM     30  O51 ZIN A   1      20.057  -1.017   4.623  0.00  0.00    -0.391 OA
ATOM     31  H80 ZIN A   1      19.989  -1.278   3.694  0.00  0.00     0.210 HD
ENDBRANCH  26  30
BRANCH  28  32
ATOM     32  N42 ZIN A   1      18.232  -3.165   4.648  0.00  0.00    -0.240 NA
ATOM     33  C43 ZIN A   1      17.663  -4.376   4.814  0.00  0.00     0.346 C 
ATOM     34  O44 ZIN A   1      17.219  -4.693   5.897  0.00  0.00    -0.261 OA
BRANCH  33  35
ATOM     35  C45 ZIN A   1      17.583  -5.336   3.656  0.00  0.00     0.474 C 
ATOM     36  F46 ZIN A   1      16.256  -5.437   3.226  0.00  0.00    -0.162 F 
ATOM     37  F47 ZIN A   1      18.378  -4.865   2.605  0.00  0.00    -0.162 F 
ATOM     38  F48 ZIN A   1      18.040  -6.595   4.060  0.00  0.00    -0.162 F 
ENDBRANCH  33  35
ENDBRANCH  28  32
ENDBRANCH  22  23
ENDBRANCH  20  22
BRANCH   1  39
ATOM     39  C9  ZIN A   1      17.403  -4.678  11.305  0.00  0.00     0.185 C 
ATOM     40  O10 ZIN A   1      17.077  -4.621  12.467  0.00  0.00    -0.292 OA
BRANCH  39  41
ATOM     41  C8  ZIN A   1      16.375  -4.982  10.247  0.00  0.00     0.260 C 
BRANCH  41  42
ATOM     42  O7  ZIN A   1      17.029  -5.569   9.091  0.00  0.00    -0.314 OA
BRANCH  42  43
ATOM     43  C5  ZIN A   1      16.776  -6.862   8.838  0.00  0.00     0.259 C 
ATOM     44  O6  ZIN A   1      16.631  -7.639   9.752  0.00  0.00    -0.265 OA
BRANCH  43  45
ATOM     45  C4  ZIN A   1      16.671  -7.346   7.414  0.00  0.00     0.111 C 
BRANCH  45  46
ATOM     46  C3  ZIN A   1      15.214  -7.264   6.953  0.00  0.00     0.009 C 
BRANCH  46  47
ATOM     47  C2  ZIN A   1      14.864  -8.515   6.147  0.00  0.00    -0.004 C 
ATOM     48  C1  ZIN A   1      15.013  -8.219   4.653  0.00  0.00     0.005 C 
ENDBRANCH  46  47
ENDBRANCH  45  46
ENDBRANCH  43  45
ENDBRANCH  42  43
ENDBRANCH  41  42
ENDBRANCH  39  41
ENDBRANCH   1  39
BRANCH   1  49
ATOM     49  O12 ZIN A   1      19.505  -5.698  10.752  0.00  0.00    -0.382 OA
ATOM     50  H68 ZIN A   1      20.374  -5.740  11.175  0.00  0.00     0.211 HD
ENDBRANCH   1  49
BRANCH   4  51
ATOM     51  O16 ZIN A   1      19.947  -2.008  14.210  0.00  0.00    -0.359 OA
ATOM     52  H71 ZIN A   1      19.989  -1.449  14.997  0.00  0.00     0.217 HD
ENDBRANCH   4  51
BRANCH  10  53
ATOM     53  O23 ZIN A   1      17.211   4.609  12.291  0.00  0.00    -0.355 OA
ATOM     54  C24 ZIN A   1      16.288   5.651  12.614  0.00  0.00     0.210 C 
ENDBRANCH  10  53
TORSDOF 15
ENDMDL
MODEL 4
REMARK VINA RESULT:      -6.5      5.114      9.964
REMARK  15 active torsions:
REMARK  status: ('A' for Active; 'I' for Inactive)
REMARK    1  A    between atoms: C2_2  and  C3_3 
REMARK    2  A    between atoms: C3_3  and  C4_4 
REMARK    3  A    between atoms: C4_4  and  C5_5 
REMARK    4  A    between atoms: C5_5  and  O7_7 
REMARK    5  A    between atoms: O7_7  and  C8_8 
REMARK    6  A    between atoms: C8_8  and  C9_9 
REMARK    7  A    between atoms: C9_9  and  C11_11 
REMARK    8  A    between atoms: C11_11  and  O12_12 
REMARK    9  A    between atoms: C15_15  and  O16_16 
REMARK   10  A    between atoms: C22_22  and  O23_23 
REMARK   11  A    between atoms: C34_34  and  O36_35 
REMARK   12  A    between atoms: O36_35  and  C37_36 
REMARK   13  A    between atoms: C40_38  and  N42_39 
REMARK       I    between atoms: N42_39  and  C43_40 
REMARK   14  A    between atoms: C43_40  and  C45_42 
REMARK   15  A    between atoms: C49_46  and  O51_47 
ROOT
ATOM      1  C11 ZIN A   1      17.954  -1.289  13.646  0.00  0.00     0.127 C 
ATOM      2  C13 ZIN A   1      17.328  -2.292  12.680  0.00  0.00     0.088 C 
ATOM      3  C14 ZIN A   1      17.855  -2.087  11.283  0.00  0.00    -0.009 A 
ATOM      4  C15 ZIN A   1      17.684  -3.136  10.370  0.00  0.00     0.088 A 
ATOM      5  C17 ZIN A   1      18.140  -3.013   9.060  0.00  0.00     0.066 A 
ATOM      6  C18 ZIN A   1      18.778  -1.821   8.658  0.00  0.00     0.069 A 
ATOM      7  C19 ZIN A   1      19.258  -1.682   7.270  0.00  0.00     0.200 C 
ATOM      8  O20 ZIN A   1      20.019  -0.783   6.969  0.00  0.00    -0.286 OA
ATOM      9  C21 ZIN A   1      18.804  -2.649   6.251  0.00  0.00     0.062 A 
ATOM     10  C22 ZIN A   1      18.997  -2.392   4.892  0.00  0.00     0.083 A 
ATOM     11  C25 ZIN A   1      18.561  -3.318   3.948  0.00  0.00     0.038 A 
ATOM     12  C26 ZIN A   1      17.941  -4.484   4.348  0.00  0.00     0.004 A 
ATOM     13  C27 ZIN A   1      17.744  -4.752   5.694  0.00  0.00     0.017 A 
ATOM     14  C28 ZIN A   1      18.170  -3.840   6.652  0.00  0.00     0.032 A 
ATOM     15  C29 ZIN A   1      17.964  -4.111   8.092  0.00  0.00     0.197 C 
ATOM     16  O30 ZIN A   1      17.654  -5.223   8.471  0.00  0.00    -0.286 OA
ATOM     17  C31 ZIN A   1      18.942  -0.789   9.578  0.00  0.00     0.132 A 
ATOM     18  O32 ZIN A   1      19.555   0.359   9.198  0.00  0.00    -0.190 OA
ATOM     19  C33 ZIN A   1      18.480  -0.929  10.892  0.00  0.00     0.018 A 
ATOM     20  C34 ZIN A   1      18.707   0.227  11.832  0.00  0.00     0.164 C 
ATOM     21  C56 ZIN A   1      17.797   0.117  13.053  0.00  0.00     0.083 C 
ENDROOT
BRANCH  20  22
ATOM     22  O36 ZIN A   1      18.431   1.451  11.149  0.00  0.00    -0.351 OA
BRANCH  22  23
ATOM     23  C37 ZIN A   1      17.241   2.108  11.588  0.00  0.00     0.263 C 
ATOM     24  O55 ZIN A   1      16.942   3.193  10.707  0.00  0.00    -0.354 OA
ATOM     25  C52 ZIN A   1      17.979   4.173  10.616  0.00  0.00     0.151 C 
ATOM     26  C49 ZIN A   1      18.215   4.793  11.996  0.00  0.00     0.171 C 
ATOM     27  C54 ZIN A   1      17.562   5.265   9.630  0.00  0.00     0.042 C 
ATOM     28  C40 ZIN A   1      18.573   3.684  12.991  0.00  0.00     0.147 C 
ATOM     29  C39 ZIN A   1      17.448   2.646  13.007  0.00  0.00     0.090 C 
BRANCH  26  30
ATOM     30  O51 ZIN A   1      17.029   5.461  12.430  0.00  0.00    -0.391 OA
ATOM     31  H80 ZIN A   1      16.282   5.372  11.821  0.00  0.00     0.210 HD
ENDBRANCH  26  30
BRANCH  28  32
ATOM     32  N42 ZIN A   1      18.728   4.258  14.331  0.00  0.00    -0.240 NA
ATOM     33  C43 ZIN A   1      19.712   5.147  14.573  0.00  0.00     0.346 C 
ATOM     34  O44 ZIN A   1      20.469   5.470  13.683  0.00  0.00    -0.261 OA
BRANCH  33  35
ATOM     35  C45 ZIN A   1      19.871   5.736  15.950  0.00  0.00     0.474 C 
ATOM     36  F46 ZIN A   1      19.071   6.877  16.064  0.00  0.00    -0.162 F 
ATOM     37  F47 ZIN A   1      19.480   4.795  16.909  0.00  0.00    -0.162 F 
ATOM     38  F48 ZIN A   1      21.211   6.083  16.158  0.00  0.00    -0.162 F 
ENDBRANCH  33  35
ENDBRANCH  28  32
ENDBRANCH  22  23
ENDBRANCH  20  22
BRANCH   1  39
ATOM     39  C9  ZIN A   1      19.417  -1.603  13.826  0.00  0.00     0.185 C 
ATOM     40  O10 ZIN A   1      19.927  -2.492  13.186  0.00  0.00    -0.292 OA
BRANCH  39  41
ATOM     41  C8  ZIN A   1      20.243  -0.808  14.803  0.00  0.00     0.260 C 
BRANCH  41  42
ATOM     42  O7  ZIN A   1      19.656  -0.909  16.127  0.00  0.00    -0.314 OA
BRANCH  42  43
ATOM     43  C5  ZIN A   1      19.237   0.231  16.697  0.00  0.00     0.259 C 
ATOM     44  O6  ZIN A   1      19.038   1.209  16.016  0.00  0.00    -0.265 OA
BRANCH  43  45
ATOM     45  C4  ZIN A   1      19.012   0.293  18.186  0.00  0.00     0.111 C 
BRANCH  45  46
ATOM     46  C3  ZIN A   1      18.823   1.750  18.615  0.00  0.00     0.009 C 
BRANCH  46  47
ATOM     47  C2  ZIN A   1      17.365   1.977  19.018  0.00  0.00    -0.004 C 
ATOM     48  C1  ZIN A   1      17.109   3.477  19.182  0.00  0.00     0.005 C 
ENDBRANCH  46  47
ENDBRANCH  45  46
ENDBRANCH  43  45
ENDBRANCH  42  43
ENDBRANCH  41  42
ENDBRANCH  39  41
ENDBRANCH   1  39
BRANCH   1  49
ATOM     49  O12 ZIN A   1      17.289  -1.356  14.909  0.00  0.00    -0.382 OA
ATOM     50  H68 ZIN A   1      16.960  -0.503  15.226  0.00  0.00     0.211 HD
ENDBRANCH   1  49
BRANCH   4  51
ATOM     51  O16 ZIN A   1      17.070  -4.279  10.765  0.00  0.00    -0.359 OA
ATOM     52  H71 ZIN A   1      16.915  -4.909  10.049  0.00  0.00     0.217 HD
ENDBRANCH   4  51
BRANCH  10  53
ATOM     53  O23 ZIN A   1      19.606  -1.249   4.493  0.00  0.00    -0.355 OA
ATOM     54  C24 ZIN A   1      18.760  -0.157   4.125  0.00  0.00     0.210 C 
ENDBRANCH  10  53
TORSDOF 15
ENDMDL
MODEL 5
REMARK VINA RESULT:      -6.3      4.531      8.969
REMARK  15 active torsions:
REMARK  status: ('A' for Active; 'I' for Inactive)
REMARK    1  A    between atoms: C2_2  and  C3_3 
REMARK    2  A    between atoms: C3_3  and  C4_4 
REMARK    3  A    between atoms: C4_4  and  C5_5 
REMARK    4  A    between atoms: C5_5  and  O7_7 
REMARK    5  A    between atoms: O7_7  and  C8_8 
REMARK    6  A    between atoms: C8_8  and  C9_9 
REMARK    7  A    between atoms: C9_9  and  C11_11 
REMARK    8  A    between atoms: C11_11  and  O12_12 
REMARK    9  A    between atoms: C15_15  and  O16_16 
REMARK   10  A    between atoms: C22_22  and  O23_23 
REMARK   11  A    between atoms: C34_34  and  O36_35 
REMARK   12  A    between atoms: O36_35  and  C37_36 
REMARK   13  A    between atoms: C40_38  and  N42_39 
REMARK       I    between atoms: N42_39  and  C43_40 
REMARK   14  A    between atoms: C43_40  and  C45_42 
REMARK   15  A    between atoms: C49_46  and  O51_47 
ROOT
ATOM      1  C11 ZIN A   1      17.645   3.016  11.957  0.00  0.00     0.127 C 
ATOM      2  C13 ZIN A   1      16.604   4.020  12.444  0.00  0.00     0.088 C 
ATOM      3  C14 ZIN A   1      17.034   4.645  13.745  0.00  0.00    -0.009 A 
ATOM      4  C15 ZIN A   1      16.400   5.835  14.129  0.00  0.00     0.088 A 
ATOM      5  C17 ZIN A   1      16.743   6.464  15.323  0.00  0.00     0.066 A 
ATOM      6  C18 ZIN A   1      17.735   5.893  16.147  0.00  0.00     0.069 A 
ATOM      7  C19 ZIN A   1      18.099   6.551  17.415  0.00  0.00     0.200 C 
ATOM      8  O20 ZIN A   1      19.106   6.224  18.012  0.00  0.00    -0.286 OA
ATOM      9  C21 ZIN A   1      17.225   7.613  17.952  0.00  0.00     0.062 A 
ATOM     10  C22 ZIN A   1      17.369   8.055  19.269  0.00  0.00     0.083 A 
ATOM     11  C25 ZIN A   1      16.533   9.057  19.754  0.00  0.00     0.038 A 
ATOM     12  C26 ZIN A   1      15.567   9.614  18.942  0.00  0.00     0.004 A 
ATOM     13  C27 ZIN A   1      15.413   9.185  17.633  0.00  0.00     0.017 A 
ATOM     14  C28 ZIN A   1      16.236   8.185  17.129  0.00  0.00     0.032 A 
ATOM     15  C29 ZIN A   1      16.082   7.716  15.735  0.00  0.00     0.197 C 
ATOM     16  O30 ZIN A   1      15.419   8.354  14.940  0.00  0.00    -0.286 OA
ATOM     17  C31 ZIN A   1      18.357   4.712  15.750  0.00  0.00     0.132 A 
ATOM     18  O32 ZIN A   1      19.312   4.158  16.537  0.00  0.00    -0.190 OA
ATOM     19  C33 ZIN A   1      18.003   4.093  14.545  0.00  0.00     0.018 A 
ATOM     20  C34 ZIN A   1      18.730   2.824  14.180  0.00  0.00     0.164 C 
ATOM     21  C56 ZIN A   1      17.964   2.053  13.107  0.00  0.00     0.083 C 
ENDROOT
BRANCH  20  22
ATOM     22  O36 ZIN A   1      18.864   2.006  15.343  0.00  0.00    -0.351 OA
BRANCH  22  23
ATOM     23  C37 ZIN A   1      17.732   1.172  15.601  0.00  0.00     0.263 C 
ATOM     24  O55 ZIN A   1      17.802   0.676  16.940  0.00  0.00    -0.354 OA
ATOM     25  C52 ZIN A   1      18.982  -0.083  17.219  0.00  0.00     0.151 C 
ATOM     26  C49 ZIN A   1      19.028  -1.309  16.303  0.00  0.00     0.171 C 
ATOM     27  C54 ZIN A   1      18.961  -0.537  18.680  0.00  0.00     0.042 C 
ATOM     28  C40 ZIN A   1      18.987  -0.847  14.843  0.00  0.00     0.147 C 
ATOM     29  C39 ZIN A   1      17.728  -0.003  14.621  0.00  0.00     0.090 C 
BRANCH  26  30
ATOM     30  O51 ZIN A   1      17.903  -2.148  16.571  0.00  0.00    -0.391 OA
ATOM     31  H80 ZIN A   1      17.644  -2.174  17.502  0.00  0.00     0.210 HD
ENDBRANCH  26  30
BRANCH  28  32
ATOM     32  N42 ZIN A   1      18.956  -2.015  13.959  0.00  0.00    -0.240 NA
ATOM     33  C43 ZIN A   1      19.463  -1.931  12.713  0.00  0.00     0.346 C 
ATOM     34  O44 ZIN A   1      19.944  -0.889  12.324  0.00  0.00    -0.261 OA
BRANCH  33  35
ATOM     35  C45 ZIN A   1      19.431  -3.132  11.805  0.00  0.00     0.474 C 
ATOM     36  F46 ZIN A   1      18.367  -3.964  12.169  0.00  0.00    -0.162 F 
ATOM     37  F47 ZIN A   1      19.260  -2.712  10.481  0.00  0.00    -0.162 F 
ATOM     38  F48 ZIN A   1      20.634  -3.837  11.918  0.00  0.00    -0.162 F 
ENDBRANCH  33  35
ENDBRANCH  28  32
ENDBRANCH  22  23
ENDBRANCH  20  22
BRANCH   1  39
ATOM     39  C9  ZIN A   1      18.898   3.745  11.542  0.00  0.00     0.185 C 
ATOM     40  O10 ZIN A   1      19.061   4.897  11.866  0.00  0.00    -0.292 OA
BRANCH  39  41
ATOM     41  C8  ZIN A   1      19.946   3.035  10.725  0.00  0.00     0.260 C 
BRANCH  41  42
ATOM     42  O7  ZIN A   1      19.488   2.911   9.353  0.00  0.00    -0.314 OA
BRANCH  42  43
ATOM     43  C5  ZIN A   1      19.390   1.670   8.852  0.00  0.00     0.259 C 
ATOM     44  O6  ZIN A   1      19.406   0.717   9.595  0.00  0.00    -0.265 OA
BRANCH  43  45
ATOM     45  C4  ZIN A   1      19.257   1.464   7.365  0.00  0.00     0.111 C 
BRANCH  45  46
ATOM     46  C3  ZIN A   1      18.626   0.097   7.093  0.00  0.00     0.009 C 
BRANCH  46  47
ATOM     47  C2  ZIN A   1      17.726   0.188   5.860  0.00  0.00    -0.004 C 
ATOM     48  C1  ZIN A   1      18.529  -0.188   4.613  0.00  0.00     0.005 C 
ENDBRANCH  46  47
ENDBRANCH  45  46
ENDBRANCH  43  45
ENDBRANCH  42  43
ENDBRANCH  41  42
ENDBRANCH  39  41
ENDBRANCH   1  39
BRANCH   1  49
ATOM     49  O12 ZIN A   1      17.126   2.283  10.845  0.00  0.00    -0.382 OA
ATOM     50  H68 ZIN A   1      16.161   2.218  10.832  0.00  0.00     0.211 HD
ENDBRANCH   1  49
BRANCH   4  51
ATOM     51  O16 ZIN A   1      15.447   6.378  13.331  0.00  0.00    -0.359 OA
ATOM     52  H71 ZIN A   1      15.027   5.745  12.734  0.00  0.00     0.217 HD
ENDBRANCH   4  51
BRANCH  10  53
ATOM     53  O23 ZIN A   1      18.318   7.511  20.071  0.00  0.00    -0.355 OA
ATOM     54  C24 ZIN A   1      18.765   8.301  21.174  0.00  0.00     0.210 C 
ENDBRANCH  10  53
TORSDOF 15
ENDMDL
MODEL 6
REMARK VINA RESULT:      -6.3      3.829      9.229
REMARK  15 active torsions:
REMARK  status: ('A' for Active; 'I' for Inactive)
REMARK    1  A    between atoms: C2_2  and  C3_3 
REMARK    2  A    between atoms: C3_3  and  C4_4 
REMARK    3  A    between atoms: C4_4  and  C5_5 
REMARK    4  A    between atoms: C5_5  and  O7_7 
REMARK    5  A    between atoms: O7_7  and  C8_8 
REMARK    6  A    between atoms: C8_8  and  C9_9 
REMARK    7  A    between atoms: C9_9  and  C11_11 
REMARK    8  A    between atoms: C11_11  and  O12_12 
REMARK    9  A    between atoms: C15_15  and  O16_16 
REMARK   10  A    between atoms: C22_22  and  O23_23 
REMARK   11  A    between atoms: C34_34  and  O36_35 
REMARK   12  A    between atoms: O36_35  and  C37_36 
REMARK   13  A    between atoms: C40_38  and  N42_39 
REMARK       I    between atoms: N42_39  and  C43_40 
REMARK   14  A    between atoms: C43_40  and  C45_42 
REMARK   15  A    between atoms: C49_46  and  O51_47 
ROOT
ATOM      1  C11 ZIN A   1      17.472  -3.450  10.957  0.00  0.00     0.127 C 
ATOM      2  C13 ZIN A   1      16.371  -4.321  10.355  0.00  0.00     0.088 C 
ATOM      3  C14 ZIN A   1      16.792  -4.862   9.014  0.00  0.00    -0.009 A 
ATOM      4  C15 ZIN A   1      16.080  -5.958   8.510  0.00  0.00     0.088 A 
ATOM      5  C17 ZIN A   1      16.410  -6.506   7.272  0.00  0.00     0.066 A 
ATOM      6  C18 ZIN A   1      17.470  -5.947   6.528  0.00  0.00     0.069 A 
ATOM      7  C19 ZIN A   1      17.821  -6.519   5.215  0.00  0.00     0.200 C 
ATOM      8  O20 ZIN A   1      18.870  -6.223   4.676  0.00  0.00    -0.286 OA
ATOM      9  C21 ZIN A   1      16.884  -7.455   4.563  0.00  0.00     0.062 A 
ATOM     10  C22 ZIN A   1      17.035  -7.790   3.216  0.00  0.00     0.083 A 
ATOM     11  C25 ZIN A   1      16.140  -8.675   2.622  0.00  0.00     0.038 A 
ATOM     12  C26 ZIN A   1      15.107  -9.221   3.356  0.00  0.00     0.004 A 
ATOM     13  C27 ZIN A   1      14.946  -8.897   4.695  0.00  0.00     0.017 A 
ATOM     14  C28 ZIN A   1      15.828  -8.015   5.306  0.00  0.00     0.032 A 
ATOM     15  C29 ZIN A   1      15.666  -7.659   6.733  0.00  0.00     0.197 C 
ATOM     16  O30 ZIN A   1      14.930  -8.308   7.450  0.00  0.00    -0.286 OA
ATOM     17  C31 ZIN A   1      18.170  -4.860   7.045  0.00  0.00     0.132 A 
ATOM     18  O32 ZIN A   1      19.190  -4.318   6.335  0.00  0.00    -0.190 OA
ATOM     19  C33 ZIN A   1      17.827  -4.322   8.291  0.00  0.00     0.018 A 
ATOM     20  C34 ZIN A   1      18.639  -3.154   8.788  0.00  0.00     0.164 C 
ATOM     21  C56 ZIN A   1      17.902  -2.420   9.906  0.00  0.00     0.083 C 
ENDROOT
BRANCH  20  22
ATOM     22  O36 ZIN A   1      18.874  -2.249   7.707  0.00  0.00    -0.351 OA
BRANCH  22  23
ATOM     23  C37 ZIN A   1      17.735  -1.467   7.344  0.00  0.00     0.263 C 
ATOM     24  O55 ZIN A   1      17.796  -1.152   5.952  0.00  0.00    -0.354 OA
ATOM     25  C52 ZIN A   1      18.968  -0.429   5.568  0.00  0.00     0.151 C 
ATOM     26  C49 ZIN A   1      19.007   0.908   6.313  0.00  0.00     0.171 C 
ATOM     27  C54 ZIN A   1      18.939  -0.174   4.060  0.00  0.00     0.042 C 
ATOM     28  C40 ZIN A   1      18.975   0.645   7.821  0.00  0.00     0.147 C 
ATOM     29  C39 ZIN A   1      17.724  -0.171   8.160  0.00  0.00     0.090 C 
BRANCH  26  30
ATOM     30  O51 ZIN A   1      17.875   1.696   5.941  0.00  0.00    -0.391 OA
ATOM     31  H80 ZIN A   1      17.629   1.616   5.008  0.00  0.00     0.210 HD
ENDBRANCH  26  30
BRANCH  28  32
ATOM     32  N42 ZIN A   1      18.937   1.921   8.542  0.00  0.00    -0.240 NA
ATOM     33  C43 ZIN A   1      18.590   1.948   9.844  0.00  0.00     0.346 C 
ATOM     34  O44 ZIN A   1      18.309   0.918  10.419  0.00  0.00    -0.261 OA
BRANCH  33  35
ATOM     35  C45 ZIN A   1      18.551   3.259  10.585  0.00  0.00     0.474 C 
ATOM     36  F46 ZIN A   1      19.816   3.534  11.115  0.00  0.00    -0.162 F 
ATOM     37  F47 ZIN A   1      18.184   4.283   9.703  0.00  0.00    -0.162 F 
ATOM     38  F48 ZIN A   1      17.617   3.182  11.623  0.00  0.00    -0.162 F 
ENDBRANCH  33  35
ENDBRANCH  28  32
ENDBRANCH  22  23
ENDBRANCH  20  22
BRANCH   1  39
ATOM     39  C9  ZIN A   1      18.650  -4.312  11.335  0.00  0.00     0.185 C 
ATOM     40  O10 ZIN A   1      18.510  -5.506  11.455  0.00  0.00    -0.292 OA
BRANCH  39  41
ATOM     41  C8  ZIN A   1      20.000  -3.684  11.562  0.00  0.00     0.260 C 
BRANCH  41  42
ATOM     42  O7  ZIN A   1      19.932  -2.792  12.706  0.00  0.00    -0.314 OA
BRANCH  42  43
ATOM     43  C5  ZIN A   1      20.038  -1.477  12.462  0.00  0.00     0.259 C 
ATOM     44  O6  ZIN A   1      20.590  -1.092  11.458  0.00  0.00    -0.265 OA
BRANCH  43  45
ATOM     45  C4  ZIN A   1      19.468  -0.480  13.438  0.00  0.00     0.111 C 
BRANCH  45  46
ATOM     46  C3  ZIN A   1      18.948  -1.216  14.674  0.00  0.00     0.009 C 
BRANCH  46  47
ATOM     47  C2  ZIN A   1      17.768  -0.446  15.267  0.00  0.00    -0.004 C 
ATOM     48  C1  ZIN A   1      17.613  -0.807  16.746  0.00  0.00     0.005 C 
ENDBRANCH  46  47
ENDBRANCH  45  46
ENDBRANCH  43  45
ENDBRANCH  42  43
ENDBRANCH  41  42
ENDBRANCH  39  41
ENDBRANCH   1  39
BRANCH   1  49
ATOM     49  O12 ZIN A   1      16.977  -2.778  12.116  0.00  0.00    -0.382 OA
ATOM     50  H68 ZIN A   1      16.214  -3.210  12.526  0.00  0.00     0.211 HD
ENDBRANCH   1  49
BRANCH   4  51
ATOM     51  O16 ZIN A   1      15.062  -6.490   9.231  0.00  0.00    -0.359 OA
ATOM     52  H71 ZIN A   1      15.132  -7.445   9.364  0.00  0.00     0.217 HD
ENDBRANCH   4  51
BRANCH  10  53
ATOM     53  O23 ZIN A   1      18.049  -7.256   2.490  0.00  0.00    -0.355 OA
ATOM     54  C24 ZIN A   1      18.837  -8.162   1.715  0.00  0.00     0.210 C 
ENDBRANCH  10  53
TORSDOF 15
ENDMDL
