MODEL 1
REMARK VINA RESULT:      -8.9      0.000      0.000
REMARK  9 active torsions:
REMARK  status: ('A' for Active; 'I' for Inactive)
REMARK    1  A    between atoms: C2_2  and  O3_3 
REMARK    2  A    between atoms: O3_3  and  C4_4 
REMARK    3  A    between atoms: C4_4  and  C6_6 
REMARK    4  A    between atoms: C6_6  and  C7_7 
REMARK    5  A    between atoms: N15_15  and  C16_16 
REMARK    6  A    between atoms: C16_16  and  C17_17 
REMARK    7  A    between atoms: C17_17  and  C18_18 
REMARK    8  A    between atoms: C18_18  and  C21_21 
REMARK    9  A    between atoms: C18_18  and  C27_27 
ROOT
ATOM      1  C18 ZIN A   1      18.627   1.674  13.737  0.00  0.00     0.104 C 
ATOM      2  C19 ZIN A   1      19.871   1.138  13.160  0.00  0.00     0.079 C 
ATOM      3  N20 ZIN A   1      20.830   0.725  12.713  0.00  0.00    -0.196 NA
ENDROOT
BRANCH   1   4
ATOM      4  C17 ZIN A   1      17.458   1.377  12.795  0.00  0.00     0.065 C 
BRANCH   4   5
ATOM      5  C16 ZIN A   1      17.373   2.469  11.728  0.00  0.00     0.275 C 
BRANCH   5   6
ATOM      6  N15 ZIN A   1      17.613   1.879  10.404  0.00  0.00     0.088 N 
ATOM      7  C14 ZIN A   1      17.185   0.474  10.368  0.00  0.00     0.274 C 
ATOM      8  C13 ZIN A   1      17.313  -0.064   8.941  0.00  0.00     0.055 C 
ATOM      9  C6  ZIN A   1      18.769   0.057   8.484  0.00  0.00     0.078 C 
ATOM     10  C34 ZIN A   1      19.205   1.523   8.577  0.00  0.00     0.055 C 
ATOM     11  C33 ZIN A   1      19.022   2.015  10.014  0.00  0.00     0.274 C 
BRANCH   9  12
ATOM     12  C4  ZIN A   1      19.648  -0.786   9.372  0.00  0.00     0.272 C 
ATOM     13  O5  ZIN A   1      20.787  -0.448   9.590  0.00  0.00    -0.264 OA
BRANCH  12  14
ATOM     14  O3  ZIN A   1      19.164  -1.911   9.922  0.00  0.00    -0.321 OA
BRANCH  14  15
ATOM     15  C2  ZIN A   1      19.744  -2.330  11.186  0.00  0.00     0.174 C 
ATOM     16  C1  ZIN A   1      18.683  -2.250  12.285  0.00  0.00     0.034 C 
ENDBRANCH  14  15
ENDBRANCH  12  14
ENDBRANCH   9  12
BRANCH   9  17
ATOM     17  C7  ZIN A   1      18.892  -0.415   7.059  0.00  0.00    -0.040 A 
ATOM     18  C12 ZIN A   1      18.932   0.504   6.027  0.00  0.00     0.008 A 
ATOM     19  C11 ZIN A   1      19.049   0.071   4.719  0.00  0.00     0.001 A 
ATOM     20  C10 ZIN A   1      19.115  -1.281   4.443  0.00  0.00     0.000 A 
ATOM     21  C9  ZIN A   1      19.068  -2.201   5.474  0.00  0.00     0.001 A 
ATOM     22  C8  ZIN A   1      18.957  -1.768   6.781  0.00  0.00     0.008 A 
ENDBRANCH   9  17
ENDBRANCH   5   6
ENDBRANCH   4   5
ENDBRANCH   1   4
BRANCH   1  23
ATOM     23  C21 ZIN A   1      18.759   3.164  13.918  0.00  0.00    -0.031 A 
ATOM     24  C26 ZIN A   1      19.702   3.868  13.193  0.00  0.00     0.009 A 
ATOM     25  C25 ZIN A   1      19.822   5.235  13.357  0.00  0.00     0.001 A 
ATOM     26  C24 ZIN A   1      19.003   5.898  14.252  0.00  0.00     0.000 A 
ATOM     27  C23 ZIN A   1      18.063   5.193  14.982  0.00  0.00     0.001 A 
ATOM     28  C22 ZIN A   1      17.942   3.826  14.815  0.00  0.00     0.009 A 
ENDBRANCH   1  23
BRANCH   1  29
ATOM     29  C27 ZIN A   1      18.374   1.025  15.073  0.00  0.00    -0.031 A 
ATOM     30  C32 ZIN A   1      19.221   1.276  16.136  0.00  0.00     0.009 A 
ATOM     31  C31 ZIN A   1      18.986   0.685  17.362  0.00  0.00     0.001 A 
ATOM     32  C30 ZIN A   1      17.908  -0.165  17.524  0.00  0.00     0.000 A 
ATOM     33  C29 ZIN A   1      17.063  -0.421  16.460  0.00  0.00     0.001 A 
ATOM     34  C28 ZIN A   1      17.296   0.174  15.234  0.00  0.00     0.009 A 
ENDBRANCH   1  29
TORSDOF 9
ENDMDL
MODEL 2
REMARK VINA RESULT:      -8.7      3.094      8.790
REMARK  9 active torsions:
REMARK  status: ('A' for Active; 'I' for Inactive)
REMARK    1  A    between atoms: C2_2  and  O3_3 
REMARK    2  A    between atoms: O3_3  and  C4_4 
REMARK    3  A    between atoms: C4_4  and  C6_6 
REMARK    4  A    between atoms: C6_6  and  C7_7 
REMARK    5  A    between atoms: N15_15  and  C16_16 
REMARK    6  A    between atoms: C16_16  and  C17_17 
REMARK    7  A    between atoms: C17_17  and  C18_18 
REMARK    8  A    between atoms: C18_18  and  C21_21 
REMARK    9  A    between atoms: C18_18  and  C27_27 
ROOT
ATOM      1  C18 ZIN A   1      18.496  -4.408   8.388  0.00  0.00     0.104 C 
ATOM      2  C19 ZIN A   1      19.686  -5.144   7.931  0.00  0.00     0.079 C 
ATOM      3  N20 ZIN A   1      20.605  -5.712   7.579  0.00  0.00    -0.196 NA
ENDROOT
BRANCH   1   4
ATOM      4  C17 ZIN A   1      18.495  -4.339   9.917  0.00  0.00     0.065 C 
BRANCH   4   5
ATOM      5  C16 ZIN A   1      19.863  -3.862  10.407  0.00  0.00     0.275 C 
BRANCH   5   6
ATOM      6  N15 ZIN A   1      19.684  -2.950  11.545  0.00  0.00     0.088 N 
ATOM      7  C14 ZIN A   1      18.305  -3.001  12.049  0.00  0.00     0.274 C 
ATOM      8  C13 ZIN A   1      18.193  -2.155  13.319  0.00  0.00     0.055 C 
ATOM      9  C6  ZIN A   1      18.586  -0.710  12.999  0.00  0.00     0.078 C 
ATOM     10  C34 ZIN A   1      20.008  -0.690  12.431  0.00  0.00     0.055 C 
ATOM     11  C33 ZIN A   1      20.068  -1.579  11.187  0.00  0.00     0.274 C 
BRANCH   9  12
ATOM     12  C4  ZIN A   1      17.630  -0.140  11.982  0.00  0.00     0.272 C 
ATOM     13  O5  ZIN A   1      16.445  -0.348  12.085  0.00  0.00    -0.264 OA
BRANCH  12  14
ATOM     14  O3  ZIN A   1      18.097   0.599  10.964  0.00  0.00    -0.321 OA
BRANCH  14  15
ATOM     15  C2  ZIN A   1      17.714   2.000  10.936  0.00  0.00     0.174 C 
ATOM     16  C1  ZIN A   1      18.467   2.711   9.810  0.00  0.00     0.034 C 
ENDBRANCH  14  15
ENDBRANCH  12  14
ENDBRANCH   9  12
BRANCH   9  17
ATOM     17  C7  ZIN A   1      18.535   0.117  14.258  0.00  0.00    -0.040 A 
ATOM     18  C12 ZIN A   1      19.149   1.355  14.297  0.00  0.00     0.008 A 
ATOM     19  C11 ZIN A   1      19.099   2.116  15.449  0.00  0.00     0.001 A 
ATOM     20  C10 ZIN A   1      18.444   1.634  16.567  0.00  0.00     0.000 A 
ATOM     21  C9  ZIN A   1      17.835   0.394  16.530  0.00  0.00     0.001 A 
ATOM     22  C8  ZIN A   1      17.881  -0.364  15.376  0.00  0.00     0.008 A 
ENDBRANCH   9  17
ENDBRANCH   5   6
ENDBRANCH   4   5
ENDBRANCH   1   4
BRANCH   1  23
ATOM     23  C21 ZIN A   1      17.254  -5.120   7.916  0.00  0.00    -0.031 A 
ATOM     24  C26 ZIN A   1      17.157  -5.543   6.604  0.00  0.00     0.009 A 
ATOM     25  C25 ZIN A   1      16.020  -6.198   6.172  0.00  0.00     0.001 A 
ATOM     26  C24 ZIN A   1      14.976  -6.424   7.050  0.00  0.00     0.000 A 
ATOM     27  C23 ZIN A   1      15.071  -5.995   8.361  0.00  0.00     0.001 A 
ATOM     28  C22 ZIN A   1      16.210  -5.343   8.794  0.00  0.00     0.009 A 
ENDBRANCH   1  23
BRANCH   1  29
ATOM     29  C27 ZIN A   1      18.521  -3.012   7.823  0.00  0.00    -0.031 A 
ATOM     30  C32 ZIN A   1      19.288  -2.730   6.707  0.00  0.00     0.009 A 
ATOM     31  C31 ZIN A   1      19.307  -1.451   6.186  0.00  0.00     0.001 A 
ATOM     32  C30 ZIN A   1      18.565  -0.450   6.785  0.00  0.00     0.000 A 
ATOM     33  C29 ZIN A   1      17.802  -0.729   7.904  0.00  0.00     0.001 A 
ATOM     34  C28 ZIN A   1      17.780  -2.010   8.422  0.00  0.00     0.009 A 
ENDBRANCH   1  29
TORSDOF 9
ENDMDL
MODEL 3
REMARK VINA RESULT:      -8.7      1.947      2.914
REMARK  9 active torsions:
REMARK  status: ('A' for Active; 'I' for Inactive)
REMARK    1  A    between atoms: C2_2  and  O3_3 
REMARK    2  A    between atoms: O3_3  and  C4_4 
REMARK    3  A    between atoms: C4_4  and  C6_6 
REMARK    4  A    between atoms: C6_6  and  C7_7 
REMARK    5  A    between atoms: N15_15  and  C16_16 
REMARK    6  A    between atoms: C16_16  and  C17_17 
REMARK    7  A    between atoms: C17_17  and  C18_18 
REMARK    8  A    between atoms: C18_18  and  C21_21 
REMARK    9  A    between atoms: C18_18  and  C27_27 
ROOT
ATOM      1  C18 ZIN A   1      18.428   4.510  14.444  0.00  0.00     0.104 C 
ATOM      2  C19 ZIN A   1      19.612   5.267  14.878  0.00  0.00     0.079 C 
ATOM      3  N20 ZIN A   1      20.527   5.852  15.212  0.00  0.00    -0.196 NA
ENDROOT
BRANCH   1   4
ATOM      4  C17 ZIN A   1      18.404   4.429  12.916  0.00  0.00     0.065 C 
BRANCH   4   5
ATOM      5  C16 ZIN A   1      19.780   3.993  12.407  0.00  0.00     0.275 C 
BRANCH   5   6
ATOM      6  N15 ZIN A   1      19.614   3.048  11.296  0.00  0.00     0.088 N 
ATOM      7  C14 ZIN A   1      18.230   3.053  10.803  0.00  0.00     0.274 C 
ATOM      8  C13 ZIN A   1      18.128   2.169   9.557  0.00  0.00     0.055 C 
ATOM      9  C6  ZIN A   1      18.558   0.743   9.912  0.00  0.00     0.078 C 
ATOM     10  C34 ZIN A   1      19.985   0.772  10.469  0.00  0.00     0.055 C 
ATOM     11  C33 ZIN A   1      20.033   1.696  11.688  0.00  0.00     0.274 C 
BRANCH   9  12
ATOM     12  C4  ZIN A   1      17.624   0.179  10.952  0.00  0.00     0.272 C 
ATOM     13  O5  ZIN A   1      16.458   0.495  10.952  0.00  0.00    -0.264 OA
BRANCH  12  14
ATOM     14  O3  ZIN A   1      18.088  -0.675  11.878  0.00  0.00    -0.321 OA
BRANCH  14  15
ATOM     15  C2  ZIN A   1      17.543  -2.021  11.866  0.00  0.00     0.174 C 
ATOM     16  C1  ZIN A   1      18.687  -3.035  11.892  0.00  0.00     0.034 C 
ENDBRANCH  14  15
ENDBRANCH  12  14
ENDBRANCH   9  12
BRANCH   9  17
ATOM     17  C7  ZIN A   1      18.517  -0.119   8.677  0.00  0.00    -0.040 A 
ATOM     18  C12 ZIN A   1      17.708   0.236   7.613  0.00  0.00     0.008 A 
ATOM     19  C11 ZIN A   1      17.673  -0.552   6.478  0.00  0.00     0.001 A 
ATOM     20  C10 ZIN A   1      18.440  -1.701   6.411  0.00  0.00     0.000 A 
ATOM     21  C9  ZIN A   1      19.244  -2.059   7.477  0.00  0.00     0.001 A 
ATOM     22  C8  ZIN A   1      19.282  -1.268   8.610  0.00  0.00     0.008 A 
ENDBRANCH   9  17
ENDBRANCH   5   6
ENDBRANCH   4   5
ENDBRANCH   1   4
BRANCH   1  23
ATOM     23  C21 ZIN A   1      17.181   5.206  14.929  0.00  0.00    -0.031 A 
ATOM     24  C26 ZIN A   1      17.077   5.594  16.251  0.00  0.00     0.009 A 
ATOM     25  C25 ZIN A   1      15.936   6.235  16.696  0.00  0.00     0.001 A 
ATOM     26  C24 ZIN A   1      14.896   6.481  15.819  0.00  0.00     0.000 A 
ATOM     27  C23 ZIN A   1      14.998   6.087  14.497  0.00  0.00     0.001 A 
ATOM     28  C22 ZIN A   1      16.140   5.449  14.053  0.00  0.00     0.009 A 
ENDBRANCH   1  23
BRANCH   1  29
ATOM     29  C27 ZIN A   1      18.482   3.118  15.019  0.00  0.00    -0.031 A 
ATOM     30  C32 ZIN A   1      19.248   2.864  16.142  0.00  0.00     0.009 A 
ATOM     31  C31 ZIN A   1      19.294   1.588  16.673  0.00  0.00     0.001 A 
ATOM     32  C30 ZIN A   1      18.582   0.565  16.075  0.00  0.00     0.000 A 
ATOM     33  C29 ZIN A   1      17.820   0.818  14.949  0.00  0.00     0.001 A 
ATOM     34  C28 ZIN A   1      17.771   2.094  14.421  0.00  0.00     0.009 A 
ENDBRANCH   1  29
TORSDOF 9
ENDMDL
MODEL 4
REMARK VINA RESULT:      -8.6      2.239      3.545
REMARK  9 active torsions:
REMARK  status: ('A' for Active; 'I' for Inactive)
REMARK    1  A    between atoms: C2_2  and  O3_3 
REMARK    2  A    between atoms: O3_3  and  C4_4 
REMARK    3  A    between atoms: C4_4  and  C6_6 
REMARK    4  A    between atoms: C6_6  and  C7_7 
REMARK    5  A    between atoms: N15_15  and  C16_16 
REMARK    6  A    between atoms: C16_16  and  C17_17 
REMARK    7  A    between atoms: C17_17  and  C18_18 
REMARK    8  A    between atoms: C18_18  and  C21_21 
REMARK    9  A    between atoms: C18_18  and  C27_27 
ROOT
ATOM      1  C18 ZIN A   1      18.933   4.972  15.505  0.00  0.00     0.104 C 
ATOM      2  C19 ZIN A   1      20.212   5.693  15.605  0.00  0.00     0.079 C 
ATOM      3  N20 ZIN A   1      21.200   6.249  15.681  0.00  0.00    -0.196 NA
ENDROOT
BRANCH   1   4
ATOM      4  C17 ZIN A   1      18.941   4.088  14.255  0.00  0.00     0.065 C 
BRANCH   4   5
ATOM      5  C16 ZIN A   1      19.398   4.913  13.051  0.00  0.00     0.275 C 
BRANCH   5   6
ATOM      6  N15 ZIN A   1      19.144   4.159  11.817  0.00  0.00     0.088 N 
ATOM      7  C14 ZIN A   1      17.819   3.526  11.850  0.00  0.00     0.274 C 
ATOM      8  C13 ZIN A   1      17.529   2.874  10.496  0.00  0.00     0.055 C 
ATOM      9  C6  ZIN A   1      18.607   1.829  10.198  0.00  0.00     0.078 C 
ATOM     10  C34 ZIN A   1      19.982   2.504  10.217  0.00  0.00     0.055 C 
ATOM     11  C33 ZIN A   1      20.200   3.167  11.578  0.00  0.00     0.274 C 
BRANCH   9  12
ATOM     12  C4  ZIN A   1      18.564   0.746  11.246  0.00  0.00     0.272 C 
ATOM     13  O5  ZIN A   1      19.529   0.042  11.427  0.00  0.00    -0.264 OA
BRANCH  12  14
ATOM     14  O3  ZIN A   1      17.454   0.566  11.979  0.00  0.00    -0.321 OA
BRANCH  14  15
ATOM     15  C2  ZIN A   1      17.573  -0.269  13.161  0.00  0.00     0.174 C 
ATOM     16  C1  ZIN A   1      17.545   0.611  14.412  0.00  0.00     0.034 C 
ENDBRANCH  14  15
ENDBRANCH  12  14
ENDBRANCH   9  12
BRANCH   9  17
ATOM     17  C7  ZIN A   1      18.362   1.224   8.839  0.00  0.00    -0.040 A 
ATOM     18  C12 ZIN A   1      17.416   0.228   8.686  0.00  0.00     0.008 A 
ATOM     19  C11 ZIN A   1      17.187  -0.324   7.439  0.00  0.00     0.001 A 
ATOM     20  C10 ZIN A   1      17.913   0.114   6.348  0.00  0.00     0.000 A 
ATOM     21  C9  ZIN A   1      18.864   1.106   6.501  0.00  0.00     0.001 A 
ATOM     22  C8  ZIN A   1      19.088   1.661   7.747  0.00  0.00     0.008 A 
ENDBRANCH   9  17
ENDBRANCH   5   6
ENDBRANCH   4   5
ENDBRANCH   1   4
BRANCH   1  23
ATOM     23  C21 ZIN A   1      17.803   5.965  15.411  0.00  0.00    -0.031 A 
ATOM     24  C26 ZIN A   1      16.549   5.548  15.007  0.00  0.00     0.009 A 
ATOM     25  C25 ZIN A   1      15.512   6.458  14.923  0.00  0.00     0.001 A 
ATOM     26  C24 ZIN A   1      15.731   7.787  15.235  0.00  0.00     0.000 A 
ATOM     27  C23 ZIN A   1      16.987   8.205  15.634  0.00  0.00     0.001 A 
ATOM     28  C22 ZIN A   1      18.023   7.294  15.721  0.00  0.00     0.009 A 
ENDBRANCH   1  23
BRANCH   1  29
ATOM     29  C27 ZIN A   1      18.744   4.111  16.727  0.00  0.00    -0.031 A 
ATOM     30  C32 ZIN A   1      18.056   4.604  17.821  0.00  0.00     0.009 A 
ATOM     31  C31 ZIN A   1      17.879   3.813  18.940  0.00  0.00     0.001 A 
ATOM     32  C30 ZIN A   1      18.398   2.532  18.970  0.00  0.00     0.000 A 
ATOM     33  C29 ZIN A   1      19.092   2.041  17.879  0.00  0.00     0.001 A 
ATOM     34  C28 ZIN A   1      19.265   2.830  16.757  0.00  0.00     0.009 A 
ENDBRANCH   1  29
TORSDOF 9
ENDMDL
MODEL 5
REMARK VINA RESULT:      -8.5      3.430      8.036
REMARK  9 active torsions:
REMARK  status: ('A' for Active; 'I' for Inactive)
REMARK    1  A    between atoms: C2_2  and  O3_3 
REMARK    2  A    between atoms: O3_3  and  C4_4 
REMARK    3  A    between atoms: C4_4  and  C6_6 
REMARK    4  A    between atoms: C6_6  and  C7_7 
REMARK    5  A    between atoms: N15_15  and  C16_16 
REMARK    6  A    between atoms: C16_16  and  C17_17 
REMARK    7  A    between atoms: C17_17  and  C18_18 
REMARK    8  A    between atoms: C18_18  and  C21_21 
REMARK    9  A    between atoms: C18_18  and  C27_27 
ROOT
ATOM      1  C18 ZIN A   1      18.440  -4.841   7.920  0.00  0.00     0.104 C 
ATOM      2  C19 ZIN A   1      19.828  -5.220   7.612  0.00  0.00     0.079 C 
ATOM      3  N20 ZIN A   1      20.900  -5.511   7.373  0.00  0.00    -0.196 NA
ENDROOT
BRANCH   1   4
ATOM      4  C17 ZIN A   1      18.118  -3.499   7.258  0.00  0.00     0.065 C 
BRANCH   4   5
ATOM      5  C16 ZIN A   1      19.411  -2.706   7.057  0.00  0.00     0.275 C 
BRANCH   5   6
ATOM      6  N15 ZIN A   1      19.321  -1.430   7.778  0.00  0.00     0.088 N 
ATOM      7  C14 ZIN A   1      20.051  -1.492   9.051  0.00  0.00     0.274 C 
ATOM      8  C13 ZIN A   1      20.059  -0.107   9.704  0.00  0.00     0.055 C 
ATOM      9  C6  ZIN A   1      18.616   0.346   9.943  0.00  0.00     0.078 C 
ATOM     10  C34 ZIN A   1      17.863   0.355   8.609  0.00  0.00     0.055 C 
ATOM     11  C33 ZIN A   1      17.920  -1.042   7.987  0.00  0.00     0.274 C 
BRANCH   9  12
ATOM     12  C4  ZIN A   1      17.939  -0.606  10.895  0.00  0.00     0.272 C 
ATOM     13  O5  ZIN A   1      16.755  -0.820  10.795  0.00  0.00    -0.264 OA
BRANCH  12  14
ATOM     14  O3  ZIN A   1      18.653  -1.216  11.854  0.00  0.00    -0.321 OA
BRANCH  14  15
ATOM     15  C2  ZIN A   1      18.317  -0.898  13.231  0.00  0.00     0.174 C 
ATOM     16  C1  ZIN A   1      19.408  -1.433  14.159  0.00  0.00     0.034 C 
ENDBRANCH  14  15
ENDBRANCH  12  14
ENDBRANCH   9  12
BRANCH   9  17
ATOM     17  C7  ZIN A   1      18.614   1.734  10.531  0.00  0.00    -0.040 A 
ATOM     18  C12 ZIN A   1      17.547   2.581  10.299  0.00  0.00     0.008 A 
ATOM     19  C11 ZIN A   1      17.543   3.853  10.842  0.00  0.00     0.001 A 
ATOM     20  C10 ZIN A   1      18.611   4.280  11.608  0.00  0.00     0.000 A 
ATOM     21  C9  ZIN A   1      19.681   3.435  11.835  0.00  0.00     0.001 A 
ATOM     22  C8  ZIN A   1      19.682   2.162  11.296  0.00  0.00     0.008 A 
ENDBRANCH   9  17
ENDBRANCH   5   6
ENDBRANCH   4   5
ENDBRANCH   1   4
BRANCH   1  23
ATOM     23  C21 ZIN A   1      18.273  -4.717   9.413  0.00  0.00    -0.031 A 
ATOM     24  C26 ZIN A   1      17.022  -4.483   9.951  0.00  0.00     0.009 A 
ATOM     25  C25 ZIN A   1      16.868  -4.372  11.320  0.00  0.00     0.001 A 
ATOM     26  C24 ZIN A   1      17.966  -4.489  12.151  0.00  0.00     0.000 A 
ATOM     27  C23 ZIN A   1      19.220  -4.718  11.612  0.00  0.00     0.001 A 
ATOM     28  C22 ZIN A   1      19.372  -4.831  10.243  0.00  0.00     0.009 A 
ENDBRANCH   1  23
BRANCH   1  29
ATOM     29  C27 ZIN A   1      17.502  -5.897   7.395  0.00  0.00    -0.031 A 
ATOM     30  C32 ZIN A   1      16.638  -5.601   6.358  0.00  0.00     0.009 A 
ATOM     31  C31 ZIN A   1      15.782  -6.571   5.873  0.00  0.00     0.001 A 
ATOM     32  C30 ZIN A   1      15.783  -7.835   6.433  0.00  0.00     0.000 A 
ATOM     33  C29 ZIN A   1      16.643  -8.131   7.474  0.00  0.00     0.001 A 
ATOM     34  C28 ZIN A   1      17.503  -7.161   7.955  0.00  0.00     0.009 A 
ENDBRANCH   1  29
TORSDOF 9
ENDMDL
MODEL 6
REMARK VINA RESULT:      -8.3      1.878      4.650
REMARK  9 active torsions:
REMARK  status: ('A' for Active; 'I' for Inactive)
REMARK    1  A    between atoms: C2_2  and  O3_3 
REMARK    2  A    between atoms: O3_3  and  C4_4 
REMARK    3  A    between atoms: C4_4  and  C6_6 
REMARK    4  A    between atoms: C6_6  and  C7_7 
REMARK    5  A    between atoms: N15_15  and  C16_16 
REMARK    6  A    between atoms: C16_16  and  C17_17 
REMARK    7  A    between atoms: C17_17  and  C18_18 
REMARK    8  A    between atoms: C18_18  and  C21_21 
REMARK    9  A    between atoms: C18_18  and  C27_27 
ROOT
ATOM      1  C18 ZIN A   1      18.901   3.173  12.592  0.00  0.00     0.104 C 
ATOM      2  C19 ZIN A   1      17.646   3.636  11.978  0.00  0.00     0.079 C 
ATOM      3  N20 ZIN A   1      16.678   3.994  11.503  0.00  0.00    -0.196 NA
ENDROOT
BRANCH   1   4
ATOM      4  C17 ZIN A   1      19.995   3.099  11.524  0.00  0.00     0.065 C 
BRANCH   4   5
ATOM      5  C16 ZIN A   1      19.401   2.557  10.222  0.00  0.00     0.275 C 
BRANCH   5   6
ATOM      6  N15 ZIN A   1      18.965   1.169  10.424  0.00  0.00     0.088 N 
ATOM      7  C14 ZIN A   1      20.025   0.225  10.047  0.00  0.00     0.274 C 
ATOM      8  C13 ZIN A   1      19.592  -1.199  10.406  0.00  0.00     0.055 C 
ATOM      9  C6  ZIN A   1      18.296  -1.535   9.664  0.00  0.00     0.078 C 
ATOM     10  C34 ZIN A   1      17.222  -0.508  10.036  0.00  0.00     0.055 C 
ATOM     11  C33 ZIN A   1      17.724   0.896   9.689  0.00  0.00     0.274 C 
BRANCH   9  12
ATOM     12  C4  ZIN A   1      18.539  -1.491   8.177  0.00  0.00     0.272 C 
ATOM     13  O5  ZIN A   1      19.556  -1.955   7.717  0.00  0.00    -0.264 OA
BRANCH  12  14
ATOM     14  O3  ZIN A   1      17.626  -0.937   7.364  0.00  0.00    -0.321 OA
BRANCH  14  15
ATOM     15  C2  ZIN A   1      18.107  -0.388   6.109  0.00  0.00     0.174 C 
ATOM     16  C1  ZIN A   1      18.762   0.971   6.364  0.00  0.00     0.034 C 
ENDBRANCH  14  15
ENDBRANCH  12  14
ENDBRANCH   9  12
BRANCH   9  17
ATOM     17  C7  ZIN A   1      17.832  -2.914  10.058  0.00  0.00    -0.040 A 
ATOM     18  C12 ZIN A   1      17.577  -3.862   9.084  0.00  0.00     0.008 A 
ATOM     19  C11 ZIN A   1      17.155  -5.128   9.445  0.00  0.00     0.001 A 
ATOM     20  C10 ZIN A   1      16.979  -5.442  10.779  0.00  0.00     0.000 A 
ATOM     21  C9  ZIN A   1      17.228  -4.493  11.753  0.00  0.00     0.001 A 
ATOM     22  C8  ZIN A   1      17.654  -3.229  11.392  0.00  0.00     0.008 A 
ENDBRANCH   9  17
ENDBRANCH   5   6
ENDBRANCH   4   5
ENDBRANCH   1   4
BRANCH   1  23
ATOM     23  C21 ZIN A   1      18.692   1.806  13.192  0.00  0.00    -0.031 A 
ATOM     24  C26 ZIN A   1      19.779   1.063  13.612  0.00  0.00     0.009 A 
ATOM     25  C25 ZIN A   1      19.588  -0.189  14.164  0.00  0.00     0.001 A 
ATOM     26  C24 ZIN A   1      18.310  -0.701  14.291  0.00  0.00     0.000 A 
ATOM     27  C23 ZIN A   1      17.223   0.040  13.865  0.00  0.00     0.001 A 
ATOM     28  C22 ZIN A   1      17.414   1.294  13.316  0.00  0.00     0.009 A 
ENDBRANCH   1  23
BRANCH   1  29
ATOM     29  C27 ZIN A   1      19.318   4.138  13.671  0.00  0.00    -0.031 A 
ATOM     30  C32 ZIN A   1      18.983   3.887  14.989  0.00  0.00     0.009 A 
ATOM     31  C31 ZIN A   1      19.370   4.769  15.980  0.00  0.00     0.001 A 
ATOM     32  C30 ZIN A   1      20.083   5.907  15.652  0.00  0.00     0.000 A 
ATOM     33  C29 ZIN A   1      20.413   6.161  14.334  0.00  0.00     0.001 A 
ATOM     34  C28 ZIN A   1      20.031   5.276  13.343  0.00  0.00     0.009 A 
ENDBRANCH   1  29
TORSDOF 9
ENDMDL
MODEL 7
REMARK VINA RESULT:      -8.2      3.143      9.480
REMARK  9 active torsions:
REMARK  status: ('A' for Active; 'I' for Inactive)
REMARK    1  A    between atoms: C2_2  and  O3_3 
REMARK    2  A    between atoms: O3_3  and  C4_4 
REMARK    3  A    between atoms: C4_4  and  C6_6 
REMARK    4  A    between atoms: C6_6  and  C7_7 
REMARK    5  A    between atoms: N15_15  and  C16_16 
REMARK    6  A    between atoms: C16_16  and  C17_17 
REMARK    7  A    between atoms: C17_17  and  C18_18 
REMARK    8  A    between atoms: C18_18  and  C21_21 
REMARK    9  A    between atoms: C18_18  and  C27_27 
ROOT
ATOM      1  C18 ZIN A   1      18.598  -4.651   7.057  0.00  0.00     0.104 C 
ATOM      2  C19 ZIN A   1      19.910  -5.283   7.270  0.00  0.00     0.079 C 
ATOM      3  N20 ZIN A   1      20.923  -5.771   7.436  0.00  0.00    -0.196 NA
ENDROOT
BRANCH   1   4
ATOM      4  C17 ZIN A   1      17.946  -4.358   8.410  0.00  0.00     0.065 C 
BRANCH   4   5
ATOM      5  C16 ZIN A   1      18.838  -4.894   9.532  0.00  0.00     0.275 C 
BRANCH   5   6
ATOM      6  N15 ZIN A   1      18.665  -4.064  10.732  0.00  0.00     0.088 N 
ATOM      7  C14 ZIN A   1      17.729  -2.961  10.479  0.00  0.00     0.274 C 
ATOM      8  C13 ZIN A   1      17.462  -2.207  11.784  0.00  0.00     0.055 C 
ATOM      9  C6  ZIN A   1      18.784  -1.664  12.334  0.00  0.00     0.078 C 
ATOM     10  C34 ZIN A   1      19.758  -2.828  12.542  0.00  0.00     0.055 C 
ATOM     11  C33 ZIN A   1      19.958  -3.563  11.215  0.00  0.00     0.274 C 
BRANCH   9  12
ATOM     12  C4  ZIN A   1      19.374  -0.685  11.352  0.00  0.00     0.272 C 
ATOM     13  O5  ZIN A   1      20.547  -0.403  11.410  0.00  0.00    -0.264 OA
BRANCH  12  14
ATOM     14  O3  ZIN A   1      18.595  -0.126  10.411  0.00  0.00    -0.321 OA
BRANCH  14  15
ATOM     15  C2  ZIN A   1      18.663   1.318  10.271  0.00  0.00     0.174 C 
ATOM     16  C1  ZIN A   1      19.021   1.673   8.827  0.00  0.00     0.034 C 
ENDBRANCH  14  15
ENDBRANCH  12  14
ENDBRANCH   9  12
BRANCH   9  17
ATOM     17  C7  ZIN A   1      18.537  -0.972  13.649  0.00  0.00    -0.040 A 
ATOM     18  C12 ZIN A   1      17.702   0.128  13.706  0.00  0.00     0.008 A 
ATOM     19  C11 ZIN A   1      17.472   0.761  14.913  0.00  0.00     0.001 A 
ATOM     20  C10 ZIN A   1      18.085   0.298  16.062  0.00  0.00     0.000 A 
ATOM     21  C9  ZIN A   1      18.925  -0.798  16.005  0.00  0.00     0.001 A 
ATOM     22  C8  ZIN A   1      19.150  -1.433  14.799  0.00  0.00     0.008 A 
ENDBRANCH   9  17
ENDBRANCH   5   6
ENDBRANCH   4   5
ENDBRANCH   1   4
BRANCH   1  23
ATOM     23  C21 ZIN A   1      17.716  -5.582   6.265  0.00  0.00    -0.031 A 
ATOM     24  C26 ZIN A   1      16.367  -5.667   6.554  0.00  0.00     0.009 A 
ATOM     25  C25 ZIN A   1      15.556  -6.518   5.827  0.00  0.00     0.001 A 
ATOM     26  C24 ZIN A   1      16.096  -7.290   4.815  0.00  0.00     0.000 A 
ATOM     27  C23 ZIN A   1      17.447  -7.209   4.529  0.00  0.00     0.001 A 
ATOM     28  C22 ZIN A   1      18.256  -6.355   5.255  0.00  0.00     0.009 A 
ENDBRANCH   1  23
BRANCH   1  29
ATOM     29  C27 ZIN A   1      18.779  -3.363   6.297  0.00  0.00    -0.031 A 
ATOM     30  C32 ZIN A   1      18.916  -2.169   6.982  0.00  0.00     0.009 A 
ATOM     31  C31 ZIN A   1      19.087  -0.988   6.285  0.00  0.00     0.001 A 
ATOM     32  C30 ZIN A   1      19.111  -0.999   4.903  0.00  0.00     0.000 A 
ATOM     33  C29 ZIN A   1      18.969  -2.191   4.217  0.00  0.00     0.001 A 
ATOM     34  C28 ZIN A   1      18.803  -3.373   4.914  0.00  0.00     0.009 A 
ENDBRANCH   1  29
TORSDOF 9
ENDMDL
MODEL 8
REMARK VINA RESULT:      -8.1      1.360      3.669
REMARK  9 active torsions:
REMARK  status: ('A' for Active; 'I' for Inactive)
REMARK    1  A    between atoms: C2_2  and  O3_3 
REMARK    2  A    between atoms: O3_3  and  C4_4 
REMARK    3  A    between atoms: C4_4  and  C6_6 
REMARK    4  A    between atoms: C6_6  and  C7_7 
REMARK    5  A    between atoms: N15_15  and  C16_16 
REMARK    6  A    between atoms: C16_16  and  C17_17 
REMARK    7  A    between atoms: C17_17  and  C18_18 
REMARK    8  A    between atoms: C18_18  and  C21_21 
REMARK    9  A    between atoms: C18_18  and  C27_27 
ROOT
ATOM      1  C18 ZIN A   1      18.505   1.126  13.847  0.00  0.00     0.104 C 
ATOM      2  C19 ZIN A   1      17.372   0.923  12.931  0.00  0.00     0.079 C 
ATOM      3  N20 ZIN A   1      16.498   0.766  12.222  0.00  0.00    -0.196 NA
ENDROOT
BRANCH   1   4
ATOM      4  C17 ZIN A   1      19.818   0.890  13.096  0.00  0.00     0.065 C 
BRANCH   4   5
ATOM      5  C16 ZIN A   1      20.027   2.008  12.072  0.00  0.00     0.275 C 
BRANCH   5   6
ATOM      6  N15 ZIN A   1      19.970   1.446  10.716  0.00  0.00     0.088 N 
ATOM      7  C14 ZIN A   1      18.667   1.710  10.092  0.00  0.00     0.274 C 
ATOM      8  C13 ZIN A   1      18.693   1.242   8.635  0.00  0.00     0.055 C 
ATOM      9  C6  ZIN A   1      19.007  -0.256   8.591  0.00  0.00     0.078 C 
ATOM     10  C34 ZIN A   1      20.346  -0.510   9.291  0.00  0.00     0.055 C 
ATOM     11  C33 ZIN A   1      20.271   0.009  10.729  0.00  0.00     0.274 C 
BRANCH   9  12
ATOM     12  C4  ZIN A   1      17.917  -1.020   9.299  0.00  0.00     0.272 C 
ATOM     13  O5  ZIN A   1      16.817  -0.536   9.413  0.00  0.00    -0.264 OA
BRANCH  12  14
ATOM     14  O3  ZIN A   1      18.170  -2.240   9.800  0.00  0.00    -0.321 OA
BRANCH  14  15
ATOM     15  C2  ZIN A   1      17.375  -2.662  10.939  0.00  0.00     0.174 C 
ATOM     16  C1  ZIN A   1      18.203  -2.525  12.218  0.00  0.00     0.034 C 
ENDBRANCH  14  15
ENDBRANCH  12  14
ENDBRANCH   9  12
BRANCH   9  17
ATOM     17  C7  ZIN A   1      19.094  -0.712   7.158  0.00  0.00    -0.040 A 
ATOM     18  C12 ZIN A   1      19.208  -2.059   6.866  0.00  0.00     0.008 A 
ATOM     19  C11 ZIN A   1      19.283  -2.478   5.551  0.00  0.00     0.001 A 
ATOM     20  C10 ZIN A   1      19.254  -1.549   4.528  0.00  0.00     0.000 A 
ATOM     21  C9  ZIN A   1      19.146  -0.202   4.819  0.00  0.00     0.001 A 
ATOM     22  C8  ZIN A   1      19.066   0.216   6.134  0.00  0.00     0.008 A 
ENDBRANCH   9  17
ENDBRANCH   5   6
ENDBRANCH   4   5
ENDBRANCH   1   4
BRANCH   1  23
ATOM     23  C21 ZIN A   1      18.403   0.154  14.995  0.00  0.00    -0.031 A 
ATOM     24  C26 ZIN A   1      17.288   0.165  15.812  0.00  0.00     0.009 A 
ATOM     25  C25 ZIN A   1      17.192  -0.727  16.863  0.00  0.00     0.001 A 
ATOM     26  C24 ZIN A   1      18.214  -1.626  17.102  0.00  0.00     0.000 A 
ATOM     27  C23 ZIN A   1      19.333  -1.633  16.288  0.00  0.00     0.001 A 
ATOM     28  C22 ZIN A   1      19.427  -0.743  15.235  0.00  0.00     0.009 A 
ENDBRANCH   1  23
BRANCH   1  29
ATOM     29  C27 ZIN A   1      18.476   2.536  14.378  0.00  0.00    -0.031 A 
ATOM     30  C32 ZIN A   1      17.737   3.505  13.726  0.00  0.00     0.009 A 
ATOM     31  C31 ZIN A   1      17.706   4.797  14.216  0.00  0.00     0.001 A 
ATOM     32  C30 ZIN A   1      18.423   5.122  15.352  0.00  0.00     0.000 A 
ATOM     33  C29 ZIN A   1      19.168   4.154  16.001  0.00  0.00     0.001 A 
ATOM     34  C28 ZIN A   1      19.194   2.861  15.514  0.00  0.00     0.009 A 
ENDBRANCH   1  29
TORSDOF 9
ENDMDL
MODEL 9
REMARK VINA RESULT:      -8.1      1.433      1.953
REMARK  9 active torsions:
REMARK  status: ('A' for Active; 'I' for Inactive)
REMARK    1  A    between atoms: C2_2  and  O3_3 
REMARK    2  A    between atoms: O3_3  and  C4_4 
REMARK    3  A    between atoms: C4_4  and  C6_6 
REMARK    4  A    between atoms: C6_6  and  C7_7 
REMARK    5  A    between atoms: N15_15  and  C16_16 
REMARK    6  A    between atoms: C16_16  and  C17_17 
REMARK    7  A    between atoms: C17_17  and  C18_18 
REMARK    8  A    between atoms: C18_18  and  C21_21 
REMARK    9  A    between atoms: C18_18  and  C27_27 
ROOT
ATOM      1  C18 ZIN A   1      18.358   3.060  12.790  0.00  0.00     0.104 C 
ATOM      2  C19 ZIN A   1      19.644   3.533  12.252  0.00  0.00     0.079 C 
ATOM      3  N20 ZIN A   1      20.636   3.898  11.836  0.00  0.00    -0.196 NA
ENDROOT
BRANCH   1   4
ATOM      4  C17 ZIN A   1      17.336   2.956  11.655  0.00  0.00     0.065 C 
BRANCH   4   5
ATOM      5  C16 ZIN A   1      17.986   3.398  10.343  0.00  0.00     0.275 C 
BRANCH   5   6
ATOM      6  N15 ZIN A   1      18.069   2.252   9.427  0.00  0.00     0.088 N 
ATOM      7  C14 ZIN A   1      17.438   1.063  10.015  0.00  0.00     0.274 C 
ATOM      8  C13 ZIN A   1      17.413  -0.066   8.981  0.00  0.00     0.055 C 
ATOM      9  C6  ZIN A   1      18.846  -0.386   8.549  0.00  0.00     0.078 C 
ATOM     10  C34 ZIN A   1      19.497   0.881   7.985  0.00  0.00     0.055 C 
ATOM     11  C33 ZIN A   1      19.461   1.982   9.047  0.00  0.00     0.274 C 
BRANCH   9  12
ATOM     12  C4  ZIN A   1      19.636  -0.871   9.738  0.00  0.00     0.272 C 
ATOM     13  O5  ZIN A   1      20.795  -0.555   9.862  0.00  0.00    -0.264 OA
BRANCH  12  14
ATOM     14  O3  ZIN A   1      19.050  -1.653  10.658  0.00  0.00    -0.321 OA
BRANCH  14  15
ATOM     15  C2  ZIN A   1      19.869  -2.693  11.257  0.00  0.00     0.174 C 
ATOM     16  C1  ZIN A   1      18.980  -3.870  11.663  0.00  0.00     0.034 C 
ENDBRANCH  14  15
ENDBRANCH  12  14
ENDBRANCH   9  12
BRANCH   9  17
ATOM     17  C7  ZIN A   1      18.826  -1.456   7.487  0.00  0.00    -0.040 A 
ATOM     18  C12 ZIN A   1      19.131  -1.136   6.177  0.00  0.00     0.008 A 
ATOM     19  C11 ZIN A   1      19.116  -2.117   5.204  0.00  0.00     0.001 A 
ATOM     20  C10 ZIN A   1      18.787  -3.417   5.540  0.00  0.00     0.000 A 
ATOM     21  C9  ZIN A   1      18.476  -3.736   6.848  0.00  0.00     0.001 A 
ATOM     22  C8  ZIN A   1      18.495  -2.756   7.821  0.00  0.00     0.008 A 
ENDBRANCH   9  17
ENDBRANCH   5   6
ENDBRANCH   4   5
ENDBRANCH   1   4
BRANCH   1  23
ATOM     23  C21 ZIN A   1      17.859   4.033  13.827  0.00  0.00    -0.031 A 
ATOM     24  C26 ZIN A   1      18.507   4.138  15.044  0.00  0.00     0.009 A 
ATOM     25  C25 ZIN A   1      18.052   5.033  15.994  0.00  0.00     0.001 A 
ATOM     26  C24 ZIN A   1      16.944   5.817  15.731  0.00  0.00     0.000 A 
ATOM     27  C23 ZIN A   1      16.293   5.708  14.515  0.00  0.00     0.001 A 
ATOM     28  C22 ZIN A   1      16.751   4.816  13.564  0.00  0.00     0.009 A 
ENDBRANCH   1  23
BRANCH   1  29
ATOM     29  C27 ZIN A   1      18.546   1.705  13.422  0.00  0.00    -0.031 A 
ATOM     30  C32 ZIN A   1      19.723   1.008  13.226  0.00  0.00     0.009 A 
ATOM     31  C31 ZIN A   1      19.897  -0.233  13.810  0.00  0.00     0.001 A 
ATOM     32  C30 ZIN A   1      18.890  -0.781  14.581  0.00  0.00     0.000 A 
ATOM     33  C29 ZIN A   1      17.710  -0.086  14.773  0.00  0.00     0.001 A 
ATOM     34  C28 ZIN A   1      17.538   1.157  14.194  0.00  0.00     0.009 A 
ENDBRANCH   1  29
TORSDOF 9
ENDMDL
