MODEL 1
REMARK VINA RESULT:      -5.4      0.000      0.000
REMARK  5 active torsions:
REMARK  status: ('A' for Active; 'I' for Inactive)
REMARK    1  A    between atoms: C2_2  and  S3_3 
REMARK    2  A    between atoms: S3_3  and  C6_6 
REMARK    3  A    between atoms: C6_6  and  C7_7 
REMARK    4  A    between atoms: C7_7  and  N8_8 
REMARK    5  A    between atoms: C13_13  and  N14_14 
ROOT
ATOM      1  N8  <0> d   1      18.522  -1.645  11.187  0.00  0.00    -0.315 N 
ATOM      2  C9  <0> d   1      19.280  -2.400  12.013  0.00  0.00     0.103 A 
ATOM      3  C10 <0> d   1      20.172  -3.538  11.590  0.00  0.00     0.091 C 
ATOM      4  N11 <0> d   1      19.108  -1.981  13.237  0.00  0.00    -0.244 NA
ATOM      5  C12 <0> d   1      18.246  -0.955  13.238  0.00  0.00     0.173 A 
ATOM      6  C13 <0> d   1      17.872  -0.724  11.964  0.00  0.00     0.195 A 
ENDROOT
BRANCH   1   7
ATOM      7  C7  <0> d   1      18.422  -1.781   9.733  0.00  0.00     0.147 C 
BRANCH   7   8
ATOM      8  C6  <0> d   1      19.428  -0.843   9.062  0.00  0.00     0.160 C 
BRANCH   8   9
ATOM      9  S3  <0> d   1      18.584   0.137   7.790  0.00  0.00     0.145 S 
ATOM     10  O4  <0> d   1      19.182   1.426   7.741  0.00  0.00    -0.228 OA
ATOM     11  O5  <0> d   1      17.182   0.030   7.990  0.00  0.00    -0.228 OA
BRANCH   9  12
ATOM     12  C2  <0> d   1      19.021  -0.760   6.275  0.00  0.00     0.136 C 
ATOM     13  C1  <0> d   1      19.227   0.237   5.132  0.00  0.00     0.021 C 
ENDBRANCH   9  12
ENDBRANCH   8   9
ENDBRANCH   7   8
ENDBRANCH   1   7
BRANCH   6  14
ATOM     14  N14 <0> d   1      16.931   0.317  11.495  0.00  0.00    -0.096 N 
ATOM     15  O15 <0> d   1      15.734   0.090  11.471  0.00  0.00    -0.530 OA
ATOM     16  O16 <0> d   1      17.352   1.401  11.132  0.00  0.00    -0.530 OA
ENDBRANCH   6  14
TORSDOF 5
ENDMDL
MODEL 2
REMARK VINA RESULT:      -5.3      3.258      5.906
REMARK  5 active torsions:
REMARK  status: ('A' for Active; 'I' for Inactive)
REMARK    1  A    between atoms: C2_2  and  S3_3 
REMARK    2  A    between atoms: S3_3  and  C6_6 
REMARK    3  A    between atoms: C6_6  and  C7_7 
REMARK    4  A    between atoms: C7_7  and  N8_8 
REMARK    5  A    between atoms: C13_13  and  N14_14 
ROOT
ATOM      1  N8  <0> d   1      19.165  -0.662   7.533  0.00  0.00    -0.315 N 
ATOM      2  C9  <0> d   1      19.131   0.660   7.257  0.00  0.00     0.103 A 
ATOM      3  C10 <0> d   1      19.107   1.769   8.277  0.00  0.00     0.091 C 
ATOM      4  N11 <0> d   1      19.122   0.817   5.962  0.00  0.00    -0.244 NA
ATOM      5  C12 <0> d   1      19.151  -0.385   5.370  0.00  0.00     0.173 A 
ATOM      6  C13 <0> d   1      19.183  -1.324   6.335  0.00  0.00     0.195 A 
ENDROOT
BRANCH   1   7
ATOM      7  C7  <0> d   1      19.185  -1.272   8.864  0.00  0.00     0.147 C 
BRANCH   7   8
ATOM      8  C6  <0> d   1      17.769  -1.704   9.250  0.00  0.00     0.160 C 
BRANCH   8   9
ATOM      9  S3  <0> d   1      17.785  -2.401  10.925  0.00  0.00     0.145 S 
ATOM     10  O4  <0> d   1      17.446  -3.779  10.845  0.00  0.00    -0.228 OA
ATOM     11  O5  <0> d   1      17.032  -1.550  11.777  0.00  0.00    -0.228 OA
BRANCH   9  12
ATOM     12  C2  <0> d   1      19.537  -2.262  11.372  0.00  0.00     0.136 C 
ATOM     13  C1  <0> d   1      20.120  -3.659  11.594  0.00  0.00     0.021 C 
ENDBRANCH   9  12
ENDBRANCH   8   9
ENDBRANCH   7   8
ENDBRANCH   1   7
BRANCH   6  14
ATOM     14  N14 <0> d   1      19.222  -2.791   6.139  0.00  0.00    -0.096 N 
ATOM     15  O15 <0> d   1      18.208  -3.390   5.827  0.00  0.00    -0.530 OA
ATOM     16  O16 <0> d   1      20.266  -3.399   6.290  0.00  0.00    -0.530 OA
ENDBRANCH   6  14
TORSDOF 5
ENDMDL
MODEL 3
REMARK VINA RESULT:      -5.2      5.037      6.399
REMARK  5 active torsions:
REMARK  status: ('A' for Active; 'I' for Inactive)
REMARK    1  A    between atoms: C2_2  and  S3_3 
REMARK    2  A    between atoms: S3_3  and  C6_6 
REMARK    3  A    between atoms: C6_6  and  C7_7 
REMARK    4  A    between atoms: C7_7  and  N8_8 
REMARK    5  A    between atoms: C13_13  and  N14_14 
ROOT
ATOM      1  N8  <0> d   1      18.649   1.490  16.374  0.00  0.00    -0.315 N 
ATOM      2  C9  <0> d   1      19.318   2.364  17.156  0.00  0.00     0.103 A 
ATOM      3  C10 <0> d   1      19.570   3.815  16.835  0.00  0.00     0.091 C 
ATOM      4  N11 <0> d   1      19.712   1.744  18.235  0.00  0.00    -0.244 NA
ATOM      5  C12 <0> d   1      19.312   0.466  18.182  0.00  0.00     0.173 A 
ATOM      6  C13 <0> d   1      18.640   0.287  17.028  0.00  0.00     0.195 A 
ENDROOT
BRANCH   1   7
ATOM      7  C7  <0> d   1      18.040   1.776  15.073  0.00  0.00     0.147 C 
BRANCH   7   8
ATOM      8  C6  <0> d   1      19.009   1.380  13.957  0.00  0.00     0.160 C 
BRANCH   8   9
ATOM      9  S3  <0> d   1      18.643   2.348  12.467  0.00  0.00     0.145 S 
ATOM     10  O4  <0> d   1      17.375   1.948  11.967  0.00  0.00    -0.228 OA
ATOM     11  O5  <0> d   1      19.773   2.302  11.608  0.00  0.00    -0.228 OA
BRANCH   9  12
ATOM     12  C2  <0> d   1      18.496   4.027  13.138  0.00  0.00     0.136 C 
ATOM     13  C1  <0> d   1      19.745   4.833  12.776  0.00  0.00     0.021 C 
ENDBRANCH   9  12
ENDBRANCH   8   9
ENDBRANCH   7   8
ENDBRANCH   1   7
BRANCH   6  14
ATOM     14  N14 <0> d   1      18.018  -0.970  16.553  0.00  0.00    -0.096 N 
ATOM     15  O15 <0> d   1      18.637  -1.712  15.811  0.00  0.00    -0.530 OA
ATOM     16  O16 <0> d   1      16.889  -1.262  16.903  0.00  0.00    -0.530 OA
ENDBRANCH   6  14
TORSDOF 5
ENDMDL
MODEL 4
REMARK VINA RESULT:      -5.1      4.271      5.635
REMARK  5 active torsions:
REMARK  status: ('A' for Active; 'I' for Inactive)
REMARK    1  A    between atoms: C2_2  and  S3_3 
REMARK    2  A    between atoms: S3_3  and  C6_6 
REMARK    3  A    between atoms: C6_6  and  C7_7 
REMARK    4  A    between atoms: C7_7  and  N8_8 
REMARK    5  A    between atoms: C13_13  and  N14_14 
ROOT
ATOM      1  N8  <0> d   1      19.035   0.836  16.018  0.00  0.00    -0.315 N 
ATOM      2  C9  <0> d   1      18.892  -0.287  16.755  0.00  0.00     0.103 A 
ATOM      3  C10 <0> d   1      18.747  -1.684  16.207  0.00  0.00     0.091 C 
ATOM      4  N11 <0> d   1      18.899   0.038  18.018  0.00  0.00    -0.244 NA
ATOM      5  C12 <0> d   1      19.047   1.365  18.133  0.00  0.00     0.173 A 
ATOM      6  C13 <0> d   1      19.139   1.883  16.894  0.00  0.00     0.195 A 
ENDROOT
BRANCH   1   7
ATOM      7  C7  <0> d   1      19.078   0.917  14.556  0.00  0.00     0.147 C 
BRANCH   7   8
ATOM      8  C6  <0> d   1      17.653   1.003  14.007  0.00  0.00     0.160 C 
BRANCH   8   9
ATOM      9  S3  <0> d   1      17.530   0.020  12.487  0.00  0.00     0.145 S 
ATOM     10  O4  <0> d   1      16.192   0.084  12.013  0.00  0.00    -0.228 OA
ATOM     11  O5  <0> d   1      18.124  -1.249  12.719  0.00  0.00    -0.228 OA
BRANCH   9  12
ATOM     12  C2  <0> d   1      18.591   0.955  11.350  0.00  0.00     0.136 C 
ATOM     13  C1  <0> d   1      17.797   2.118  10.752  0.00  0.00     0.021 C 
ENDBRANCH   9  12
ENDBRANCH   8   9
ENDBRANCH   7   8
ENDBRANCH   1   7
BRANCH   6  14
ATOM     14  N14 <0> d   1      19.311   3.311  16.543  0.00  0.00    -0.096 N 
ATOM     15  O15 <0> d   1      18.369   3.947  16.106  0.00  0.00    -0.530 OA
ATOM     16  O16 <0> d   1      20.393   3.849  16.692  0.00  0.00    -0.530 OA
ENDBRANCH   6  14
TORSDOF 5
ENDMDL
MODEL 5
REMARK VINA RESULT:      -5.1      4.357      6.141
REMARK  5 active torsions:
REMARK  status: ('A' for Active; 'I' for Inactive)
REMARK    1  A    between atoms: C2_2  and  S3_3 
REMARK    2  A    between atoms: S3_3  and  C6_6 
REMARK    3  A    between atoms: C6_6  and  C7_7 
REMARK    4  A    between atoms: C7_7  and  N8_8 
REMARK    5  A    between atoms: C13_13  and  N14_14 
ROOT
ATOM      1  N8  <0> d   1      18.721   1.552  16.364  0.00  0.00    -0.315 N 
ATOM      2  C9  <0> d   1      19.367   2.493  17.086  0.00  0.00     0.103 A 
ATOM      3  C10 <0> d   1      19.671   3.896  16.627  0.00  0.00     0.091 C 
ATOM      4  N11 <0> d   1      19.687   1.985  18.244  0.00  0.00    -0.244 NA
ATOM      5  C12 <0> d   1      19.260   0.716  18.304  0.00  0.00     0.173 A 
ATOM      6  C13 <0> d   1      18.647   0.427  17.140  0.00  0.00     0.195 A 
ENDROOT
BRANCH   1   7
ATOM      7  C7  <0> d   1      18.190   1.709  15.008  0.00  0.00     0.147 C 
BRANCH   7   8
ATOM      8  C6  <0> d   1      19.198   1.156  13.998  0.00  0.00     0.160 C 
BRANCH   8   9
ATOM      9  S3  <0> d   1      18.361   0.840  12.420  0.00  0.00     0.145 S 
ATOM     10  O4  <0> d   1      19.347   0.686  11.408  0.00  0.00    -0.228 OA
ATOM     11  O5  <0> d   1      17.336   1.807  12.248  0.00  0.00    -0.228 OA
BRANCH   9  12
ATOM     12  C2  <0> d   1      17.589  -0.774  12.722  0.00  0.00     0.136 C 
ATOM     13  C1  <0> d   1      18.676  -1.824  12.957  0.00  0.00     0.021 C 
ENDBRANCH   9  12
ENDBRANCH   8   9
ENDBRANCH   7   8
ENDBRANCH   1   7
BRANCH   6  14
ATOM     14  N14 <0> d   1      18.023  -0.863  16.767  0.00  0.00    -0.096 N 
ATOM     15  O15 <0> d   1      16.813  -0.992  16.825  0.00  0.00    -0.530 OA
ATOM     16  O16 <0> d   1      18.718  -1.794  16.402  0.00  0.00    -0.530 OA
ENDBRANCH   6  14
TORSDOF 5
ENDMDL
MODEL 6
REMARK VINA RESULT:      -5.1      2.983      4.853
REMARK  5 active torsions:
REMARK  status: ('A' for Active; 'I' for Inactive)
REMARK    1  A    between atoms: C2_2  and  S3_3 
REMARK    2  A    between atoms: S3_3  and  C6_6 
REMARK    3  A    between atoms: C6_6  and  C7_7 
REMARK    4  A    between atoms: C7_7  and  N8_8 
REMARK    5  A    between atoms: C13_13  and  N14_14 
ROOT
ATOM      1  N8  <0> d   1      19.286   0.502   9.360  0.00  0.00    -0.315 N 
ATOM      2  C9  <0> d   1      18.988   1.341   8.344  0.00  0.00     0.103 A 
ATOM      3  C10 <0> d   1      18.755   0.936   6.911  0.00  0.00     0.091 C 
ATOM      4  N11 <0> d   1      18.936   2.559   8.809  0.00  0.00    -0.244 NA
ATOM      5  C12 <0> d   1      19.195   2.543  10.124  0.00  0.00     0.173 A 
ATOM      6  C13 <0> d   1      19.412   1.265  10.490  0.00  0.00     0.195 A 
ENDROOT
BRANCH   1   7
ATOM      7  C7  <0> d   1      19.439  -0.951   9.271  0.00  0.00     0.147 C 
BRANCH   7   8
ATOM      8  C6  <0> d   1      18.068  -1.618   9.398  0.00  0.00     0.160 C 
BRANCH   8   9
ATOM      9  S3  <0> d   1      17.965  -2.491  10.985  0.00  0.00     0.145 S 
ATOM     10  O4  <0> d   1      16.960  -1.873  11.777  0.00  0.00    -0.228 OA
ATOM     11  O5  <0> d   1      19.276  -2.630  11.512  0.00  0.00    -0.228 OA
BRANCH   9  12
ATOM     12  C2  <0> d   1      17.371  -4.127  10.474  0.00  0.00     0.136 C 
ATOM     13  C1  <0> d   1      17.149  -4.999  11.712  0.00  0.00     0.021 C 
ENDBRANCH   9  12
ENDBRANCH   8   9
ENDBRANCH   7   8
ENDBRANCH   1   7
BRANCH   6  14
ATOM     14  N14 <0> d   1      19.733   0.778  11.850  0.00  0.00    -0.096 N 
ATOM     15  O15 <0> d   1      20.886   0.522  12.148  0.00  0.00    -0.530 OA
ATOM     16  O16 <0> d   1      18.845   0.633  12.672  0.00  0.00    -0.530 OA
ENDBRANCH   6  14
TORSDOF 5
ENDMDL
MODEL 7
REMARK VINA RESULT:      -5.1      3.111      5.048
REMARK  5 active torsions:
REMARK  status: ('A' for Active; 'I' for Inactive)
REMARK    1  A    between atoms: C2_2  and  S3_3 
REMARK    2  A    between atoms: S3_3  and  C6_6 
REMARK    3  A    between atoms: C6_6  and  C7_7 
REMARK    4  A    between atoms: C7_7  and  N8_8 
REMARK    5  A    between atoms: C13_13  and  N14_14 
ROOT
ATOM      1  N8  <0> d   1      19.062  -1.254   7.886  0.00  0.00    -0.315 N 
ATOM      2  C9  <0> d   1      18.851  -2.384   8.594  0.00  0.00     0.103 A 
ATOM      3  C10 <0> d   1      18.909  -2.503  10.096  0.00  0.00     0.091 C 
ATOM      4  N11 <0> d   1      18.592  -3.356   7.763  0.00  0.00    -0.244 NA
ATOM      5  C12 <0> d   1      18.625  -2.887   6.508  0.00  0.00     0.173 A 
ATOM      6  C13 <0> d   1      18.913  -1.572   6.563  0.00  0.00     0.195 A 
ENDROOT
BRANCH   1   7
ATOM      7  C7  <0> d   1      19.383   0.067   8.431  0.00  0.00     0.147 C 
BRANCH   7   8
ATOM      8  C6  <0> d   1      18.090   0.788   8.816  0.00  0.00     0.160 C 
BRANCH   8   9
ATOM      9  S3  <0> d   1      18.239   1.436  10.504  0.00  0.00     0.145 S 
ATOM     10  O4  <0> d   1      19.377   0.845  11.117  0.00  0.00    -0.228 OA
ATOM     11  O5  <0> d   1      16.975   1.332  11.143  0.00  0.00    -0.228 OA
BRANCH   9  12
ATOM     12  C2  <0> d   1      18.592   3.190  10.203  0.00  0.00     0.136 C 
ATOM     13  C1  <0> d   1      17.402   4.036  10.661  0.00  0.00     0.021 C 
ENDBRANCH   9  12
ENDBRANCH   8   9
ENDBRANCH   7   8
ENDBRANCH   1   7
BRANCH   6  14
ATOM     14  N14 <0> d   1      19.050  -0.650   5.413  0.00  0.00    -0.096 N 
ATOM     15  O15 <0> d   1      19.971  -0.788   4.629  0.00  0.00    -0.530 OA
ATOM     16  O16 <0> d   1      18.242   0.248   5.252  0.00  0.00    -0.530 OA
ENDBRANCH   6  14
TORSDOF 5
ENDMDL
MODEL 8
REMARK VINA RESULT:      -5.1      2.673      4.695
REMARK  5 active torsions:
REMARK  status: ('A' for Active; 'I' for Inactive)
REMARK    1  A    between atoms: C2_2  and  S3_3 
REMARK    2  A    between atoms: S3_3  and  C6_6 
REMARK    3  A    between atoms: C6_6  and  C7_7 
REMARK    4  A    between atoms: C7_7  and  N8_8 
REMARK    5  A    between atoms: C13_13  and  N14_14 
ROOT
ATOM      1  N8  <0> d   1      18.436   0.086   8.872  0.00  0.00    -0.315 N 
ATOM      2  C9  <0> d   1      18.882   0.410   7.639  0.00  0.00     0.103 A 
ATOM      3  C10 <0> d   1      18.969  -0.528   6.462  0.00  0.00     0.091 C 
ATOM      4  N11 <0> d   1      19.227   1.669   7.636  0.00  0.00    -0.244 NA
ATOM      5  C12 <0> d   1      19.014   2.189   8.853  0.00  0.00     0.173 A 
ATOM      6  C13 <0> d   1      18.514   1.217   9.640  0.00  0.00     0.195 A 
ENDROOT
BRANCH   1   7
ATOM      7  C7  <0> d   1      17.951  -1.227   9.304  0.00  0.00     0.147 C 
BRANCH   7   8
ATOM      8  C6  <0> d   1      19.039  -1.930  10.118  0.00  0.00     0.160 C 
BRANCH   8   9
ATOM      9  S3  <0> d   1      18.375  -2.394  11.741  0.00  0.00     0.145 S 
ATOM     10  O4  <0> d   1      17.030  -1.942  11.826  0.00  0.00    -0.228 OA
ATOM     11  O5  <0> d   1      19.303  -2.000  12.741  0.00  0.00    -0.228 OA
BRANCH   9  12
ATOM     12  C2  <0> d   1      18.369  -4.205  11.639  0.00  0.00     0.136 C 
ATOM     13  C1  <0> d   1      19.569  -4.674  10.814  0.00  0.00     0.021 C 
ENDBRANCH   9  12
ENDBRANCH   8   9
ENDBRANCH   7   8
ENDBRANCH   1   7
BRANCH   6  14
ATOM     14  N14 <0> d   1      18.131   1.343  11.064  0.00  0.00    -0.096 N 
ATOM     15  O15 <0> d   1      16.971   1.563  11.365  0.00  0.00    -0.530 OA
ATOM     16  O16 <0> d   1      18.974   1.227  11.935  0.00  0.00    -0.530 OA
ENDBRANCH   6  14
TORSDOF 5
ENDMDL
MODEL 9
REMARK VINA RESULT:      -5.0      4.247      5.584
REMARK  5 active torsions:
REMARK  status: ('A' for Active; 'I' for Inactive)
REMARK    1  A    between atoms: C2_2  and  S3_3 
REMARK    2  A    between atoms: S3_3  and  C6_6 
REMARK    3  A    between atoms: C6_6  and  C7_7 
REMARK    4  A    between atoms: C7_7  and  N8_8 
REMARK    5  A    between atoms: C13_13  and  N14_14 
ROOT
ATOM      1  N8  <0> d   1      19.023   0.470  15.672  0.00  0.00    -0.315 N 
ATOM      2  C9  <0> d   1      19.055  -0.831  15.310  0.00  0.00     0.103 A 
ATOM      3  C10 <0> d   1      19.233  -1.348  13.906  0.00  0.00     0.091 C 
ATOM      4  N11 <0> d   1      18.904  -1.566  16.378  0.00  0.00    -0.244 NA
ATOM      5  C12 <0> d   1      18.774  -0.770  17.449  0.00  0.00     0.173 A 
ATOM      6  C13 <0> d   1      18.851   0.508  17.030  0.00  0.00     0.195 A 
ENDROOT
BRANCH   1   7
ATOM      7  C7  <0> d   1      19.156   1.624  14.780  0.00  0.00     0.147 C 
BRANCH   7   8
ATOM      8  C6  <0> d   1      17.772   2.050  14.287  0.00  0.00     0.160 C 
BRANCH   8   9
ATOM      9  S3  <0> d   1      17.747   2.043  12.473  0.00  0.00     0.145 S 
ATOM     10  O4  <0> d   1      17.280   3.307  12.021  0.00  0.00    -0.228 OA
ATOM     11  O5  <0> d   1      17.089   0.863  12.034  0.00  0.00    -0.228 OA
BRANCH   9  12
ATOM     12  C2  <0> d   1      19.511   1.903  12.075  0.00  0.00     0.136 C 
ATOM     13  C1  <0> d   1      20.008   3.225  11.487  0.00  0.00     0.021 C 
ENDBRANCH   9  12
ENDBRANCH   8   9
ENDBRANCH   7   8
ENDBRANCH   1   7
BRANCH   6  14
ATOM     14  N14 <0> d   1      18.759   1.721  17.873  0.00  0.00    -0.096 N 
ATOM     15  O15 <0> d   1      17.759   2.417  17.830  0.00  0.00    -0.530 OA
ATOM     16  O16 <0> d   1      19.681   2.025  18.608  0.00  0.00    -0.530 OA
ENDBRANCH   6  14
TORSDOF 5
ENDMDL
