MODEL 1
REMARK VINA RESULT:      -4.7      0.000      0.000
REMARK  0 active torsions:
REMARK  status: ('A' for Active; 'I' for Inactive)
ROOT
ATOM      1  S1  ZIN A   1      18.313   0.504   8.514  0.00  0.00    -0.058 SA
ATOM      2  C2  ZIN A   1      18.789  -0.179   7.018  0.00  0.00     0.132 A 
ATOM      3  N3  ZIN A   1      18.823   0.570   5.893  0.00  0.00    -0.340 N 
ATOM      4  C4  ZIN A   1      19.202   0.020   4.712  0.00  0.00     0.210 A 
ATOM      5  N5  ZIN A   1      19.545  -1.231   4.608  0.00  0.00    -0.222 NA
ATOM      6  C6  ZIN A   1      19.537  -2.049   5.687  0.00  0.00     0.181 A 
ATOM      7  C7  ZIN A   1      19.161  -1.533   6.930  0.00  0.00     0.120 A 
ATOM      8  N8  ZIN A   1      19.247  -2.577   7.824  0.00  0.00    -0.345 N 
ATOM      9  C9  ZIN A   1      19.659  -3.660   7.132  0.00  0.00     0.210 A 
ATOM     10  N10 ZIN A   1      19.832  -3.346   5.876  0.00  0.00    -0.222 NA
ATOM     11  H11 ZIN A   1      18.574   1.508   5.931  0.00  0.00     0.167 HD
ATOM     12  H13 ZIN A   1      19.051  -2.540   8.773  0.00  0.00     0.167 HD
ENDROOT
TORSDOF 0
ENDMDL
MODEL 2
REMARK VINA RESULT:      -4.6      0.642      2.918
REMARK  0 active torsions:
REMARK  status: ('A' for Active; 'I' for Inactive)
ROOT
ATOM      1  S1  ZIN A   1      18.336  -0.767   9.191  0.00  0.00    -0.058 SA
ATOM      2  C2  ZIN A   1      18.911  -1.714   7.885  0.00  0.00     0.132 A 
ATOM      3  N3  ZIN A   1      19.230  -3.016   8.062  0.00  0.00    -0.340 N 
ATOM      4  C4  ZIN A   1      19.685  -3.759   7.022  0.00  0.00     0.210 A 
ATOM      5  N5  ZIN A   1      19.833  -3.263   5.827  0.00  0.00    -0.222 NA
ATOM      6  C6  ZIN A   1      19.536  -1.968   5.567  0.00  0.00     0.181 A 
ATOM      7  C7  ZIN A   1      19.058  -1.159   6.601  0.00  0.00     0.120 A 
ATOM      8  N8  ZIN A   1      18.846   0.086   6.051  0.00  0.00    -0.345 N 
ATOM      9  C9  ZIN A   1      19.186   0.007   4.747  0.00  0.00     0.210 A 
ATOM     10  N10 ZIN A   1      19.588  -1.203   4.464  0.00  0.00    -0.222 NA
ATOM     11  H11 ZIN A   1      19.133  -3.421   8.938  0.00  0.00     0.167 HD
ATOM     12  H13 ZIN A   1      18.513   0.870   6.513  0.00  0.00     0.167 HD
ENDROOT
TORSDOF 0
ENDMDL
MODEL 3
REMARK VINA RESULT:      -4.5      9.774     10.828
REMARK  0 active torsions:
REMARK  status: ('A' for Active; 'I' for Inactive)
ROOT
ATOM      1  S1  ZIN A   1      17.732   0.748  14.028  0.00  0.00    -0.058 SA
ATOM      2  C2  ZIN A   1      18.477   1.691  15.247  0.00  0.00     0.132 A 
ATOM      3  N3  ZIN A   1      18.736   3.002  15.047  0.00  0.00    -0.340 N 
ATOM      4  C4  ZIN A   1      19.326   3.743  16.020  0.00  0.00     0.210 A 
ATOM      5  N5  ZIN A   1      19.663   3.234  17.170  0.00  0.00    -0.222 NA
ATOM      6  C6  ZIN A   1      19.438   1.928  17.449  0.00  0.00     0.181 A 
ATOM      7  C7  ZIN A   1      18.827   1.122  16.485  0.00  0.00     0.120 A 
ATOM      8  N8  ZIN A   1      18.729  -0.135  17.040  0.00  0.00    -0.345 N 
ATOM      9  C9  ZIN A   1      19.260  -0.066  18.278  0.00  0.00     0.210 A 
ATOM     10  N10 ZIN A   1      19.672   1.150  18.519  0.00  0.00    -0.222 NA
ATOM     11  H11 ZIN A   1      18.499   3.417  14.202  0.00  0.00     0.167 HD
ATOM     12  H13 ZIN A   1      18.348  -0.921  16.619  0.00  0.00     0.167 HD
ENDROOT
TORSDOF 0
ENDMDL
MODEL 4
REMARK VINA RESULT:      -4.4      2.156      2.709
REMARK  0 active torsions:
REMARK  status: ('A' for Active; 'I' for Inactive)
ROOT
ATOM      1  S1  ZIN A   1      20.452  -0.561  10.974  0.00  0.00    -0.058 SA
ATOM      2  C2  ZIN A   1      19.854   0.019   9.478  0.00  0.00     0.132 A 
ATOM      3  N3  ZIN A   1      19.696   1.344   9.262  0.00  0.00    -0.340 N 
ATOM      4  C4  ZIN A   1      19.221   1.796   8.074  0.00  0.00     0.210 A 
ATOM      5  N5  ZIN A   1      18.902   0.989   7.103  0.00  0.00    -0.222 NA
ATOM      6  C6  ZIN A   1      19.031  -0.353   7.239  0.00  0.00     0.181 A 
ATOM      7  C7  ZIN A   1      19.521  -0.871   8.441  0.00  0.00     0.120 A 
ATOM      8  N8  ZIN A   1      19.541  -2.240   8.291  0.00  0.00    -0.345 N 
ATOM      9  C9  ZIN A   1      19.082  -2.511   7.051  0.00  0.00     0.210 A 
ATOM     10  N10 ZIN A   1      18.787  -1.399   6.433  0.00  0.00    -0.222 NA
ATOM     11  H11 ZIN A   1      19.923   1.977   9.962  0.00  0.00     0.167 HD
ATOM     12  H13 ZIN A   1      19.832  -2.887   8.952  0.00  0.00     0.167 HD
ENDROOT
TORSDOF 0
ENDMDL
MODEL 5
REMARK VINA RESULT:      -4.3      9.740     11.079
REMARK  0 active torsions:
REMARK  status: ('A' for Active; 'I' for Inactive)
ROOT
ATOM      1  S1  ZIN A   1      18.179   1.643  13.958  0.00  0.00    -0.058 SA
ATOM      2  C2  ZIN A   1      18.601   0.797  15.385  0.00  0.00     0.132 A 
ATOM      3  N3  ZIN A   1      18.648  -0.554  15.402  0.00  0.00    -0.340 N 
ATOM      4  C4  ZIN A   1      18.984  -1.216  16.538  0.00  0.00     0.210 A 
ATOM      5  N5  ZIN A   1      19.271  -0.593  17.645  0.00  0.00    -0.222 NA
ATOM      6  C6  ZIN A   1      19.247   0.760  17.711  0.00  0.00     0.181 A 
ATOM      7  C7  ZIN A   1      18.914   1.491  16.568  0.00  0.00     0.120 A 
ATOM      8  N8  ZIN A   1      18.971   2.819  16.930  0.00  0.00    -0.345 N 
ATOM      9  C9  ZIN A   1      19.325   2.862  18.232  0.00  0.00     0.210 A 
ATOM     10  N10 ZIN A   1      19.491   1.649  18.688  0.00  0.00    -0.222 NA
ATOM     11  H11 ZIN A   1      18.440  -1.053  14.596  0.00  0.00     0.167 HD
ATOM     12  H13 ZIN A   1      18.793   3.580  16.356  0.00  0.00     0.167 HD
ENDROOT
TORSDOF 0
ENDMDL
MODEL 6
REMARK VINA RESULT:      -4.2      8.006      9.052
REMARK  0 active torsions:
REMARK  status: ('A' for Active; 'I' for Inactive)
ROOT
ATOM      1  S1  ZIN A   1      18.265   3.412  14.723  0.00  0.00    -0.058 SA
ATOM      2  C2  ZIN A   1      18.778   1.786  14.558  0.00  0.00     0.132 A 
ATOM      3  N3  ZIN A   1      19.728   1.447  13.659  0.00  0.00    -0.340 N 
ATOM      4  C4  ZIN A   1      20.129   0.157  13.535  0.00  0.00     0.210 A 
ATOM      5  N5  ZIN A   1      19.626  -0.798  14.263  0.00  0.00    -0.222 NA
ATOM      6  C6  ZIN A   1      18.670  -0.542  15.188  0.00  0.00     0.181 A 
ATOM      7  C7  ZIN A   1      18.226   0.772  15.361  0.00  0.00     0.120 A 
ATOM      8  N8  ZIN A   1      17.268   0.728  16.350  0.00  0.00    -0.345 N 
ATOM      9  C9  ZIN A   1      17.159  -0.559  16.740  0.00  0.00     0.210 A 
ATOM     10  N10 ZIN A   1      17.987  -1.304  16.058  0.00  0.00    -0.222 NA
ATOM     11  H11 ZIN A   1      20.126   2.132  13.097  0.00  0.00     0.167 HD
ATOM     12  H13 ZIN A   1      16.769   1.481  16.701  0.00  0.00     0.167 HD
ENDROOT
TORSDOF 0
ENDMDL
MODEL 7
REMARK VINA RESULT:      -4.1      2.319      3.758
REMARK  0 active torsions:
REMARK  status: ('A' for Active; 'I' for Inactive)
ROOT
ATOM      1  S1  ZIN A   1      18.391  -3.743   8.496  0.00  0.00    -0.058 SA
ATOM      2  C2  ZIN A   1      18.887  -2.105   8.549  0.00  0.00     0.132 A 
ATOM      3  N3  ZIN A   1      19.675  -1.652   9.549  0.00  0.00    -0.340 N 
ATOM      4  C4  ZIN A   1      20.064  -0.352   9.583  0.00  0.00     0.210 A 
ATOM      5  N5  ZIN A   1      19.703   0.504   8.671  0.00  0.00    -0.222 NA
ATOM      6  C6  ZIN A   1      18.914   0.129   7.636  0.00  0.00     0.181 A 
ATOM      7  C7  ZIN A   1      18.490  -1.199   7.549  0.00  0.00     0.120 A 
ATOM      8  N8  ZIN A   1      17.714  -1.284   6.414  0.00  0.00    -0.345 N 
ATOM      9  C9  ZIN A   1      17.687  -0.054   5.859  0.00  0.00     0.210 A 
ATOM     10  N10 ZIN A   1      18.396   0.775   6.577  0.00  0.00    -0.222 NA
ATOM     11  H11 ZIN A   1      19.964  -2.261  10.248  0.00  0.00     0.167 HD
ATOM     12  H13 ZIN A   1      17.273  -2.078   6.076  0.00  0.00     0.167 HD
ENDROOT
TORSDOF 0
ENDMDL
MODEL 8
REMARK VINA RESULT:      -4.1      8.310      9.494
REMARK  0 active torsions:
REMARK  status: ('A' for Active; 'I' for Inactive)
ROOT
ATOM      1  S1  ZIN A   1      19.134   3.344  16.297  0.00  0.00    -0.058 SA
ATOM      2  C2  ZIN A   1      18.606   1.723  16.135  0.00  0.00     0.132 A 
ATOM      3  N3  ZIN A   1      17.729   1.189  17.014  0.00  0.00    -0.340 N 
ATOM      4  C4  ZIN A   1      17.315  -0.096  16.878  0.00  0.00     0.210 A 
ATOM      5  N5  ZIN A   1      17.734  -0.861  15.911  0.00  0.00    -0.222 NA
ATOM      6  C6  ZIN A   1      18.613  -0.402  14.989  0.00  0.00     0.181 A 
ATOM      7  C7  ZIN A   1      19.067   0.917  15.078  0.00  0.00     0.120 A 
ATOM      8  N8  ZIN A   1      19.935   1.099  14.024  0.00  0.00    -0.345 N 
ATOM      9  C9  ZIN A   1      19.985  -0.066  13.345  0.00  0.00     0.210 A 
ATOM     10  N10 ZIN A   1      19.204  -0.946  13.912  0.00  0.00    -0.222 NA
ATOM     11  H11 ZIN A   1      17.394   1.728  17.749  0.00  0.00     0.167 HD
ATOM     12  H13 ZIN A   1      20.417   1.912  13.810  0.00  0.00     0.167 HD
ENDROOT
TORSDOF 0
ENDMDL
MODEL 9
REMARK VINA RESULT:      -4.1      2.824      3.751
REMARK  0 active torsions:
REMARK  status: ('A' for Active; 'I' for Inactive)
ROOT
ATOM      1  S1  ZIN A   1      19.194  -2.467   6.814  0.00  0.00    -0.058 SA
ATOM      2  C2  ZIN A   1      19.244  -0.930   7.566  0.00  0.00     0.132 A 
ATOM      3  N3  ZIN A   1      18.972   0.194   6.865  0.00  0.00    -0.340 N 
ATOM      4  C4  ZIN A   1      19.014   1.408   7.469  0.00  0.00     0.210 A 
ATOM      5  N5  ZIN A   1      19.311   1.547   8.729  0.00  0.00    -0.222 NA
ATOM      6  C6  ZIN A   1      19.596   0.471   9.501  0.00  0.00     0.181 A 
ATOM      7  C7  ZIN A   1      19.561  -0.804   8.931  0.00  0.00     0.120 A 
ATOM      8  N8  ZIN A   1      19.888  -1.686   9.937  0.00  0.00    -0.345 N 
ATOM      9  C9  ZIN A   1      20.104  -0.955  11.051  0.00  0.00     0.210 A 
ATOM     10  N10 ZIN A   1      19.928   0.313  10.793  0.00  0.00    -0.222 NA
ATOM     11  H11 ZIN A   1      18.746   0.131   5.923  0.00  0.00     0.167 HD
ATOM     12  H13 ZIN A   1      19.950  -2.650   9.860  0.00  0.00     0.167 HD
ENDROOT
TORSDOF 0
ENDMDL
