MODEL 1
REMARK VINA RESULT:      -8.1      0.000      0.000
REMARK  13 active torsions:
REMARK  status: ('A' for Active; 'I' for Inactive)
REMARK    1  A    between atoms: N2_2  and  C5_5 
REMARK    2  A    between atoms: C5_5  and  C8_7 
REMARK    3  A    between atoms: C12_10  and  N14_11 
REMARK    4  A    between atoms: C18_15  and  O20_16 
REMARK    5  A    between atoms: O20_16  and  C21_17 
REMARK    6  A    between atoms: C23_18  and  N25_19 
REMARK    7  A    between atoms: C30_24  and  N32_25 
REMARK    8  A    between atoms: C36_29  and  O38_30 
REMARK    9  A    between atoms: O38_30  and  C39_31 
REMARK   10  A    between atoms: C43_34  and  O45_36 
REMARK   11  A    between atoms: C46_37  and  N48_38 
REMARK   12  A    between atoms: C52_42  and  O54_43 
REMARK   13  A    between atoms: C55_44  and  O57_45 
ROOT
ATOM      1  C21 ZIN A   1      17.821  -0.523  10.485  0.00  0.00     0.186 C 
ATOM      2  C23 ZIN A   1      17.734   0.592   9.440  0.00  0.00     0.217 C 
ATOM      3  C29 ZIN A   1      18.349   1.871  10.008  0.00  0.00     0.071 C 
ATOM      4  C30 ZIN A   1      17.586   2.291  11.266  0.00  0.00     0.217 C 
ATOM      5  C36 ZIN A   1      17.673   1.176  12.310  0.00  0.00     0.186 C 
ATOM      6  C55 ZIN A   1      17.057  -0.105  11.742  0.00  0.00     0.180 C 
ENDROOT
BRANCH   1   7
ATOM      7  O20 ZIN A   1      19.191  -0.759  10.817  0.00  0.00    -0.349 OA
BRANCH   7   8
ATOM      8  C18 ZIN A   1      19.647  -2.076  10.498  0.00  0.00     0.291 C 
ATOM      9  C12 ZIN A   1      19.785  -2.894  11.785  0.00  0.00     0.238 C 
ATOM     10  C11 ZIN A   1      20.216  -4.320  11.431  0.00  0.00     0.040 C 
ATOM     11  C10 ZIN A   1      19.195  -4.925  10.463  0.00  0.00     0.036 C 
ATOM     12  C8  ZIN A   1      19.081  -4.029   9.227  0.00  0.00     0.155 C 
ATOM     13  O58 ZIN A   1      18.707  -2.710   9.630  0.00  0.00    -0.352 OA
BRANCH   9  14
ATOM     14  N14 ZIN A   1      18.493  -2.931  12.484  0.00  0.00    -0.070 N 
ATOM     15  H15 ZIN A   1      18.445  -2.167  13.142  0.00  0.00     0.274 HD
ATOM     16  H16 ZIN A   1      17.745  -2.844  11.813  0.00  0.00     0.274 HD
ATOM     17  H17 ZIN A   1      18.403  -3.806  12.978  0.00  0.00     0.274 HD
ENDBRANCH   9  14
BRANCH  12  18
ATOM     18  C5  ZIN A   1      18.018  -4.595   8.282  0.00  0.00     0.210 C 
ATOM     19  C7  ZIN A   1      16.752  -4.921   9.076  0.00  0.00     0.042 C 
BRANCH  18  20
ATOM     20  N2  ZIN A   1      17.705  -3.601   7.246  0.00  0.00    -0.073 N 
ATOM     21  C1  ZIN A   1      18.715  -3.671   6.182  0.00  0.00     0.267 C 
ATOM     22  H3  ZIN A   1      17.708  -2.679   7.653  0.00  0.00     0.277 HD
ATOM     23  H4  ZIN A   1      16.794  -3.796   6.859  0.00  0.00     0.277 HD
ENDBRANCH  18  20
ENDBRANCH  12  18
ENDBRANCH   7   8
ENDBRANCH   1   7
BRANCH   6  24
ATOM     24  O57 ZIN A   1      15.688   0.132  11.411  0.00  0.00    -0.390 OA
ATOM     25  H81 ZIN A   1      15.518   0.193  10.461  0.00  0.00     0.210 HD
ENDBRANCH   6  24
BRANCH   2  26
ATOM     26  N25 ZIN A   1      18.468   0.190   8.232  0.00  0.00    -0.072 N 
ATOM     27  H26 ZIN A   1      17.961   0.496   7.414  0.00  0.00     0.274 HD
ATOM     28  H27 ZIN A   1      19.384   0.611   8.240  0.00  0.00     0.274 HD
ATOM     29  H28 ZIN A   1      18.560  -0.815   8.214  0.00  0.00     0.274 HD
ENDBRANCH   2  26
BRANCH   5  30
ATOM     30  O38 ZIN A   1      19.043   0.940  12.641  0.00  0.00    -0.349 OA
BRANCH  30  31
ATOM     31  C39 ZIN A   1      19.271   0.700  14.032  0.00  0.00     0.291 C 
ATOM     32  C52 ZIN A   1      18.634   1.824  14.854  0.00  0.00     0.207 C 
ATOM     33  C46 ZIN A   1      18.831   1.528  16.345  0.00  0.00     0.254 C 
ATOM     34  C43 ZIN A   1      18.226   0.158  16.666  0.00  0.00     0.106 C 
ATOM     35  C42 ZIN A   1      18.879  -0.901  15.774  0.00  0.00     0.210 C 
ATOM     36  C44 ZIN A   1      18.485  -0.183  18.136  0.00  0.00     0.050 C 
ATOM     37  O41 ZIN A   1      18.687  -0.551  14.402  0.00  0.00    -0.356 OA
BRANCH  32  38
ATOM     38  O54 ZIN A   1      19.256   3.068  14.529  0.00  0.00    -0.388 OA
ATOM     39  H80 ZIN A   1      19.195   3.733  15.228  0.00  0.00     0.210 HD
ENDBRANCH  32  38
BRANCH  33  40
ATOM     40  N48 ZIN A   1      18.158   2.561  17.144  0.00  0.00    -0.069 N 
ATOM     41  H49 ZIN A   1      17.710   3.223  16.530  0.00  0.00     0.277 HD
ATOM     42  H50 ZIN A   1      17.465   2.129  17.737  0.00  0.00     0.277 HD
ATOM     43  C51 ZIN A   1      19.149   3.258  17.976  0.00  0.00     0.267 C 
ENDBRANCH  33  40
BRANCH  34  44
ATOM     44  O45 ZIN A   1      16.819   0.186  16.423  0.00  0.00    -0.386 OA
ATOM     45  H76 ZIN A   1      16.284  -0.103  17.175  0.00  0.00     0.210 HD
ENDBRANCH  34  44
ENDBRANCH  30  31
ENDBRANCH   5  30
BRANCH   4  46
ATOM     46  N32 ZIN A   1      18.177   3.520  11.811  0.00  0.00    -0.072 N 
ATOM     47  H33 ZIN A   1      17.621   3.844  12.589  0.00  0.00     0.274 HD
ATOM     48  H34 ZIN A   1      19.117   3.330  12.126  0.00  0.00     0.274 HD
ATOM     49  H35 ZIN A   1      18.198   4.230  11.094  0.00  0.00     0.274 HD
ENDBRANCH   4  46
TORSDOF 13
ENDMDL
MODEL 2
REMARK VINA RESULT:      -8.0      1.666      7.541
REMARK  13 active torsions:
REMARK  status: ('A' for Active; 'I' for Inactive)
REMARK    1  A    between atoms: N2_2  and  C5_5 
REMARK    2  A    between atoms: C5_5  and  C8_7 
REMARK    3  A    between atoms: C12_10  and  N14_11 
REMARK    4  A    between atoms: C18_15  and  O20_16 
REMARK    5  A    between atoms: O20_16  and  C21_17 
REMARK    6  A    between atoms: C23_18  and  N25_19 
REMARK    7  A    between atoms: C30_24  and  N32_25 
REMARK    8  A    between atoms: C36_29  and  O38_30 
REMARK    9  A    between atoms: O38_30  and  C39_31 
REMARK   10  A    between atoms: C43_34  and  O45_36 
REMARK   11  A    between atoms: C46_37  and  N48_38 
REMARK   12  A    between atoms: C52_42  and  O54_43 
REMARK   13  A    between atoms: C55_44  and  O57_45 
ROOT
ATOM      1  C21 ZIN A   1      19.347   1.564  13.120  0.00  0.00     0.186 C 
ATOM      2  C23 ZIN A   1      19.254   2.966  12.513  0.00  0.00     0.217 C 
ATOM      3  C29 ZIN A   1      18.521   2.894  11.174  0.00  0.00     0.071 C 
ATOM      4  C30 ZIN A   1      19.287   1.976  10.220  0.00  0.00     0.217 C 
ATOM      5  C36 ZIN A   1      19.380   0.574  10.827  0.00  0.00     0.186 C 
ATOM      6  C55 ZIN A   1      20.115   0.646  12.167  0.00  0.00     0.180 C 
ENDROOT
BRANCH   1   7
ATOM      7  O20 ZIN A   1      18.031   1.045  13.325  0.00  0.00    -0.349 OA
BRANCH   7   8
ATOM      8  C18 ZIN A   1      17.680   0.880  14.700  0.00  0.00     0.291 C 
ATOM      9  C12 ZIN A   1      17.704  -0.609  15.057  0.00  0.00     0.238 C 
ATOM     10  C11 ZIN A   1      17.385  -0.774  16.546  0.00  0.00     0.040 C 
ATOM     11  C10 ZIN A   1      18.392   0.037  17.366  0.00  0.00     0.036 C 
ATOM     12  C8  ZIN A   1      18.341   1.501  16.920  0.00  0.00     0.155 C 
ATOM     13  O58 ZIN A   1      18.616   1.581  15.520  0.00  0.00    -0.352 OA
BRANCH   9  14
ATOM     14  N14 ZIN A   1      19.037  -1.160  14.776  0.00  0.00    -0.070 N 
ATOM     15  H15 ZIN A   1      19.157  -1.256  13.780  0.00  0.00     0.274 HD
ATOM     16  H16 ZIN A   1      19.742  -0.538  15.142  0.00  0.00     0.274 HD
ATOM     17  H17 ZIN A   1      19.126  -2.064  15.215  0.00  0.00     0.274 HD
ENDBRANCH   9  14
BRANCH  12  18
ATOM     18  C5  ZIN A   1      19.387   2.308  17.693  0.00  0.00     0.210 C 
ATOM     19  C7  ZIN A   1      19.685   3.607  16.943  0.00  0.00     0.042 C 
BRANCH  18  20
ATOM     20  N2  ZIN A   1      18.871   2.622  19.032  0.00  0.00    -0.073 N 
ATOM     21  C1  ZIN A   1      17.946   3.760  18.945  0.00  0.00     0.267 C 
ATOM     22  H3  ZIN A   1      19.638   2.859  19.642  0.00  0.00     0.277 HD
ATOM     23  H4  ZIN A   1      18.383   1.819  19.401  0.00  0.00     0.277 HD
ENDBRANCH  18  20
ENDBRANCH  12  18
ENDBRANCH   7   8
ENDBRANCH   1   7
BRANCH   6  24
ATOM     24  O57 ZIN A   1      21.430   1.164  11.962  0.00  0.00    -0.390 OA
ATOM     25  H81 ZIN A   1      22.001   0.590  11.433  0.00  0.00     0.210 HD
ENDBRANCH   6  24
BRANCH   2  26
ATOM     26  N25 ZIN A   1      18.518   3.848  13.429  0.00  0.00    -0.072 N 
ATOM     27  H26 ZIN A   1      19.172   4.344  14.017  0.00  0.00     0.274 HD
ATOM     28  H27 ZIN A   1      17.975   4.509  12.895  0.00  0.00     0.274 HD
ATOM     29  H28 ZIN A   1      17.902   3.295  14.005  0.00  0.00     0.274 HD
ENDBRANCH   2  26
BRANCH   5  30
ATOM     30  O38 ZIN A   1      18.064   0.056  11.032  0.00  0.00    -0.349 OA
BRANCH  30  31
ATOM     31  C39 ZIN A   1      17.935  -1.337  10.735  0.00  0.00     0.291 C 
ATOM     32  C52 ZIN A   1      18.772  -1.674   9.498  0.00  0.00     0.207 C 
ATOM     33  C46 ZIN A   1      18.677  -3.178   9.223  0.00  0.00     0.254 C 
ATOM     34  C43 ZIN A   1      19.142  -3.943  10.466  0.00  0.00     0.106 C 
ATOM     35  C42 ZIN A   1      18.291  -3.518  11.665  0.00  0.00     0.210 C 
ATOM     36  C44 ZIN A   1      18.979  -5.447  10.230  0.00  0.00     0.050 C 
ATOM     37  O41 ZIN A   1      18.400  -2.105  11.847  0.00  0.00    -0.356 OA
BRANCH  32  38
ATOM     38  O54 ZIN A   1      18.273  -0.951   8.371  0.00  0.00    -0.388 OA
ATOM     39  H80 ZIN A   1      17.315  -0.820   8.380  0.00  0.00     0.210 HD
ENDBRANCH  32  38
BRANCH  33  40
ATOM     40  N48 ZIN A   1      19.535  -3.525   8.082  0.00  0.00    -0.069 N 
ATOM     41  H49 ZIN A   1      20.059  -2.712   7.796  0.00  0.00     0.277 HD
ATOM     42  H50 ZIN A   1      20.173  -4.259   8.353  0.00  0.00     0.277 HD
ATOM     43  C51 ZIN A   1      18.701  -3.988   6.965  0.00  0.00     0.267 C 
ENDBRANCH  33  40
BRANCH  34  44
ATOM     44  O45 ZIN A   1      20.515  -3.647  10.724  0.00  0.00    -0.386 OA
ATOM     45  H76 ZIN A   1      21.132  -4.065  10.107  0.00  0.00     0.210 HD
ENDBRANCH  34  44
ENDBRANCH  30  31
ENDBRANCH   5  30
BRANCH   4  46
ATOM     46  N32 ZIN A   1      18.582   1.907   8.933  0.00  0.00    -0.072 N 
ATOM     47  H33 ZIN A   1      18.865   2.682   8.353  0.00  0.00     0.274 HD
ATOM     48  H34 ZIN A   1      18.811   1.039   8.470  0.00  0.00     0.274 HD
ATOM     49  H35 ZIN A   1      17.587   1.951   9.092  0.00  0.00     0.274 HD
ENDBRANCH   4  46
TORSDOF 13
ENDMDL
MODEL 3
REMARK VINA RESULT:      -7.9      2.954      6.978
REMARK  13 active torsions:
REMARK  status: ('A' for Active; 'I' for Inactive)
REMARK    1  A    between atoms: N2_2  and  C5_5 
REMARK    2  A    between atoms: C5_5  and  C8_7 
REMARK    3  A    between atoms: C12_10  and  N14_11 
REMARK    4  A    between atoms: C18_15  and  O20_16 
REMARK    5  A    between atoms: O20_16  and  C21_17 
REMARK    6  A    between atoms: C23_18  and  N25_19 
REMARK    7  A    between atoms: C30_24  and  N32_25 
REMARK    8  A    between atoms: C36_29  and  O38_30 
REMARK    9  A    between atoms: O38_30  and  C39_31 
REMARK   10  A    between atoms: C43_34  and  O45_36 
REMARK   11  A    between atoms: C46_37  and  N48_38 
REMARK   12  A    between atoms: C52_42  and  O54_43 
REMARK   13  A    between atoms: C55_44  and  O57_45 
ROOT
ATOM      1  C21 ZIN A   1      18.895   4.239  16.954  0.00  0.00     0.186 C 
ATOM      2  C23 ZIN A   1      17.830   5.284  17.292  0.00  0.00     0.217 C 
ATOM      3  C29 ZIN A   1      17.079   5.677  16.019  0.00  0.00     0.071 C 
ATOM      4  C30 ZIN A   1      18.064   6.262  15.005  0.00  0.00     0.217 C 
ATOM      5  C36 ZIN A   1      19.129   5.217  14.667  0.00  0.00     0.186 C 
ATOM      6  C55 ZIN A   1      19.881   4.824  15.940  0.00  0.00     0.180 C 
ENDROOT
BRANCH   1   7
ATOM      7  O20 ZIN A   1      18.267   3.083  16.395  0.00  0.00    -0.349 OA
BRANCH   7   8
ATOM      8  C18 ZIN A   1      18.938   1.857  16.692  0.00  0.00     0.291 C 
ATOM      9  C12 ZIN A   1      18.536   1.379  18.090  0.00  0.00     0.238 C 
ATOM     10  C11 ZIN A   1      19.212   0.036  18.377  0.00  0.00     0.040 C 
ATOM     11  C10 ZIN A   1      18.820  -0.965  17.285  0.00  0.00     0.036 C 
ATOM     12  C8  ZIN A   1      19.213  -0.397  15.919  0.00  0.00     0.155 C 
ATOM     13  O58 ZIN A   1      18.574   0.867  15.728  0.00  0.00    -0.352 OA
BRANCH   9  14
ATOM     14  N14 ZIN A   1      17.077   1.218  18.152  0.00  0.00    -0.070 N 
ATOM     15  H15 ZIN A   1      16.741   0.860  17.271  0.00  0.00     0.274 HD
ATOM     16  H16 ZIN A   1      16.841   0.571  18.890  0.00  0.00     0.274 HD
ATOM     17  H17 ZIN A   1      16.647   2.112  18.338  0.00  0.00     0.274 HD
ENDBRANCH   9  14
BRANCH  12  18
ATOM     18  C5  ZIN A   1      18.771  -1.364  14.818  0.00  0.00     0.210 C 
ATOM     19  C7  ZIN A   1      17.617  -0.743  14.028  0.00  0.00     0.042 C 
BRANCH  18  20
ATOM     20  N2  ZIN A   1      19.899  -1.625  13.914  0.00  0.00    -0.073 N 
ATOM     21  C1  ZIN A   1      19.451  -2.482  12.808  0.00  0.00     0.267 C 
ATOM     22  H3  ZIN A   1      20.636  -2.090  14.422  0.00  0.00     0.277 HD
ATOM     23  H4  ZIN A   1      20.243  -0.751  13.545  0.00  0.00     0.277 HD
ENDBRANCH  18  20
ENDBRANCH  12  18
ENDBRANCH   7   8
ENDBRANCH   1   7
BRANCH   6  24
ATOM     24  O57 ZIN A   1      20.508   5.979  16.499  0.00  0.00    -0.390 OA
ATOM     25  H81 ZIN A   1      19.967   6.443  17.152  0.00  0.00     0.210 HD
ENDBRANCH   6  24
BRANCH   2  26
ATOM     26  N25 ZIN A   1      16.884   4.723  18.266  0.00  0.00    -0.072 N 
ATOM     27  H26 ZIN A   1      16.637   3.783  17.991  0.00  0.00     0.274 HD
ATOM     28  H27 ZIN A   1      17.312   4.706  19.179  0.00  0.00     0.274 HD
ATOM     29  H28 ZIN A   1      16.052   5.294  18.294  0.00  0.00     0.274 HD
ENDBRANCH   2  26
BRANCH   5  30
ATOM     30  O38 ZIN A   1      18.501   4.060  14.109  0.00  0.00    -0.349 OA
BRANCH  30  31
ATOM     31  C39 ZIN A   1      18.927   3.752  12.779  0.00  0.00     0.291 C 
ATOM     32  C52 ZIN A   1      19.008   2.233  12.609  0.00  0.00     0.207 C 
ATOM     33  C46 ZIN A   1      19.407   1.910  11.166  0.00  0.00     0.254 C 
ATOM     34  C43 ZIN A   1      18.392   2.549  10.212  0.00  0.00     0.106 C 
ATOM     35  C42 ZIN A   1      18.335   4.056  10.476  0.00  0.00     0.210 C 
ATOM     36  C44 ZIN A   1      18.824   2.299   8.765  0.00  0.00     0.050 C 
ATOM     37  O41 ZIN A   1      17.990   4.287  11.843  0.00  0.00    -0.356 OA
BRANCH  32  38
ATOM     38  O54 ZIN A   1      19.987   1.702  13.505  0.00  0.00    -0.388 OA
ATOM     39  H80 ZIN A   1      20.887   2.009  13.330  0.00  0.00     0.210 HD
ENDBRANCH  32  38
BRANCH  33  40
ATOM     40  N48 ZIN A   1      19.415   0.454  10.971  0.00  0.00    -0.069 N 
ATOM     41  H49 ZIN A   1      19.085   0.001  11.810  0.00  0.00     0.277 HD
ATOM     42  H50 ZIN A   1      18.810   0.215  10.199  0.00  0.00     0.277 HD
ATOM     43  C51 ZIN A   1      20.783   0.006  10.678  0.00  0.00     0.267 C 
ENDBRANCH  33  40
BRANCH  34  44
ATOM     44  O45 ZIN A   1      17.102   1.976  10.432  0.00  0.00    -0.386 OA
ATOM     45  H76 ZIN A   1      16.716   1.563   9.648  0.00  0.00     0.210 HD
ENDBRANCH  34  44
ENDBRANCH  30  31
ENDBRANCH   5  30
BRANCH   4  46
ATOM     46  N32 ZIN A   1      17.343   6.639  13.782  0.00  0.00    -0.072 N 
ATOM     47  H33 ZIN A   1      17.961   7.153  13.172  0.00  0.00     0.274 HD
ATOM     48  H34 ZIN A   1      17.021   5.806  13.311  0.00  0.00     0.274 HD
ATOM     49  H35 ZIN A   1      16.551   7.217  14.023  0.00  0.00     0.274 HD
ENDBRANCH   4  46
TORSDOF 13
ENDMDL
MODEL 4
REMARK VINA RESULT:      -7.9      2.151      7.578
REMARK  13 active torsions:
REMARK  status: ('A' for Active; 'I' for Inactive)
REMARK    1  A    between atoms: N2_2  and  C5_5 
REMARK    2  A    between atoms: C5_5  and  C8_7 
REMARK    3  A    between atoms: C12_10  and  N14_11 
REMARK    4  A    between atoms: C18_15  and  O20_16 
REMARK    5  A    between atoms: O20_16  and  C21_17 
REMARK    6  A    between atoms: C23_18  and  N25_19 
REMARK    7  A    between atoms: C30_24  and  N32_25 
REMARK    8  A    between atoms: C36_29  and  O38_30 
REMARK    9  A    between atoms: O38_30  and  C39_31 
REMARK   10  A    between atoms: C43_34  and  O45_36 
REMARK   11  A    between atoms: C46_37  and  N48_38 
REMARK   12  A    between atoms: C52_42  and  O54_43 
REMARK   13  A    between atoms: C55_44  and  O57_45 
ROOT
ATOM      1  C21 ZIN A   1      18.931   2.805  13.289  0.00  0.00     0.186 C 
ATOM      2  C23 ZIN A   1      18.073   4.067  13.414  0.00  0.00     0.217 C 
ATOM      3  C29 ZIN A   1      17.280   4.274  12.123  0.00  0.00     0.071 C 
ATOM      4  C30 ZIN A   1      18.249   4.431  10.949  0.00  0.00     0.217 C 
ATOM      5  C36 ZIN A   1      19.106   3.170  10.824  0.00  0.00     0.186 C 
ATOM      6  C55 ZIN A   1      19.900   2.962  12.115  0.00  0.00     0.180 C 
ENDROOT
BRANCH   1   7
ATOM      7  O20 ZIN A   1      18.085   1.675  13.062  0.00  0.00    -0.349 OA
BRANCH   7   8
ATOM      8  C18 ZIN A   1      17.909   0.842  14.209  0.00  0.00     0.291 C 
ATOM      9  C12 ZIN A   1      18.463  -0.555  13.916  0.00  0.00     0.238 C 
ATOM     10  C11 ZIN A   1      18.324  -1.424  15.169  0.00  0.00     0.040 C 
ATOM     11  C10 ZIN A   1      19.051  -0.744  16.332  0.00  0.00     0.036 C 
ATOM     12  C8  ZIN A   1      18.474   0.660  16.533  0.00  0.00     0.155 C 
ATOM     13  O58 ZIN A   1      18.607   1.406  15.321  0.00  0.00    -0.352 OA
BRANCH   9  14
ATOM     14  N14 ZIN A   1      19.880  -0.453  13.543  0.00  0.00    -0.070 N 
ATOM     15  H15 ZIN A   1      20.158  -1.288  13.049  0.00  0.00     0.274 HD
ATOM     16  H16 ZIN A   1      20.015   0.350  12.948  0.00  0.00     0.274 HD
ATOM     17  H17 ZIN A   1      20.441  -0.353  14.376  0.00  0.00     0.274 HD
ENDBRANCH   9  14
BRANCH  12  18
ATOM     18  C5  ZIN A   1      19.235   1.370  17.655  0.00  0.00     0.210 C 
ATOM     19  C7  ZIN A   1      19.344   2.862  17.333  0.00  0.00     0.042 C 
BRANCH  18  20
ATOM     20  N2  ZIN A   1      18.515   1.193  18.923  0.00  0.00    -0.073 N 
ATOM     21  C1  ZIN A   1      17.176   1.786  18.812  0.00  0.00     0.267 C 
ATOM     22  H3  ZIN A   1      19.024   1.648  19.665  0.00  0.00     0.277 HD
ATOM     23  H4  ZIN A   1      18.432   0.208  19.127  0.00  0.00     0.277 HD
ENDBRANCH  18  20
ENDBRANCH  12  18
ENDBRANCH   7   8
ENDBRANCH   1   7
BRANCH   6  24
ATOM     24  O57 ZIN A   1      20.744   4.091  12.342  0.00  0.00    -0.390 OA
ATOM     25  H81 ZIN A   1      21.119   4.129  13.233  0.00  0.00     0.210 HD
ENDBRANCH   6  24
BRANCH   2  26
ATOM     26  N25 ZIN A   1      17.143   3.917  14.542  0.00  0.00    -0.072 N 
ATOM     27  H26 ZIN A   1      16.278   4.392  14.329  0.00  0.00     0.274 HD
ATOM     28  H27 ZIN A   1      16.960   2.937  14.698  0.00  0.00     0.274 HD
ATOM     29  H28 ZIN A   1      17.553   4.319  15.371  0.00  0.00     0.274 HD
ENDBRANCH   2  26
BRANCH   5  30
ATOM     30  O38 ZIN A   1      18.261   2.040  10.597  0.00  0.00    -0.349 OA
BRANCH  30  31
ATOM     31  C39 ZIN A   1      18.729   1.160   9.572  0.00  0.00     0.291 C 
ATOM     32  C52 ZIN A   1      17.985  -0.175   9.667  0.00  0.00     0.207 C 
ATOM     33  C46 ZIN A   1      18.450  -1.090   8.529  0.00  0.00     0.254 C 
ATOM     34  C43 ZIN A   1      18.209  -0.384   7.191  0.00  0.00     0.106 C 
ATOM     35  C42 ZIN A   1      18.944   0.959   7.192  0.00  0.00     0.210 C 
ATOM     36  C44 ZIN A   1      18.740  -1.256   6.050  0.00  0.00     0.050 C 
ATOM     37  O41 ZIN A   1      18.488   1.749   8.292  0.00  0.00    -0.356 OA
BRANCH  32  38
ATOM     38  O54 ZIN A   1      18.270  -0.794  10.923  0.00  0.00    -0.388 OA
ATOM     39  H80 ZIN A   1      19.137  -1.221  10.963  0.00  0.00     0.210 HD
ENDBRANCH  32  38
BRANCH  33  40
ATOM     40  N48 ZIN A   1      17.688  -2.346   8.565  0.00  0.00    -0.069 N 
ATOM     41  H49 ZIN A   1      16.990  -2.295   9.292  0.00  0.00     0.277 HD
ATOM     42  H50 ZIN A   1      17.237  -2.491   7.675  0.00  0.00     0.277 HD
ATOM     43  C51 ZIN A   1      18.601  -3.464   8.840  0.00  0.00     0.267 C 
ENDBRANCH  33  40
BRANCH  34  44
ATOM     44  O45 ZIN A   1      16.809  -0.162   7.011  0.00  0.00    -0.386 OA
ATOM     45  H76 ZIN A   1      16.599   0.507   6.345  0.00  0.00     0.210 HD
ENDBRANCH  34  44
ENDBRANCH  30  31
ENDBRANCH   5  30
BRANCH   4  46
ATOM     46  N32 ZIN A   1      17.487   4.630   9.709  0.00  0.00    -0.072 N 
ATOM     47  H33 ZIN A   1      16.853   5.406   9.825  0.00  0.00     0.274 HD
ATOM     48  H34 ZIN A   1      18.124   4.826   8.951  0.00  0.00     0.274 HD
ATOM     49  H35 ZIN A   1      16.961   3.794   9.499  0.00  0.00     0.274 HD
ENDBRANCH   4  46
TORSDOF 13
ENDMDL
MODEL 5
REMARK VINA RESULT:      -7.6      2.284      8.225
REMARK  13 active torsions:
REMARK  status: ('A' for Active; 'I' for Inactive)
REMARK    1  A    between atoms: N2_2  and  C5_5 
REMARK    2  A    between atoms: C5_5  and  C8_7 
REMARK    3  A    between atoms: C12_10  and  N14_11 
REMARK    4  A    between atoms: C18_15  and  O20_16 
REMARK    5  A    between atoms: O20_16  and  C21_17 
REMARK    6  A    between atoms: C23_18  and  N25_19 
REMARK    7  A    between atoms: C30_24  and  N32_25 
REMARK    8  A    between atoms: C36_29  and  O38_30 
REMARK    9  A    between atoms: O38_30  and  C39_31 
REMARK   10  A    between atoms: C43_34  and  O45_36 
REMARK   11  A    between atoms: C46_37  and  N48_38 
REMARK   12  A    between atoms: C52_42  and  O54_43 
REMARK   13  A    between atoms: C55_44  and  O57_45 
ROOT
ATOM      1  C21 ZIN A   1      17.935   0.578  12.720  0.00  0.00     0.186 C 
ATOM      2  C23 ZIN A   1      17.896  -0.549  13.755  0.00  0.00     0.217 C 
ATOM      3  C29 ZIN A   1      18.508  -1.814  13.154  0.00  0.00     0.071 C 
ATOM      4  C30 ZIN A   1      17.710  -2.230  11.916  0.00  0.00     0.217 C 
ATOM      5  C36 ZIN A   1      17.750  -1.103  10.882  0.00  0.00     0.186 C 
ATOM      6  C55 ZIN A   1      17.136   0.163  11.483  0.00  0.00     0.180 C 
ENDROOT
BRANCH   1   7
ATOM      7  O20 ZIN A   1      19.291   0.836  12.348  0.00  0.00    -0.349 OA
BRANCH   7   8
ATOM      8  C18 ZIN A   1      19.763   2.129  12.730  0.00  0.00     0.291 C 
ATOM      9  C12 ZIN A   1      19.930   3.001  11.483  0.00  0.00     0.238 C 
ATOM     10  C11 ZIN A   1      20.379   4.403  11.906  0.00  0.00     0.040 C 
ATOM     11  C10 ZIN A   1      19.354   4.981  12.887  0.00  0.00     0.036 C 
ATOM     12  C8  ZIN A   1      19.210   4.033  14.080  0.00  0.00     0.155 C 
ATOM     13  O58 ZIN A   1      18.821   2.739  13.615  0.00  0.00    -0.352 OA
BRANCH   9  14
ATOM     14  N14 ZIN A   1      18.649   3.090  10.770  0.00  0.00    -0.070 N 
ATOM     15  H15 ZIN A   1      18.458   2.212  10.312  0.00  0.00     0.274 HD
ATOM     16  H16 ZIN A   1      17.911   3.294  11.428  0.00  0.00     0.274 HD
ATOM     17  H17 ZIN A   1      18.697   3.825  10.081  0.00  0.00     0.274 HD
ENDBRANCH   9  14
BRANCH  12  18
ATOM     18  C5  ZIN A   1      18.144   4.573  15.036  0.00  0.00     0.210 C 
ATOM     19  C7  ZIN A   1      16.893   4.955  14.242  0.00  0.00     0.042 C 
BRANCH  18  20
ATOM     20  N2  ZIN A   1      17.802   3.539  16.022  0.00  0.00    -0.073 N 
ATOM     21  C1  ZIN A   1      18.798   3.546  17.102  0.00  0.00     0.267 C 
ATOM     22  H3  ZIN A   1      17.797   2.636  15.575  0.00  0.00     0.277 HD
ATOM     23  H4  ZIN A   1      16.888   3.731  16.406  0.00  0.00     0.277 HD
ENDBRANCH  18  20
ENDBRANCH  12  18
ENDBRANCH   7   8
ENDBRANCH   1   7
BRANCH   6  24
ATOM     24  O57 ZIN A   1      15.782  -0.094  11.855  0.00  0.00    -0.390 OA
ATOM     25  H81 ZIN A   1      15.618  -1.005  12.136  0.00  0.00     0.210 HD
ENDBRANCH   6  24
BRANCH   2  26
ATOM     26  N25 ZIN A   1      18.662  -0.150  14.943  0.00  0.00    -0.072 N 
ATOM     27  H26 ZIN A   1      19.544  -0.642  14.956  0.00  0.00     0.274 HD
ATOM     28  H27 ZIN A   1      18.832   0.844  14.916  0.00  0.00     0.274 HD
ATOM     29  H28 ZIN A   1      18.138  -0.379  15.774  0.00  0.00     0.274 HD
ENDBRANCH   2  26
BRANCH   5  30
ATOM     30  O38 ZIN A   1      19.106  -0.846  10.510  0.00  0.00    -0.349 OA
BRANCH  30  31
ATOM     31  C39 ZIN A   1      19.294  -0.641   9.108  0.00  0.00     0.291 C 
ATOM     32  C52 ZIN A   1      18.668  -1.804   8.334  0.00  0.00     0.207 C 
ATOM     33  C46 ZIN A   1      18.821  -1.547   6.831  0.00  0.00     0.254 C 
ATOM     34  C43 ZIN A   1      18.173  -0.203   6.486  0.00  0.00     0.106 C 
ATOM     35  C42 ZIN A   1      18.818   0.898   7.332  0.00  0.00     0.210 C 
ATOM     36  C44 ZIN A   1      18.388   0.101   5.001  0.00  0.00     0.050 C 
ATOM     37  O41 ZIN A   1      18.668   0.583   8.717  0.00  0.00    -0.356 OA
BRANCH  32  38
ATOM     38  O54 ZIN A   1      19.331  -3.022   8.680  0.00  0.00    -0.388 OA
ATOM     39  H80 ZIN A   1      19.027  -3.413   9.510  0.00  0.00     0.210 HD
ENDBRANCH  32  38
BRANCH  33  40
ATOM     40  N48 ZIN A   1      18.158  -2.620   6.078  0.00  0.00    -0.069 N 
ATOM     41  H49 ZIN A   1      17.621  -3.193   6.711  0.00  0.00     0.277 HD
ATOM     42  H50 ZIN A   1      17.544  -2.216   5.387  0.00  0.00     0.277 HD
ATOM     43  C51 ZIN A   1      19.171  -3.447   5.409  0.00  0.00     0.267 C 
ENDBRANCH  33  40
BRANCH  34  44
ATOM     44  O45 ZIN A   1      16.773  -0.260   6.764  0.00  0.00    -0.386 OA
ATOM     45  H76 ZIN A   1      16.556  -0.209   7.705  0.00  0.00     0.210 HD
ENDBRANCH  34  44
ENDBRANCH  30  31
ENDBRANCH   5  30
BRANCH   4  46
ATOM     46  N32 ZIN A   1      18.299  -3.446  11.339  0.00  0.00    -0.072 N 
ATOM     47  H33 ZIN A   1      18.119  -3.467  10.347  0.00  0.00     0.274 HD
ATOM     48  H34 ZIN A   1      19.295  -3.446  11.500  0.00  0.00     0.274 HD
ATOM     49  H35 ZIN A   1      17.887  -4.258  11.774  0.00  0.00     0.274 HD
ENDBRANCH   4  46
TORSDOF 13
ENDMDL
MODEL 6
REMARK VINA RESULT:      -7.4      2.293      4.408
REMARK  13 active torsions:
REMARK  status: ('A' for Active; 'I' for Inactive)
REMARK    1  A    between atoms: N2_2  and  C5_5 
REMARK    2  A    between atoms: C5_5  and  C8_7 
REMARK    3  A    between atoms: C12_10  and  N14_11 
REMARK    4  A    between atoms: C18_15  and  O20_16 
REMARK    5  A    between atoms: O20_16  and  C21_17 
REMARK    6  A    between atoms: C23_18  and  N25_19 
REMARK    7  A    between atoms: C30_24  and  N32_25 
REMARK    8  A    between atoms: C36_29  and  O38_30 
REMARK    9  A    between atoms: O38_30  and  C39_31 
REMARK   10  A    between atoms: C43_34  and  O45_36 
REMARK   11  A    between atoms: C46_37  and  N48_38 
REMARK   12  A    between atoms: C52_42  and  O54_43 
REMARK   13  A    between atoms: C55_44  and  O57_45 
ROOT
ATOM      1  C21 ZIN A   1      19.551  -1.542  10.070  0.00  0.00     0.186 C 
ATOM      2  C23 ZIN A   1      19.684  -2.888  10.786  0.00  0.00     0.217 C 
ATOM      3  C29 ZIN A   1      19.048  -2.792  12.173  0.00  0.00     0.071 C 
ATOM      4  C30 ZIN A   1      19.758  -1.708  12.987  0.00  0.00     0.217 C 
ATOM      5  C36 ZIN A   1      19.625  -0.363  12.270  0.00  0.00     0.186 C 
ATOM      6  C55 ZIN A   1      20.262  -0.458  10.882  0.00  0.00     0.180 C 
ENDROOT
BRANCH   1   7
ATOM      7  O20 ZIN A   1      18.167  -1.208   9.937  0.00  0.00    -0.349 OA
BRANCH   7   8
ATOM      8  C18 ZIN A   1      17.692  -1.223   8.590  0.00  0.00     0.291 C 
ATOM      9  C12 ZIN A   1      17.423   0.212   8.127  0.00  0.00     0.238 C 
ATOM     10  C11 ZIN A   1      16.972   0.192   6.664  0.00  0.00     0.040 C 
ATOM     11  C10 ZIN A   1      18.046  -0.499   5.819  0.00  0.00     0.036 C 
ATOM     12  C8  ZIN A   1      18.291  -1.907   6.369  0.00  0.00     0.155 C 
ATOM     13  O58 ZIN A   1      18.677  -1.819   7.743  0.00  0.00    -0.352 OA
BRANCH   9  14
ATOM     14  N14 ZIN A   1      18.652   1.007   8.251  0.00  0.00    -0.070 N 
ATOM     15  H15 ZIN A   1      19.454   0.401   8.167  0.00  0.00     0.274 HD
ATOM     16  H16 ZIN A   1      18.679   1.703   7.521  0.00  0.00     0.274 HD
ATOM     17  H17 ZIN A   1      18.668   1.463   9.152  0.00  0.00     0.274 HD
ENDBRANCH   9  14
BRANCH  12  18
ATOM     18  C5  ZIN A   1      19.405  -2.583   5.568  0.00  0.00     0.210 C 
ATOM     19  C7  ZIN A   1      19.697  -3.961   6.163  0.00  0.00     0.042 C 
BRANCH  18  20
ATOM     20  N2  ZIN A   1      18.981  -2.731   4.169  0.00  0.00    -0.073 N 
ATOM     21  C1  ZIN A   1      18.130  -3.922   4.041  0.00  0.00     0.267 C 
ATOM     22  H3  ZIN A   1      19.793  -2.833   3.580  0.00  0.00     0.277 HD
ATOM     23  H4  ZIN A   1      18.460  -1.914   3.888  0.00  0.00     0.277 HD
ENDBRANCH  18  20
ENDBRANCH  12  18
ENDBRANCH   7   8
ENDBRANCH   1   7
BRANCH   6  24
ATOM     24  O57 ZIN A   1      21.644  -0.792  11.015  0.00  0.00    -0.390 OA
ATOM     25  H81 ZIN A   1      21.810  -1.737  11.135  0.00  0.00     0.210 HD
ENDBRANCH   6  24
BRANCH   2  26
ATOM     26  N25 ZIN A   1      19.002  -3.928  10.005  0.00  0.00    -0.072 N 
ATOM     27  H26 ZIN A   1      19.637  -4.696   9.840  0.00  0.00     0.274 HD
ATOM     28  H27 ZIN A   1      18.198  -4.260  10.516  0.00  0.00     0.274 HD
ATOM     29  H28 ZIN A   1      18.703  -3.544   9.121  0.00  0.00     0.274 HD
ENDBRANCH   2  26
BRANCH   5  30
ATOM     30  O38 ZIN A   1      18.241  -0.029  12.138  0.00  0.00    -0.349 OA
BRANCH  30  31
ATOM     31  C39 ZIN A   1      17.946   1.344  12.407  0.00  0.00     0.291 C 
ATOM     32  C52 ZIN A   1      18.737   1.804  13.635  0.00  0.00     0.207 C 
ATOM     33  C46 ZIN A   1      18.463   3.291  13.880  0.00  0.00     0.254 C 
ATOM     34  C43 ZIN A   1      18.832   4.081  12.621  0.00  0.00     0.106 C 
ATOM     35  C42 ZIN A   1      18.037   3.533  11.433  0.00  0.00     0.210 C 
ATOM     36  C44 ZIN A   1      18.489   5.559  12.827  0.00  0.00     0.050 C 
ATOM     37  O41 ZIN A   1      18.314   2.140  11.279  0.00  0.00    -0.356 OA
BRANCH  32  38
ATOM     38  O54 ZIN A   1      18.331   1.049  14.777  0.00  0.00    -0.388 OA
ATOM     39  H80 ZIN A   1      17.415   1.204  15.046  0.00  0.00     0.210 HD
ENDBRANCH  32  38
BRANCH  33  40
ATOM     40  N48 ZIN A   1      19.275   3.761  15.011  0.00  0.00    -0.069 N 
ATOM     41  H49 ZIN A   1      19.876   3.015  15.326  0.00  0.00     0.277 HD
ATOM     42  H50 ZIN A   1      19.837   4.546  14.717  0.00  0.00     0.277 HD
ATOM     43  C51 ZIN A   1      18.391   4.176  16.109  0.00  0.00     0.267 C 
ENDBRANCH  33  40
BRANCH  34  44
ATOM     44  O45 ZIN A   1      20.230   3.947  12.363  0.00  0.00    -0.386 OA
ATOM     45  H76 ZIN A   1      20.455   3.901  11.424  0.00  0.00     0.210 HD
ENDBRANCH  34  44
ENDBRANCH  30  31
ENDBRANCH   5  30
BRANCH   4  46
ATOM     46  N32 ZIN A   1      19.147  -1.616  14.320  0.00  0.00    -0.072 N 
ATOM     47  H33 ZIN A   1      19.583  -0.868  14.838  0.00  0.00     0.274 HD
ATOM     48  H34 ZIN A   1      18.160  -1.428  14.224  0.00  0.00     0.274 HD
ATOM     49  H35 ZIN A   1      19.278  -2.488  14.811  0.00  0.00     0.274 HD
ENDBRANCH   4  46
TORSDOF 13
ENDMDL
MODEL 7
REMARK VINA RESULT:      -7.4      1.898      5.156
REMARK  13 active torsions:
REMARK  status: ('A' for Active; 'I' for Inactive)
REMARK    1  A    between atoms: N2_2  and  C5_5 
REMARK    2  A    between atoms: C5_5  and  C8_7 
REMARK    3  A    between atoms: C12_10  and  N14_11 
REMARK    4  A    between atoms: C18_15  and  O20_16 
REMARK    5  A    between atoms: O20_16  and  C21_17 
REMARK    6  A    between atoms: C23_18  and  N25_19 
REMARK    7  A    between atoms: C30_24  and  N32_25 
REMARK    8  A    between atoms: C36_29  and  O38_30 
REMARK    9  A    between atoms: O38_30  and  C39_31 
REMARK   10  A    between atoms: C43_34  and  O45_36 
REMARK   11  A    between atoms: C46_37  and  N48_38 
REMARK   12  A    between atoms: C52_42  and  O54_43 
REMARK   13  A    between atoms: C55_44  and  O57_45 
ROOT
ATOM      1  C21 ZIN A   1      19.023  -3.315   9.128  0.00  0.00     0.186 C 
ATOM      2  C23 ZIN A   1      18.018  -4.439   8.867  0.00  0.00     0.217 C 
ATOM      3  C29 ZIN A   1      17.007  -4.495  10.013  0.00  0.00     0.071 C 
ATOM      4  C30 ZIN A   1      17.741  -4.761  11.329  0.00  0.00     0.217 C 
ATOM      5  C36 ZIN A   1      18.746  -3.637  11.589  0.00  0.00     0.186 C 
ATOM      6  C55 ZIN A   1      19.758  -3.581  10.443  0.00  0.00     0.180 C 
ENDROOT
BRANCH   1   7
ATOM      7  O20 ZIN A   1      18.330  -2.067   9.213  0.00  0.00    -0.349 OA
BRANCH   7   8
ATOM      8  C18 ZIN A   1      18.974  -0.997   8.519  0.00  0.00     0.291 C 
ATOM      9  C12 ZIN A   1      18.267  -0.758   7.181  0.00  0.00     0.238 C 
ATOM     10  C11 ZIN A   1      18.925   0.428   6.470  0.00  0.00     0.040 C 
ATOM     11  C10 ZIN A   1      18.867   1.655   7.386  0.00  0.00     0.036 C 
ATOM     12  C8  ZIN A   1      19.551   1.323   8.715  0.00  0.00     0.155 C 
ATOM     13  O58 ZIN A   1      18.911   0.192   9.309  0.00  0.00    -0.352 OA
BRANCH   9  14
ATOM     14  N14 ZIN A   1      16.848  -0.462   7.422  0.00  0.00    -0.070 N 
ATOM     15  H15 ZIN A   1      16.531   0.226   6.755  0.00  0.00     0.274 HD
ATOM     16  H16 ZIN A   1      16.306  -1.306   7.318  0.00  0.00     0.274 HD
ATOM     17  H17 ZIN A   1      16.734  -0.101   8.357  0.00  0.00     0.274 HD
ENDBRANCH   9  14
BRANCH  12  18
ATOM     18  C5  ZIN A   1      19.445   2.523   9.658  0.00  0.00     0.210 C 
ATOM     19  C7  ZIN A   1      17.994   3.004   9.710  0.00  0.00     0.042 C 
BRANCH  18  20
ATOM     20  N2  ZIN A   1      19.879   2.127  11.005  0.00  0.00    -0.073 N 
ATOM     21  C1  ZIN A   1      20.287   3.320  11.757  0.00  0.00     0.267 C 
ATOM     22  H3  ZIN A   1      20.658   1.491  10.934  0.00  0.00     0.277 HD
ATOM     23  H4  ZIN A   1      19.115   1.672  11.483  0.00  0.00     0.277 HD
ENDBRANCH  18  20
ENDBRANCH  12  18
ENDBRANCH   7   8
ENDBRANCH   1   7
BRANCH   6  24
ATOM     24  O57 ZIN A   1      20.450  -4.828  10.358  0.00  0.00    -0.390 OA
ATOM     25  H81 ZIN A   1      21.300  -4.838  10.818  0.00  0.00     0.210 HD
ENDBRANCH   6  24
BRANCH   2  26
ATOM     26  N25 ZIN A   1      17.313  -4.184   7.604  0.00  0.00    -0.072 N 
ATOM     27  H26 ZIN A   1      17.103  -5.062   7.153  0.00  0.00     0.274 HD
ATOM     28  H27 ZIN A   1      16.456  -3.687   7.792  0.00  0.00     0.274 HD
ATOM     29  H28 ZIN A   1      17.899  -3.627   6.999  0.00  0.00     0.274 HD
ENDBRANCH   2  26
BRANCH   5  30
ATOM     30  O38 ZIN A   1      18.053  -2.390  11.674  0.00  0.00    -0.349 OA
BRANCH  30  31
ATOM     31  C39 ZIN A   1      18.619  -1.474  12.615  0.00  0.00     0.291 C 
ATOM     32  C52 ZIN A   1      17.613  -0.357  12.907  0.00  0.00     0.207 C 
ATOM     33  C46 ZIN A   1      18.202   0.587  13.961  0.00  0.00     0.254 C 
ATOM     34  C43 ZIN A   1      18.554  -0.222  15.213  0.00  0.00     0.106 C 
ATOM     35  C42 ZIN A   1      19.523  -1.344  14.832  0.00  0.00     0.210 C 
ATOM     36  C44 ZIN A   1      19.215   0.697  16.244  0.00  0.00     0.050 C 
ATOM     37  O41 ZIN A   1      18.926  -2.165  13.827  0.00  0.00    -0.356 OA
BRANCH  32  38
ATOM     38  O54 ZIN A   1      17.347   0.374  11.708  0.00  0.00    -0.388 OA
ATOM     39  H80 ZIN A   1      17.615  -0.085  10.900  0.00  0.00     0.210 HD
ENDBRANCH  32  38
BRANCH  33  40
ATOM     40  N48 ZIN A   1      17.216   1.620  14.303  0.00  0.00    -0.069 N 
ATOM     41  H49 ZIN A   1      16.412   1.531  13.700  0.00  0.00     0.277 HD
ATOM     42  H50 ZIN A   1      16.930   1.506  15.264  0.00  0.00     0.277 HD
ATOM     43  C51 ZIN A   1      17.817   2.949  14.125  0.00  0.00     0.267 C 
ENDBRANCH  33  40
BRANCH  34  44
ATOM     44  O45 ZIN A   1      17.365  -0.785  15.769  0.00  0.00    -0.386 OA
ATOM     45  H76 ZIN A   1      16.672  -0.963  15.118  0.00  0.00     0.210 HD
ENDBRANCH  34  44
ENDBRANCH  30  31
ENDBRANCH   5  30
BRANCH   4  46
ATOM     46  N32 ZIN A   1      16.770  -4.815  12.430  0.00  0.00    -0.072 N 
ATOM     47  H33 ZIN A   1      16.967  -5.614  13.013  0.00  0.00     0.274 HD
ATOM     48  H34 ZIN A   1      16.839  -3.971  12.980  0.00  0.00     0.274 HD
ATOM     49  H35 ZIN A   1      15.838  -4.895  12.052  0.00  0.00     0.274 HD
ENDBRANCH   4  46
TORSDOF 13
ENDMDL
MODEL 8
REMARK VINA RESULT:      -7.4      2.296      7.661
REMARK  13 active torsions:
REMARK  status: ('A' for Active; 'I' for Inactive)
REMARK    1  A    between atoms: N2_2  and  C5_5 
REMARK    2  A    between atoms: C5_5  and  C8_7 
REMARK    3  A    between atoms: C12_10  and  N14_11 
REMARK    4  A    between atoms: C18_15  and  O20_16 
REMARK    5  A    between atoms: O20_16  and  C21_17 
REMARK    6  A    between atoms: C23_18  and  N25_19 
REMARK    7  A    between atoms: C30_24  and  N32_25 
REMARK    8  A    between atoms: C36_29  and  O38_30 
REMARK    9  A    between atoms: O38_30  and  C39_31 
REMARK   10  A    between atoms: C43_34  and  O45_36 
REMARK   11  A    between atoms: C46_37  and  N48_38 
REMARK   12  A    between atoms: C52_42  and  O54_43 
REMARK   13  A    between atoms: C55_44  and  O57_45 
ROOT
ATOM      1  C21 ZIN A   1      17.929   1.996  17.040  0.00  0.00     0.186 C 
ATOM      2  C23 ZIN A   1      18.477   1.494  18.377  0.00  0.00     0.217 C 
ATOM      3  C29 ZIN A   1      19.560   0.444  18.123  0.00  0.00     0.071 C 
ATOM      4  C30 ZIN A   1      18.960  -0.729  17.344  0.00  0.00     0.217 C 
ATOM      5  C36 ZIN A   1      18.412  -0.227  16.007  0.00  0.00     0.186 C 
ATOM      6  C55 ZIN A   1      17.329   0.823  16.262  0.00  0.00     0.180 C 
ENDROOT
BRANCH   1   7
ATOM      7  O20 ZIN A   1      18.989   2.580  16.279  0.00  0.00    -0.349 OA
BRANCH   7   8
ATOM      8  C18 ZIN A   1      18.640   3.813  15.648  0.00  0.00     0.291 C 
ATOM      9  C12 ZIN A   1      19.448   4.954  16.273  0.00  0.00     0.238 C 
ATOM     10  C11 ZIN A   1      19.112   6.262  15.551  0.00  0.00     0.040 C 
ATOM     11  C10 ZIN A   1      19.401   6.097  14.056  0.00  0.00     0.036 C 
ATOM     12  C8  ZIN A   1      18.594   4.913  13.516  0.00  0.00     0.155 C 
ATOM     13  O58 ZIN A   1      18.931   3.734  14.251  0.00  0.00    -0.352 OA
BRANCH   9  14
ATOM     14  N14 ZIN A   1      20.883   4.671  16.136  0.00  0.00    -0.070 N 
ATOM     15  H15 ZIN A   1      21.021   3.678  16.031  0.00  0.00     0.274 HD
ATOM     16  H16 ZIN A   1      21.245   5.149  15.324  0.00  0.00     0.274 HD
ATOM     17  H17 ZIN A   1      21.370   4.993  16.960  0.00  0.00     0.274 HD
ENDBRANCH   9  14
BRANCH  12  18
ATOM     18  C5  ZIN A   1      18.922   4.703  12.037  0.00  0.00     0.210 C 
ATOM     19  C7  ZIN A   1      20.081   3.712  11.907  0.00  0.00     0.042 C 
BRANCH  18  20
ATOM     20  N2  ZIN A   1      17.741   4.170  11.344  0.00  0.00    -0.073 N 
ATOM     21  C1  ZIN A   1      16.625   5.115  11.485  0.00  0.00     0.267 C 
ATOM     22  H3  ZIN A   1      17.484   3.284  11.750  0.00  0.00     0.277 HD
ATOM     23  H4  ZIN A   1      17.954   4.044  10.366  0.00  0.00     0.277 HD
ENDBRANCH  18  20
ENDBRANCH  12  18
ENDBRANCH   7   8
ENDBRANCH   1   7
BRANCH   6  24
ATOM     24  O57 ZIN A   1      16.270   0.240  17.022  0.00  0.00    -0.390 OA
ATOM     25  H81 ZIN A   1      15.816  -0.486  16.572  0.00  0.00     0.210 HD
ENDBRANCH   6  24
BRANCH   2  26
ATOM     26  N25 ZIN A   1      19.053   2.620  19.125  0.00  0.00    -0.072 N 
ATOM     27  H26 ZIN A   1      18.891   3.478  18.618  0.00  0.00     0.274 HD
ATOM     28  H27 ZIN A   1      18.619   2.678  20.033  0.00  0.00     0.274 HD
ATOM     29  H28 ZIN A   1      20.046   2.478  19.235  0.00  0.00     0.274 HD
ENDBRANCH   2  26
BRANCH   5  30
ATOM     30  O38 ZIN A   1      19.472   0.357  15.247  0.00  0.00    -0.349 OA
BRANCH  30  31
ATOM     31  C39 ZIN A   1      19.390   0.101  13.843  0.00  0.00     0.291 C 
ATOM     32  C52 ZIN A   1      19.203  -1.401  13.609  0.00  0.00     0.207 C 
ATOM     33  C46 ZIN A   1      19.055  -1.660  12.106  0.00  0.00     0.254 C 
ATOM     34  C43 ZIN A   1      17.879  -0.838  11.571  0.00  0.00     0.106 C 
ATOM     35  C42 ZIN A   1      18.118   0.642  11.884  0.00  0.00     0.210 C 
ATOM     36  C44 ZIN A   1      17.770  -1.029  10.056  0.00  0.00     0.050 C 
ATOM     37  O41 ZIN A   1      18.277   0.809  13.294  0.00  0.00    -0.356 OA
BRANCH  32  38
ATOM     38  O54 ZIN A   1      20.341  -2.108  14.106  0.00  0.00    -0.388 OA
ATOM     39  H80 ZIN A   1      20.207  -2.508  14.977  0.00  0.00     0.210 HD
ENDBRANCH  32  38
BRANCH  33  40
ATOM     40  N48 ZIN A   1      18.801  -3.089  11.876  0.00  0.00    -0.069 N 
ATOM     41  H49 ZIN A   1      18.626  -3.546  12.759  0.00  0.00     0.277 HD
ATOM     42  H50 ZIN A   1      17.996  -3.195  11.277  0.00  0.00     0.277 HD
ATOM     43  C51 ZIN A   1      19.973  -3.698  11.234  0.00  0.00     0.267 C 
ENDBRANCH  33  40
BRANCH  34  44
ATOM     44  O45 ZIN A   1      16.669  -1.269  12.195  0.00  0.00    -0.386 OA
ATOM     45  H76 ZIN A   1      16.781  -2.021  12.794  0.00  0.00     0.210 HD
ENDBRANCH  34  44
ENDBRANCH  30  31
ENDBRANCH   5  30
BRANCH   4  46
ATOM     46  N32 ZIN A   1      20.000  -1.737  17.099  0.00  0.00    -0.072 N 
ATOM     47  H33 ZIN A   1      19.847  -2.167  16.199  0.00  0.00     0.274 HD
ATOM     48  H34 ZIN A   1      20.907  -1.295  17.110  0.00  0.00     0.274 HD
ATOM     49  H35 ZIN A   1      19.961  -2.443  17.820  0.00  0.00     0.274 HD
ENDBRANCH   4  46
TORSDOF 13
ENDMDL
MODEL 9
REMARK VINA RESULT:      -7.3      2.351      7.553
REMARK  13 active torsions:
REMARK  status: ('A' for Active; 'I' for Inactive)
REMARK    1  A    between atoms: N2_2  and  C5_5 
REMARK    2  A    between atoms: C5_5  and  C8_7 
REMARK    3  A    between atoms: C12_10  and  N14_11 
REMARK    4  A    between atoms: C18_15  and  O20_16 
REMARK    5  A    between atoms: O20_16  and  C21_17 
REMARK    6  A    between atoms: C23_18  and  N25_19 
REMARK    7  A    between atoms: C30_24  and  N32_25 
REMARK    8  A    between atoms: C36_29  and  O38_30 
REMARK    9  A    between atoms: O38_30  and  C39_31 
REMARK   10  A    between atoms: C43_34  and  O45_36 
REMARK   11  A    between atoms: C46_37  and  N48_38 
REMARK   12  A    between atoms: C52_42  and  O54_43 
REMARK   13  A    between atoms: C55_44  and  O57_45 
ROOT
ATOM      1  C21 ZIN A   1      17.866   1.885  17.136  0.00  0.00     0.186 C 
ATOM      2  C23 ZIN A   1      18.612   1.355  18.363  0.00  0.00     0.217 C 
ATOM      3  C29 ZIN A   1      19.491   0.173  17.954  0.00  0.00     0.071 C 
ATOM      4  C30 ZIN A   1      18.615  -0.938  17.371  0.00  0.00     0.217 C 
ATOM      5  C36 ZIN A   1      17.869  -0.408  16.145  0.00  0.00     0.186 C 
ATOM      6  C55 ZIN A   1      16.989   0.775  16.554  0.00  0.00     0.180 C 
ENDROOT
BRANCH   1   7
ATOM      7  O20 ZIN A   1      18.810   2.312  16.152  0.00  0.00    -0.349 OA
BRANCH   7   8
ATOM      8  C18 ZIN A   1      18.527   3.596  15.594  0.00  0.00     0.291 C 
ATOM      9  C12 ZIN A   1      19.379   4.658  16.296  0.00  0.00     0.238 C 
ATOM     10  C11 ZIN A   1      19.113   6.022  15.652  0.00  0.00     0.040 C 
ATOM     11  C10 ZIN A   1      19.412   5.934  14.153  0.00  0.00     0.036 C 
ATOM     12  C8  ZIN A   1      18.558   4.824  13.534  0.00  0.00     0.155 C 
ATOM     13  O58 ZIN A   1      18.831   3.589  14.198  0.00  0.00    -0.352 OA
BRANCH   9  14
ATOM     14  N14 ZIN A   1      20.801   4.317  16.156  0.00  0.00    -0.070 N 
ATOM     15  H15 ZIN A   1      21.127   3.880  17.004  0.00  0.00     0.274 HD
ATOM     16  H16 ZIN A   1      20.920   3.680  15.382  0.00  0.00     0.274 HD
ATOM     17  H17 ZIN A   1      21.333   5.157  15.984  0.00  0.00     0.274 HD
ENDBRANCH   9  14
BRANCH  12  18
ATOM     18  C5  ZIN A   1      18.895   4.689  12.047  0.00  0.00     0.210 C 
ATOM     19  C7  ZIN A   1      20.162   3.848  11.885  0.00  0.00     0.042 C 
BRANCH  18  20
ATOM     20  N2  ZIN A   1      17.779   4.034  11.350  0.00  0.00    -0.073 N 
ATOM     21  C1  ZIN A   1      17.006   5.041  10.612  0.00  0.00     0.267 C 
ATOM     22  H3  ZIN A   1      17.183   3.579  12.024  0.00  0.00     0.277 HD
ATOM     23  H4  ZIN A   1      18.143   3.349  10.705  0.00  0.00     0.277 HD
ENDBRANCH  18  20
ENDBRANCH  12  18
ENDBRANCH   7   8
ENDBRANCH   1   7
BRANCH   6  24
ATOM     24  O57 ZIN A   1      16.045   0.348  17.537  0.00  0.00    -0.390 OA
ATOM     25  H81 ZIN A   1      16.273   0.608  18.440  0.00  0.00     0.210 HD
ENDBRANCH   6  24
BRANCH   2  26
ATOM     26  N25 ZIN A   1      19.453   2.421  18.923  0.00  0.00    -0.072 N 
ATOM     27  H26 ZIN A   1      19.630   3.117  18.213  0.00  0.00     0.274 HD
ATOM     28  H27 ZIN A   1      18.979   2.849  19.704  0.00  0.00     0.274 HD
ATOM     29  H28 ZIN A   1      20.329   2.029  19.235  0.00  0.00     0.274 HD
ENDBRANCH   2  26
BRANCH   5  30
ATOM     30  O38 ZIN A   1      18.814   0.019  15.161  0.00  0.00    -0.349 OA
BRANCH  30  31
ATOM     31  C39 ZIN A   1      18.641  -0.597  13.883  0.00  0.00     0.291 C 
ATOM     32  C52 ZIN A   1      18.795   0.458  12.783  0.00  0.00     0.207 C 
ATOM     33  C46 ZIN A   1      18.668  -0.222  11.415  0.00  0.00     0.254 C 
ATOM     34  C43 ZIN A   1      19.719  -1.331  11.309  0.00  0.00     0.106 C 
ATOM     35  C42 ZIN A   1      19.529  -2.316  12.466  0.00  0.00     0.210 C 
ATOM     36  C44 ZIN A   1      19.551  -2.067   9.978  0.00  0.00     0.050 C 
ATOM     37  O41 ZIN A   1      19.628  -1.615  13.707  0.00  0.00    -0.356 OA
BRANCH  32  38
ATOM     38  O54 ZIN A   1      17.773   1.447  12.921  0.00  0.00    -0.388 OA
ATOM     39  H80 ZIN A   1      18.081   2.353  12.780  0.00  0.00     0.210 HD
ENDBRANCH  32  38
BRANCH  33  40
ATOM     40  N48 ZIN A   1      18.889   0.768  10.352  0.00  0.00    -0.069 N 
ATOM     41  H49 ZIN A   1      19.088   1.666  10.765  0.00  0.00     0.277 HD
ATOM     42  H50 ZIN A   1      19.669   0.479   9.781  0.00  0.00     0.277 HD
ATOM     43  C51 ZIN A   1      17.683   0.869   9.519  0.00  0.00     0.267 C 
ENDBRANCH  33  40
BRANCH  34  44
ATOM     44  O45 ZIN A   1      21.027  -0.760  11.378  0.00  0.00    -0.386 OA
ATOM     45  H76 ZIN A   1      21.543  -0.859  10.566  0.00  0.00     0.210 HD
ENDBRANCH  34  44
ENDBRANCH  30  31
ENDBRANCH   5  30
BRANCH   4  46
ATOM     46  N32 ZIN A   1      19.460  -2.073  16.978  0.00  0.00    -0.072 N 
ATOM     47  H33 ZIN A   1      19.733  -1.970  16.012  0.00  0.00     0.274 HD
ATOM     48  H34 ZIN A   1      20.284  -2.097  17.560  0.00  0.00     0.274 HD
ATOM     49  H35 ZIN A   1      18.943  -2.932  17.091  0.00  0.00     0.274 HD
ENDBRANCH   4  46
TORSDOF 13
ENDMDL
