MODEL 1
REMARK VINA RESULT:      -8.8      0.000      0.000
REMARK  2 active torsions:
REMARK  status: ('A' for Active; 'I' for Inactive)
REMARK    1  A    between atoms: C2_2  and  O3_3 
REMARK    2  A    between atoms: C22_20  and  O24_21 
ROOT
ATOM      1  C1  ZIN A   1      17.550   4.257  14.058  0.00  0.00     0.046 C 
ATOM      2  C2  ZIN A   1      18.374   4.351  12.773  0.00  0.00     0.062 C 
ATOM      3  C4  ZIN A   1      17.473   4.774  11.587  0.00  0.00     0.038 C 
ATOM      4  C5  ZIN A   1      17.464   3.579  10.596  0.00  0.00     0.009 C 
ATOM      5  C6  ZIN A   1      17.806   2.385  11.495  0.00  0.00     0.004 C 
ATOM      6  C8  ZIN A   1      18.376   1.168  10.788  0.00  0.00     0.034 C 
ATOM      7  C10 ZIN A   1      17.328   0.586   9.835  0.00  0.00     0.013 C 
ATOM      8  C11 ZIN A   1      17.939  -0.596   9.079  0.00  0.00     0.036 C 
ATOM      9  C12 ZIN A   1      18.473  -1.598  10.087  0.00  0.00    -0.065 C 
ATOM     10  C13 ZIN A   1      18.143  -2.878   9.923  0.00  0.00     0.053 C 
ATOM     11  C14 ZIN A   1      18.643  -3.892  10.857  0.00  0.00     0.149 C 
ATOM     12  O15 ZIN A   1      18.094  -4.966  10.988  0.00  0.00    -0.293 OA
ATOM     13  C16 ZIN A   1      19.882  -3.527  11.651  0.00  0.00     0.084 C 
ATOM     14  C17 ZIN A   1      19.644  -2.147  12.262  0.00  0.00     0.025 C 
ATOM     15  C18 ZIN A   1      19.347  -1.105  11.199  0.00  0.00     0.019 C 
ATOM     16  C19 ZIN A   1      20.677  -0.655  10.592  0.00  0.00     0.023 C 
ATOM     17  C20 ZIN A   1      18.725   0.130  11.864  0.00  0.00     0.144 C 
ATOM     18  F21 ZIN A   1      17.546  -0.250  12.513  0.00  0.00    -0.239 F 
ATOM     19  C22 ZIN A   1      19.697   0.678  12.905  0.00  0.00     0.160 C 
ATOM     20  C25 ZIN A   1      19.186   1.989  13.524  0.00  0.00     0.047 C 
ATOM     21  C26 ZIN A   1      18.922   2.978  12.395  0.00  0.00    -0.007 C 
ATOM     22  C27 ZIN A   1      20.178   3.131  11.535  0.00  0.00     0.019 C 
ENDROOT
BRANCH   2  23
ATOM     23  O3  ZIN A   1      19.445   5.283  12.940  0.00  0.00    -0.389 OA
ATOM     24  H31 ZIN A   1      20.201   4.930  13.429  0.00  0.00     0.210 HD
ENDBRANCH   2  23
BRANCH  19  25
ATOM     25  O24 ZIN A   1      20.960   0.921  12.282  0.00  0.00    -0.392 OA
ATOM     26  H48 ZIN A   1      20.907   1.459  11.480  0.00  0.00     0.210 HD
ENDBRANCH  19  25
TORSDOF 2
ENDMDL
MODEL 2
REMARK VINA RESULT:      -8.8      2.836      4.710
REMARK  2 active torsions:
REMARK  status: ('A' for Active; 'I' for Inactive)
REMARK    1  A    between atoms: C2_2  and  O3_3 
REMARK    2  A    between atoms: C22_20  and  O24_21 
ROOT
ATOM      1  C1  ZIN A   1      20.299   0.419  13.976  0.00  0.00     0.046 C 
ATOM      2  C2  ZIN A   1      18.887  -0.118  13.739  0.00  0.00     0.062 C 
ATOM      3  C4  ZIN A   1      18.824  -1.628  14.074  0.00  0.00     0.038 C 
ATOM      4  C5  ZIN A   1      18.508  -2.360  12.741  0.00  0.00     0.009 C 
ATOM      5  C6  ZIN A   1      19.009  -1.372  11.681  0.00  0.00     0.004 C 
ATOM      6  C8  ZIN A   1      18.405  -1.527  10.297  0.00  0.00     0.034 C 
ATOM      7  C10 ZIN A   1      18.803  -2.885   9.709  0.00  0.00     0.013 C 
ATOM      8  C11 ZIN A   1      18.132  -3.058   8.345  0.00  0.00     0.036 C 
ATOM      9  C12 ZIN A   1      18.502  -1.878   7.465  0.00  0.00    -0.065 C 
ATOM     10  C13 ZIN A   1      18.937  -2.136   6.232  0.00  0.00     0.053 C 
ATOM     11  C14 ZIN A   1      19.294  -1.035   5.331  0.00  0.00     0.149 C 
ATOM     12  O15 ZIN A   1      20.027  -1.200   4.379  0.00  0.00    -0.293 OA
ATOM     13  C16 ZIN A   1      18.698   0.322   5.654  0.00  0.00     0.084 C 
ATOM     14  C17 ZIN A   1      18.951   0.591   7.137  0.00  0.00     0.025 C 
ATOM     15  C18 ZIN A   1      18.353  -0.493   8.015  0.00  0.00     0.019 C 
ATOM     16  C19 ZIN A   1      16.858  -0.205   8.172  0.00  0.00     0.023 C 
ATOM     17  C20 ZIN A   1      18.968  -0.402   9.417  0.00  0.00     0.144 C 
ATOM     18  F21 ZIN A   1      20.354  -0.570   9.316  0.00  0.00    -0.239 F 
ATOM     19  C22 ZIN A   1      18.688   0.981   9.996  0.00  0.00     0.160 C 
ATOM     20  C25 ZIN A   1      19.175   1.098  11.450  0.00  0.00     0.047 C 
ATOM     21  C26 ZIN A   1      18.523  -0.016  12.261  0.00  0.00    -0.007 C 
ATOM     22  C27 ZIN A   1      17.004   0.041  12.094  0.00  0.00     0.019 C 
ENDROOT
BRANCH   2  23
ATOM     23  O3  ZIN A   1      17.944   0.606  14.532  0.00  0.00    -0.389 OA
ATOM     24  H31 ZIN A   1      18.347   1.221  15.160  0.00  0.00     0.210 HD
ENDBRANCH   2  23
BRANCH  19  25
ATOM     25  O24 ZIN A   1      17.282   1.228   9.956  0.00  0.00    -0.392 OA
ATOM     26  H48 ZIN A   1      17.023   2.089  10.312  0.00  0.00     0.210 HD
ENDBRANCH  19  25
TORSDOF 2
ENDMDL
MODEL 3
REMARK VINA RESULT:      -8.7      1.986      6.652
REMARK  2 active torsions:
REMARK  status: ('A' for Active; 'I' for Inactive)
REMARK    1  A    between atoms: C2_2  and  O3_3 
REMARK    2  A    between atoms: C22_20  and  O24_21 
ROOT
ATOM      1  C1  ZIN A   1      16.559  -5.384   8.794  0.00  0.00     0.046 C 
ATOM      2  C2  ZIN A   1      17.775  -5.265   9.713  0.00  0.00     0.062 C 
ATOM      3  C4  ZIN A   1      17.388  -5.635  11.166  0.00  0.00     0.038 C 
ATOM      4  C5  ZIN A   1      17.573  -4.344  12.011  0.00  0.00     0.009 C 
ATOM      5  C6  ZIN A   1      17.442  -3.230  10.966  0.00  0.00     0.004 C 
ATOM      6  C8  ZIN A   1      18.067  -1.898  11.340  0.00  0.00     0.034 C 
ATOM      7  C10 ZIN A   1      17.343  -1.310  12.556  0.00  0.00     0.013 C 
ATOM      8  C11 ZIN A   1      18.027  -0.004  12.965  0.00  0.00     0.036 C 
ATOM      9  C12 ZIN A   1      18.063   0.926  11.765  0.00  0.00    -0.065 C 
ATOM     10  C13 ZIN A   1      17.656   2.182  11.943  0.00  0.00     0.053 C 
ATOM     11  C14 ZIN A   1      17.683   3.129  10.823  0.00  0.00     0.149 C 
ATOM     12  O15 ZIN A   1      16.998   4.130  10.816  0.00  0.00    -0.293 OA
ATOM     13  C16 ZIN A   1      18.614   2.791   9.675  0.00  0.00     0.084 C 
ATOM     14  C17 ZIN A   1      18.350   1.337   9.285  0.00  0.00     0.025 C 
ATOM     15  C18 ZIN A   1      18.560   0.394  10.456  0.00  0.00     0.019 C 
ATOM     16  C19 ZIN A   1      20.061   0.132  10.590  0.00  0.00     0.023 C 
ATOM     17  C20 ZIN A   1      17.903  -0.955  10.140  0.00  0.00     0.144 C 
ATOM     18  F21 ZIN A   1      16.537  -0.754   9.918  0.00  0.00    -0.239 F 
ATOM     19  C22 ZIN A   1      18.522  -1.525   8.867  0.00  0.00     0.160 C 
ATOM     20  C25 ZIN A   1      17.993  -2.935   8.560  0.00  0.00     0.047 C 
ATOM     21  C26 ZIN A   1      18.250  -3.816   9.778  0.00  0.00    -0.007 C 
ATOM     22  C27 ZIN A   1      19.732  -3.763  10.153  0.00  0.00     0.019 C 
ENDROOT
BRANCH   2  23
ATOM     23  O3  ZIN A   1      18.829  -6.111   9.249  0.00  0.00    -0.389 OA
ATOM     24  H31 ZIN A   1      19.284  -5.779   8.463  0.00  0.00     0.210 HD
ENDBRANCH   2  23
BRANCH  19  25
ATOM     25  O24 ZIN A   1      19.941  -1.586   9.025  0.00  0.00    -0.392 OA
ATOM     26  H48 ZIN A   1      20.260  -1.226   9.864  0.00  0.00     0.210 HD
ENDBRANCH  19  25
TORSDOF 2
ENDMDL
MODEL 4
REMARK VINA RESULT:      -8.5      2.835      5.336
REMARK  2 active torsions:
REMARK  status: ('A' for Active; 'I' for Inactive)
REMARK    1  A    between atoms: C2_2  and  O3_3 
REMARK    2  A    between atoms: C22_20  and  O24_21 
ROOT
ATOM      1  C1  ZIN A   1      20.308  -0.130   8.856  0.00  0.00     0.046 C 
ATOM      2  C2  ZIN A   1      18.923   0.463   9.120  0.00  0.00     0.062 C 
ATOM      3  C4  ZIN A   1      18.940   1.993   8.882  0.00  0.00     0.038 C 
ATOM      4  C5  ZIN A   1      18.653   2.654  10.258  0.00  0.00     0.009 C 
ATOM      5  C6  ZIN A   1      19.093   1.575  11.255  0.00  0.00     0.004 C 
ATOM      6  C8  ZIN A   1      18.488   1.674  12.643  0.00  0.00     0.034 C 
ATOM      7  C10 ZIN A   1      18.951   2.969  13.318  0.00  0.00     0.013 C 
ATOM      8  C11 ZIN A   1      18.279   3.089  14.688  0.00  0.00     0.036 C 
ATOM      9  C12 ZIN A   1      18.582   1.838  15.493  0.00  0.00    -0.065 C 
ATOM     10  C13 ZIN A   1      19.019   1.995  16.741  0.00  0.00     0.053 C 
ATOM     11  C14 ZIN A   1      19.313   0.821  17.571  0.00  0.00     0.149 C 
ATOM     12  O15 ZIN A   1      20.046   0.888  18.535  0.00  0.00    -0.293 OA
ATOM     13  C16 ZIN A   1      18.650  -0.479  17.160  0.00  0.00     0.084 C 
ATOM     14  C17 ZIN A   1      18.900  -0.667  15.664  0.00  0.00     0.025 C 
ATOM     15  C18 ZIN A   1      18.365   0.501  14.854  0.00  0.00     0.019 C 
ATOM     16  C19 ZIN A   1      16.859   0.300  14.673  0.00  0.00     0.023 C 
ATOM     17  C20 ZIN A   1      18.986   0.468  13.452  0.00  0.00     0.144 C 
ATOM     18  F21 ZIN A   1      20.377   0.556  13.570  0.00  0.00    -0.239 F 
ATOM     19  C22 ZIN A   1      18.640  -0.860  12.784  0.00  0.00     0.160 C 
ATOM     20  C25 ZIN A   1      19.131  -0.909  11.329  0.00  0.00     0.047 C 
ATOM     21  C26 ZIN A   1      18.543   0.287  10.587  0.00  0.00    -0.007 C 
ATOM     22  C27 ZIN A   1      17.022   0.297  10.743  0.00  0.00     0.019 C 
ENDROOT
BRANCH   2  23
ATOM     23  O3  ZIN A   1      17.950  -0.159   8.279  0.00  0.00    -0.389 OA
ATOM     24  H31 ZIN A   1      17.883   0.234   7.397  0.00  0.00     0.210 HD
ENDBRANCH   2  23
BRANCH  19  25
ATOM     25  O24 ZIN A   1      17.222  -1.036  12.802  0.00  0.00    -0.392 OA
ATOM     26  H48 ZIN A   1      16.798  -0.903  11.943  0.00  0.00     0.210 HD
ENDBRANCH  19  25
TORSDOF 2
ENDMDL
MODEL 5
REMARK VINA RESULT:      -8.5      1.380      6.252
REMARK  2 active torsions:
REMARK  status: ('A' for Active; 'I' for Inactive)
REMARK    1  A    between atoms: C2_2  and  O3_3 
REMARK    2  A    between atoms: C22_20  and  O24_21 
ROOT
ATOM      1  C1  ZIN A   1      17.534  -3.336  10.261  0.00  0.00     0.046 C 
ATOM      2  C2  ZIN A   1      18.918  -2.853  10.698  0.00  0.00     0.062 C 
ATOM      3  C4  ZIN A   1      19.214  -3.317  12.146  0.00  0.00     0.038 C 
ATOM      4  C5  ZIN A   1      19.327  -2.027  13.004  0.00  0.00     0.009 C 
ATOM      5  C6  ZIN A   1      18.515  -1.007  12.198  0.00  0.00     0.004 C 
ATOM      6  C8  ZIN A   1      18.835   0.453  12.468  0.00  0.00     0.034 C 
ATOM      7  C10 ZIN A   1      18.476   0.801  13.916  0.00  0.00     0.013 C 
ATOM      8  C11 ZIN A   1      18.868   2.254  14.194  0.00  0.00     0.036 C 
ATOM      9  C12 ZIN A   1      18.197   3.147  13.166  0.00  0.00    -0.065 C 
ATOM     10  C13 ZIN A   1      17.550   4.224  13.608  0.00  0.00     0.053 C 
ATOM     11  C14 ZIN A   1      16.896   5.132  12.659  0.00  0.00     0.149 C 
ATOM     12  O15 ZIN A   1      16.006   5.881  13.001  0.00  0.00    -0.293 OA
ATOM     13  C16 ZIN A   1      17.393   5.083  11.227  0.00  0.00     0.084 C 
ATOM     14  C17 ZIN A   1      17.422   3.615  10.802  0.00  0.00     0.025 C 
ATOM     15  C18 ZIN A   1      18.304   2.783  11.717  0.00  0.00     0.019 C 
ATOM     16  C19 ZIN A   1      19.757   2.983  11.284  0.00  0.00     0.023 C 
ATOM     17  C20 ZIN A   1      17.983   1.298  11.510  0.00  0.00     0.144 C 
ATOM     18  F21 ZIN A   1      16.633   1.079  11.807  0.00  0.00    -0.239 F 
ATOM     19  C22 ZIN A   1      18.222   0.934  10.048  0.00  0.00     0.160 C 
ATOM     20  C25 ZIN A   1      18.034  -0.571   9.798  0.00  0.00     0.047 C 
ATOM     21  C26 ZIN A   1      18.957  -1.329  10.746  0.00  0.00    -0.007 C 
ATOM     22  C27 ZIN A   1      20.394  -0.833  10.578  0.00  0.00     0.019 C 
ENDROOT
BRANCH   2  23
ATOM     23  O3  ZIN A   1      19.919  -3.347   9.805  0.00  0.00    -0.389 OA
ATOM     24  H31 ZIN A   1      20.483  -2.658   9.427  0.00  0.00     0.210 HD
ENDBRANCH   2  23
BRANCH  19  25
ATOM     25  O24 ZIN A   1      19.555   1.302   9.688  0.00  0.00    -0.392 OA
ATOM     26  H48 ZIN A   1      19.604   2.026   9.048  0.00  0.00     0.210 HD
ENDBRANCH  19  25
TORSDOF 2
ENDMDL
MODEL 6
REMARK VINA RESULT:      -8.5      2.347      3.601
REMARK  2 active torsions:
REMARK  status: ('A' for Active; 'I' for Inactive)
REMARK    1  A    between atoms: C2_2  and  O3_3 
REMARK    2  A    between atoms: C22_20  and  O24_21 
ROOT
ATOM      1  C1  ZIN A   1      16.983   0.233  15.418  0.00  0.00     0.046 C 
ATOM      2  C2  ZIN A   1      18.355   0.788  15.034  0.00  0.00     0.062 C 
ATOM      3  C4  ZIN A   1      18.310   2.335  14.970  0.00  0.00     0.038 C 
ATOM      4  C5  ZIN A   1      18.581   2.720  13.489  0.00  0.00     0.009 C 
ATOM      5  C6  ZIN A   1      18.158   1.460  12.725  0.00  0.00     0.004 C 
ATOM      6  C8  ZIN A   1      18.757   1.296  11.340  0.00  0.00     0.034 C 
ATOM      7  C10 ZIN A   1      18.268   2.427  10.428  0.00  0.00     0.013 C 
ATOM      8  C11 ZIN A   1      18.934   2.289   9.057  0.00  0.00     0.036 C 
ATOM      9  C12 ZIN A   1      18.652   0.900   8.514  0.00  0.00    -0.065 C 
ATOM     10  C13 ZIN A   1      18.209   0.803   7.261  0.00  0.00     0.053 C 
ATOM     11  C14 ZIN A   1      17.935  -0.515   6.678  0.00  0.00     0.149 C 
ATOM     12  O15 ZIN A   1      17.197  -0.651   5.725  0.00  0.00    -0.293 OA
ATOM     13  C16 ZIN A   1      18.623  -1.698   7.331  0.00  0.00     0.084 C 
ATOM     14  C17 ZIN A   1      18.381  -1.595   8.836  0.00  0.00     0.025 C 
ATOM     15  C18 ZIN A   1      18.896  -0.282   9.399  0.00  0.00     0.019 C 
ATOM     16  C19 ZIN A   1      20.406  -0.417   9.606  0.00  0.00     0.023 C 
ATOM     17  C20 ZIN A   1      18.280  -0.053  10.785  0.00  0.00     0.144 C 
ATOM     18  F21 ZIN A   1      16.887  -0.014  10.661  0.00  0.00    -0.239 F 
ATOM     19  C22 ZIN A   1      18.653  -1.219  11.696  0.00  0.00     0.160 C 
ATOM     20  C25 ZIN A   1      18.167  -0.991  13.137  0.00  0.00     0.047 C 
ATOM     21  C26 ZIN A   1      18.734   0.336  13.627  0.00  0.00    -0.007 C 
ATOM     22  C27 ZIN A   1      20.255   0.343  13.462  0.00  0.00     0.019 C 
ENDROOT
BRANCH   2  23
ATOM     23  O3  ZIN A   1      19.342   0.360  15.974  0.00  0.00    -0.389 OA
ATOM     24  H31 ZIN A   1      19.738  -0.499  15.767  0.00  0.00     0.210 HD
ENDBRANCH   2  23
BRANCH  19  25
ATOM     25  O24 ZIN A   1      20.074  -1.369  11.704  0.00  0.00    -0.392 OA
ATOM     26  H48 ZIN A   1      20.499  -1.052  12.513  0.00  0.00     0.210 HD
ENDBRANCH  19  25
TORSDOF 2
ENDMDL
MODEL 7
REMARK VINA RESULT:      -8.4      1.206      1.336
REMARK  2 active torsions:
REMARK  status: ('A' for Active; 'I' for Inactive)
REMARK    1  A    between atoms: C2_2  and  O3_3 
REMARK    2  A    between atoms: C22_20  and  O24_21 
ROOT
ATOM      1  C1  ZIN A   1      17.428   3.853  13.146  0.00  0.00     0.046 C 
ATOM      2  C2  ZIN A   1      18.654   3.587  12.271  0.00  0.00     0.062 C 
ATOM      3  C4  ZIN A   1      18.418   4.127  10.839  0.00  0.00     0.038 C 
ATOM      4  C5  ZIN A   1      18.421   2.890   9.899  0.00  0.00     0.009 C 
ATOM      5  C6  ZIN A   1      18.041   1.743  10.841  0.00  0.00     0.004 C 
ATOM      6  C8  ZIN A   1      18.446   0.353  10.384  0.00  0.00     0.034 C 
ATOM      7  C10 ZIN A   1      17.699  -0.005   9.095  0.00  0.00     0.013 C 
ATOM      8  C11 ZIN A   1      18.167  -1.379   8.609  0.00  0.00     0.036 C 
ATOM      9  C12 ZIN A   1      17.974  -2.386   9.728  0.00  0.00    -0.065 C 
ATOM     10  C13 ZIN A   1      17.365  -3.534   9.430  0.00  0.00     0.053 C 
ATOM     11  C14 ZIN A   1      17.166  -4.551  10.468  0.00  0.00     0.149 C 
ATOM     12  O15 ZIN A   1      16.317  -5.411  10.364  0.00  0.00    -0.293 OA
ATOM     13  C16 ZIN A   1      18.077  -4.469  11.678  0.00  0.00     0.084 C 
ATOM     14  C17 ZIN A   1      18.048  -3.025  12.175  0.00  0.00     0.025 C 
ATOM     15  C18 ZIN A   1      18.483  -2.050  11.095  0.00  0.00     0.019 C 
ATOM     16  C19 ZIN A   1      20.012  -2.049  11.045  0.00  0.00     0.023 C 
ATOM     17  C20 ZIN A   1      18.054  -0.632  11.495  0.00  0.00     0.144 C 
ATOM     18  F21 ZIN A   1      16.663  -0.603  11.643  0.00  0.00    -0.239 F 
ATOM     19  C22 ZIN A   1      18.692  -0.277  12.835  0.00  0.00     0.160 C 
ATOM     20  C25 ZIN A   1      18.400   1.178  13.235  0.00  0.00     0.047 C 
ATOM     21  C26 ZIN A   1      18.872   2.086  12.106  0.00  0.00    -0.007 C 
ATOM     22  C27 ZIN A   1      20.341   1.799  11.789  0.00  0.00     0.019 C 
ENDROOT
BRANCH   2  23
ATOM     23  O3  ZIN A   1      19.812   4.196  12.846  0.00  0.00    -0.389 OA
ATOM     24  H31 ZIN A   1      19.868   4.106  13.808  0.00  0.00     0.210 HD
ENDBRANCH   2  23
BRANCH  19  25
ATOM     25  O24 ZIN A   1      20.106  -0.458  12.741  0.00  0.00    -0.392 OA
ATOM     26  H48 ZIN A   1      20.606   0.368  12.690  0.00  0.00     0.210 HD
ENDBRANCH  19  25
TORSDOF 2
ENDMDL
MODEL 8
REMARK VINA RESULT:      -8.0      1.924      6.639
REMARK  2 active torsions:
REMARK  status: ('A' for Active; 'I' for Inactive)
REMARK    1  A    between atoms: C2_2  and  O3_3 
REMARK    2  A    between atoms: C22_20  and  O24_21 
ROOT
ATOM      1  C1  ZIN A   1      20.400  -5.800   9.129  0.00  0.00     0.046 C 
ATOM      2  C2  ZIN A   1      18.945  -5.393   8.892  0.00  0.00     0.062 C 
ATOM      3  C4  ZIN A   1      18.714  -5.078   7.394  0.00  0.00     0.038 C 
ATOM      4  C5  ZIN A   1      18.356  -3.568   7.315  0.00  0.00     0.009 C 
ATOM      5  C6  ZIN A   1      18.985  -3.000   8.592  0.00  0.00     0.004 C 
ATOM      6  C8  ZIN A   1      18.403  -1.687   9.085  0.00  0.00     0.034 C 
ATOM      7  C10 ZIN A   1      18.669  -0.584   8.056  0.00  0.00     0.013 C 
ATOM      8  C11 ZIN A   1      18.017   0.716   8.533  0.00  0.00     0.036 C 
ATOM      9  C12 ZIN A   1      18.533   1.039   9.924  0.00  0.00    -0.065 C 
ATOM     10  C13 ZIN A   1      18.967   2.278  10.151  0.00  0.00     0.053 C 
ATOM     11  C14 ZIN A   1      19.462   2.652  11.480  0.00  0.00     0.149 C 
ATOM     12  O15 ZIN A   1      20.197   3.603  11.644  0.00  0.00    -0.293 OA
ATOM     13  C16 ZIN A   1      19.006   1.787  12.639  0.00  0.00     0.084 C 
ATOM     14  C17 ZIN A   1      19.249   0.331  12.245  0.00  0.00     0.025 C 
ATOM     15  C18 ZIN A   1      18.517  -0.036  10.966  0.00  0.00     0.019 C 
ATOM     16  C19 ZIN A   1      17.058  -0.329  11.323  0.00  0.00     0.023 C 
ATOM     17  C20 ZIN A   1      19.104  -1.337  10.405  0.00  0.00     0.144 C 
ATOM     18  F21 ZIN A   1      20.465  -1.147  10.147  0.00  0.00    -0.239 F 
ATOM     19  C22 ZIN A   1      18.958  -2.440  11.449  0.00  0.00     0.160 C 
ATOM     20  C25 ZIN A   1      19.418  -3.802  10.904  0.00  0.00     0.047 C 
ATOM     21  C26 ZIN A   1      18.631  -4.096   9.632  0.00  0.00    -0.007 C 
ATOM     22  C27 ZIN A   1      17.131  -4.000   9.915  0.00  0.00     0.019 C 
ENDROOT
BRANCH   2  23
ATOM     23  O3  ZIN A   1      18.065  -6.434   9.322  0.00  0.00    -0.389 OA
ATOM     24  H31 ZIN A   1      18.517  -7.200   9.702  0.00  0.00     0.210 HD
ENDBRANCH   2  23
BRANCH  19  25
ATOM     25  O24 ZIN A   1      17.587  -2.536  11.839  0.00  0.00    -0.392 OA
ATOM     26  H48 ZIN A   1      16.965  -2.196  11.180  0.00  0.00     0.210 HD
ENDBRANCH  19  25
TORSDOF 2
ENDMDL
MODEL 9
REMARK VINA RESULT:      -7.8      1.922      3.427
REMARK  2 active torsions:
REMARK  status: ('A' for Active; 'I' for Inactive)
REMARK    1  A    between atoms: C2_2  and  O3_3 
REMARK    2  A    between atoms: C22_20  and  O24_21 
ROOT
ATOM      1  C1  ZIN A   1      20.340   5.846  14.116  0.00  0.00     0.046 C 
ATOM      2  C2  ZIN A   1      18.922   5.405  14.482  0.00  0.00     0.062 C 
ATOM      3  C4  ZIN A   1      18.842   5.053  15.987  0.00  0.00     0.038 C 
ATOM      4  C5  ZIN A   1      18.520   3.535  16.065  0.00  0.00     0.009 C 
ATOM      5  C6  ZIN A   1      19.033   3.007  14.721  0.00  0.00     0.004 C 
ATOM      6  C8  ZIN A   1      18.429   1.694  14.254  0.00  0.00     0.034 C 
ATOM      7  C10 ZIN A   1      18.813   0.575  15.227  0.00  0.00     0.013 C 
ATOM      8  C11 ZIN A   1      18.141  -0.727  14.784  0.00  0.00     0.036 C 
ATOM      9  C12 ZIN A   1      18.526  -1.010  13.343  0.00  0.00    -0.065 C 
ATOM     10  C13 ZIN A   1      18.959  -2.235  13.046  0.00  0.00     0.053 C 
ATOM     11  C14 ZIN A   1      19.330  -2.570  11.668  0.00  0.00     0.149 C 
ATOM     12  O15 ZIN A   1      20.062  -3.502  11.412  0.00  0.00    -0.293 OA
ATOM     13  C16 ZIN A   1      18.748  -1.689  10.579  0.00  0.00     0.084 C 
ATOM     14  C17 ZIN A   1      19.002  -0.237  10.981  0.00  0.00     0.025 C 
ATOM     15  C18 ZIN A   1      18.391   0.087  12.333  0.00  0.00     0.019 C 
ATOM     16  C19 ZIN A   1      16.900   0.358  12.125  0.00  0.00     0.023 C 
ATOM     17  C20 ZIN A   1      19.006   1.387  12.865  0.00  0.00     0.144 C 
ATOM     18  F21 ZIN A   1      20.389   1.218  12.987  0.00  0.00    -0.239 F 
ATOM     19  C22 ZIN A   1      18.740   2.510  11.867  0.00  0.00     0.160 C 
ATOM     20  C25 ZIN A   1      19.227   3.868  12.397  0.00  0.00     0.047 C 
ATOM     21  C26 ZIN A   1      18.561   4.119  13.745  0.00  0.00    -0.007 C 
ATOM     22  C27 ZIN A   1      17.043   3.999  13.605  0.00  0.00     0.019 C 
ENDROOT
BRANCH   2  23
ATOM     23  O3  ZIN A   1      17.986   6.437  14.163  0.00  0.00    -0.389 OA
ATOM     24  H31 ZIN A   1      17.702   6.440  13.238  0.00  0.00     0.210 HD
ENDBRANCH   2  23
BRANCH  19  25
ATOM     25  O24 ZIN A   1      17.337   2.586  11.612  0.00  0.00    -0.392 OA
ATOM     26  H48 ZIN A   1      16.907   1.725  11.515  0.00  0.00     0.210 HD
ENDBRANCH  19  25
TORSDOF 2
ENDMDL
