MODEL 1
REMARK VINA RESULT:      -4.2      0.000      0.000
REMARK  4 active torsions:
REMARK  status: ('A' for Active; 'I' for Inactive)
REMARK    1  A    between atoms: C2_2  and  O4_4 
REMARK    2  A    between atoms: O4_4  and  C5_5 
REMARK    3  A    between atoms: C5_5  and  C8_7 
REMARK    4  A    between atoms: C8_7  and  N9_8 
ROOT
ATOM      1  C5  <0> d   1      18.571   2.742  10.495  0.00  0.00     0.153 C 
ATOM      2  C7  <0> d   1      19.567   3.224  11.551  0.00  0.00     0.042 C 
ENDROOT
BRANCH   1   3
ATOM      3  O4  <0> d   1      17.246   3.247  10.811  0.00  0.00    -0.315 OA
BRANCH   3   4
ATOM      4  C2  <0> d   1      17.078   4.578  10.779  0.00  0.00     0.255 C 
ATOM      5  C1  <0> d   1      16.527   5.298  11.983  0.00  0.00     0.126 C 
ATOM      6  O3  <0> d   1      17.365   5.199   9.783  0.00  0.00    -0.266 OA
ENDBRANCH   3   4
ENDBRANCH   1   3
BRANCH   1   7
ATOM      7  C8  <0> d   1      18.543   1.212  10.479  0.00  0.00     0.268 C 
BRANCH   7   8
ATOM      8  N9  <0> d   1      18.779   0.731   9.112  0.00  0.00    -0.076 N 
ATOM      9  C10 <0> d   1      17.542   0.147   8.577  0.00  0.00     0.271 C 
ATOM     10  C11 <0> d   1      19.196   1.855   8.263  0.00  0.00     0.271 C 
ATOM     11  C12 <0> d   1      19.836  -0.289   9.128  0.00  0.00     0.271 C 
ENDBRANCH   7   8
ENDBRANCH   1   7
TORSDOF 4
ENDMDL
MODEL 2
REMARK VINA RESULT:      -4.2      4.195      6.160
REMARK  4 active torsions:
REMARK  status: ('A' for Active; 'I' for Inactive)
REMARK    1  A    between atoms: C2_2  and  O4_4 
REMARK    2  A    between atoms: O4_4  and  C5_5 
REMARK    3  A    between atoms: C5_5  and  C8_7 
REMARK    4  A    between atoms: C8_7  and  N9_8 
ROOT
ATOM      1  C5  <0> d   1      18.852  -2.011   7.413  0.00  0.00     0.153 C 
ATOM      2  C7  <0> d   1      18.807  -3.354   8.143  0.00  0.00     0.042 C 
ENDROOT
BRANCH   1   3
ATOM      3  O4  <0> d   1      19.652  -2.141   6.208  0.00  0.00    -0.315 OA
BRANCH   3   4
ATOM      4  C2  <0> d   1      19.231  -1.472   5.122  0.00  0.00     0.255 C 
ATOM      5  C1  <0> d   1      17.822  -1.660   4.621  0.00  0.00     0.126 C 
ATOM      6  O3  <0> d   1      19.982  -0.722   4.546  0.00  0.00    -0.266 OA
ENDBRANCH   3   4
ENDBRANCH   1   3
BRANCH   1   7
ATOM      7  C8  <0> d   1      19.477  -0.954   8.327  0.00  0.00     0.268 C 
BRANCH   7   8
ATOM      8  N9  <0> d   1      18.575   0.200   8.429  0.00  0.00    -0.076 N 
ATOM      9  C10 <0> d   1      19.079   1.292   7.586  0.00  0.00     0.271 C 
ATOM     10  C11 <0> d   1      17.231  -0.187   7.978  0.00  0.00     0.271 C 
ATOM     11  C12 <0> d   1      18.512   0.650   9.827  0.00  0.00     0.271 C 
ENDBRANCH   7   8
ENDBRANCH   1   7
TORSDOF 4
ENDMDL
MODEL 3
REMARK VINA RESULT:      -4.1      2.365      3.458
REMARK  4 active torsions:
REMARK  status: ('A' for Active; 'I' for Inactive)
REMARK    1  A    between atoms: C2_2  and  O4_4 
REMARK    2  A    between atoms: O4_4  and  C5_5 
REMARK    3  A    between atoms: C5_5  and  C8_7 
REMARK    4  A    between atoms: C8_7  and  N9_8 
ROOT
ATOM      1  C5  <0> d   1      18.054   1.211   9.890  0.00  0.00     0.153 C 
ATOM      2  C7  <0> d   1      18.244   2.728   9.952  0.00  0.00     0.042 C 
ENDROOT
BRANCH   1   3
ATOM      3  O4  <0> d   1      18.067   0.665  11.235  0.00  0.00    -0.315 OA
BRANCH   3   4
ATOM      4  C2  <0> d   1      17.112  -0.229  11.539  0.00  0.00     0.255 C 
ATOM      5  C1  <0> d   1      17.489  -1.652  11.863  0.00  0.00     0.126 C 
ATOM      6  O3  <0> d   1      15.952   0.106  11.550  0.00  0.00    -0.266 OA
ENDBRANCH   3   4
ENDBRANCH   1   3
BRANCH   1   7
ATOM      7  C8  <0> d   1      19.191   0.588   9.077  0.00  0.00     0.268 C 
BRANCH   7   8
ATOM      8  N9  <0> d   1      18.651   0.021   7.834  0.00  0.00    -0.076 N 
ATOM      9  C10 <0> d   1      17.200  -0.168   7.972  0.00  0.00     0.271 C 
ATOM     10  C11 <0> d   1      18.921   0.938   6.719  0.00  0.00     0.271 C 
ATOM     11  C12 <0> d   1      19.290  -1.275   7.569  0.00  0.00     0.271 C 
ENDBRANCH   7   8
ENDBRANCH   1   7
TORSDOF 4
ENDMDL
MODEL 4
REMARK VINA RESULT:      -4.1      5.718      6.590
REMARK  4 active torsions:
REMARK  status: ('A' for Active; 'I' for Inactive)
REMARK    1  A    between atoms: C2_2  and  O4_4 
REMARK    2  A    between atoms: O4_4  and  C5_5 
REMARK    3  A    between atoms: C5_5  and  C8_7 
REMARK    4  A    between atoms: C8_7  and  N9_8 
ROOT
ATOM      1  C5  <0> d   1      18.501   0.075  16.163  0.00  0.00     0.153 C 
ATOM      2  C7  <0> d   1      18.428  -1.431  16.420  0.00  0.00     0.042 C 
ENDROOT
BRANCH   1   3
ATOM      3  O4  <0> d   1      18.084   0.792  17.354  0.00  0.00    -0.315 OA
BRANCH   3   4
ATOM      4  C2  <0> d   1      19.035   1.460  18.027  0.00  0.00     0.255 C 
ATOM      5  C1  <0> d   1      18.926   2.953  18.203  0.00  0.00     0.126 C 
ATOM      6  O3  <0> d   1      19.978   0.865  18.491  0.00  0.00    -0.266 OA
ENDBRANCH   3   4
ENDBRANCH   1   3
BRANCH   1   7
ATOM      7  C8  <0> d   1      17.575   0.440  14.999  0.00  0.00     0.268 C 
BRANCH   7   8
ATOM      8  N9  <0> d   1      18.340   1.157  13.971  0.00  0.00    -0.076 N 
ATOM      9  C10 <0> d   1      17.666   1.017  12.672  0.00  0.00     0.271 C 
ATOM     10  C11 <0> d   1      18.425   2.580  14.327  0.00  0.00     0.271 C 
ATOM     11  C12 <0> d   1      19.693   0.592  13.884  0.00  0.00     0.271 C 
ENDBRANCH   7   8
ENDBRANCH   1   7
TORSDOF 4
ENDMDL
MODEL 5
REMARK VINA RESULT:      -4.0      3.647      4.430
REMARK  4 active torsions:
REMARK  status: ('A' for Active; 'I' for Inactive)
REMARK    1  A    between atoms: C2_2  and  O4_4 
REMARK    2  A    between atoms: O4_4  and  C5_5 
REMARK    3  A    between atoms: C5_5  and  C8_7 
REMARK    4  A    between atoms: C8_7  and  N9_8 
ROOT
ATOM      1  C5  <0> d   1      18.338  -2.145  10.977  0.00  0.00     0.153 C 
ATOM      2  C7  <0> d   1      18.946  -3.373  11.656  0.00  0.00     0.042 C 
ENDROOT
BRANCH   1   3
ATOM      3  O4  <0> d   1      17.074  -1.816  11.610  0.00  0.00    -0.315 OA
BRANCH   3   4
ATOM      4  C2  <0> d   1      16.905  -0.546  12.011  0.00  0.00     0.255 C 
ATOM      5  C1  <0> d   1      17.805   0.037  13.070  0.00  0.00     0.126 C 
ATOM      6  O3  <0> d   1      16.031   0.130  11.523  0.00  0.00    -0.266 OA
ENDBRANCH   3   4
ENDBRANCH   1   3
BRANCH   1   7
ATOM      7  C8  <0> d   1      18.102  -2.446   9.495  0.00  0.00     0.268 C 
BRANCH   7   8
ATOM      8  N9  <0> d   1      18.614  -1.335   8.681  0.00  0.00    -0.076 N 
ATOM      9  C10 <0> d   1      17.510  -0.429   8.338  0.00  0.00     0.271 C 
ATOM     10  C11 <0> d   1      19.632  -0.599   9.443  0.00  0.00     0.271 C 
ATOM     11  C12 <0> d   1      19.213  -1.866   7.449  0.00  0.00     0.271 C 
ENDBRANCH   7   8
ENDBRANCH   1   7
TORSDOF 4
ENDMDL
MODEL 6
REMARK VINA RESULT:      -4.0      1.651      2.719
REMARK  4 active torsions:
REMARK  status: ('A' for Active; 'I' for Inactive)
REMARK    1  A    between atoms: C2_2  and  O4_4 
REMARK    2  A    between atoms: O4_4  and  C5_5 
REMARK    3  A    between atoms: C5_5  and  C8_7 
REMARK    4  A    between atoms: C8_7  and  N9_8 
ROOT
ATOM      1  C5  <0> d   1      18.744   1.553   9.548  0.00  0.00     0.153 C 
ATOM      2  C7  <0> d   1      19.175   1.701   8.088  0.00  0.00     0.042 C 
ENDROOT
BRANCH   1   3
ATOM      3  O4  <0> d   1      18.921   2.819  10.237  0.00  0.00    -0.315 OA
BRANCH   3   4
ATOM      4  C2  <0> d   1      17.808   3.469  10.611  0.00  0.00     0.255 C 
ATOM      5  C1  <0> d   1      17.581   4.892  10.170  0.00  0.00     0.126 C 
ATOM      6  O3  <0> d   1      16.988   2.914  11.304  0.00  0.00    -0.266 OA
ENDBRANCH   3   4
ENDBRANCH   1   3
BRANCH   1   7
ATOM      7  C8  <0> d   1      19.601   0.481  10.226  0.00  0.00     0.268 C 
BRANCH   7   8
ATOM      8  N9  <0> d   1      18.734  -0.435  10.980  0.00  0.00    -0.076 N 
ATOM      9  C10 <0> d   1      19.289  -1.794  10.922  0.00  0.00     0.271 C 
ATOM     10  C11 <0> d   1      18.659   0.004  12.380  0.00  0.00     0.271 C 
ATOM     11  C12 <0> d   1      17.388  -0.430  10.391  0.00  0.00     0.271 C 
ENDBRANCH   7   8
ENDBRANCH   1   7
TORSDOF 4
ENDMDL
MODEL 7
REMARK VINA RESULT:      -4.0      1.409      2.091
REMARK  4 active torsions:
REMARK  status: ('A' for Active; 'I' for Inactive)
REMARK    1  A    between atoms: C2_2  and  O4_4 
REMARK    2  A    between atoms: O4_4  and  C5_5 
REMARK    3  A    between atoms: C5_5  and  C8_7 
REMARK    4  A    between atoms: C8_7  and  N9_8 
ROOT
ATOM      1  C5  <0> d   1      17.699   0.889  10.588  0.00  0.00     0.153 C 
ATOM      2  C7  <0> d   1      16.932  -0.019  11.551  0.00  0.00     0.042 C 
ENDROOT
BRANCH   1   3
ATOM      3  O4  <0> d   1      17.155   2.234  10.652  0.00  0.00    -0.315 OA
BRANCH   3   4
ATOM      4  C2  <0> d   1      18.036   3.246  10.695  0.00  0.00     0.255 C 
ATOM      5  C1  <0> d   1      17.617   4.629  10.266  0.00  0.00     0.126 C 
ATOM      6  O3  <0> d   1      19.166   3.048  11.075  0.00  0.00    -0.266 OA
ENDBRANCH   3   4
ENDBRANCH   1   3
BRANCH   1   7
ATOM      7  C8  <0> d   1      17.562   0.352   9.161  0.00  0.00     0.268 C 
BRANCH   7   8
ATOM      8  N9  <0> d   1      18.895   0.197   8.565  0.00  0.00    -0.076 N 
ATOM      9  C10 <0> d   1      18.882  -0.927   7.620  0.00  0.00     0.271 C 
ATOM     10  C11 <0> d   1      19.259   1.430   7.854  0.00  0.00     0.271 C 
ATOM     11  C12 <0> d   1      19.878  -0.066   9.625  0.00  0.00     0.271 C 
ENDBRANCH   7   8
ENDBRANCH   1   7
TORSDOF 4
ENDMDL
MODEL 8
REMARK VINA RESULT:      -4.0      2.459      4.282
REMARK  4 active torsions:
REMARK  status: ('A' for Active; 'I' for Inactive)
REMARK    1  A    between atoms: C2_2  and  O4_4 
REMARK    2  A    between atoms: O4_4  and  C5_5 
REMARK    3  A    between atoms: C5_5  and  C8_7 
REMARK    4  A    between atoms: C8_7  and  N9_8 
ROOT
ATOM      1  C5  <0> d   1      18.521   1.471   9.983  0.00  0.00     0.153 C 
ATOM      2  C7  <0> d   1      19.097   1.778   8.600  0.00  0.00     0.042 C 
ENDROOT
BRANCH   1   3
ATOM      3  O4  <0> d   1      17.289   0.717   9.839  0.00  0.00    -0.315 OA
BRANCH   3   4
ATOM      4  C2  <0> d   1      16.952  -0.100  10.849  0.00  0.00     0.255 C 
ATOM      5  C1  <0> d   1      17.799  -1.308  11.156  0.00  0.00     0.126 C 
ATOM      6  O3  <0> d   1      15.969   0.132  11.512  0.00  0.00    -0.266 OA
ENDBRANCH   3   4
ENDBRANCH   1   3
BRANCH   1   7
ATOM      7  C8  <0> d   1      18.233   2.782  10.718  0.00  0.00     0.268 C 
BRANCH   7   8
ATOM      8  N9  <0> d   1      18.967   2.802  11.990  0.00  0.00    -0.076 N 
ATOM      9  C10 <0> d   1      19.927   1.690  12.019  0.00  0.00     0.271 C 
ATOM     10  C11 <0> d   1      19.688   4.075  12.120  0.00  0.00     0.271 C 
ATOM     11  C12 <0> d   1      18.020   2.660  13.104  0.00  0.00     0.271 C 
ENDBRANCH   7   8
ENDBRANCH   1   7
TORSDOF 4
ENDMDL
MODEL 9
REMARK VINA RESULT:      -3.9      1.958      3.083
REMARK  4 active torsions:
REMARK  status: ('A' for Active; 'I' for Inactive)
REMARK    1  A    between atoms: C2_2  and  O4_4 
REMARK    2  A    between atoms: O4_4  and  C5_5 
REMARK    3  A    between atoms: C5_5  and  C8_7 
REMARK    4  A    between atoms: C8_7  and  N9_8 
ROOT
ATOM      1  C5  <0> d   1      18.641   2.710  10.677  0.00  0.00     0.153 C 
ATOM      2  C7  <0> d   1      18.983   2.290   9.246  0.00  0.00     0.042 C 
ENDROOT
BRANCH   1   3
ATOM      3  O4  <0> d   1      18.734   4.154  10.794  0.00  0.00    -0.315 OA
BRANCH   3   4
ATOM      4  C2  <0> d   1      17.597   4.852  10.643  0.00  0.00     0.255 C 
ATOM      5  C1  <0> d   1      16.619   4.955  11.785  0.00  0.00     0.126 C 
ATOM      6  O3  <0> d   1      17.358   5.396   9.591  0.00  0.00    -0.266 OA
ENDBRANCH   3   4
ENDBRANCH   1   3
BRANCH   1   7
ATOM      7  C8  <0> d   1      19.625   2.055  11.650  0.00  0.00     0.268 C 
BRANCH   7   8
ATOM      8  N9  <0> d   1      18.898   1.576  12.833  0.00  0.00    -0.076 N 
ATOM      9  C10 <0> d   1      17.554   1.134  12.436  0.00  0.00     0.271 C 
ATOM     10  C11 <0> d   1      19.627   0.450  13.432  0.00  0.00     0.271 C 
ATOM     11  C12 <0> d   1      18.786   2.665  13.813  0.00  0.00     0.271 C 
ENDBRANCH   7   8
ENDBRANCH   1   7
TORSDOF 4
ENDMDL
