MODEL 1
REMARK VINA RESULT:     -10.0      0.000      0.000
REMARK  9 active torsions:
REMARK  status: ('A' for Active; 'I' for Inactive)
REMARK    1  A    between atoms: C2_2  and  O4_3 
REMARK    2  A    between atoms: C2_2  and  C31_28 
REMARK    3  A    between atoms: O4_3  and  C5_4 
REMARK    4  A    between atoms: N10_8  and  C11_9 
REMARK    5  A    between atoms: C11_9  and  C12_10 
REMARK    6  A    between atoms: N14_12  and  P15_13 
REMARK    7  A    between atoms: C22_20  and  C24_21 
REMARK    8  A    between atoms: C33_30  and  C34_31 
REMARK    9  A    between atoms: C39_36  and  C40_37 
ROOT
ATOM      1  C5  ZIN A   1      17.205  -0.781  11.123  0.00  0.00     0.298 C 
ATOM      2  O7  ZIN A   1      16.848  -0.746  12.507  0.00  0.00    -0.357 OA
ATOM      3  C8  ZIN A   1      17.791  -0.052  13.328  0.00  0.00     0.201 C 
ATOM      4  C9  ZIN A   1      17.931   1.388  12.828  0.00  0.00     0.300 C 
ATOM      5  N10 ZIN A   1      18.330   1.374  11.413  0.00  0.00     0.111 N 
ATOM      6  C22 ZIN A   1      17.340   0.652  10.600  0.00  0.00     0.311 C 
ENDROOT
BRANCH   1   7
ATOM      7  O4  ZIN A   1      18.452  -1.464  10.969  0.00  0.00    -0.349 OA
BRANCH   7   8
ATOM      8  C2  ZIN A   1      18.368  -2.877  11.166  0.00  0.00     0.153 C 
ATOM      9  C1  ZIN A   1      19.675  -3.384  11.780  0.00  0.00     0.045 C 
BRANCH   8  10
ATOM     10  C31 ZIN A   1      18.139  -3.556   9.840  0.00  0.00    -0.028 A 
ATOM     11  C44 ZIN A   1      18.984  -3.298   8.776  0.00  0.00     0.025 A 
ATOM     12  C39 ZIN A   1      18.777  -3.923   7.561  0.00  0.00     0.049 A 
ATOM     13  C38 ZIN A   1      17.719  -4.800   7.407  0.00  0.00     0.032 A 
ATOM     14  C33 ZIN A   1      16.871  -5.053   8.469  0.00  0.00     0.049 A 
ATOM     15  C32 ZIN A   1      17.081  -4.431   9.685  0.00  0.00     0.025 A 
BRANCH  12  16
ATOM     16  C40 ZIN A   1      19.700  -3.647   6.404  0.00  0.00     0.417 C 
ATOM     17  F41 ZIN A   1      20.921  -4.297   6.616  0.00  0.00    -0.166 F 
ATOM     18  F42 ZIN A   1      19.119  -4.118   5.221  0.00  0.00    -0.166 F 
ATOM     19  F43 ZIN A   1      19.917  -2.269   6.298  0.00  0.00    -0.166 F 
ENDBRANCH  12  16
BRANCH  14  20
ATOM     20  C34 ZIN A   1      15.717  -6.009   8.301  0.00  0.00     0.417 C 
ATOM     21  F35 ZIN A   1      15.322  -6.031   6.960  0.00  0.00    -0.166 F 
ATOM     22  F36 ZIN A   1      16.115  -7.292   8.691  0.00  0.00    -0.166 F 
ATOM     23  F37 ZIN A   1      14.645  -5.591   9.097  0.00  0.00    -0.166 F 
ENDBRANCH  14  20
ENDBRANCH   8  10
ENDBRANCH   7   8
ENDBRANCH   1   7
BRANCH   6  24
ATOM     24  C24 ZIN A   1      17.793   0.625   9.163  0.00  0.00    -0.020 A 
ATOM     25  C30 ZIN A   1      17.107  -0.138   8.236  0.00  0.00     0.012 A 
ATOM     26  C29 ZIN A   1      17.519  -0.160   6.917  0.00  0.00     0.043 A 
ATOM     27  C27 ZIN A   1      18.625   0.576   6.525  0.00  0.00     0.116 A 
ATOM     28  C26 ZIN A   1      19.315   1.335   7.456  0.00  0.00     0.043 A 
ATOM     29  F28 ZIN A   1      19.032   0.551   5.238  0.00  0.00    -0.206 F 
ATOM     30  C25 ZIN A   1      18.898   1.359   8.773  0.00  0.00     0.012 A 
ENDBRANCH   6  24
BRANCH   5  31
ATOM     31  C11 ZIN A   1      18.531   2.738  10.909  0.00  0.00     0.353 C 
BRANCH  31  32
ATOM     32  C12 ZIN A   1      18.492   3.711  12.060  0.00  0.00     0.157 A 
ATOM     33  N21 ZIN A   1      19.580   4.151  12.771  0.00  0.00    -0.292 N 
ATOM     34  C19 ZIN A   1      19.150   5.012  13.716  0.00  0.00     0.355 A 
ATOM     35  H54 ZIN A   1      20.503   3.893  12.616  0.00  0.00     0.172 HD
ATOM     36  N14 ZIN A   1      17.808   5.099  13.600  0.00  0.00    -0.103 N 
ATOM     37  O20 ZIN A   1      19.844   5.598  14.527  0.00  0.00    -0.244 OA
ATOM     38  N13 ZIN A   1      17.426   4.263  12.543  0.00  0.00    -0.142 NA
BRANCH  36  39
ATOM     39  P15 ZIN A   1      16.812   6.014  14.527  0.00  0.00     0.404 P 
ATOM     40  O16 ZIN A   1      17.205   7.524  14.382  0.00  0.00    -0.621 OA
ATOM     41  O17 ZIN A   1      15.331   5.813  14.058  0.00  0.00    -0.621 OA
ATOM     42  O18 ZIN A   1      16.947   5.580  16.026  0.00  0.00    -0.621 OA
ENDBRANCH  36  39
ENDBRANCH  31  32
ENDBRANCH   5  31
TORSDOF 9
ENDMDL
MODEL 2
REMARK VINA RESULT:     -10.0      0.063      2.875
REMARK  9 active torsions:
REMARK  status: ('A' for Active; 'I' for Inactive)
REMARK    1  A    between atoms: C2_2  and  O4_3 
REMARK    2  A    between atoms: C2_2  and  C31_28 
REMARK    3  A    between atoms: O4_3  and  C5_4 
REMARK    4  A    between atoms: N10_8  and  C11_9 
REMARK    5  A    between atoms: C11_9  and  C12_10 
REMARK    6  A    between atoms: N14_12  and  P15_13 
REMARK    7  A    between atoms: C22_20  and  C24_21 
REMARK    8  A    between atoms: C33_30  and  C34_31 
REMARK    9  A    between atoms: C39_36  and  C40_37 
ROOT
ATOM      1  C5  ZIN A   1      17.206  -0.825  11.119  0.00  0.00     0.298 C 
ATOM      2  O7  ZIN A   1      16.826  -0.808  12.497  0.00  0.00    -0.357 OA
ATOM      3  C8  ZIN A   1      17.734  -0.089  13.337  0.00  0.00     0.201 C 
ATOM      4  C9  ZIN A   1      17.839   1.357  12.846  0.00  0.00     0.300 C 
ATOM      5  N10 ZIN A   1      18.261   1.361  11.437  0.00  0.00     0.111 N 
ATOM      6  C22 ZIN A   1      17.306   0.614  10.604  0.00  0.00     0.311 C 
ENDROOT
BRANCH   1   7
ATOM      7  O4  ZIN A   1      18.476  -1.469  10.982  0.00  0.00    -0.349 OA
BRANCH   7   8
ATOM      8  C2  ZIN A   1      18.431  -2.885  11.168  0.00  0.00     0.153 C 
ATOM      9  C1  ZIN A   1      19.764  -3.366  11.745  0.00  0.00     0.045 C 
BRANCH   8  10
ATOM     10  C31 ZIN A   1      18.185  -3.559   9.843  0.00  0.00    -0.028 A 
ATOM     11  C44 ZIN A   1      17.129  -4.439   9.700  0.00  0.00     0.025 A 
ATOM     12  C39 ZIN A   1      16.901  -5.054   8.483  0.00  0.00     0.049 A 
ATOM     13  C38 ZIN A   1      17.735  -4.796   7.411  0.00  0.00     0.032 A 
ATOM     14  C33 ZIN A   1      18.795  -3.920   7.556  0.00  0.00     0.049 A 
ATOM     15  C32 ZIN A   1      19.020  -3.302   8.772  0.00  0.00     0.025 A 
BRANCH  12  16
ATOM     16  C40 ZIN A   1      15.746  -6.008   8.326  0.00  0.00     0.417 C 
ATOM     17  F41 ZIN A   1      16.141  -7.288   8.726  0.00  0.00    -0.166 F 
ATOM     18  F42 ZIN A   1      14.675  -5.580   9.118  0.00  0.00    -0.166 F 
ATOM     19  F43 ZIN A   1      15.347  -6.040   6.984  0.00  0.00    -0.166 F 
ENDBRANCH  12  16
BRANCH  14  20
ATOM     20  C34 ZIN A   1      19.705  -3.638   6.387  0.00  0.00     0.417 C 
ATOM     21  F35 ZIN A   1      19.125  -4.134   5.216  0.00  0.00    -0.166 F 
ATOM     22  F36 ZIN A   1      19.894  -2.258   6.266  0.00  0.00    -0.166 F 
ATOM     23  F37 ZIN A   1      20.939  -4.262   6.597  0.00  0.00    -0.166 F 
ENDBRANCH  14  20
ENDBRANCH   8  10
ENDBRANCH   7   8
ENDBRANCH   1   7
BRANCH   6  24
ATOM     24  C24 ZIN A   1      17.783   0.607   9.175  0.00  0.00    -0.020 A 
ATOM     25  C30 ZIN A   1      18.889   1.353   8.811  0.00  0.00     0.012 A 
ATOM     26  C29 ZIN A   1      19.328   1.345   7.501  0.00  0.00     0.043 A 
ATOM     27  C27 ZIN A   1      18.655   0.596   6.550  0.00  0.00     0.116 A 
ATOM     28  C26 ZIN A   1      17.544  -0.146   6.915  0.00  0.00     0.043 A 
ATOM     29  F28 ZIN A   1      19.081   0.590   5.269  0.00  0.00    -0.206 F 
ATOM     30  C25 ZIN A   1      17.109  -0.139   8.226  0.00  0.00     0.012 A 
ENDBRANCH   6  24
BRANCH   5  31
ATOM     31  C11 ZIN A   1      18.428   2.734  10.942  0.00  0.00     0.353 C 
BRANCH  31  32
ATOM     32  C12 ZIN A   1      18.423   3.692  12.105  0.00  0.00     0.157 A 
ATOM     33  N21 ZIN A   1      19.526   4.084  12.824  0.00  0.00    -0.292 N 
ATOM     34  C19 ZIN A   1      19.126   4.947  13.779  0.00  0.00     0.355 A 
ATOM     35  H54 ZIN A   1      20.439   3.795  12.666  0.00  0.00     0.172 HD
ATOM     36  N14 ZIN A   1      17.788   5.084  13.663  0.00  0.00    -0.103 N 
ATOM     37  O20 ZIN A   1      19.839   5.498  14.597  0.00  0.00    -0.244 OA
ATOM     38  N13 ZIN A   1      17.377   4.276  12.594  0.00  0.00    -0.142 NA
BRANCH  36  39
ATOM     39  P15 ZIN A   1      16.823   6.023  14.600  0.00  0.00     0.404 P 
ATOM     40  O16 ZIN A   1      15.333   5.858  14.144  0.00  0.00    -0.621 OA
ATOM     41  O17 ZIN A   1      16.962   5.583  16.097  0.00  0.00    -0.621 OA
ATOM     42  O18 ZIN A   1      17.252   7.522  14.455  0.00  0.00    -0.621 OA
ENDBRANCH  36  39
ENDBRANCH  31  32
ENDBRANCH   5  31
TORSDOF 9
ENDMDL
MODEL 3
REMARK VINA RESULT:      -9.9      2.884      4.851
REMARK  9 active torsions:
REMARK  status: ('A' for Active; 'I' for Inactive)
REMARK    1  A    between atoms: C2_2  and  O4_3 
REMARK    2  A    between atoms: C2_2  and  C31_28 
REMARK    3  A    between atoms: O4_3  and  C5_4 
REMARK    4  A    between atoms: N10_8  and  C11_9 
REMARK    5  A    between atoms: C11_9  and  C12_10 
REMARK    6  A    between atoms: N14_12  and  P15_13 
REMARK    7  A    between atoms: C22_20  and  C24_21 
REMARK    8  A    between atoms: C33_30  and  C34_31 
REMARK    9  A    between atoms: C39_36  and  C40_37 
ROOT
ATOM      1  C5  ZIN A   1      20.208  -0.342  11.264  0.00  0.00     0.298 C 
ATOM      2  O7  ZIN A   1      20.669   0.938  11.703  0.00  0.00    -0.357 OA
ATOM      3  C8  ZIN A   1      19.635   1.773  12.231  0.00  0.00     0.201 C 
ATOM      4  C9  ZIN A   1      18.970   1.065  13.415  0.00  0.00     0.300 C 
ATOM      5  N10 ZIN A   1      18.460  -0.243  12.974  0.00  0.00     0.111 N 
ATOM      6  C22 ZIN A   1      19.549  -1.073  12.437  0.00  0.00     0.311 C 
ENDROOT
BRANCH   1   7
ATOM      7  O4  ZIN A   1      19.254  -0.171  10.213  0.00  0.00    -0.349 OA
BRANCH   7   8
ATOM      8  C2  ZIN A   1      19.840   0.047   8.927  0.00  0.00     0.153 C 
ATOM      9  C1  ZIN A   1      19.426   1.425   8.406  0.00  0.00     0.045 C 
BRANCH   8  10
ATOM     10  C31 ZIN A   1      19.363  -1.016   7.971  0.00  0.00    -0.028 A 
ATOM     11  C44 ZIN A   1      18.666  -0.659   6.831  0.00  0.00     0.025 A 
ATOM     12  C39 ZIN A   1      18.232  -1.633   5.953  0.00  0.00     0.049 A 
ATOM     13  C38 ZIN A   1      18.486  -2.966   6.218  0.00  0.00     0.032 A 
ATOM     14  C33 ZIN A   1      19.177  -3.323   7.361  0.00  0.00     0.049 A 
ATOM     15  C32 ZIN A   1      19.615  -2.348   8.237  0.00  0.00     0.025 A 
BRANCH  12  16
ATOM     16  C40 ZIN A   1      17.479  -1.243   4.707  0.00  0.00     0.417 C 
ATOM     17  F41 ZIN A   1      18.245  -0.342   3.962  0.00  0.00    -0.166 F 
ATOM     18  F42 ZIN A   1      17.223  -2.386   3.941  0.00  0.00    -0.166 F 
ATOM     19  F43 ZIN A   1      16.267  -0.642   5.065  0.00  0.00    -0.166 F 
ENDBRANCH  12  16
BRANCH  14  20
ATOM     20  C34 ZIN A   1      19.454  -4.777   7.650  0.00  0.00     0.417 C 
ATOM     21  F35 ZIN A   1      20.263  -4.879   8.786  0.00  0.00    -0.166 F 
ATOM     22  F36 ZIN A   1      18.246  -5.445   7.876  0.00  0.00    -0.166 F 
ATOM     23  F37 ZIN A   1      20.109  -5.353   6.557  0.00  0.00    -0.166 F 
ENDBRANCH  14  20
ENDBRANCH   8  10
ENDBRANCH   7   8
ENDBRANCH   1   7
BRANCH   6  24
ATOM     24  C24 ZIN A   1      18.991  -2.390  11.964  0.00  0.00    -0.020 A 
ATOM     25  C30 ZIN A   1      19.794  -3.515  11.948  0.00  0.00     0.012 A 
ATOM     26  C29 ZIN A   1      19.281  -4.725  11.519  0.00  0.00     0.043 A 
ATOM     27  C27 ZIN A   1      17.966  -4.807  11.094  0.00  0.00     0.116 A 
ATOM     28  C26 ZIN A   1      17.164  -3.678  11.105  0.00  0.00     0.043 A 
ATOM     29  F28 ZIN A   1      17.465  -5.987  10.670  0.00  0.00    -0.206 F 
ATOM     30  C25 ZIN A   1      17.678  -2.471  11.540  0.00  0.00     0.012 A 
ENDBRANCH   6  24
BRANCH   5  31
ATOM     31  C11 ZIN A   1      17.764  -0.932  14.069  0.00  0.00     0.353 C 
BRANCH  31  32
ATOM     32  C12 ZIN A   1      18.186  -0.336  15.387  0.00  0.00     0.157 A 
ATOM     33  N21 ZIN A   1      18.934  -0.970  16.349  0.00  0.00    -0.292 N 
ATOM     34  C19 ZIN A   1      19.109  -0.120  17.380  0.00  0.00     0.355 A 
ATOM     35  H54 ZIN A   1      19.282  -1.874  16.293  0.00  0.00     0.172 HD
ATOM     36  N14 ZIN A   1      18.470   1.028  17.069  0.00  0.00    -0.103 N 
ATOM     37  O20 ZIN A   1      19.727  -0.347  18.404  0.00  0.00    -0.244 OA
ATOM     38  N13 ZIN A   1      17.897   0.855  15.802  0.00  0.00    -0.142 NA
BRANCH  36  39
ATOM     39  P15 ZIN A   1      18.381   2.373  18.002  0.00  0.00     0.404 P 
ATOM     40  O16 ZIN A   1      19.707   2.526  18.823  0.00  0.00    -0.621 OA
ATOM     41  O17 ZIN A   1      18.184   3.631  17.090  0.00  0.00    -0.621 OA
ATOM     42  O18 ZIN A   1      17.169   2.247  18.987  0.00  0.00    -0.621 OA
ENDBRANCH  36  39
ENDBRANCH  31  32
ENDBRANCH   5  31
TORSDOF 9
ENDMDL
MODEL 4
REMARK VINA RESULT:      -9.9      2.890      5.029
REMARK  9 active torsions:
REMARK  status: ('A' for Active; 'I' for Inactive)
REMARK    1  A    between atoms: C2_2  and  O4_3 
REMARK    2  A    between atoms: C2_2  and  C31_28 
REMARK    3  A    between atoms: O4_3  and  C5_4 
REMARK    4  A    between atoms: N10_8  and  C11_9 
REMARK    5  A    between atoms: C11_9  and  C12_10 
REMARK    6  A    between atoms: N14_12  and  P15_13 
REMARK    7  A    between atoms: C22_20  and  C24_21 
REMARK    8  A    between atoms: C33_30  and  C34_31 
REMARK    9  A    between atoms: C39_36  and  C40_37 
ROOT
ATOM      1  C5  ZIN A   1      20.242  -0.487  11.230  0.00  0.00     0.298 C 
ATOM      2  O7  ZIN A   1      20.734   0.782  11.667  0.00  0.00    -0.357 OA
ATOM      3  C8  ZIN A   1      19.723   1.640  12.201  0.00  0.00     0.201 C 
ATOM      4  C9  ZIN A   1      19.050   0.947  13.389  0.00  0.00     0.300 C 
ATOM      5  N10 ZIN A   1      18.507  -0.348  12.952  0.00  0.00     0.111 N 
ATOM      6  C22 ZIN A   1      19.573  -1.203  12.407  0.00  0.00     0.311 C 
ENDROOT
BRANCH   1   7
ATOM      7  O4  ZIN A   1      19.285  -0.294  10.185  0.00  0.00    -0.349 OA
BRANCH   7   8
ATOM      8  C2  ZIN A   1      19.868  -0.082   8.897  0.00  0.00     0.153 C 
ATOM      9  C1  ZIN A   1      19.472   1.303   8.381  0.00  0.00     0.045 C 
BRANCH   8  10
ATOM     10  C31 ZIN A   1      19.370  -1.135   7.941  0.00  0.00    -0.028 A 
ATOM     11  C44 ZIN A   1      19.625  -2.471   8.191  0.00  0.00     0.025 A 
ATOM     12  C39 ZIN A   1      19.166  -3.438   7.317  0.00  0.00     0.049 A 
ATOM     13  C38 ZIN A   1      18.459  -3.069   6.187  0.00  0.00     0.032 A 
ATOM     14  C33 ZIN A   1      18.208  -1.733   5.935  0.00  0.00     0.049 A 
ATOM     15  C32 ZIN A   1      18.664  -0.766   6.812  0.00  0.00     0.025 A 
BRANCH  12  16
ATOM     16  C40 ZIN A   1      19.439  -4.894   7.591  0.00  0.00     0.417 C 
ATOM     17  F41 ZIN A   1      20.329  -5.007   8.664  0.00  0.00    -0.166 F 
ATOM     18  F42 ZIN A   1      18.240  -5.542   7.908  0.00  0.00    -0.166 F 
ATOM     19  F43 ZIN A   1      20.001  -5.486   6.454  0.00  0.00    -0.166 F 
ENDBRANCH  12  16
BRANCH  14  20
ATOM     20  C34 ZIN A   1      17.437  -1.330   4.704  0.00  0.00     0.417 C 
ATOM     21  F35 ZIN A   1      16.260  -0.678   5.084  0.00  0.00    -0.166 F 
ATOM     22  F36 ZIN A   1      18.218  -0.467   3.927  0.00  0.00    -0.166 F 
ATOM     23  F37 ZIN A   1      17.120  -2.470   3.958  0.00  0.00    -0.166 F 
ENDBRANCH  14  20
ENDBRANCH   8  10
ENDBRANCH   7   8
ENDBRANCH   1   7
BRANCH   6  24
ATOM     24  C24 ZIN A   1      18.982  -2.507  11.938  0.00  0.00    -0.020 A 
ATOM     25  C30 ZIN A   1      17.651  -2.569  11.568  0.00  0.00     0.012 A 
ATOM     26  C29 ZIN A   1      17.110  -3.764  11.133  0.00  0.00     0.043 A 
ATOM     27  C27 ZIN A   1      17.899  -4.901  11.076  0.00  0.00     0.116 A 
ATOM     28  C26 ZIN A   1      19.230  -4.838  11.452  0.00  0.00     0.043 A 
ATOM     29  F28 ZIN A   1      17.370  -6.070  10.656  0.00  0.00    -0.206 F 
ATOM     30  C25 ZIN A   1      19.770  -3.641  11.882  0.00  0.00     0.012 A 
ENDBRANCH   6  24
BRANCH   5  31
ATOM     31  C11 ZIN A   1      17.802  -1.022  14.050  0.00  0.00     0.353 C 
BRANCH  31  32
ATOM     32  C12 ZIN A   1      18.217  -0.410  15.364  0.00  0.00     0.157 A 
ATOM     33  N21 ZIN A   1      18.962  -1.030  16.335  0.00  0.00    -0.292 N 
ATOM     34  C19 ZIN A   1      19.131  -0.168  17.357  0.00  0.00     0.355 A 
ATOM     35  H54 ZIN A   1      19.315  -1.934  16.291  0.00  0.00     0.172 HD
ATOM     36  N14 ZIN A   1      18.490   0.974  17.030  0.00  0.00    -0.103 N 
ATOM     37  O20 ZIN A   1      19.745  -0.381  18.387  0.00  0.00    -0.244 OA
ATOM     38  N13 ZIN A   1      17.923   0.785  15.763  0.00  0.00    -0.142 NA
BRANCH  36  39
ATOM     39  P15 ZIN A   1      18.392   2.330  17.948  0.00  0.00     0.404 P 
ATOM     40  O16 ZIN A   1      17.206   2.188  18.963  0.00  0.00    -0.621 OA
ATOM     41  O17 ZIN A   1      19.732   2.525  18.736  0.00  0.00    -0.621 OA
ATOM     42  O18 ZIN A   1      18.145   3.570  17.025  0.00  0.00    -0.621 OA
ENDBRANCH  36  39
ENDBRANCH  31  32
ENDBRANCH   5  31
TORSDOF 9
ENDMDL
MODEL 5
REMARK VINA RESULT:      -9.7      5.840      9.597
REMARK  9 active torsions:
REMARK  status: ('A' for Active; 'I' for Inactive)
REMARK    1  A    between atoms: C2_2  and  O4_3 
REMARK    2  A    between atoms: C2_2  and  C31_28 
REMARK    3  A    between atoms: O4_3  and  C5_4 
REMARK    4  A    between atoms: N10_8  and  C11_9 
REMARK    5  A    between atoms: C11_9  and  C12_10 
REMARK    6  A    between atoms: N14_12  and  P15_13 
REMARK    7  A    between atoms: C22_20  and  C24_21 
REMARK    8  A    between atoms: C33_30  and  C34_31 
REMARK    9  A    between atoms: C39_36  and  C40_37 
ROOT
ATOM      1  C5  ZIN A   1      19.500  -0.861  12.373  0.00  0.00     0.298 C 
ATOM      2  O7  ZIN A   1      19.692  -2.228  12.746  0.00  0.00    -0.357 OA
ATOM      3  C8  ZIN A   1      18.511  -3.027  12.634  0.00  0.00     0.201 C 
ATOM      4  C9  ZIN A   1      18.009  -2.985  11.188  0.00  0.00     0.300 C 
ATOM      5  N10 ZIN A   1      17.775  -1.587  10.797  0.00  0.00     0.111 N 
ATOM      6  C22 ZIN A   1      19.008  -0.796  10.925  0.00  0.00     0.311 C 
ENDROOT
BRANCH   1   7
ATOM      7  O4  ZIN A   1      18.528  -0.263  13.234  0.00  0.00    -0.349 OA
BRANCH   7   8
ATOM      8  C2  ZIN A   1      18.948  -0.154  14.596  0.00  0.00     0.153 C 
ATOM      9  C1  ZIN A   1      18.017  -0.981  15.485  0.00  0.00     0.045 C 
BRANCH   8  10
ATOM     10  C31 ZIN A   1      18.896   1.291  15.022  0.00  0.00    -0.028 A 
ATOM     11  C44 ZIN A   1      18.668   1.613  16.348  0.00  0.00     0.025 A 
ATOM     12  C39 ZIN A   1      18.625   2.937  16.740  0.00  0.00     0.049 A 
ATOM     13  C38 ZIN A   1      18.800   3.941  15.805  0.00  0.00     0.032 A 
ATOM     14  C33 ZIN A   1      19.023   3.619  14.479  0.00  0.00     0.049 A 
ATOM     15  C32 ZIN A   1      19.071   2.294  14.088  0.00  0.00     0.025 A 
BRANCH  12  16
ATOM     16  C40 ZIN A   1      18.382   3.288  18.185  0.00  0.00     0.417 C 
ATOM     17  F41 ZIN A   1      19.493   2.915  18.948  0.00  0.00    -0.166 F 
ATOM     18  F42 ZIN A   1      18.176   4.667  18.301  0.00  0.00    -0.166 F 
ATOM     19  F43 ZIN A   1      17.249   2.608  18.646  0.00  0.00    -0.166 F 
ENDBRANCH  12  16
BRANCH  14  20
ATOM     20  C34 ZIN A   1      19.215   4.713  13.460  0.00  0.00     0.417 C 
ATOM     21  F35 ZIN A   1      19.990   4.232  12.401  0.00  0.00    -0.166 F 
ATOM     22  F36 ZIN A   1      17.967   5.123  12.977  0.00  0.00    -0.166 F 
ATOM     23  F37 ZIN A   1      19.863   5.799  14.058  0.00  0.00    -0.166 F 
ENDBRANCH  14  20
ENDBRANCH   8  10
ENDBRANCH   7   8
ENDBRANCH   1   7
BRANCH   6  24
ATOM     24  C24 ZIN A   1      18.728   0.636  10.549  0.00  0.00    -0.020 A 
ATOM     25  C30 ZIN A   1      17.698   1.324  11.164  0.00  0.00     0.012 A 
ATOM     26  C29 ZIN A   1      17.444   2.639  10.823  0.00  0.00     0.043 A 
ATOM     27  C27 ZIN A   1      18.216   3.265   9.859  0.00  0.00     0.116 A 
ATOM     28  C26 ZIN A   1      19.244   2.574   9.240  0.00  0.00     0.043 A 
ATOM     29  F28 ZIN A   1      17.966   4.548   9.521  0.00  0.00    -0.206 F 
ATOM     30  C25 ZIN A   1      19.499   1.260   9.586  0.00  0.00     0.012 A 
ENDBRANCH   6  24
BRANCH   5  31
ATOM     31  C11 ZIN A   1      17.237  -1.506   9.432  0.00  0.00     0.353 C 
BRANCH  31  32
ATOM     32  C12 ZIN A   1      18.053  -2.382   8.517  0.00  0.00     0.157 A 
ATOM     33  N21 ZIN A   1      18.741  -1.958   7.407  0.00  0.00    -0.292 N 
ATOM     34  C19 ZIN A   1      19.350  -3.024   6.851  0.00  0.00     0.355 A 
ATOM     35  H54 ZIN A   1      18.786  -1.045   7.081  0.00  0.00     0.172 HD
ATOM     36  N14 ZIN A   1      19.038  -4.102   7.601  0.00  0.00    -0.103 N 
ATOM     37  O20 ZIN A   1      20.049  -3.017   5.854  0.00  0.00    -0.244 OA
ATOM     38  N13 ZIN A   1      18.216  -3.659   8.646  0.00  0.00    -0.142 NA
BRANCH  36  39
ATOM     39  P15 ZIN A   1      19.529  -5.644   7.336  0.00  0.00     0.404 P 
ATOM     40  O16 ZIN A   1      18.965  -6.142   5.961  0.00  0.00    -0.621 OA
ATOM     41  O17 ZIN A   1      21.095  -5.696   7.307  0.00  0.00    -0.621 OA
ATOM     42  O18 ZIN A   1      18.997  -6.567   8.484  0.00  0.00    -0.621 OA
ENDBRANCH  36  39
ENDBRANCH  31  32
ENDBRANCH   5  31
TORSDOF 9
ENDMDL
MODEL 6
REMARK VINA RESULT:      -9.6      5.873      9.406
REMARK  9 active torsions:
REMARK  status: ('A' for Active; 'I' for Inactive)
REMARK    1  A    between atoms: C2_2  and  O4_3 
REMARK    2  A    between atoms: C2_2  and  C31_28 
REMARK    3  A    between atoms: O4_3  and  C5_4 
REMARK    4  A    between atoms: N10_8  and  C11_9 
REMARK    5  A    between atoms: C11_9  and  C12_10 
REMARK    6  A    between atoms: N14_12  and  P15_13 
REMARK    7  A    between atoms: C22_20  and  C24_21 
REMARK    8  A    between atoms: C33_30  and  C34_31 
REMARK    9  A    between atoms: C39_36  and  C40_37 
ROOT
ATOM      1  C5  ZIN A   1      19.515  -0.704  12.308  0.00  0.00     0.298 C 
ATOM      2  O7  ZIN A   1      19.737  -2.079  12.631  0.00  0.00    -0.357 OA
ATOM      3  C8  ZIN A   1      18.566  -2.894  12.520  0.00  0.00     0.201 C 
ATOM      4  C9  ZIN A   1      18.029  -2.812  11.089  0.00  0.00     0.300 C 
ATOM      5  N10 ZIN A   1      17.764  -1.406  10.749  0.00  0.00     0.111 N 
ATOM      6  C22 ZIN A   1      18.987  -0.600  10.875  0.00  0.00     0.311 C 
ENDROOT
BRANCH   1   7
ATOM      7  O4  ZIN A   1      18.555  -0.151  13.211  0.00  0.00    -0.349 OA
BRANCH   7   8
ATOM      8  C2  ZIN A   1      19.007  -0.074  14.565  0.00  0.00     0.153 C 
ATOM      9  C1  ZIN A   1      18.123  -0.956  15.449  0.00  0.00     0.045 C 
BRANCH   8  10
ATOM     10  C31 ZIN A   1      18.928   1.354  15.040  0.00  0.00    -0.028 A 
ATOM     11  C44 ZIN A   1      19.089   2.392  14.141  0.00  0.00     0.025 A 
ATOM     12  C39 ZIN A   1      19.013   3.701  14.575  0.00  0.00     0.049 A 
ATOM     13  C38 ZIN A   1      18.785   3.974  15.912  0.00  0.00     0.032 A 
ATOM     14  C33 ZIN A   1      18.629   2.936  16.812  0.00  0.00     0.049 A 
ATOM     15  C32 ZIN A   1      18.701   1.626  16.376  0.00  0.00     0.025 A 
BRANCH  12  16
ATOM     16  C40 ZIN A   1      19.182   4.832  13.595  0.00  0.00     0.417 C 
ATOM     17  F41 ZIN A   1      19.963   4.403  12.517  0.00  0.00    -0.166 F 
ATOM     18  F42 ZIN A   1      17.926   5.238  13.129  0.00  0.00    -0.166 F 
ATOM     19  F43 ZIN A   1      19.813   5.909  14.229  0.00  0.00    -0.166 F 
ENDBRANCH  12  16
BRANCH  14  20
ATOM     20  C34 ZIN A   1      18.381   3.233  18.269  0.00  0.00     0.417 C 
ATOM     21  F35 ZIN A   1      19.496   2.847  19.019  0.00  0.00    -0.166 F 
ATOM     22  F36 ZIN A   1      18.159   4.605  18.433  0.00  0.00    -0.166 F 
ATOM     23  F37 ZIN A   1      17.257   2.523  18.704  0.00  0.00    -0.166 F 
ENDBRANCH  14  20
ENDBRANCH   8  10
ENDBRANCH   7   8
ENDBRANCH   1   7
BRANCH   6  24
ATOM     24  C24 ZIN A   1      18.676   0.839  10.554  0.00  0.00    -0.020 A 
ATOM     25  C30 ZIN A   1      19.386   1.496   9.566  0.00  0.00     0.012 A 
ATOM     26  C29 ZIN A   1      19.099   2.814   9.268  0.00  0.00     0.043 A 
ATOM     27  C27 ZIN A   1      18.106   3.481   9.966  0.00  0.00     0.116 A 
ATOM     28  C26 ZIN A   1      17.400   2.824  10.959  0.00  0.00     0.043 A 
ATOM     29  F28 ZIN A   1      17.827   4.771   9.679  0.00  0.00    -0.206 F 
ATOM     30  C25 ZIN A   1      17.686   1.504  11.252  0.00  0.00     0.012 A 
ENDBRANCH   6  24
BRANCH   5  31
ATOM     31  C11 ZIN A   1      17.192  -1.289   9.401  0.00  0.00     0.353 C 
BRANCH  31  32
ATOM     32  C12 ZIN A   1      17.945  -2.190   8.456  0.00  0.00     0.157 A 
ATOM     33  N21 ZIN A   1      18.775  -1.773   7.444  0.00  0.00    -0.292 N 
ATOM     34  C19 ZIN A   1      19.267  -2.863   6.822  0.00  0.00     0.355 A 
ATOM     35  H54 ZIN A   1      18.978  -0.851   7.220  0.00  0.00     0.172 HD
ATOM     36  N14 ZIN A   1      18.742  -3.947   7.433  0.00  0.00    -0.103 N 
ATOM     37  O20 ZIN A   1      20.038  -2.870   5.880  0.00  0.00    -0.244 OA
ATOM     38  N13 ZIN A   1      17.911  -3.483   8.462  0.00  0.00    -0.142 NA
BRANCH  36  39
ATOM     39  P15 ZIN A   1      19.025  -5.514   7.042  0.00  0.00     0.404 P 
ATOM     40  O16 ZIN A   1      20.569  -5.783   7.054  0.00  0.00    -0.621 OA
ATOM     41  O17 ZIN A   1      18.325  -6.448   8.086  0.00  0.00    -0.621 OA
ATOM     42  O18 ZIN A   1      18.455  -5.808   5.613  0.00  0.00    -0.621 OA
ENDBRANCH  36  39
ENDBRANCH  31  32
ENDBRANCH   5  31
TORSDOF 9
ENDMDL
MODEL 7
REMARK VINA RESULT:      -9.3      5.786      9.258
REMARK  9 active torsions:
REMARK  status: ('A' for Active; 'I' for Inactive)
REMARK    1  A    between atoms: C2_2  and  O4_3 
REMARK    2  A    between atoms: C2_2  and  C31_28 
REMARK    3  A    between atoms: O4_3  and  C5_4 
REMARK    4  A    between atoms: N10_8  and  C11_9 
REMARK    5  A    between atoms: C11_9  and  C12_10 
REMARK    6  A    between atoms: N14_12  and  P15_13 
REMARK    7  A    between atoms: C22_20  and  C24_21 
REMARK    8  A    between atoms: C33_30  and  C34_31 
REMARK    9  A    between atoms: C39_36  and  C40_37 
ROOT
ATOM      1  C5  ZIN A   1      19.477  -0.576  12.006  0.00  0.00     0.298 C 
ATOM      2  O7  ZIN A   1      19.672  -1.985  12.150  0.00  0.00    -0.357 OA
ATOM      3  C8  ZIN A   1      18.454  -2.734  12.189  0.00  0.00     0.201 C 
ATOM      4  C9  ZIN A   1      17.666  -2.483  10.901  0.00  0.00     0.300 C 
ATOM      5  N10 ZIN A   1      17.427  -1.040  10.752  0.00  0.00     0.111 N 
ATOM      6  C22 ZIN A   1      18.699  -0.302  10.716  0.00  0.00     0.311 C 
ENDROOT
BRANCH   1   7
ATOM      7  O4  ZIN A   1      18.736  -0.079  13.124  0.00  0.00    -0.349 OA
BRANCH   7   8
ATOM      8  C2  ZIN A   1      19.509   0.058  14.318  0.00  0.00     0.153 C 
ATOM      9  C1  ZIN A   1      19.102  -1.027  15.317  0.00  0.00     0.045 C 
BRANCH   8  10
ATOM     10  C31 ZIN A   1      19.261   1.416  14.923  0.00  0.00    -0.028 A 
ATOM     11  C44 ZIN A   1      18.944   1.528  16.264  0.00  0.00     0.025 A 
ATOM     12  C39 ZIN A   1      18.721   2.773  16.820  0.00  0.00     0.049 A 
ATOM     13  C38 ZIN A   1      18.805   3.907  16.033  0.00  0.00     0.032 A 
ATOM     14  C33 ZIN A   1      19.116   3.794  14.691  0.00  0.00     0.049 A 
ATOM     15  C32 ZIN A   1      19.344   2.549  14.136  0.00  0.00     0.025 A 
BRANCH  12  16
ATOM     16  C40 ZIN A   1      18.381   2.896  18.283  0.00  0.00     0.417 C 
ATOM     17  F41 ZIN A   1      17.937   4.195  18.551  0.00  0.00    -0.166 F 
ATOM     18  F42 ZIN A   1      17.373   1.981  18.606  0.00  0.00    -0.166 F 
ATOM     19  F43 ZIN A   1      19.519   2.624  19.050  0.00  0.00    -0.166 F 
ENDBRANCH  12  16
BRANCH  14  20
ATOM     20  C34 ZIN A   1      19.208   5.030  13.832  0.00  0.00     0.417 C 
ATOM     21  F35 ZIN A   1      19.789   6.067  14.569  0.00  0.00    -0.166 F 
ATOM     22  F36 ZIN A   1      19.996   4.759  12.708  0.00  0.00    -0.166 F 
ATOM     23  F37 ZIN A   1      17.926   5.410  13.423  0.00  0.00    -0.166 F 
ENDBRANCH  14  20
ENDBRANCH   8  10
ENDBRANCH   7   8
ENDBRANCH   1   7
BRANCH   6  24
ATOM     24  C24 ZIN A   1      18.421   1.174  10.596  0.00  0.00    -0.020 A 
ATOM     25  C30 ZIN A   1      17.467   1.766  11.403  0.00  0.00     0.012 A 
ATOM     26  C29 ZIN A   1      17.215   3.121  11.297  0.00  0.00     0.043 A 
ATOM     27  C27 ZIN A   1      17.912   3.884  10.375  0.00  0.00     0.116 A 
ATOM     28  C26 ZIN A   1      18.863   3.289   9.564  0.00  0.00     0.043 A 
ATOM     29  F28 ZIN A   1      17.663   5.206  10.267  0.00  0.00    -0.206 F 
ATOM     30  C25 ZIN A   1      19.116   1.935   9.675  0.00  0.00     0.012 A 
ENDBRANCH   6  24
BRANCH   5  31
ATOM     31  C11 ZIN A   1      16.623  -0.760   9.555  0.00  0.00     0.353 C 
BRANCH  31  32
ATOM     32  C12 ZIN A   1      17.395  -1.164   8.325  0.00  0.00     0.157 A 
ATOM     33  N21 ZIN A   1      17.945  -2.402   8.096  0.00  0.00    -0.292 N 
ATOM     34  C19 ZIN A   1      18.551  -2.382   6.892  0.00  0.00     0.355 A 
ATOM     35  H54 ZIN A   1      17.899  -3.164   8.695  0.00  0.00     0.172 HD
ATOM     36  N14 ZIN A   1      18.389  -1.143   6.381  0.00  0.00    -0.103 N 
ATOM     37  O20 ZIN A   1      19.139  -3.308   6.365  0.00  0.00    -0.244 OA
ATOM     38  N13 ZIN A   1      17.654  -0.400   7.314  0.00  0.00    -0.142 NA
BRANCH  36  39
ATOM     39  P15 ZIN A   1      18.951  -0.608   4.936  0.00  0.00     0.404 P 
ATOM     40  O16 ZIN A   1      19.630   0.792   5.125  0.00  0.00    -0.621 OA
ATOM     41  O17 ZIN A   1      20.001  -1.625   4.374  0.00  0.00    -0.621 OA
ATOM     42  O18 ZIN A   1      17.759  -0.479   3.927  0.00  0.00    -0.621 OA
ENDBRANCH  36  39
ENDBRANCH  31  32
ENDBRANCH   5  31
TORSDOF 9
ENDMDL
MODEL 8
REMARK VINA RESULT:      -9.3      2.097      3.122
REMARK  9 active torsions:
REMARK  status: ('A' for Active; 'I' for Inactive)
REMARK    1  A    between atoms: C2_2  and  O4_3 
REMARK    2  A    between atoms: C2_2  and  C31_28 
REMARK    3  A    between atoms: O4_3  and  C5_4 
REMARK    4  A    between atoms: N10_8  and  C11_9 
REMARK    5  A    between atoms: C11_9  and  C12_10 
REMARK    6  A    between atoms: N14_12  and  P15_13 
REMARK    7  A    between atoms: C22_20  and  C24_21 
REMARK    8  A    between atoms: C33_30  and  C34_31 
REMARK    9  A    between atoms: C39_36  and  C40_37 
ROOT
ATOM      1  C5  ZIN A   1      17.855  -2.601   9.670  0.00  0.00     0.298 C 
ATOM      2  O7  ZIN A   1      17.955  -2.828  11.078  0.00  0.00    -0.357 OA
ATOM      3  C8  ZIN A   1      19.267  -2.610  11.605  0.00  0.00     0.201 C 
ATOM      4  C9  ZIN A   1      19.693  -1.169  11.315  0.00  0.00     0.300 C 
ATOM      5  N10 ZIN A   1      19.627  -0.925   9.866  0.00  0.00     0.111 N 
ATOM      6  C22 ZIN A   1      18.267  -1.160   9.359  0.00  0.00     0.311 C 
ENDROOT
BRANCH   1   7
ATOM      7  O4  ZIN A   1      18.721  -3.504   8.978  0.00  0.00    -0.349 OA
BRANCH   7   8
ATOM      8  C2  ZIN A   1      18.271  -4.861   8.985  0.00  0.00     0.153 C 
ATOM      9  C1  ZIN A   1      19.479  -5.798   9.054  0.00  0.00     0.045 C 
BRANCH   8  10
ATOM     10  C31 ZIN A   1      17.491  -5.138   7.725  0.00  0.00    -0.028 A 
ATOM     11  C44 ZIN A   1      17.913  -4.606   6.520  0.00  0.00     0.025 A 
ATOM     12  C39 ZIN A   1      17.200  -4.863   5.364  0.00  0.00     0.049 A 
ATOM     13  C38 ZIN A   1      16.061  -5.645   5.414  0.00  0.00     0.032 A 
ATOM     14  C33 ZIN A   1      15.637  -6.172   6.620  0.00  0.00     0.049 A 
ATOM     15  C32 ZIN A   1      16.352  -5.919   7.775  0.00  0.00     0.025 A 
BRANCH  12  16
ATOM     16  C40 ZIN A   1      17.662  -4.289   4.051  0.00  0.00     0.417 C 
ATOM     17  F41 ZIN A   1      17.681  -5.297   3.082  0.00  0.00    -0.166 F 
ATOM     18  F42 ZIN A   1      16.786  -3.273   3.652  0.00  0.00    -0.166 F 
ATOM     19  F43 ZIN A   1      18.949  -3.761   4.199  0.00  0.00    -0.166 F 
ENDBRANCH  12  16
BRANCH  14  20
ATOM     20  C34 ZIN A   1      14.395  -7.025   6.674  0.00  0.00     0.417 C 
ATOM     21  F35 ZIN A   1      14.511  -8.076   5.759  0.00  0.00    -0.166 F 
ATOM     22  F36 ZIN A   1      14.243  -7.544   7.965  0.00  0.00    -0.166 F 
ATOM     23  F37 ZIN A   1      13.279  -6.245   6.351  0.00  0.00    -0.166 F 
ENDBRANCH  14  20
ENDBRANCH   8  10
ENDBRANCH   7   8
ENDBRANCH   1   7
BRANCH   6  24
ATOM     24  C24 ZIN A   1      18.239  -0.936   7.870  0.00  0.00    -0.020 A 
ATOM     25  C30 ZIN A   1      19.300  -1.352   7.088  0.00  0.00     0.012 A 
ATOM     26  C29 ZIN A   1      19.273  -1.151   5.720  0.00  0.00     0.043 A 
ATOM     27  C27 ZIN A   1      18.187  -0.522   5.135  0.00  0.00     0.116 A 
ATOM     28  C26 ZIN A   1      17.127  -0.100   5.920  0.00  0.00     0.043 A 
ATOM     29  F28 ZIN A   1      18.161  -0.320   3.800  0.00  0.00    -0.206 F 
ATOM     30  C25 ZIN A   1      17.154  -0.307   7.286  0.00  0.00     0.012 A 
ENDBRANCH   6  24
BRANCH   5  31
ATOM     31  C11 ZIN A   1      20.084   0.432   9.539  0.00  0.00     0.353 C 
BRANCH  31  32
ATOM     32  C12 ZIN A   1      19.323   1.432  10.370  0.00  0.00     0.157 A 
ATOM     33  N21 ZIN A   1      18.163   2.065   9.997  0.00  0.00    -0.292 N 
ATOM     34  C19 ZIN A   1      17.781   2.880  11.001  0.00  0.00     0.355 A 
ATOM     35  H54 ZIN A   1      17.693   1.941   9.157  0.00  0.00     0.172 HD
ATOM     36  N14 ZIN A   1      18.698   2.764  11.984  0.00  0.00    -0.103 N 
ATOM     37  O20 ZIN A   1      16.794   3.593  11.015  0.00  0.00    -0.244 OA
ATOM     38  N13 ZIN A   1      19.659   1.840  11.551  0.00  0.00    -0.142 NA
BRANCH  36  39
ATOM     39  P15 ZIN A   1      18.689   3.559  13.419  0.00  0.00     0.404 P 
ATOM     40  O16 ZIN A   1      17.237   4.064  13.726  0.00  0.00    -0.621 OA
ATOM     41  O17 ZIN A   1      19.155   2.589  14.557  0.00  0.00    -0.621 OA
ATOM     42  O18 ZIN A   1      19.663   4.783  13.345  0.00  0.00    -0.621 OA
ENDBRANCH  36  39
ENDBRANCH  31  32
ENDBRANCH   5  31
TORSDOF 9
ENDMDL
MODEL 9
REMARK VINA RESULT:      -9.3      5.851      9.127
REMARK  9 active torsions:
REMARK  status: ('A' for Active; 'I' for Inactive)
REMARK    1  A    between atoms: C2_2  and  O4_3 
REMARK    2  A    between atoms: C2_2  and  C31_28 
REMARK    3  A    between atoms: O4_3  and  C5_4 
REMARK    4  A    between atoms: N10_8  and  C11_9 
REMARK    5  A    between atoms: C11_9  and  C12_10 
REMARK    6  A    between atoms: N14_12  and  P15_13 
REMARK    7  A    between atoms: C22_20  and  C24_21 
REMARK    8  A    between atoms: C33_30  and  C34_31 
REMARK    9  A    between atoms: C39_36  and  C40_37 
ROOT
ATOM      1  C5  ZIN A   1      19.501  -0.145  12.079  0.00  0.00     0.298 C 
ATOM      2  O7  ZIN A   1      19.789  -1.541  12.197  0.00  0.00    -0.357 OA
ATOM      3  C8  ZIN A   1      18.623  -2.369  12.228  0.00  0.00     0.201 C 
ATOM      4  C9  ZIN A   1      17.813  -2.148  10.948  0.00  0.00     0.300 C 
ATOM      5  N10 ZIN A   1      17.479  -0.721  10.825  0.00  0.00     0.111 N 
ATOM      6  C22 ZIN A   1      18.699   0.099  10.798  0.00  0.00     0.311 C 
ENDROOT
BRANCH   1   7
ATOM      7  O4  ZIN A   1      18.735   0.281  13.209  0.00  0.00    -0.349 OA
BRANCH   7   8
ATOM      8  C2  ZIN A   1      19.502   0.442  14.403  0.00  0.00     0.153 C 
ATOM      9  C1  ZIN A   1      19.134  -0.659  15.399  0.00  0.00     0.045 C 
BRANCH   8  10
ATOM     10  C31 ZIN A   1      19.207   1.789  15.012  0.00  0.00    -0.028 A 
ATOM     11  C44 ZIN A   1      19.328   2.935  14.247  0.00  0.00     0.025 A 
ATOM     12  C39 ZIN A   1      19.053   4.170  14.803  0.00  0.00     0.049 A 
ATOM     13  C38 ZIN A   1      18.667   4.260  16.128  0.00  0.00     0.032 A 
ATOM     14  C33 ZIN A   1      18.552   3.116  16.894  0.00  0.00     0.049 A 
ATOM     15  C32 ZIN A   1      18.822   1.880  16.336  0.00  0.00     0.025 A 
BRANCH  12  16
ATOM     16  C40 ZIN A   1      19.179   5.418  13.969  0.00  0.00     0.417 C 
ATOM     17  F41 ZIN A   1      19.882   5.125  12.796  0.00  0.00    -0.166 F 
ATOM     18  F42 ZIN A   1      17.903   5.891  13.643  0.00  0.00    -0.166 F 
ATOM     19  F43 ZIN A   1      19.867   6.397  14.694  0.00  0.00    -0.166 F 
ENDBRANCH  12  16
BRANCH  14  20
ATOM     20  C34 ZIN A   1      18.130   3.214  18.338  0.00  0.00     0.417 C 
ATOM     21  F35 ZIN A   1      17.436   4.411  18.540  0.00  0.00    -0.166 F 
ATOM     22  F36 ZIN A   1      17.300   2.134  18.656  0.00  0.00    -0.166 F 
ATOM     23  F37 ZIN A   1      19.264   3.188  19.157  0.00  0.00    -0.166 F 
ENDBRANCH  14  20
ENDBRANCH   8  10
ENDBRANCH   7   8
ENDBRANCH   1   7
BRANCH   6  24
ATOM     24  C24 ZIN A   1      18.324   1.556  10.706  0.00  0.00    -0.020 A 
ATOM     25  C30 ZIN A   1      17.454   2.105  11.630  0.00  0.00     0.012 A 
ATOM     26  C29 ZIN A   1      17.113   3.442  11.549  0.00  0.00     0.043 A 
ATOM     27  C27 ZIN A   1      17.636   4.229  10.536  0.00  0.00     0.116 A 
ATOM     28  C26 ZIN A   1      18.502   3.676   9.608  0.00  0.00     0.043 A 
ATOM     29  F28 ZIN A   1      17.299   5.534  10.453  0.00  0.00    -0.206 F 
ATOM     30  C25 ZIN A   1      18.845   2.340   9.694  0.00  0.00     0.012 A 
ENDBRANCH   6  24
BRANCH   5  31
ATOM     31  C11 ZIN A   1      16.652  -0.475   9.637  0.00  0.00     0.353 C 
BRANCH  31  32
ATOM     32  C12 ZIN A   1      17.380  -0.957   8.409  0.00  0.00     0.157 A 
ATOM     33  N21 ZIN A   1      17.829  -2.237   8.195  0.00  0.00    -0.292 N 
ATOM     34  C19 ZIN A   1      18.425  -2.282   6.987  0.00  0.00     0.355 A 
ATOM     35  H54 ZIN A   1      17.728  -2.983   8.807  0.00  0.00     0.172 HD
ATOM     36  N14 ZIN A   1      18.357  -1.042   6.458  0.00  0.00    -0.103 N 
ATOM     37  O20 ZIN A   1      18.935  -3.260   6.471  0.00  0.00    -0.244 OA
ATOM     38  N13 ZIN A   1      17.690  -0.230   7.384  0.00  0.00    -0.142 NA
BRANCH  36  39
ATOM     39  P15 ZIN A   1      18.948  -0.576   5.001  0.00  0.00     0.404 P 
ATOM     40  O16 ZIN A   1      20.002  -1.624   4.505  0.00  0.00    -0.621 OA
ATOM     41  O17 ZIN A   1      17.775  -0.486   3.966  0.00  0.00    -0.621 OA
ATOM     42  O18 ZIN A   1      19.631   0.827   5.138  0.00  0.00    -0.621 OA
ENDBRANCH  36  39
ENDBRANCH  31  32
ENDBRANCH   5  31
TORSDOF 9
ENDMDL
