MODEL 1
REMARK VINA RESULT:      -8.8      0.000      0.000
REMARK  5 active torsions:
REMARK  status: ('A' for Active; 'I' for Inactive)
REMARK    1  A    between atoms: N5_5  and  C7_7 
REMARK    2  A    between atoms: C7_7  and  C8_8 
REMARK    3  A    between atoms: C8_8  and  C9_9 
REMARK    4  A    between atoms: C9_9  and  N10_10 
REMARK    5  A    between atoms: C21_21  and  C22_22 
ROOT
ATOM      1  N10 ZIN A   1      18.157   2.393  13.427  0.00  0.00    -0.345 N 
ATOM      2  C11 ZIN A   1      18.280   2.700  12.074  0.00  0.00     0.052 A 
ATOM      3  C12 ZIN A   1      17.584   3.793  11.569  0.00  0.00     0.031 A 
ATOM      4  C13 ZIN A   1      17.686   4.130  10.232  0.00  0.00     0.002 A 
ATOM      5  C14 ZIN A   1      18.482   3.381   9.386  0.00  0.00     0.002 A 
ATOM      6  C15 ZIN A   1      19.177   2.291   9.878  0.00  0.00     0.021 A 
ATOM      7  C16 ZIN A   1      19.079   1.946  11.219  0.00  0.00     0.032 A 
ATOM      8  S17 ZIN A   1      19.969   0.549  11.818  0.00  0.00    -0.086 SA
ATOM      9  C18 ZIN A   1      19.177   0.185  13.347  0.00  0.00     0.032 A 
ATOM     10  C19 ZIN A   1      19.366  -1.060  13.931  0.00  0.00     0.022 A 
ATOM     11  C20 ZIN A   1      18.752  -1.368  15.131  0.00  0.00     0.017 A 
ATOM     12  C21 ZIN A   1      17.946  -0.433  15.752  0.00  0.00     0.050 A 
ATOM     13  C26 ZIN A   1      17.753   0.809  15.178  0.00  0.00     0.047 A 
ATOM     14  C27 ZIN A   1      18.372   1.129  13.973  0.00  0.00     0.053 A 
ENDROOT
BRANCH   1  15
ATOM     15  C9  ZIN A   1      17.780   3.475  14.340  0.00  0.00     0.131 C 
BRANCH  15  16
ATOM     16  C8  ZIN A   1      19.024   4.283  14.713  0.00  0.00     0.048 C 
BRANCH  16  17
ATOM     17  C7  ZIN A   1      19.451   3.932  16.139  0.00  0.00     0.236 C 
BRANCH  17  18
ATOM     18  N5  ZIN A   1      18.267   3.875  17.006  0.00  0.00    -0.068 N 
ATOM     19  C4  ZIN A   1      18.006   5.207  17.568  0.00  0.00     0.265 C 
ATOM     20  C3  ZIN A   1      16.762   5.152  18.456  0.00  0.00     0.299 C 
ATOM     21  N2  ZIN A   1      16.977   4.179  19.537  0.00  0.00     0.087 N 
ATOM     22  C1  ZIN A   1      15.824   4.138  20.446  0.00  0.00     0.310 C 
ATOM     23  C29 ZIN A   1      17.263   2.846  18.990  0.00  0.00     0.299 C 
ATOM     24  C28 ZIN A   1      18.504   2.920  18.096  0.00  0.00     0.265 C 
ATOM     25  H6  ZIN A   1      17.468   3.576  16.465  0.00  0.00     0.280 HD
ENDBRANCH  17  18
ENDBRANCH  16  17
ENDBRANCH  15  16
ENDBRANCH   1  15
BRANCH  12  26
ATOM     26  C22 ZIN A   1      17.276  -0.769  17.059  0.00  0.00     0.417 C 
ATOM     27  F23 ZIN A   1      16.182   0.080  17.255  0.00  0.00    -0.166 F 
ATOM     28  F24 ZIN A   1      16.836  -2.097  17.031  0.00  0.00    -0.166 F 
ATOM     29  F25 ZIN A   1      18.188  -0.603  18.107  0.00  0.00    -0.166 F 
ENDBRANCH  12  26
TORSDOF 5
ENDMDL
MODEL 2
REMARK VINA RESULT:      -8.5      4.919      6.746
REMARK  5 active torsions:
REMARK  status: ('A' for Active; 'I' for Inactive)
REMARK    1  A    between atoms: N5_5  and  C7_7 
REMARK    2  A    between atoms: C7_7  and  C8_8 
REMARK    3  A    between atoms: C8_8  and  C9_9 
REMARK    4  A    between atoms: C9_9  and  N10_10 
REMARK    5  A    between atoms: C21_21  and  C22_22 
ROOT
ATOM      1  N10 ZIN A   1      18.523  -1.727   8.353  0.00  0.00    -0.345 N 
ATOM      2  C11 ZIN A   1      18.600  -1.225   7.056  0.00  0.00     0.052 A 
ATOM      3  C12 ZIN A   1      18.180   0.079   6.817  0.00  0.00     0.031 A 
ATOM      4  C13 ZIN A   1      18.245   0.612   5.543  0.00  0.00     0.002 A 
ATOM      5  C14 ZIN A   1      18.729  -0.149   4.496  0.00  0.00     0.002 A 
ATOM      6  C15 ZIN A   1      19.148  -1.448   4.723  0.00  0.00     0.021 A 
ATOM      7  C16 ZIN A   1      19.084  -1.990   5.999  0.00  0.00     0.032 A 
ATOM      8  S17 ZIN A   1      19.618  -3.648   6.259  0.00  0.00    -0.086 SA
ATOM      9  C18 ZIN A   1      18.901  -4.069   7.810  0.00  0.00     0.032 A 
ATOM     10  C19 ZIN A   1      18.801  -5.406   8.173  0.00  0.00     0.022 A 
ATOM     11  C20 ZIN A   1      18.239  -5.758   9.387  0.00  0.00     0.017 A 
ATOM     12  C21 ZIN A   1      17.775  -4.778  10.242  0.00  0.00     0.050 A 
ATOM     13  C26 ZIN A   1      17.871  -3.445   9.889  0.00  0.00     0.047 A 
ATOM     14  C27 ZIN A   1      18.440  -3.081   8.672  0.00  0.00     0.053 A 
ENDROOT
BRANCH   1  15
ATOM     15  C9  ZIN A   1      18.536  -0.766   9.458  0.00  0.00     0.131 C 
BRANCH  15  16
ATOM     16  C8  ZIN A   1      19.977  -0.336   9.743  0.00  0.00     0.048 C 
BRANCH  16  17
ATOM     17  C7  ZIN A   1      20.448  -0.967  11.054  0.00  0.00     0.236 C 
BRANCH  17  18
ATOM     18  N5  ZIN A   1      19.589  -0.510  12.155  0.00  0.00    -0.068 N 
ATOM     19  C4  ZIN A   1      20.277   0.550  12.904  0.00  0.00     0.265 C 
ATOM     20  C3  ZIN A   1      19.376   1.040  14.039  0.00  0.00     0.299 C 
ATOM     21  N2  ZIN A   1      19.057  -0.085  14.929  0.00  0.00     0.087 N 
ATOM     22  C1  ZIN A   1      18.238   0.356  16.066  0.00  0.00     0.310 C 
ATOM     23  C29 ZIN A   1      18.390  -1.165  14.188  0.00  0.00     0.299 C 
ATOM     24  C28 ZIN A   1      19.300  -1.636  13.051  0.00  0.00     0.265 C 
ATOM     25  H6  ZIN A   1      18.725  -0.148  11.779  0.00  0.00     0.280 HD
ENDBRANCH  17  18
ENDBRANCH  16  17
ENDBRANCH  15  16
ENDBRANCH   1  15
BRANCH  12  26
ATOM     26  C22 ZIN A   1      17.162  -5.163  11.564  0.00  0.00     0.417 C 
ATOM     27  F23 ZIN A   1      17.797  -4.463  12.594  0.00  0.00    -0.166 F 
ATOM     28  F24 ZIN A   1      15.799  -4.849  11.556  0.00  0.00    -0.166 F 
ATOM     29  F25 ZIN A   1      17.321  -6.538  11.768  0.00  0.00    -0.166 F 
ENDBRANCH  12  26
TORSDOF 5
ENDMDL
MODEL 3
REMARK VINA RESULT:      -8.3      3.680      7.817
REMARK  5 active torsions:
REMARK  status: ('A' for Active; 'I' for Inactive)
REMARK    1  A    between atoms: N5_5  and  C7_7 
REMARK    2  A    between atoms: C7_7  and  C8_8 
REMARK    3  A    between atoms: C8_8  and  C9_9 
REMARK    4  A    between atoms: C9_9  and  N10_10 
REMARK    5  A    between atoms: C21_21  and  C22_22 
ROOT
ATOM      1  N10 ZIN A   1      18.650   1.438  14.491  0.00  0.00    -0.345 N 
ATOM      2  C11 ZIN A   1      18.747   0.966  15.798  0.00  0.00     0.052 A 
ATOM      3  C12 ZIN A   1      18.456  -0.370  16.051  0.00  0.00     0.031 A 
ATOM      4  C13 ZIN A   1      18.546  -0.873  17.335  0.00  0.00     0.002 A 
ATOM      5  C14 ZIN A   1      18.925  -0.050  18.379  0.00  0.00     0.002 A 
ATOM      6  C15 ZIN A   1      19.214   1.281  18.138  0.00  0.00     0.021 A 
ATOM      7  C16 ZIN A   1      19.126   1.794  16.851  0.00  0.00     0.032 A 
ATOM      8  S17 ZIN A   1      19.494   3.493  16.573  0.00  0.00    -0.086 SA
ATOM      9  C18 ZIN A   1      18.775   3.814  14.999  0.00  0.00     0.032 A 
ATOM     10  C19 ZIN A   1      18.548   5.128  14.610  0.00  0.00     0.022 A 
ATOM     11  C20 ZIN A   1      17.983   5.402  13.378  0.00  0.00     0.017 A 
ATOM     12  C21 ZIN A   1      17.640   4.366  12.531  0.00  0.00     0.050 A 
ATOM     13  C26 ZIN A   1      17.864   3.056  12.910  0.00  0.00     0.047 A 
ATOM     14  C27 ZIN A   1      18.438   2.771  14.146  0.00  0.00     0.053 A 
ENDROOT
BRANCH   1  15
ATOM     15  C9  ZIN A   1      18.788   0.465  13.403  0.00  0.00     0.131 C 
BRANCH  15  16
ATOM     16  C8  ZIN A   1      20.271   0.255  13.092  0.00  0.00     0.048 C 
BRANCH  16  17
ATOM     17  C7  ZIN A   1      20.633   1.004  11.808  0.00  0.00     0.236 C 
BRANCH  17  18
ATOM     18  N5  ZIN A   1      19.743   0.573  10.721  0.00  0.00    -0.068 N 
ATOM     19  C4  ZIN A   1      20.337  -0.580  10.030  0.00  0.00     0.265 C 
ATOM     20  C3  ZIN A   1      19.403  -1.041   8.910  0.00  0.00     0.299 C 
ATOM     21  N2  ZIN A   1      19.193   0.064   7.965  0.00  0.00     0.087 N 
ATOM     22  C1  ZIN A   1      18.344  -0.357   6.842  0.00  0.00     0.310 C 
ATOM     23  C29 ZIN A   1      18.622   1.234   8.647  0.00  0.00     0.299 C 
ATOM     24  C28 ZIN A   1      19.563   1.676   9.770  0.00  0.00     0.265 C 
ATOM     25  H6  ZIN A   1      18.847   0.309  11.105  0.00  0.00     0.280 HD
ENDBRANCH  17  18
ENDBRANCH  16  17
ENDBRANCH  15  16
ENDBRANCH   1  15
BRANCH  12  26
ATOM     26  C22 ZIN A   1      17.024   4.666  11.189  0.00  0.00     0.417 C 
ATOM     27  F23 ZIN A   1      15.720   5.138  11.370  0.00  0.00    -0.166 F 
ATOM     28  F24 ZIN A   1      17.786   5.638  10.531  0.00  0.00    -0.166 F 
ATOM     29  F25 ZIN A   1      16.993   3.498  10.419  0.00  0.00    -0.166 F 
ENDBRANCH  12  26
TORSDOF 5
ENDMDL
MODEL 4
REMARK VINA RESULT:      -8.3      3.745      4.938
REMARK  5 active torsions:
REMARK  status: ('A' for Active; 'I' for Inactive)
REMARK    1  A    between atoms: N5_5  and  C7_7 
REMARK    2  A    between atoms: C7_7  and  C8_8 
REMARK    3  A    between atoms: C8_8  and  C9_9 
REMARK    4  A    between atoms: C9_9  and  N10_10 
REMARK    5  A    between atoms: C21_21  and  C22_22 
ROOT
ATOM      1  N10 ZIN A   1      17.964  -0.518  11.321  0.00  0.00    -0.345 N 
ATOM      2  C11 ZIN A   1      18.111   0.787  10.857  0.00  0.00     0.052 A 
ATOM      3  C12 ZIN A   1      17.533   1.824  11.580  0.00  0.00     0.031 A 
ATOM      4  C13 ZIN A   1      17.662   3.132  11.152  0.00  0.00     0.002 A 
ATOM      5  C14 ZIN A   1      18.368   3.418   9.999  0.00  0.00     0.002 A 
ATOM      6  C15 ZIN A   1      18.946   2.393   9.271  0.00  0.00     0.021 A 
ATOM      7  C16 ZIN A   1      18.820   1.077   9.695  0.00  0.00     0.032 A 
ATOM      8  S17 ZIN A   1      19.560  -0.209   8.747  0.00  0.00    -0.086 SA
ATOM      9  C18 ZIN A   1      18.743  -1.659   9.318  0.00  0.00     0.032 A 
ATOM     10  C19 ZIN A   1      18.802  -2.818   8.555  0.00  0.00     0.022 A 
ATOM     11  C20 ZIN A   1      18.165  -3.968   8.985  0.00  0.00     0.017 A 
ATOM     12  C21 ZIN A   1      17.467  -3.965  10.177  0.00  0.00     0.050 A 
ATOM     13  C26 ZIN A   1      17.405  -2.816  10.943  0.00  0.00     0.047 A 
ATOM     14  C27 ZIN A   1      18.047  -1.655  10.521  0.00  0.00     0.053 A 
ENDROOT
BRANCH   1  15
ATOM     15  C9  ZIN A   1      17.710  -0.709  12.752  0.00  0.00     0.131 C 
BRANCH  15  16
ATOM     16  C8  ZIN A   1      19.042  -0.761  13.503  0.00  0.00     0.048 C 
BRANCH  16  17
ATOM     17  C7  ZIN A   1      18.809  -1.298  14.917  0.00  0.00     0.236 C 
BRANCH  17  18
ATOM     18  N5  ZIN A   1      18.492  -0.182  15.818  0.00  0.00    -0.068 N 
ATOM     19  C4  ZIN A   1      19.225   1.017  15.392  0.00  0.00     0.265 C 
ATOM     20  C3  ZIN A   1      18.881   2.183  16.319  0.00  0.00     0.299 C 
ATOM     21  N2  ZIN A   1      19.242   1.832  17.700  0.00  0.00     0.087 N 
ATOM     22  C1  ZIN A   1      18.979   2.950  18.615  0.00  0.00     0.310 C 
ATOM     23  C29 ZIN A   1      18.535   0.619  18.133  0.00  0.00     0.299 C 
ATOM     24  C28 ZIN A   1      18.882  -0.535  17.189  0.00  0.00     0.265 C 
ATOM     25  H6  ZIN A   1      17.500   0.003  15.788  0.00  0.00     0.280 HD
ENDBRANCH  17  18
ENDBRANCH  16  17
ENDBRANCH  15  16
ENDBRANCH   1  15
BRANCH  12  26
ATOM     26  C22 ZIN A   1      16.773  -5.218  10.644  0.00  0.00     0.417 C 
ATOM     27  F23 ZIN A   1      15.654  -5.460   9.841  0.00  0.00    -0.166 F 
ATOM     28  F24 ZIN A   1      17.655  -6.301  10.554  0.00  0.00    -0.166 F 
ATOM     29  F25 ZIN A   1      16.367  -5.059  11.974  0.00  0.00    -0.166 F 
ENDBRANCH  12  26
TORSDOF 5
ENDMDL
MODEL 5
REMARK VINA RESULT:      -8.2      3.899      7.406
REMARK  5 active torsions:
REMARK  status: ('A' for Active; 'I' for Inactive)
REMARK    1  A    between atoms: N5_5  and  C7_7 
REMARK    2  A    between atoms: C7_7  and  C8_8 
REMARK    3  A    between atoms: C8_8  and  C9_9 
REMARK    4  A    between atoms: C9_9  and  N10_10 
REMARK    5  A    between atoms: C21_21  and  C22_22 
ROOT
ATOM      1  N10 ZIN A   1      17.964  -0.014  12.009  0.00  0.00    -0.345 N 
ATOM      2  C11 ZIN A   1      18.340   0.691  10.868  0.00  0.00     0.052 A 
ATOM      3  C12 ZIN A   1      18.556  -0.011   9.687  0.00  0.00     0.031 A 
ATOM      4  C13 ZIN A   1      18.925   0.657   8.535  0.00  0.00     0.002 A 
ATOM      5  C14 ZIN A   1      19.083   2.029   8.548  0.00  0.00     0.002 A 
ATOM      6  C15 ZIN A   1      18.872   2.737   9.717  0.00  0.00     0.021 A 
ATOM      7  C16 ZIN A   1      18.502   2.073  10.879  0.00  0.00     0.032 A 
ATOM      8  S17 ZIN A   1      18.246   2.997  12.356  0.00  0.00    -0.086 SA
ATOM      9  C18 ZIN A   1      18.316   1.775  13.620  0.00  0.00     0.032 A 
ATOM     10  C19 ZIN A   1      18.516   2.168  14.937  0.00  0.00     0.022 A 
ATOM     11  C20 ZIN A   1      18.576   1.223  15.944  0.00  0.00     0.017 A 
ATOM     12  C21 ZIN A   1      18.438  -0.117  15.642  0.00  0.00     0.050 A 
ATOM     13  C26 ZIN A   1      18.238  -0.518  14.334  0.00  0.00     0.047 A 
ATOM     14  C27 ZIN A   1      18.171   0.427  13.314  0.00  0.00     0.053 A 
ENDROOT
BRANCH   1  15
ATOM     15  C9  ZIN A   1      17.302  -1.308  11.823  0.00  0.00     0.131 C 
BRANCH  15  16
ATOM     16  C8  ZIN A   1      18.350  -2.423  11.828  0.00  0.00     0.048 C 
BRANCH  16  17
ATOM     17  C7  ZIN A   1      17.650  -3.782  11.777  0.00  0.00     0.236 C 
BRANCH  17  18
ATOM     18  N5  ZIN A   1      18.086  -4.514  10.581  0.00  0.00    -0.068 N 
ATOM     19  C4  ZIN A   1      19.552  -4.605  10.569  0.00  0.00     0.265 C 
ATOM     20  C3  ZIN A   1      20.006  -5.383   9.333  0.00  0.00     0.299 C 
ATOM     21  N2  ZIN A   1      19.531  -4.696   8.123  0.00  0.00     0.087 N 
ATOM     22  C1  ZIN A   1      19.995  -5.383   6.911  0.00  0.00     0.310 C 
ATOM     23  C29 ZIN A   1      18.067  -4.575   8.132  0.00  0.00     0.299 C 
ATOM     24  C28 ZIN A   1      17.629  -3.804   9.379  0.00  0.00     0.265 C 
ATOM     25  H6  ZIN A   1      17.692  -5.443  10.593  0.00  0.00     0.280 HD
ENDBRANCH  17  18
ENDBRANCH  16  17
ENDBRANCH  15  16
ENDBRANCH   1  15
BRANCH  12  26
ATOM     26  C22 ZIN A   1      18.505  -1.146  16.741  0.00  0.00     0.417 C 
ATOM     27  F23 ZIN A   1      17.345  -1.927  16.720  0.00  0.00    -0.166 F 
ATOM     28  F24 ZIN A   1      19.622  -1.966  16.546  0.00  0.00    -0.166 F 
ATOM     29  F25 ZIN A   1      18.611  -0.501  17.978  0.00  0.00    -0.166 F 
ENDBRANCH  12  26
TORSDOF 5
ENDMDL
MODEL 6
REMARK VINA RESULT:      -8.1      3.950      7.931
REMARK  5 active torsions:
REMARK  status: ('A' for Active; 'I' for Inactive)
REMARK    1  A    between atoms: N5_5  and  C7_7 
REMARK    2  A    between atoms: C7_7  and  C8_8 
REMARK    3  A    between atoms: C8_8  and  C9_9 
REMARK    4  A    between atoms: C9_9  and  N10_10 
REMARK    5  A    between atoms: C21_21  and  C22_22 
ROOT
ATOM      1  N10 ZIN A   1      18.304   1.208  14.401  0.00  0.00    -0.345 N 
ATOM      2  C11 ZIN A   1      18.315   0.876  15.754  0.00  0.00     0.052 A 
ATOM      3  C12 ZIN A   1      17.758  -0.334  16.151  0.00  0.00     0.031 A 
ATOM      4  C13 ZIN A   1      17.756  -0.698  17.485  0.00  0.00     0.002 A 
ATOM      5  C14 ZIN A   1      18.308   0.141  18.434  0.00  0.00     0.002 A 
ATOM      6  C15 ZIN A   1      18.863   1.348  18.050  0.00  0.00     0.021 A 
ATOM      7  C16 ZIN A   1      18.868   1.720  16.713  0.00  0.00     0.032 A 
ATOM      8  S17 ZIN A   1      19.576   3.265  16.250  0.00  0.00    -0.086 SA
ATOM      9  C18 ZIN A   1      18.921   3.549  14.642  0.00  0.00     0.032 A 
ATOM     10  C19 ZIN A   1      18.967   4.829  14.105  0.00  0.00     0.022 A 
ATOM     11  C20 ZIN A   1      18.456   5.074  12.844  0.00  0.00     0.017 A 
ATOM     12  C21 ZIN A   1      17.899   4.043  12.114  0.00  0.00     0.050 A 
ATOM     13  C26 ZIN A   1      17.851   2.766  12.640  0.00  0.00     0.047 A 
ATOM     14  C27 ZIN A   1      18.367   2.509  13.907  0.00  0.00     0.053 A 
ENDROOT
BRANCH   1  15
ATOM     15  C9  ZIN A   1      18.226   0.112  13.431  0.00  0.00     0.131 C 
BRANCH  15  16
ATOM     16  C8  ZIN A   1      19.628  -0.446  13.179  0.00  0.00     0.048 C 
BRANCH  16  17
ATOM     17  C7  ZIN A   1      20.011  -0.220  11.716  0.00  0.00     0.236 C 
BRANCH  17  18
ATOM     18  N5  ZIN A   1      20.054  -1.511  11.015  0.00  0.00    -0.068 N 
ATOM     19  C4  ZIN A   1      18.939  -1.588  10.062  0.00  0.00     0.265 C 
ATOM     20  C3  ZIN A   1      18.994  -2.924   9.319  0.00  0.00     0.299 C 
ATOM     21  N2  ZIN A   1      18.910  -4.025  10.289  0.00  0.00     0.087 N 
ATOM     22  C1  ZIN A   1      18.903  -5.327   9.609  0.00  0.00     0.310 C 
ATOM     23  C29 ZIN A   1      20.005  -3.947  11.265  0.00  0.00     0.299 C 
ATOM     24  C28 ZIN A   1      19.942  -2.601  11.992  0.00  0.00     0.265 C 
ATOM     25  H6  ZIN A   1      20.929  -1.594  10.517  0.00  0.00     0.280 HD
ENDBRANCH  17  18
ENDBRANCH  16  17
ENDBRANCH  15  16
ENDBRANCH   1  15
BRANCH  12  26
ATOM     26  C22 ZIN A   1      17.342   4.311  10.739  0.00  0.00     0.417 C 
ATOM     27  F23 ZIN A   1      17.392   3.139   9.979  0.00  0.00    -0.166 F 
ATOM     28  F24 ZIN A   1      16.015   4.741  10.848  0.00  0.00    -0.166 F 
ATOM     29  F25 ZIN A   1      18.103   5.305  10.114  0.00  0.00    -0.166 F 
ENDBRANCH  12  26
TORSDOF 5
ENDMDL
MODEL 7
REMARK VINA RESULT:      -8.1      3.898      8.065
REMARK  5 active torsions:
REMARK  status: ('A' for Active; 'I' for Inactive)
REMARK    1  A    between atoms: N5_5  and  C7_7 
REMARK    2  A    between atoms: C7_7  and  C8_8 
REMARK    3  A    between atoms: C8_8  and  C9_9 
REMARK    4  A    between atoms: C9_9  and  N10_10 
REMARK    5  A    between atoms: C21_21  and  C22_22 
ROOT
ATOM      1  N10 ZIN A   1      19.166   1.060  14.529  0.00  0.00    -0.345 N 
ATOM      2  C11 ZIN A   1      18.914   0.932  15.892  0.00  0.00     0.052 A 
ATOM      3  C12 ZIN A   1      18.704  -0.337  16.419  0.00  0.00     0.031 A 
ATOM      4  C13 ZIN A   1      18.456  -0.502  17.769  0.00  0.00     0.002 A 
ATOM      5  C14 ZIN A   1      18.413   0.597  18.606  0.00  0.00     0.002 A 
ATOM      6  C15 ZIN A   1      18.618   1.865  18.092  0.00  0.00     0.021 A 
ATOM      7  C16 ZIN A   1      18.867   2.038  16.737  0.00  0.00     0.032 A 
ATOM      8  S17 ZIN A   1      19.118   3.663  16.107  0.00  0.00    -0.086 SA
ATOM      9  C18 ZIN A   1      18.876   3.471  14.374  0.00  0.00     0.032 A 
ATOM     10  C19 ZIN A   1      18.639   4.593  13.592  0.00  0.00     0.022 A 
ATOM     11  C20 ZIN A   1      18.445   4.464  12.229  0.00  0.00     0.017 A 
ATOM     12  C21 ZIN A   1      18.486   3.215  11.642  0.00  0.00     0.050 A 
ATOM     13  C26 ZIN A   1      18.724   2.092  12.413  0.00  0.00     0.047 A 
ATOM     14  C27 ZIN A   1      18.926   2.214  13.785  0.00  0.00     0.053 A 
ENDROOT
BRANCH   1  15
ATOM     15  C9  ZIN A   1      19.727  -0.098  13.828  0.00  0.00     0.131 C 
BRANCH  15  16
ATOM     16  C8  ZIN A   1      18.590  -0.980  13.309  0.00  0.00     0.048 C 
BRANCH  16  17
ATOM     17  C7  ZIN A   1      19.149  -2.005  12.321  0.00  0.00     0.236 C 
BRANCH  17  18
ATOM     18  N5  ZIN A   1      18.808  -1.602  10.950  0.00  0.00    -0.068 N 
ATOM     19  C4  ZIN A   1      18.508  -2.795  10.148  0.00  0.00     0.265 C 
ATOM     20  C3  ZIN A   1      18.135  -2.374   8.726  0.00  0.00     0.299 C 
ATOM     21  N2  ZIN A   1      19.252  -1.630   8.128  0.00  0.00     0.087 N 
ATOM     22  C1  ZIN A   1      18.955  -1.256   6.739  0.00  0.00     0.310 C 
ATOM     23  C29 ZIN A   1      19.581  -0.446   8.934  0.00  0.00     0.299 C 
ATOM     24  C28 ZIN A   1      19.942  -0.883  10.355  0.00  0.00     0.265 C 
ATOM     25  H6  ZIN A   1      17.999  -0.997  10.969  0.00  0.00     0.280 HD
ENDBRANCH  17  18
ENDBRANCH  16  17
ENDBRANCH  15  16
ENDBRANCH   1  15
BRANCH  12  26
ATOM     26  C22 ZIN A   1      18.274   3.075  10.157  0.00  0.00     0.417 C 
ATOM     27  F23 ZIN A   1      17.754   4.268   9.645  0.00  0.00    -0.166 F 
ATOM     28  F24 ZIN A   1      19.495   2.793   9.535  0.00  0.00    -0.166 F 
ATOM     29  F25 ZIN A   1      17.375   2.031   9.910  0.00  0.00    -0.166 F 
ENDBRANCH  12  26
TORSDOF 5
ENDMDL
MODEL 8
REMARK VINA RESULT:      -8.1      5.282      9.196
REMARK  5 active torsions:
REMARK  status: ('A' for Active; 'I' for Inactive)
REMARK    1  A    between atoms: N5_5  and  C7_7 
REMARK    2  A    between atoms: C7_7  and  C8_8 
REMARK    3  A    between atoms: C8_8  and  C9_9 
REMARK    4  A    between atoms: C9_9  and  N10_10 
REMARK    5  A    between atoms: C21_21  and  C22_22 
ROOT
ATOM      1  N10 ZIN A   1      19.190  -0.353  12.289  0.00  0.00    -0.345 N 
ATOM      2  C11 ZIN A   1      18.814  -0.223  13.624  0.00  0.00     0.052 A 
ATOM      3  C12 ZIN A   1      18.632  -1.373  14.384  0.00  0.00     0.031 A 
ATOM      4  C13 ZIN A   1      18.263  -1.281  15.713  0.00  0.00     0.002 A 
ATOM      5  C14 ZIN A   1      18.072  -0.043  16.297  0.00  0.00     0.002 A 
ATOM      6  C15 ZIN A   1      18.248   1.107  15.549  0.00  0.00     0.021 A 
ATOM      7  C16 ZIN A   1      18.618   1.023  14.213  0.00  0.00     0.032 A 
ATOM      8  S17 ZIN A   1      18.830   2.503  13.282  0.00  0.00    -0.086 SA
ATOM      9  C18 ZIN A   1      18.771   1.947  11.613  0.00  0.00     0.032 A 
ATOM     10  C19 ZIN A   1      18.543   2.866  10.598  0.00  0.00     0.022 A 
ATOM     11  C20 ZIN A   1      18.491   2.450   9.280  0.00  0.00     0.017 A 
ATOM     12  C21 ZIN A   1      18.666   1.115   8.971  0.00  0.00     0.050 A 
ATOM     13  C26 ZIN A   1      18.894   0.193   9.976  0.00  0.00     0.047 A 
ATOM     14  C27 ZIN A   1      18.954   0.604  11.305  0.00  0.00     0.053 A 
ENDROOT
BRANCH   1  15
ATOM     15  C9  ZIN A   1      19.886  -1.580  11.894  0.00  0.00     0.131 C 
BRANCH  15  16
ATOM     16  C8  ZIN A   1      18.862  -2.688  11.639  0.00  0.00     0.048 C 
BRANCH  16  17
ATOM     17  C7  ZIN A   1      19.583  -3.949  11.160  0.00  0.00     0.236 C 
BRANCH  17  18
ATOM     18  N5  ZIN A   1      19.582  -3.986   9.691  0.00  0.00    -0.068 N 
ATOM     19  C4  ZIN A   1      18.304  -3.464   9.189  0.00  0.00     0.265 C 
ATOM     20  C3  ZIN A   1      18.309  -3.486   7.659  0.00  0.00     0.299 C 
ATOM     21  N2  ZIN A   1      18.513  -4.864   7.192  0.00  0.00     0.087 N 
ATOM     22  C1  ZIN A   1      18.467  -4.936   5.726  0.00  0.00     0.310 C 
ATOM     23  C29 ZIN A   1      19.776  -5.410   7.707  0.00  0.00     0.299 C 
ATOM     24  C28 ZIN A   1      19.759  -5.371   9.237  0.00  0.00     0.265 C 
ATOM     25  H6  ZIN A   1      20.339  -3.418   9.339  0.00  0.00     0.280 HD
ENDBRANCH  17  18
ENDBRANCH  16  17
ENDBRANCH  15  16
ENDBRANCH   1  15
BRANCH  12  26
ATOM     26  C22 ZIN A   1      18.608   0.662   7.535  0.00  0.00     0.417 C 
ATOM     27  F23 ZIN A   1      19.482  -0.414   7.350  0.00  0.00    -0.166 F 
ATOM     28  F24 ZIN A   1      17.304   0.264   7.223  0.00  0.00    -0.166 F 
ATOM     29  F25 ZIN A   1      18.985   1.718   6.698  0.00  0.00    -0.166 F 
ENDBRANCH  12  26
TORSDOF 5
ENDMDL
MODEL 9
REMARK VINA RESULT:      -7.9      3.588      5.586
REMARK  5 active torsions:
REMARK  status: ('A' for Active; 'I' for Inactive)
REMARK    1  A    between atoms: N5_5  and  C7_7 
REMARK    2  A    between atoms: C7_7  and  C8_8 
REMARK    3  A    between atoms: C8_8  and  C9_9 
REMARK    4  A    between atoms: C9_9  and  N10_10 
REMARK    5  A    between atoms: C21_21  and  C22_22 
ROOT
ATOM      1  N10 ZIN A   1      19.254  -0.988  11.938  0.00  0.00    -0.345 N 
ATOM      2  C11 ZIN A   1      19.286  -2.199  11.251  0.00  0.00     0.052 A 
ATOM      3  C12 ZIN A   1      19.994  -3.263  11.800  0.00  0.00     0.031 A 
ATOM      4  C13 ZIN A   1      20.043  -4.480  11.147  0.00  0.00     0.002 A 
ATOM      5  C14 ZIN A   1      19.388  -4.650   9.943  0.00  0.00     0.002 A 
ATOM      6  C15 ZIN A   1      18.682  -3.598   9.387  0.00  0.00     0.021 A 
ATOM      7  C16 ZIN A   1      18.629  -2.372  10.036  0.00  0.00     0.032 A 
ATOM      8  S17 ZIN A   1      17.728  -1.047   9.304  0.00  0.00    -0.086 SA
ATOM      9  C18 ZIN A   1      18.341   0.375  10.141  0.00  0.00     0.032 A 
ATOM     10  C19 ZIN A   1      18.131   1.632   9.590  0.00  0.00     0.022 A 
ATOM     11  C20 ZIN A   1      18.606   2.761  10.230  0.00  0.00     0.017 A 
ATOM     12  C21 ZIN A   1      19.291   2.641  11.423  0.00  0.00     0.050 A 
ATOM     13  C26 ZIN A   1      19.503   1.393  11.980  0.00  0.00     0.047 A 
ATOM     14  C27 ZIN A   1      19.024   0.251  11.345  0.00  0.00     0.053 A 
ENDROOT
BRANCH   1  15
ATOM     15  C9  ZIN A   1      19.473  -1.021  13.387  0.00  0.00     0.131 C 
BRANCH  15  16
ATOM     16  C8  ZIN A   1      18.129  -0.891  14.108  0.00  0.00     0.048 C 
BRANCH  16  17
ATOM     17  C7  ZIN A   1      18.290  -1.321  15.567  0.00  0.00     0.236 C 
BRANCH  17  18
ATOM     18  N5  ZIN A   1      18.799  -0.193  16.358  0.00  0.00    -0.068 N 
ATOM     19  C4  ZIN A   1      18.244  -0.258  17.716  0.00  0.00     0.265 C 
ATOM     20  C3  ZIN A   1      18.788   0.906  18.546  0.00  0.00     0.299 C 
ATOM     21  N2  ZIN A   1      18.416   2.176  17.907  0.00  0.00     0.087 N 
ATOM     22  C1  ZIN A   1      18.873   3.322  18.705  0.00  0.00     0.310 C 
ATOM     23  C29 ZIN A   1      18.944   2.245  16.537  0.00  0.00     0.299 C 
ATOM     24  C28 ZIN A   1      18.399   1.069  15.724  0.00  0.00     0.265 C 
ATOM     25  H6  ZIN A   1      19.806  -0.242  16.404  0.00  0.00     0.280 HD
ENDBRANCH  17  18
ENDBRANCH  16  17
ENDBRANCH  15  16
ENDBRANCH   1  15
BRANCH  12  26
ATOM     26  C22 ZIN A   1      19.809   3.872  12.120  0.00  0.00     0.417 C 
ATOM     27  F23 ZIN A   1      19.123   4.997  11.651  0.00  0.00    -0.166 F 
ATOM     28  F24 ZIN A   1      19.610   3.746  13.500  0.00  0.00    -0.166 F 
ATOM     29  F25 ZIN A   1      21.176   4.017  11.859  0.00  0.00    -0.166 F 
ENDBRANCH  12  26
TORSDOF 5
ENDMDL
