MODEL 1
REMARK VINA RESULT:      -4.9      0.000      0.000
REMARK  3 active torsions:
REMARK  status: ('A' for Active; 'I' for Inactive)
REMARK    1  A    between atoms: N2_2  and  C4_4 
REMARK    2  A    between atoms: C6_6  and  N7_7 
REMARK    3  A    between atoms: C12_12  and  N13_13 
ROOT
ATOM      1  C4  ZIN A   1      19.168  -0.542   8.128  0.00  0.00     0.755 A 
ATOM      2  N5  ZIN A   1      19.294  -1.479   7.193  0.00  0.00     0.129 NA
ATOM      3  C6  ZIN A   1      19.333  -2.762   7.540  0.00  0.00     0.732 A 
ATOM      4  N10 ZIN A   1      19.244  -3.108   8.820  0.00  0.00    -0.018 N 
ATOM      5  H11 ZIN A   1      19.272  -4.044   9.072  0.00  0.00     0.203 HD
ATOM      6  C12 ZIN A   1      19.117  -2.170   9.754  0.00  0.00     0.732 A 
ATOM      7  N16 ZIN A   1      19.085  -0.888   9.409  0.00  0.00     0.129 NA
ENDROOT
BRANCH   1   8
ATOM      8  N2  ZIN A   1      19.130   0.790   7.769  0.00  0.00    -0.222 N 
ATOM      9  C1  ZIN A   1      18.944   1.166   6.365  0.00  0.00     0.168 C 
ATOM     10  C3  ZIN A   1      19.274   1.829   8.792  0.00  0.00     0.168 C 
ENDBRANCH   1   8
BRANCH   6  11
ATOM     11  N13 ZIN A   1      19.026  -2.530  11.084  0.00  0.00    -0.224 N 
ATOM     12  C14 ZIN A   1      17.993  -1.936  11.935  0.00  0.00     0.168 C 
ATOM     13  C15 ZIN A   1      19.962  -3.508  11.643  0.00  0.00     0.168 C 
ENDBRANCH   6  11
BRANCH   3  14
ATOM     14  N7  ZIN A   1      19.464  -3.734   6.569  0.00  0.00    -0.224 N 
ATOM     15  C8  ZIN A   1      20.051  -5.033   6.906  0.00  0.00     0.168 C 
ATOM     16  C9  ZIN A   1      19.013  -3.468   5.200  0.00  0.00     0.168 C 
ENDBRANCH   3  14
TORSDOF 3
ENDMDL
MODEL 2
REMARK VINA RESULT:      -4.9      0.116      3.831
REMARK  3 active torsions:
REMARK  status: ('A' for Active; 'I' for Inactive)
REMARK    1  A    between atoms: N2_2  and  C4_4 
REMARK    2  A    between atoms: C6_6  and  N7_7 
REMARK    3  A    between atoms: C12_12  and  N13_13 
ROOT
ATOM      1  C4  ZIN A   1      19.172  -0.518   8.150  0.00  0.00     0.755 A 
ATOM      2  N5  ZIN A   1      19.124  -0.859   9.433  0.00  0.00     0.129 NA
ATOM      3  C6  ZIN A   1      19.187  -2.140   9.782  0.00  0.00     0.732 A 
ATOM      4  N10 ZIN A   1      19.299  -3.080   8.849  0.00  0.00    -0.018 N 
ATOM      5  H11 ZIN A   1      19.345  -4.014   9.104  0.00  0.00     0.203 HD
ATOM      6  C12 ZIN A   1      19.348  -2.737   7.565  0.00  0.00     0.732 A 
ATOM      7  N16 ZIN A   1      19.280  -1.458   7.215  0.00  0.00     0.129 NA
ENDROOT
BRANCH   1   8
ATOM      8  N2  ZIN A   1      19.106   0.812   7.786  0.00  0.00    -0.222 N 
ATOM      9  C1  ZIN A   1      18.912   1.179   6.381  0.00  0.00     0.168 C 
ATOM     10  C3  ZIN A   1      19.230   1.857   8.806  0.00  0.00     0.168 C 
ENDBRANCH   1   8
BRANCH   6  11
ATOM     11  N13 ZIN A   1      19.464  -3.713   6.595  0.00  0.00    -0.224 N 
ATOM     12  C14 ZIN A   1      19.011  -3.446   5.229  0.00  0.00     0.168 C 
ATOM     13  C15 ZIN A   1      20.041  -5.016   6.934  0.00  0.00     0.168 C 
ENDBRANCH   6  11
BRANCH   3  14
ATOM     14  N7  ZIN A   1      19.136  -2.495  11.115  0.00  0.00    -0.224 N 
ATOM     15  C8  ZIN A   1      18.295  -1.737  12.044  0.00  0.00     0.168 C 
ATOM     16  C9  ZIN A   1      19.923  -3.631  11.601  0.00  0.00     0.168 C 
ENDBRANCH   3  14
TORSDOF 3
ENDMDL
MODEL 3
REMARK VINA RESULT:      -4.8      1.460      3.903
REMARK  3 active torsions:
REMARK  status: ('A' for Active; 'I' for Inactive)
REMARK    1  A    between atoms: N2_2  and  C4_4 
REMARK    2  A    between atoms: C6_6  and  N7_7 
REMARK    3  A    between atoms: C12_12  and  N13_13 
ROOT
ATOM      1  C4  ZIN A   1      19.278  -0.392   9.152  0.00  0.00     0.755 A 
ATOM      2  N5  ZIN A   1      19.267  -1.449   9.958  0.00  0.00     0.129 NA
ATOM      3  C6  ZIN A   1      19.251  -2.675   9.444  0.00  0.00     0.732 A 
ATOM      4  N10 ZIN A   1      19.246  -2.844   8.125  0.00  0.00    -0.018 N 
ATOM      5  H11 ZIN A   1      19.235  -3.738   7.751  0.00  0.00     0.203 HD
ATOM      6  C12 ZIN A   1      19.259  -1.786   7.320  0.00  0.00     0.732 A 
ATOM      7  N16 ZIN A   1      19.269  -0.560   7.833  0.00  0.00     0.129 NA
ENDROOT
BRANCH   1   8
ATOM      8  N2  ZIN A   1      19.294   0.882   9.685  0.00  0.00    -0.222 N 
ATOM      9  C1  ZIN A   1      19.119   2.044   8.810  0.00  0.00     0.168 C 
ATOM     10  C3  ZIN A   1      19.485   1.071  11.125  0.00  0.00     0.168 C 
ENDBRANCH   1   8
BRANCH   6  11
ATOM     11  N13 ZIN A   1      19.254  -1.961   5.951  0.00  0.00    -0.224 N 
ATOM     12  C14 ZIN A   1      19.121  -3.305   5.385  0.00  0.00     0.168 C 
ATOM     13  C15 ZIN A   1      19.382  -0.803   5.064  0.00  0.00     0.168 C 
ENDBRANCH   6  11
BRANCH   3  14
ATOM     14  N7  ZIN A   1      19.239  -3.772  10.280  0.00  0.00    -0.224 N 
ATOM     15  C8  ZIN A   1      18.451  -4.955   9.927  0.00  0.00     0.168 C 
ATOM     16  C9  ZIN A   1      20.016  -3.755  11.522  0.00  0.00     0.168 C 
ENDBRANCH   3  14
TORSDOF 3
ENDMDL
MODEL 4
REMARK VINA RESULT:      -4.7      1.789      2.394
REMARK  3 active torsions:
REMARK  status: ('A' for Active; 'I' for Inactive)
REMARK    1  A    between atoms: N2_2  and  C4_4 
REMARK    2  A    between atoms: C6_6  and  N7_7 
REMARK    3  A    between atoms: C12_12  and  N13_13 
ROOT
ATOM      1  C4  ZIN A   1      18.895  -0.372   8.834  0.00  0.00     0.755 A 
ATOM      2  N5  ZIN A   1      19.093  -0.380   7.520  0.00  0.00     0.129 NA
ATOM      3  C6  ZIN A   1      18.796  -1.465   6.811  0.00  0.00     0.732 A 
ATOM      4  N10 ZIN A   1      18.300  -2.540   7.414  0.00  0.00    -0.018 N 
ATOM      5  H11 ZIN A   1      18.083  -3.330   6.897  0.00  0.00     0.203 HD
ATOM      6  C12 ZIN A   1      18.101  -2.530   8.729  0.00  0.00     0.732 A 
ATOM      7  N16 ZIN A   1      18.403  -1.449   9.440  0.00  0.00     0.129 NA
ENDROOT
BRANCH   1   8
ATOM      8  N2  ZIN A   1      19.204   0.753   9.572  0.00  0.00    -0.222 N 
ATOM      9  C1  ZIN A   1      19.154   2.077   8.945  0.00  0.00     0.168 C 
ATOM     10  C3  ZIN A   1      19.583   0.624  10.981  0.00  0.00     0.168 C 
ENDBRANCH   1   8
BRANCH   6  11
ATOM     11  N13 ZIN A   1      17.586  -3.647   9.357  0.00  0.00    -0.224 N 
ATOM     12  C14 ZIN A   1      17.379  -3.644  10.806  0.00  0.00     0.168 C 
ATOM     13  C15 ZIN A   1      17.248  -4.837   8.571  0.00  0.00     0.168 C 
ENDBRANCH   6  11
BRANCH   3  14
ATOM     14  N7  ZIN A   1      19.002  -1.473   5.446  0.00  0.00    -0.224 N 
ATOM     15  C8  ZIN A   1      18.954  -2.736   4.705  0.00  0.00     0.168 C 
ATOM     16  C9  ZIN A   1      19.267  -0.218   4.738  0.00  0.00     0.168 C 
ENDBRANCH   3  14
TORSDOF 3
ENDMDL
MODEL 5
REMARK VINA RESULT:      -4.7      1.553      3.236
REMARK  3 active torsions:
REMARK  status: ('A' for Active; 'I' for Inactive)
REMARK    1  A    between atoms: N2_2  and  C4_4 
REMARK    2  A    between atoms: C6_6  and  N7_7 
REMARK    3  A    between atoms: C12_12  and  N13_13 
ROOT
ATOM      1  C4  ZIN A   1      19.173  -1.792   6.680  0.00  0.00     0.755 A 
ATOM      2  N5  ZIN A   1      19.135  -2.998   7.238  0.00  0.00     0.129 NA
ATOM      3  C6  ZIN A   1      19.227  -3.122   8.558  0.00  0.00     0.732 A 
ATOM      4  N10 ZIN A   1      19.355  -2.042   9.321  0.00  0.00    -0.018 N 
ATOM      5  H11 ZIN A   1      19.422  -2.132  10.284  0.00  0.00     0.203 HD
ATOM      6  C12 ZIN A   1      19.392  -0.835   8.763  0.00  0.00     0.732 A 
ATOM      7  N16 ZIN A   1      19.306  -0.711   7.443  0.00  0.00     0.129 NA
ENDROOT
BRANCH   1   8
ATOM      8  N2  ZIN A   1      19.079  -1.662   5.309  0.00  0.00    -0.222 N 
ATOM      9  C1  ZIN A   1      18.852  -2.845   4.475  0.00  0.00     0.168 C 
ATOM     10  C3  ZIN A   1      19.206  -0.341   4.688  0.00  0.00     0.168 C 
ENDBRANCH   1   8
BRANCH   6  11
ATOM     11  N13 ZIN A   1      19.526   0.287   9.555  0.00  0.00    -0.224 N 
ATOM     12  C14 ZIN A   1      19.287   1.617   8.989  0.00  0.00     0.168 C 
ATOM     13  C15 ZIN A   1      19.907   0.148  10.963  0.00  0.00     0.168 C 
ENDBRANCH   6  11
BRANCH   3  14
ATOM     14  N7  ZIN A   1      19.188  -4.375   9.136  0.00  0.00    -0.224 N 
ATOM     15  C8  ZIN A   1      18.723  -5.527   8.361  0.00  0.00     0.168 C 
ATOM     16  C9  ZIN A   1      19.615  -4.552  10.527  0.00  0.00     0.168 C 
ENDBRANCH   3  14
TORSDOF 3
ENDMDL
MODEL 6
REMARK VINA RESULT:      -4.7      1.544      3.832
REMARK  3 active torsions:
REMARK  status: ('A' for Active; 'I' for Inactive)
REMARK    1  A    between atoms: N2_2  and  C4_4 
REMARK    2  A    between atoms: C6_6  and  N7_7 
REMARK    3  A    between atoms: C12_12  and  N13_13 
ROOT
ATOM      1  C4  ZIN A   1      19.185  -1.727   6.672  0.00  0.00     0.755 A 
ATOM      2  N5  ZIN A   1      19.311  -0.671   7.470  0.00  0.00     0.129 NA
ATOM      3  C6  ZIN A   1      19.393  -0.839   8.786  0.00  0.00     0.732 A 
ATOM      4  N10 ZIN A   1      19.350  -2.062   9.305  0.00  0.00    -0.018 N 
ATOM      5  H11 ZIN A   1      19.410  -2.185  10.264  0.00  0.00     0.203 HD
ATOM      6  C12 ZIN A   1      19.225  -3.118   8.506  0.00  0.00     0.732 A 
ATOM      7  N16 ZIN A   1      19.137  -2.951   7.191  0.00  0.00     0.129 NA
ENDROOT
BRANCH   1   8
ATOM      8  N2  ZIN A   1      19.099  -1.554   5.305  0.00  0.00    -0.222 N 
ATOM      9  C1  ZIN A   1      18.860  -2.707   4.434  0.00  0.00     0.168 C 
ATOM     10  C3  ZIN A   1      19.246  -0.216   4.726  0.00  0.00     0.168 C 
ENDBRANCH   1   8
BRANCH   6  11
ATOM     11  N13 ZIN A   1      19.180  -4.388   9.045  0.00  0.00    -0.224 N 
ATOM     12  C14 ZIN A   1      18.758  -5.521   8.218  0.00  0.00     0.168 C 
ATOM     13  C15 ZIN A   1      19.555  -4.603  10.445  0.00  0.00     0.168 C 
ENDBRANCH   6  11
BRANCH   3  14
ATOM     14  N7  ZIN A   1      19.523   0.257   9.613  0.00  0.00    -0.224 N 
ATOM     15  C8  ZIN A   1      19.954   0.081  11.002  0.00  0.00     0.168 C 
ATOM     16  C9  ZIN A   1      19.232   1.599   9.102  0.00  0.00     0.168 C 
ENDBRANCH   3  14
TORSDOF 3
ENDMDL
MODEL 7
REMARK VINA RESULT:      -4.7      5.838      8.450
REMARK  3 active torsions:
REMARK  status: ('A' for Active; 'I' for Inactive)
REMARK    1  A    between atoms: N2_2  and  C4_4 
REMARK    2  A    between atoms: C6_6  and  N7_7 
REMARK    3  A    between atoms: C12_12  and  N13_13 
ROOT
ATOM      1  C4  ZIN A   1      19.147   1.801  16.274  0.00  0.00     0.755 A 
ATOM      2  N5  ZIN A   1      19.353   0.763  15.469  0.00  0.00     0.129 NA
ATOM      3  C6  ZIN A   1      19.371   0.937  14.152  0.00  0.00     0.732 A 
ATOM      4  N10 ZIN A   1      19.184   2.149  13.638  0.00  0.00    -0.018 N 
ATOM      5  H11 ZIN A   1      19.197   2.276  12.677  0.00  0.00     0.203 HD
ATOM      6  C12 ZIN A   1      18.978   3.187  14.443  0.00  0.00     0.732 A 
ATOM      7  N16 ZIN A   1      18.955   3.012  15.760  0.00  0.00     0.129 NA
ENDROOT
BRANCH   1   8
ATOM      8  N2  ZIN A   1      19.127   1.621  17.642  0.00  0.00    -0.222 N 
ATOM      9  C1  ZIN A   1      19.288   0.278  18.207  0.00  0.00     0.168 C 
ATOM     10  C3  ZIN A   1      18.945   2.772  18.530  0.00  0.00     0.168 C 
ENDBRANCH   1   8
BRANCH   6  11
ATOM     11  N13 ZIN A   1      18.784   4.445  13.910  0.00  0.00    -0.224 N 
ATOM     12  C14 ZIN A   1      19.654   4.929  12.837  0.00  0.00     0.168 C 
ATOM     13  C15 ZIN A   1      17.705   5.297  14.418  0.00  0.00     0.168 C 
ENDBRANCH   6  11
BRANCH   3  14
ATOM     14  N7  ZIN A   1      19.584  -0.141  13.317  0.00  0.00    -0.224 N 
ATOM     15  C8  ZIN A   1      19.255  -1.495  13.768  0.00  0.00     0.168 C 
ATOM     16  C9  ZIN A   1      20.139   0.069  11.977  0.00  0.00     0.168 C 
ENDBRANCH   3  14
TORSDOF 3
ENDMDL
MODEL 8
REMARK VINA RESULT:      -4.7      3.240      5.875
REMARK  3 active torsions:
REMARK  status: ('A' for Active; 'I' for Inactive)
REMARK    1  A    between atoms: N2_2  and  C4_4 
REMARK    2  A    between atoms: C6_6  and  N7_7 
REMARK    3  A    between atoms: C12_12  and  N13_13 
ROOT
ATOM      1  C4  ZIN A   1      18.120   1.096   9.966  0.00  0.00     0.755 A 
ATOM      2  N5  ZIN A   1      17.875   2.337  10.374  0.00  0.00     0.129 NA
ATOM      3  C6  ZIN A   1      17.753   2.598  11.672  0.00  0.00     0.732 A 
ATOM      4  N10 ZIN A   1      17.877   1.618  12.562  0.00  0.00    -0.018 N 
ATOM      5  H11 ZIN A   1      17.788   1.808  13.508  0.00  0.00     0.203 HD
ATOM      6  C12 ZIN A   1      18.124   0.377  12.153  0.00  0.00     0.732 A 
ATOM      7  N16 ZIN A   1      18.240   0.115  10.856  0.00  0.00     0.129 NA
ENDROOT
BRANCH   1   8
ATOM      8  N2  ZIN A   1      18.246   0.825   8.619  0.00  0.00    -0.222 N 
ATOM      9  C1  ZIN A   1      17.375  -0.170   7.987  0.00  0.00     0.168 C 
ATOM     10  C3  ZIN A   1      19.251   1.531   7.820  0.00  0.00     0.168 C 
ENDBRANCH   1   8
BRANCH   6  11
ATOM     11  N13 ZIN A   1      18.252  -0.640  13.077  0.00  0.00    -0.224 N 
ATOM     12  C14 ZIN A   1      18.123  -0.352  14.507  0.00  0.00     0.168 C 
ATOM     13  C15 ZIN A   1      18.517  -2.009  12.627  0.00  0.00     0.168 C 
ENDBRANCH   6  11
BRANCH   3  14
ATOM     14  N7  ZIN A   1      17.498   3.886  12.095  0.00  0.00    -0.224 N 
ATOM     15  C8  ZIN A   1      16.969   4.876  11.154  0.00  0.00     0.168 C 
ATOM     16  C9  ZIN A   1      17.756   4.264  13.487  0.00  0.00     0.168 C 
ENDBRANCH   3  14
TORSDOF 3
ENDMDL
MODEL 9
REMARK VINA RESULT:      -4.6      6.093      8.598
REMARK  3 active torsions:
REMARK  status: ('A' for Active; 'I' for Inactive)
REMARK    1  A    between atoms: N2_2  and  C4_4 
REMARK    2  A    between atoms: C6_6  and  N7_7 
REMARK    3  A    between atoms: C12_12  and  N13_13 
ROOT
ATOM      1  C4  ZIN A   1      18.966   0.904  16.009  0.00  0.00     0.755 A 
ATOM      2  N5  ZIN A   1      19.084   0.741  14.695  0.00  0.00     0.129 NA
ATOM      3  C6  ZIN A   1      19.229   1.799  13.905  0.00  0.00     0.732 A 
ATOM      4  N10 ZIN A   1      19.256   3.021  14.427  0.00  0.00    -0.018 N 
ATOM      5  H11 ZIN A   1      19.362   3.793  13.850  0.00  0.00     0.203 HD
ATOM      6  C12 ZIN A   1      19.139   3.184  15.742  0.00  0.00     0.732 A 
ATOM      7  N16 ZIN A   1      18.989   2.127  16.532  0.00  0.00     0.129 NA
ENDROOT
BRANCH   1   8
ATOM      8  N2  ZIN A   1      18.815  -0.195  16.831  0.00  0.00    -0.222 N 
ATOM      9  C1  ZIN A   1      18.225  -1.428  16.303  0.00  0.00     0.168 C 
ATOM     10  C3  ZIN A   1      19.244  -0.128  18.230  0.00  0.00     0.168 C 
ENDBRANCH   1   8
BRANCH   6  11
ATOM     11  N13 ZIN A   1      19.167   4.453  16.284  0.00  0.00    -0.224 N 
ATOM     12  C14 ZIN A   1      18.090   4.895  17.172  0.00  0.00     0.168 C 
ATOM     13  C15 ZIN A   1      20.276   5.358  15.971  0.00  0.00     0.168 C 
ENDBRANCH   6  11
BRANCH   3  14
ATOM     14  N7  ZIN A   1      19.351   1.629  12.541  0.00  0.00    -0.224 N 
ATOM     15  C8  ZIN A   1      20.287   0.638  12.006  0.00  0.00     0.168 C 
ATOM     16  C9  ZIN A   1      18.542   2.440  11.626  0.00  0.00     0.168 C 
ENDBRANCH   3  14
TORSDOF 3
ENDMDL
