MODEL 1
REMARK VINA RESULT:      -8.1      0.000      0.000
REMARK  1 active torsions:
REMARK  status: ('A' for Active; 'I' for Inactive)
REMARK    1  A    between atoms: C14_14  and  N15_15 
ROOT
ATOM      1  C1  ZIN A   1      17.204  -0.783  17.095  0.00  0.00     0.056 C 
ATOM      2  C2  ZIN A   1      17.887  -0.308  15.839  0.00  0.00    -0.018 A 
ATOM      3  C3  ZIN A   1      17.760  -0.877  14.650  0.00  0.00     0.032 A 
ATOM      4  C4  ZIN A   1      18.528  -0.226  13.611  0.00  0.00     0.044 A 
ATOM      5  C5  ZIN A   1      19.201   0.884  14.078  0.00  0.00     0.089 A 
ATOM      6  N6  ZIN A   1      19.957   1.727  13.253  0.00  0.00    -0.348 N 
ATOM      7  C7  ZIN A   1      19.306   2.283  12.135  0.00  0.00     0.062 A 
ATOM      8  C8  ZIN A   1      19.264   3.659  12.003  0.00  0.00     0.032 A 
ATOM      9  C9  ZIN A   1      18.607   4.240  10.930  0.00  0.00     0.002 A 
ATOM     10  C10 ZIN A   1      17.990   3.444   9.986  0.00  0.00     0.002 A 
ATOM     11  C11 ZIN A   1      18.034   2.068  10.099  0.00  0.00     0.034 A 
ATOM     12  C12 ZIN A   1      18.704   1.465  11.171  0.00  0.00     0.086 A 
ATOM     13  N13 ZIN A   1      18.768   0.105  11.200  0.00  0.00    -0.228 NA
ATOM     14  C14 ZIN A   1      18.645  -0.688  12.211  0.00  0.00     0.139 C 
ATOM     15  S23 ZIN A   1      18.954   1.082  15.751  0.00  0.00    -0.076 SA
ATOM     16  H28 ZIN A   1      20.888   1.920  13.444  0.00  0.00     0.166 HD
ENDROOT
BRANCH  14  17
ATOM     17  N15 ZIN A   1      18.622  -2.044  11.973  0.00  0.00    -0.362 N 
ATOM     18  C22 ZIN A   1      19.800  -2.881  12.247  0.00  0.00     0.152 C 
ATOM     19  C21 ZIN A   1      20.099  -3.728  11.010  0.00  0.00     0.254 C 
ATOM     20  N18 ZIN A   1      18.896  -4.480  10.630  0.00  0.00    -0.072 N 
ATOM     21  C17 ZIN A   1      17.831  -3.551  10.228  0.00  0.00     0.254 C 
ATOM     22  H19 ZIN A   1      18.581  -5.029  11.416  0.00  0.00     0.279 HD
ATOM     23  C20 ZIN A   1      19.215  -5.372   9.507  0.00  0.00     0.269 C 
ATOM     24  C16 ZIN A   1      17.419  -2.696  11.430  0.00  0.00     0.152 C 
ENDBRANCH  14  17
TORSDOF 1
ENDMDL
MODEL 2
REMARK VINA RESULT:      -8.1      3.311      7.372
REMARK  1 active torsions:
REMARK  status: ('A' for Active; 'I' for Inactive)
REMARK    1  A    between atoms: C14_14  and  N15_15 
ROOT
ATOM      1  C1  ZIN A   1      18.770   1.864   8.915  0.00  0.00     0.056 C 
ATOM      2  C2  ZIN A   1      19.017   1.716  10.394  0.00  0.00    -0.018 A 
ATOM      3  C3  ZIN A   1      18.477   2.485  11.328  0.00  0.00     0.032 A 
ATOM      4  C4  ZIN A   1      18.883   2.133  12.673  0.00  0.00     0.044 A 
ATOM      5  C5  ZIN A   1      19.719   1.037  12.694  0.00  0.00     0.089 A 
ATOM      6  N6  ZIN A   1      20.193   0.456  13.878  0.00  0.00    -0.348 N 
ATOM      7  C7  ZIN A   1      19.232   0.055  14.826  0.00  0.00     0.062 A 
ATOM      8  C8  ZIN A   1      19.207  -1.267  15.232  0.00  0.00     0.032 A 
ATOM      9  C9  ZIN A   1      18.257  -1.702  16.142  0.00  0.00     0.002 A 
ATOM     10  C10 ZIN A   1      17.328  -0.814  16.646  0.00  0.00     0.002 A 
ATOM     11  C11 ZIN A   1      17.348   0.511  16.257  0.00  0.00     0.034 A 
ATOM     12  C12 ZIN A   1      18.309   0.969  15.348  0.00  0.00     0.086 A 
ATOM     13  N13 ZIN A   1      18.321   2.297  15.047  0.00  0.00    -0.228 NA
ATOM     14  C14 ZIN A   1      18.508   2.864  13.902  0.00  0.00     0.139 C 
ATOM     15  S23 ZIN A   1      20.051   0.497  11.114  0.00  0.00    -0.076 SA
ATOM     16  H28 ZIN A   1      21.142   0.335  14.038  0.00  0.00     0.166 HD
ENDROOT
BRANCH  14  17
ATOM     17  N15 ZIN A   1      18.350   4.229  13.821  0.00  0.00    -0.362 N 
ATOM     18  C22 ZIN A   1      19.514   5.127  13.793  0.00  0.00     0.152 C 
ATOM     19  C21 ZIN A   1      19.319   6.219  14.844  0.00  0.00     0.254 C 
ATOM     20  N18 ZIN A   1      18.031   6.889  14.620  0.00  0.00    -0.072 N 
ATOM     21  C17 ZIN A   1      16.930   5.939  14.824  0.00  0.00     0.254 C 
ATOM     22  H19 ZIN A   1      17.997   7.243  13.675  0.00  0.00     0.279 HD
ATOM     23  C20 ZIN A   1      17.894   8.005  15.564  0.00  0.00     0.269 C 
ATOM     24  C16 ZIN A   1      17.008   4.832  13.767  0.00  0.00     0.152 C 
ENDBRANCH  14  17
TORSDOF 1
ENDMDL
MODEL 3
REMARK VINA RESULT:      -8.0      3.401      4.936
REMARK  1 active torsions:
REMARK  status: ('A' for Active; 'I' for Inactive)
REMARK    1  A    between atoms: C14_14  and  N15_15 
ROOT
ATOM      1  C1  ZIN A   1      16.599  -5.140  11.249  0.00  0.00     0.056 C 
ATOM      2  C2  ZIN A   1      17.534  -4.096  10.697  0.00  0.00    -0.018 A 
ATOM      3  C3  ZIN A   1      17.685  -3.824   9.409  0.00  0.00     0.032 A 
ATOM      4  C4  ZIN A   1      18.652  -2.779   9.147  0.00  0.00     0.044 A 
ATOM      5  C5  ZIN A   1      19.182  -2.257  10.308  0.00  0.00     0.089 A 
ATOM      6  N6  ZIN A   1      20.086  -1.188  10.325  0.00  0.00    -0.348 N 
ATOM      7  C7  ZIN A   1      19.689  -0.001   9.678  0.00  0.00     0.062 A 
ATOM      8  C8  ZIN A   1      19.651   1.175  10.405  0.00  0.00     0.032 A 
ATOM      9  C9  ZIN A   1      19.238   2.355   9.807  0.00  0.00     0.002 A 
ATOM     10  C10 ZIN A   1      18.861   2.359   8.479  0.00  0.00     0.002 A 
ATOM     11  C11 ZIN A   1      18.904   1.194   7.738  0.00  0.00     0.034 A 
ATOM     12  C12 ZIN A   1      19.331  -0.004   8.324  0.00  0.00     0.086 A 
ATOM     13  N13 ZIN A   1      19.414  -1.108   7.532  0.00  0.00    -0.228 NA
ATOM     14  C14 ZIN A   1      19.085  -2.326   7.807  0.00  0.00     0.139 C 
ATOM     15  S23 ZIN A   1      18.567  -3.068  11.673  0.00  0.00    -0.076 SA
ATOM     16  H28 ZIN A   1      20.948  -1.260  10.765  0.00  0.00     0.166 HD
ENDROOT
BRANCH  14  17
ATOM     17  N15 ZIN A   1      19.142  -3.258   6.796  0.00  0.00    -0.362 N 
ATOM     18  C22 ZIN A   1      18.314  -3.116   5.589  0.00  0.00     0.152 C 
ATOM     19  C21 ZIN A   1      17.578  -4.433   5.341  0.00  0.00     0.254 C 
ATOM     20  N18 ZIN A   1      18.550  -5.533   5.284  0.00  0.00    -0.072 N 
ATOM     21  C17 ZIN A   1      19.210  -5.686   6.587  0.00  0.00     0.254 C 
ATOM     22  H19 ZIN A   1      19.244  -5.332   4.579  0.00  0.00     0.279 HD
ATOM     23  C20 ZIN A   1      17.853  -6.780   4.941  0.00  0.00     0.269 C 
ATOM     24  C16 ZIN A   1      20.029  -4.428   6.894  0.00  0.00     0.152 C 
ENDBRANCH  14  17
TORSDOF 1
ENDMDL
MODEL 4
REMARK VINA RESULT:      -8.0      1.375      1.940
REMARK  1 active torsions:
REMARK  status: ('A' for Active; 'I' for Inactive)
REMARK    1  A    between atoms: C14_14  and  N15_15 
ROOT
ATOM      1  C1  ZIN A   1      17.506  -1.255  16.723  0.00  0.00     0.056 C 
ATOM      2  C2  ZIN A   1      17.958  -0.263  15.684  0.00  0.00    -0.018 A 
ATOM      3  C3  ZIN A   1      17.832  -0.431  14.376  0.00  0.00     0.032 A 
ATOM      4  C4  ZIN A   1      18.353   0.673  13.598  0.00  0.00     0.044 A 
ATOM      5  C5  ZIN A   1      18.835   1.690  14.394  0.00  0.00     0.089 A 
ATOM      6  N6  ZIN A   1      19.327   2.898  13.882  0.00  0.00    -0.348 N 
ATOM      7  C7  ZIN A   1      18.475   3.629  13.032  0.00  0.00     0.062 A 
ATOM      8  C8  ZIN A   1      18.150   4.930  13.373  0.00  0.00     0.032 A 
ATOM      9  C9  ZIN A   1      17.292   5.670  12.574  0.00  0.00     0.002 A 
ATOM     10  C10 ZIN A   1      16.756   5.107  11.433  0.00  0.00     0.002 A 
ATOM     11  C11 ZIN A   1      17.080   3.813  11.076  0.00  0.00     0.034 A 
ATOM     12  C12 ZIN A   1      17.956   3.057  11.865  0.00  0.00     0.086 A 
ATOM     13  N13 ZIN A   1      18.289   1.810  11.433  0.00  0.00    -0.228 NA
ATOM     14  C14 ZIN A   1      18.423   0.725  12.121  0.00  0.00     0.139 C 
ATOM     15  S23 ZIN A   1      18.717   1.278  16.042  0.00  0.00    -0.076 SA
ATOM     16  H28 ZIN A   1      20.216   3.217  14.104  0.00  0.00     0.166 HD
ENDROOT
BRANCH  14  17
ATOM     17  N15 ZIN A   1      18.645  -0.451  11.442  0.00  0.00    -0.362 N 
ATOM     18  C22 ZIN A   1      17.548  -1.145  10.751  0.00  0.00     0.152 C 
ATOM     19  C21 ZIN A   1      17.550  -2.613  11.179  0.00  0.00     0.254 C 
ATOM     20  N18 ZIN A   1      18.879  -3.191  10.939  0.00  0.00    -0.072 N 
ATOM     21  C17 ZIN A   1      19.874  -2.527  11.792  0.00  0.00     0.254 C 
ATOM     22  H19 ZIN A   1      19.131  -3.063   9.970  0.00  0.00     0.279 HD
ATOM     23  C20 ZIN A   1      18.849  -4.626  11.251  0.00  0.00     0.269 C 
ATOM     24  C16 ZIN A   1      19.988  -1.053  11.390  0.00  0.00     0.152 C 
ENDBRANCH  14  17
TORSDOF 1
ENDMDL
MODEL 5
REMARK VINA RESULT:      -7.9      2.273      2.764
REMARK  1 active torsions:
REMARK  status: ('A' for Active; 'I' for Inactive)
REMARK    1  A    between atoms: C14_14  and  N15_15 
ROOT
ATOM      1  C1  ZIN A   1      17.524  -1.329  16.707  0.00  0.00     0.056 C 
ATOM      2  C2  ZIN A   1      17.942  -0.177  15.831  0.00  0.00    -0.018 A 
ATOM      3  C3  ZIN A   1      17.741  -0.115  14.523  0.00  0.00     0.032 A 
ATOM      4  C4  ZIN A   1      18.244   1.100  13.918  0.00  0.00     0.044 A 
ATOM      5  C5  ZIN A   1      18.791   1.958  14.848  0.00  0.00     0.089 A 
ATOM      6  N6  ZIN A   1      19.282   3.230  14.526  0.00  0.00    -0.348 N 
ATOM      7  C7  ZIN A   1      18.401   4.108  13.864  0.00  0.00     0.062 A 
ATOM      8  C8  ZIN A   1      18.125   5.334  14.442  0.00  0.00     0.032 A 
ATOM      9  C9  ZIN A   1      17.241   6.212  13.833  0.00  0.00     0.002 A 
ATOM     10  C10 ZIN A   1      16.632   5.862  12.645  0.00  0.00     0.002 A 
ATOM     11  C11 ZIN A   1      16.908   4.645  12.052  0.00  0.00     0.034 A 
ATOM     12  C12 ZIN A   1      17.807   3.753  12.647  0.00  0.00     0.086 A 
ATOM     13  N13 ZIN A   1      18.089   2.596  11.989  0.00  0.00    -0.228 NA
ATOM     14  C14 ZIN A   1      18.236   1.407  12.471  0.00  0.00     0.139 C 
ATOM     15  S23 ZIN A   1      18.752   1.268  16.405  0.00  0.00    -0.076 SA
ATOM     16  H28 ZIN A   1      20.188   3.494  14.748  0.00  0.00     0.166 HD
ENDROOT
BRANCH  14  17
ATOM     17  N15 ZIN A   1      18.394   0.363  11.587  0.00  0.00    -0.362 N 
ATOM     18  C22 ZIN A   1      19.713  -0.250  11.369  0.00  0.00     0.152 C 
ATOM     19  C21 ZIN A   1      19.982  -0.313   9.865  0.00  0.00     0.254 C 
ATOM     20  N18 ZIN A   1      18.873  -1.006   9.198  0.00  0.00    -0.072 N 
ATOM     21  C17 ZIN A   1      17.635  -0.229   9.348  0.00  0.00     0.254 C 
ATOM     22  H19 ZIN A   1      18.748  -1.917   9.613  0.00  0.00     0.279 HD
ATOM     23  C20 ZIN A   1      19.183  -1.157   7.770  0.00  0.00     0.269 C 
ATOM     24  C16 ZIN A   1      17.249  -0.166  10.829  0.00  0.00     0.152 C 
ENDBRANCH  14  17
TORSDOF 1
ENDMDL
MODEL 6
REMARK VINA RESULT:      -7.9      2.742      5.158
REMARK  1 active torsions:
REMARK  status: ('A' for Active; 'I' for Inactive)
REMARK    1  A    between atoms: C14_14  and  N15_15 
ROOT
ATOM      1  C1  ZIN A   1      16.582   4.928  12.258  0.00  0.00     0.056 C 
ATOM      2  C2  ZIN A   1      17.382   3.940  11.449  0.00  0.00    -0.018 A 
ATOM      3  C3  ZIN A   1      17.531   2.660  11.756  0.00  0.00     0.032 A 
ATOM      4  C4  ZIN A   1      18.353   1.931  10.814  0.00  0.00     0.044 A 
ATOM      5  C5  ZIN A   1      18.774   2.723   9.767  0.00  0.00     0.089 A 
ATOM      6  N6  ZIN A   1      19.523   2.236   8.688  0.00  0.00    -0.348 N 
ATOM      7  C7  ZIN A   1      18.986   1.146   7.975  0.00  0.00     0.062 A 
ATOM      8  C8  ZIN A   1      18.767   1.281   6.616  0.00  0.00     0.032 A 
ATOM      9  C9  ZIN A   1      18.214   0.239   5.889  0.00  0.00     0.002 A 
ATOM     10  C10 ZIN A   1      17.878  -0.941   6.522  0.00  0.00     0.002 A 
ATOM     11  C11 ZIN A   1      18.102  -1.093   7.877  0.00  0.00     0.034 A 
ATOM     12  C12 ZIN A   1      18.671  -0.054   8.623  0.00  0.00     0.086 A 
ATOM     13  N13 ZIN A   1      18.926  -0.281   9.941  0.00  0.00    -0.228 NA
ATOM     14  C14 ZIN A   1      18.759   0.515  10.944  0.00  0.00     0.139 C 
ATOM     15  S23 ZIN A   1      18.236   4.327   9.967  0.00  0.00    -0.076 SA
ATOM     16  H28 ZIN A   1      20.374   2.632   8.442  0.00  0.00     0.166 HD
ENDROOT
BRANCH  14  17
ATOM     17  N15 ZIN A   1      18.971   0.016  12.210  0.00  0.00    -0.362 N 
ATOM     18  C22 ZIN A   1      18.011  -0.909  12.830  0.00  0.00     0.152 C 
ATOM     19  C21 ZIN A   1      17.664  -0.393  14.227  0.00  0.00     0.254 C 
ATOM     20  N18 ZIN A   1      18.899  -0.196  14.996  0.00  0.00    -0.072 N 
ATOM     21  C17 ZIN A   1      19.713   0.856  14.374  0.00  0.00     0.254 C 
ATOM     22  H19 ZIN A   1      19.424  -1.058  15.015  0.00  0.00     0.279 HD
ATOM     23  C20 ZIN A   1      18.559   0.198  16.369  0.00  0.00     0.269 C 
ATOM     24  C16 ZIN A   1      20.163   0.399  12.983  0.00  0.00     0.152 C 
ENDBRANCH  14  17
TORSDOF 1
ENDMDL
MODEL 7
REMARK VINA RESULT:      -7.8      3.438      5.869
REMARK  1 active torsions:
REMARK  status: ('A' for Active; 'I' for Inactive)
REMARK    1  A    between atoms: C14_14  and  N15_15 
ROOT
ATOM      1  C1  ZIN A   1      20.410  -4.007  11.857  0.00  0.00     0.056 C 
ATOM      2  C2  ZIN A   1      19.625  -3.225  10.835  0.00  0.00    -0.018 A 
ATOM      3  C3  ZIN A   1      19.415  -1.919  10.886  0.00  0.00     0.032 A 
ATOM      4  C4  ZIN A   1      18.625  -1.417   9.782  0.00  0.00     0.044 A 
ATOM      5  C5  ZIN A   1      18.293  -2.410   8.884  0.00  0.00     0.089 A 
ATOM      6  N6  ZIN A   1      17.592  -2.168   7.696  0.00  0.00    -0.348 N 
ATOM      7  C7  ZIN A   1      18.132  -1.209   6.817  0.00  0.00     0.062 A 
ATOM      8  C8  ZIN A   1      18.435  -1.587   5.521  0.00  0.00     0.032 A 
ATOM      9  C9  ZIN A   1      18.993  -0.677   4.638  0.00  0.00     0.002 A 
ATOM     10  C10 ZIN A   1      19.251   0.615   5.052  0.00  0.00     0.002 A 
ATOM     11  C11 ZIN A   1      18.944   1.009   6.340  0.00  0.00     0.034 A 
ATOM     12  C12 ZIN A   1      18.368   0.105   7.240  0.00  0.00     0.086 A 
ATOM     13  N13 ZIN A   1      18.028   0.563   8.476  0.00  0.00    -0.228 NA
ATOM     14  C14 ZIN A   1      18.164  -0.021   9.619  0.00  0.00     0.139 C 
ATOM     15  S23 ZIN A   1      18.873  -3.922   9.413  0.00  0.00    -0.076 SA
ATOM     16  H28 ZIN A   1      16.772  -2.641   7.486  0.00  0.00     0.166 HD
ENDROOT
BRANCH  14  17
ATOM     17  N15 ZIN A   1      17.861   0.697  10.754  0.00  0.00    -0.362 N 
ATOM     18  C22 ZIN A   1      18.581   1.937  11.081  0.00  0.00     0.152 C 
ATOM     19  C21 ZIN A   1      19.068   1.856  12.527  0.00  0.00     0.254 C 
ATOM     20  N18 ZIN A   1      17.932   1.564  13.411  0.00  0.00    -0.072 N 
ATOM     21  C17 ZIN A   1      17.384   0.237  13.100  0.00  0.00     0.254 C 
ATOM     22  H19 ZIN A   1      17.214   2.262  13.276  0.00  0.00     0.279 HD
ATOM     23  C20 ZIN A   1      18.383   1.592  14.808  0.00  0.00     0.269 C 
ATOM     24  C16 ZIN A   1      16.811   0.241  11.680  0.00  0.00     0.152 C 
ENDBRANCH  14  17
TORSDOF 1
ENDMDL
MODEL 8
REMARK VINA RESULT:      -7.7      1.581      4.638
REMARK  1 active torsions:
REMARK  status: ('A' for Active; 'I' for Inactive)
REMARK    1  A    between atoms: C14_14  and  N15_15 
ROOT
ATOM      1  C1  ZIN A   1      19.856   3.620  11.276  0.00  0.00     0.056 C 
ATOM      2  C2  ZIN A   1      19.214   2.637  12.222  0.00  0.00    -0.018 A 
ATOM      3  C3  ZIN A   1      19.401   1.327  12.187  0.00  0.00     0.032 A 
ATOM      4  C4  ZIN A   1      18.663   0.609  13.205  0.00  0.00     0.044 A 
ATOM      5  C5  ZIN A   1      17.950   1.457  14.026  0.00  0.00     0.089 A 
ATOM      6  N6  ZIN A   1      17.211   1.015  15.130  0.00  0.00    -0.348 N 
ATOM      7  C7  ZIN A   1      17.895   0.251  16.096  0.00  0.00     0.062 A 
ATOM      8  C8  ZIN A   1      17.914   0.694  17.406  0.00  0.00     0.032 A 
ATOM      9  C9  ZIN A   1      18.601  -0.018  18.376  0.00  0.00     0.002 A 
ATOM     10  C10 ZIN A   1      19.272  -1.175  18.036  0.00  0.00     0.002 A 
ATOM     11  C11 ZIN A   1      19.252  -1.635  16.733  0.00  0.00     0.034 A 
ATOM     12  C12 ZIN A   1      18.552  -0.934  15.744  0.00  0.00     0.086 A 
ATOM     13  N13 ZIN A   1      18.514  -1.465  14.491  0.00  0.00    -0.228 NA
ATOM     14  C14 ZIN A   1      18.612  -0.861  13.354  0.00  0.00     0.139 C 
ATOM     15  S23 ZIN A   1      18.124   3.076  13.524  0.00  0.00    -0.076 SA
ATOM     16  H28 ZIN A   1      16.268   1.226  15.227  0.00  0.00     0.166 HD
ENDROOT
BRANCH  14  17
ATOM     17  N15 ZIN A   1      18.672  -1.630  12.214  0.00  0.00    -0.362 N 
ATOM     18  C22 ZIN A   1      17.463  -1.910  11.425  0.00  0.00     0.152 C 
ATOM     19  C21 ZIN A   1      17.377  -3.416  11.176  0.00  0.00     0.254 C 
ATOM     20  N18 ZIN A   1      18.625  -3.882  10.559  0.00  0.00    -0.072 N 
ATOM     21  C17 ZIN A   1      19.745  -3.696  11.491  0.00  0.00     0.254 C 
ATOM     22  H19 ZIN A   1      18.801  -3.354   9.716  0.00  0.00     0.279 HD
ATOM     23  C20 ZIN A   1      18.500  -5.307  10.224  0.00  0.00     0.269 C 
ATOM     24  C16 ZIN A   1      19.948  -2.200  11.753  0.00  0.00     0.152 C 
ENDBRANCH  14  17
TORSDOF 1
ENDMDL
MODEL 9
REMARK VINA RESULT:      -7.7      2.866      6.042
REMARK  1 active torsions:
REMARK  status: ('A' for Active; 'I' for Inactive)
REMARK    1  A    between atoms: C14_14  and  N15_15 
ROOT
ATOM      1  C1  ZIN A   1      19.230  -0.268  15.483  0.00  0.00     0.056 C 
ATOM      2  C2  ZIN A   1      18.676   0.215  14.168  0.00  0.00    -0.018 A 
ATOM      3  C3  ZIN A   1      18.920   1.405  13.639  0.00  0.00     0.032 A 
ATOM      4  C4  ZIN A   1      18.261   1.620  12.368  0.00  0.00     0.044 A 
ATOM      5  C5  ZIN A   1      17.549   0.513  11.957  0.00  0.00     0.089 A 
ATOM      6  N6  ZIN A   1      16.881   0.443  10.728  0.00  0.00    -0.348 N 
ATOM      7  C7  ZIN A   1      17.642   0.694   9.569  0.00  0.00     0.062 A 
ATOM      8  C8  ZIN A   1      17.702  -0.278   8.587  0.00  0.00     0.032 A 
ATOM      9  C9  ZIN A   1      18.463  -0.075   7.447  0.00  0.00     0.002 A 
ATOM     10  C10 ZIN A   1      19.169   1.101   7.289  0.00  0.00     0.002 A 
ATOM     11  C11 ZIN A   1      19.110   2.084   8.258  0.00  0.00     0.034 A 
ATOM     12  C12 ZIN A   1      18.335   1.900   9.409  0.00  0.00     0.086 A 
ATOM     13  N13 ZIN A   1      18.264   2.926  10.301  0.00  0.00    -0.228 NA
ATOM     14  C14 ZIN A   1      18.282   2.878  11.591  0.00  0.00     0.139 C 
ATOM     15  S23 ZIN A   1      17.628  -0.726  13.123  0.00  0.00    -0.076 SA
ATOM     16  H28 ZIN A   1      15.936   0.230  10.676  0.00  0.00     0.166 HD
ENDROOT
BRANCH  14  17
ATOM     17  N15 ZIN A   1      18.324   4.066  12.284  0.00  0.00    -0.362 N 
ATOM     18  C22 ZIN A   1      19.598   4.763  12.516  0.00  0.00     0.152 C 
ATOM     19  C21 ZIN A   1      19.710   5.101  14.003  0.00  0.00     0.254 C 
ATOM     20  N18 ZIN A   1      18.522   5.854  14.424  0.00  0.00    -0.072 N 
ATOM     21  C17 ZIN A   1      17.325   5.012  14.296  0.00  0.00     0.254 C 
ATOM     22  H19 ZIN A   1      18.419   6.672  13.842  0.00  0.00     0.279 HD
ATOM     23  C20 ZIN A   1      18.680   6.267  15.825  0.00  0.00     0.269 C 
ATOM     24  C16 ZIN A   1      17.095   4.673  12.820  0.00  0.00     0.152 C 
ENDBRANCH  14  17
TORSDOF 1
ENDMDL
