MODEL 1
REMARK VINA RESULT:      -4.1      0.000      0.000
REMARK  2 active torsions:
REMARK  status: ('A' for Active; 'I' for Inactive)
REMARK    1  A    between atoms: C5_4  and  P7_5 
REMARK    2  A    between atoms: P7_5  and  O10_8 
ROOT
ATOM      1  P7  ZIN A   1      18.936   1.184  18.187  0.00  0.00     0.279 P 
ATOM      2  O8  ZIN A   1      17.611   1.077  18.977  0.00  0.00    -0.645 OA
ATOM      3  O9  ZIN A   1      19.729   2.416  18.676  0.00  0.00    -0.645 OA
ENDROOT
BRANCH   1   4
ATOM      4  C5  ZIN A   1      18.570   1.363  16.410  0.00  0.00     0.270 A 
ATOM      5  C2  ZIN A   1      17.779   0.244  15.727  0.00  0.00     0.160 A 
ATOM      6  C1  ZIN A   1      17.348  -0.949  16.583  0.00  0.00     0.043 C 
ATOM      7  O4  ZIN A   1      19.178   0.434  15.507  0.00  0.00    -0.362 OA
ENDBRANCH   1   4
BRANCH   1   8
ATOM      8  O10 ZIN A   1      19.810  -0.147  18.424  0.00  0.00    -0.321 OA
ATOM      9  H14 ZIN A   1      20.656  -0.150  17.956  0.00  0.00     0.221 HD
ENDBRANCH   1   8
TORSDOF 2
ENDMDL
MODEL 2
REMARK VINA RESULT:      -3.8     10.375     11.480
REMARK  2 active torsions:
REMARK  status: ('A' for Active; 'I' for Inactive)
REMARK    1  A    between atoms: C5_4  and  P7_5 
REMARK    2  A    between atoms: P7_5  and  O10_8 
ROOT
ATOM      1  P7  ZIN A   1      18.687  -0.847   7.139  0.00  0.00     0.279 P 
ATOM      2  O8  ZIN A   1      19.433  -0.212   8.334  0.00  0.00    -0.645 OA
ATOM      3  O9  ZIN A   1      19.041  -2.348   7.049  0.00  0.00    -0.645 OA
ENDROOT
BRANCH   1   4
ATOM      4  C5  ZIN A   1      19.187  -0.012   5.597  0.00  0.00     0.270 A 
ATOM      5  C2  ZIN A   1      18.530  -0.468   4.292  0.00  0.00     0.160 A 
ATOM      6  C1  ZIN A   1      17.496  -1.594   4.369  0.00  0.00     0.043 C 
ATOM      7  O4  ZIN A   1      19.885  -0.785   4.616  0.00  0.00    -0.362 OA
ENDBRANCH   1   4
BRANCH   1   8
ATOM      8  O10 ZIN A   1      17.099  -0.681   7.348  0.00  0.00    -0.321 OA
ATOM      9  H14 ZIN A   1      16.856   0.016   7.972  0.00  0.00     0.221 HD
ENDBRANCH   1   8
TORSDOF 2
ENDMDL
MODEL 3
REMARK VINA RESULT:      -3.7     10.313     11.572
REMARK  2 active torsions:
REMARK  status: ('A' for Active; 'I' for Inactive)
REMARK    1  A    between atoms: C5_4  and  P7_5 
REMARK    2  A    between atoms: P7_5  and  O10_8 
ROOT
ATOM      1  P7  ZIN A   1      19.162  -2.347   5.932  0.00  0.00     0.279 P 
ATOM      2  O8  ZIN A   1      20.162  -3.496   6.198  0.00  0.00    -0.645 OA
ATOM      3  O9  ZIN A   1      19.736  -1.404   4.852  0.00  0.00    -0.645 OA
ENDROOT
BRANCH   1   4
ATOM      4  C5  ZIN A   1      18.889  -1.411   7.473  0.00  0.00     0.270 A 
ATOM      5  C2  ZIN A   1      17.853  -0.285   7.451  0.00  0.00     0.160 A 
ATOM      6  C1  ZIN A   1      17.113  -0.022   6.138  0.00  0.00     0.043 C 
ATOM      7  O4  ZIN A   1      19.258  -0.028   7.488  0.00  0.00    -0.362 OA
ENDBRANCH   1   4
BRANCH   1   8
ATOM      8  O10 ZIN A   1      17.764  -2.959   5.422  0.00  0.00    -0.321 OA
ATOM      9  H14 ZIN A   1      17.101  -3.061   6.119  0.00  0.00     0.221 HD
ENDBRANCH   1   8
TORSDOF 2
ENDMDL
MODEL 4
REMARK VINA RESULT:      -3.7      6.099      7.004
REMARK  2 active torsions:
REMARK  status: ('A' for Active; 'I' for Inactive)
REMARK    1  A    between atoms: C5_4  and  P7_5 
REMARK    2  A    between atoms: P7_5  and  O10_8 
ROOT
ATOM      1  P7  ZIN A   1      20.124  -0.554  10.534  0.00  0.00     0.279 P 
ATOM      2  O8  ZIN A   1      19.369   0.572  11.277  0.00  0.00    -0.645 OA
ATOM      3  O9  ZIN A   1      20.088  -0.282   9.014  0.00  0.00    -0.645 OA
ENDROOT
BRANCH   1   4
ATOM      4  C5  ZIN A   1      19.324  -2.155  10.883  0.00  0.00     0.270 A 
ATOM      5  C2  ZIN A   1      19.047  -2.510  12.346  0.00  0.00     0.160 A 
ATOM      6  C1  ZIN A   1      19.459  -1.498  13.417  0.00  0.00     0.043 C 
ATOM      7  O4  ZIN A   1      20.084  -3.139  11.590  0.00  0.00    -0.362 OA
ENDBRANCH   1   4
BRANCH   1   8
ATOM      8  O10 ZIN A   1      21.653  -0.597  11.036  0.00  0.00    -0.321 OA
ATOM      9  H14 ZIN A   1      21.751  -0.617  11.998  0.00  0.00     0.221 HD
ENDBRANCH   1   8
TORSDOF 2
ENDMDL
MODEL 5
REMARK VINA RESULT:      -3.6      5.945      6.725
REMARK  2 active torsions:
REMARK  status: ('A' for Active; 'I' for Inactive)
REMARK    1  A    between atoms: C5_4  and  P7_5 
REMARK    2  A    between atoms: P7_5  and  O10_8 
ROOT
ATOM      1  P7  ZIN A   1      20.245   0.319  11.523  0.00  0.00     0.279 P 
ATOM      2  O8  ZIN A   1      20.432  -0.464  10.204  0.00  0.00    -0.645 OA
ATOM      3  O9  ZIN A   1      19.389  -0.516  12.501  0.00  0.00    -0.645 OA
ENDROOT
BRANCH   1   4
ATOM      4  C5  ZIN A   1      19.403   1.899  11.177  0.00  0.00     0.270 A 
ATOM      5  C2  ZIN A   1      18.037   1.845  10.490  0.00  0.00     0.160 A 
ATOM      6  C1  ZIN A   1      17.468   0.468  10.141  0.00  0.00     0.043 C 
ATOM      7  O4  ZIN A   1      19.218   2.270   9.808  0.00  0.00    -0.362 OA
ENDBRANCH   1   4
BRANCH   1   8
ATOM      8  O10 ZIN A   1      21.684   0.611  12.183  0.00  0.00    -0.321 OA
ATOM      9  H14 ZIN A   1      21.835   1.540  12.402  0.00  0.00     0.221 HD
ENDBRANCH   1   8
TORSDOF 2
ENDMDL
MODEL 6
REMARK VINA RESULT:      -3.6      4.593      5.471
REMARK  2 active torsions:
REMARK  status: ('A' for Active; 'I' for Inactive)
REMARK    1  A    between atoms: C5_4  and  P7_5 
REMARK    2  A    between atoms: P7_5  and  O10_8 
ROOT
ATOM      1  P7  ZIN A   1      20.147   0.523  12.368  0.00  0.00     0.279 P 
ATOM      2  O8  ZIN A   1      19.821   0.691  13.870  0.00  0.00    -0.645 OA
ATOM      3  O9  ZIN A   1      19.462   1.650  11.564  0.00  0.00    -0.645 OA
ENDROOT
BRANCH   1   4
ATOM      4  C5  ZIN A   1      19.533  -1.094  11.791  0.00  0.00     0.270 A 
ATOM      5  C2  ZIN A   1      18.024  -1.343  11.838  0.00  0.00     0.160 A 
ATOM      6  C1  ZIN A   1      17.131  -0.218  12.366  0.00  0.00     0.043 C 
ATOM      7  O4  ZIN A   1      18.929  -1.961  12.755  0.00  0.00    -0.362 OA
ENDBRANCH   1   4
BRANCH   1   8
ATOM      8  O10 ZIN A   1      21.740   0.601  12.153  0.00  0.00    -0.321 OA
ATOM      9  H14 ZIN A   1      22.252   0.506  12.967  0.00  0.00     0.221 HD
ENDBRANCH   1   8
TORSDOF 2
ENDMDL
MODEL 7
REMARK VINA RESULT:      -3.5      5.632      6.527
REMARK  2 active torsions:
REMARK  status: ('A' for Active; 'I' for Inactive)
REMARK    1  A    between atoms: C5_4  and  P7_5 
REMARK    2  A    between atoms: P7_5  and  O10_8 
ROOT
ATOM      1  P7  ZIN A   1      19.782   1.909  11.902  0.00  0.00     0.279 P 
ATOM      2  O8  ZIN A   1      20.476   0.530  11.830  0.00  0.00    -0.645 OA
ATOM      3  O9  ZIN A   1      19.153   2.097  13.300  0.00  0.00    -0.645 OA
ENDROOT
BRANCH   1   4
ATOM      4  C5  ZIN A   1      18.476   1.999  10.632  0.00  0.00     0.270 A 
ATOM      5  C2  ZIN A   1      17.701   3.311  10.497  0.00  0.00     0.160 A 
ATOM      6  C1  ZIN A   1      18.074   4.461  11.435  0.00  0.00     0.043 C 
ATOM      7  O4  ZIN A   1      17.123   2.140  11.076  0.00  0.00    -0.362 OA
ENDBRANCH   1   4
BRANCH   1   8
ATOM      8  O10 ZIN A   1      20.866   3.070  11.640  0.00  0.00    -0.321 OA
ATOM      9  H14 ZIN A   1      21.431   2.914  10.871  0.00  0.00     0.221 HD
ENDBRANCH   1   8
TORSDOF 2
ENDMDL
MODEL 8
REMARK VINA RESULT:      -3.4      4.452      5.808
REMARK  2 active torsions:
REMARK  status: ('A' for Active; 'I' for Inactive)
REMARK    1  A    between atoms: C5_4  and  P7_5 
REMARK    2  A    between atoms: P7_5  and  O10_8 
ROOT
ATOM      1  P7  ZIN A   1      20.179   0.223  11.614  0.00  0.00     0.279 P 
ATOM      2  O8  ZIN A   1      19.412   1.533  11.325  0.00  0.00    -0.645 OA
ATOM      3  O9  ZIN A   1      20.378  -0.559  10.297  0.00  0.00    -0.645 OA
ENDROOT
BRANCH   1   4
ATOM      4  C5  ZIN A   1      19.221  -0.795  12.785  0.00  0.00     0.270 A 
ATOM      5  C2  ZIN A   1      18.856  -0.176  14.137  0.00  0.00     0.160 A 
ATOM      6  C1  ZIN A   1      19.317   1.256  14.413  0.00  0.00     0.043 C 
ATOM      7  O4  ZIN A   1      19.858  -1.186  14.005  0.00  0.00    -0.362 OA
ENDBRANCH   1   4
BRANCH   1   8
ATOM      8  O10 ZIN A   1      21.614   0.571  12.255  0.00  0.00    -0.321 OA
ATOM      9  H14 ZIN A   1      22.348   0.513  11.629  0.00  0.00     0.221 HD
ENDBRANCH   1   8
TORSDOF 2
ENDMDL
MODEL 9
REMARK VINA RESULT:      -3.4      6.102      7.008
REMARK  2 active torsions:
REMARK  status: ('A' for Active; 'I' for Inactive)
REMARK    1  A    between atoms: C5_4  and  P7_5 
REMARK    2  A    between atoms: P7_5  and  O10_8 
ROOT
ATOM      1  P7  ZIN A   1      17.265  -0.522  11.500  0.00  0.00     0.279 P 
ATOM      2  O8  ZIN A   1      15.869   0.142  11.486  0.00  0.00    -0.645 OA
ATOM      3  O9  ZIN A   1      18.112   0.084  12.642  0.00  0.00    -0.645 OA
ENDROOT
BRANCH   1   4
ATOM      4  C5  ZIN A   1      18.096  -0.223   9.905  0.00  0.00     0.270 A 
ATOM      5  C2  ZIN A   1      18.312   1.229   9.473  0.00  0.00     0.160 A 
ATOM      6  C1  ZIN A   1      17.819   2.333  10.411  0.00  0.00     0.043 C 
ATOM      7  O4  ZIN A   1      17.333   0.389   8.860  0.00  0.00    -0.362 OA
ENDBRANCH   1   4
BRANCH   1   8
ATOM      8  O10 ZIN A   1      17.104  -2.106  11.733  0.00  0.00    -0.321 OA
ATOM      9  H14 ZIN A   1      16.233  -2.369  12.062  0.00  0.00     0.221 HD
ENDBRANCH   1   8
TORSDOF 2
ENDMDL
