MODEL 1
REMARK VINA RESULT:      -4.8      0.000      0.000
REMARK  8 active torsions:
REMARK  status: ('A' for Active; 'I' for Inactive)
REMARK    1  A    between atoms: N2_2  and  O4_4 
REMARK    2  A    between atoms: O4_4  and  C5_5 
REMARK    3  A    between atoms: C5_5  and  C6_6 
REMARK    4  A    between atoms: C6_6  and  C7_7 
REMARK    5  A    between atoms: C6_6  and  O12_12 
REMARK    6  A    between atoms: C7_7  and  O8_8 
REMARK    7  A    between atoms: O8_8  and  N9_9 
REMARK    8  A    between atoms: O12_12  and  N13_13 
ROOT
ATOM      1  C6  ZIN A   1      17.915   1.155   9.891  0.00  0.00     0.211 C 
ENDROOT
BRANCH   1   2
ATOM      2  C5  ZIN A   1      18.148   2.645  10.144  0.00  0.00     0.245 C 
BRANCH   2   3
ATOM      3  O4  ZIN A   1      17.067   3.174  10.914  0.00  0.00    -0.219 OA
BRANCH   3   4
ATOM      4  N2  ZIN A   1      16.935   4.582  10.832  0.00  0.00     0.005 N 
ATOM      5  O1  ZIN A   1      16.410   5.197  11.742  0.00  0.00    -0.511 OA
ATOM      6  O3  ZIN A   1      17.351   5.177   9.854  0.00  0.00    -0.511 OA
ENDBRANCH   3   4
ENDBRANCH   2   3
ENDBRANCH   1   2
BRANCH   1   7
ATOM      7  C7  ZIN A   1      18.937   0.643   8.875  0.00  0.00     0.245 C 
BRANCH   7   8
ATOM      8  O8  ZIN A   1      18.927   1.487   7.722  0.00  0.00    -0.219 OA
BRANCH   8   9
ATOM      9  N9  ZIN A   1      18.590   0.818   6.521  0.00  0.00     0.005 N 
ATOM     10  O10 ZIN A   1      17.518   0.250   6.420  0.00  0.00    -0.511 OA
ATOM     11  O11 ZIN A   1      19.374   0.809   5.589  0.00  0.00    -0.511 OA
ENDBRANCH   8   9
ENDBRANCH   7   8
ENDBRANCH   1   7
BRANCH   1  12
ATOM     12  O12 ZIN A   1      18.061   0.435  11.117  0.00  0.00    -0.211 OA
BRANCH  12  13
ATOM     13  N13 ZIN A   1      16.941  -0.364  11.453  0.00  0.00     0.005 N 
ATOM     14  O14 ZIN A   1      17.087  -1.553  11.676  0.00  0.00    -0.511 OA
ATOM     15  O15 ZIN A   1      15.833   0.137  11.519  0.00  0.00    -0.511 OA
ENDBRANCH  12  13
ENDBRANCH   1  12
TORSDOF 8
ENDMDL
MODEL 2
REMARK VINA RESULT:      -4.8      2.103      2.690
REMARK  8 active torsions:
REMARK  status: ('A' for Active; 'I' for Inactive)
REMARK    1  A    between atoms: N2_2  and  O4_4 
REMARK    2  A    between atoms: O4_4  and  C5_5 
REMARK    3  A    between atoms: C5_5  and  C6_6 
REMARK    4  A    between atoms: C6_6  and  C7_7 
REMARK    5  A    between atoms: C6_6  and  O12_12 
REMARK    6  A    between atoms: C7_7  and  O8_8 
REMARK    7  A    between atoms: O8_8  and  N9_9 
REMARK    8  A    between atoms: O12_12  and  N13_13 
ROOT
ATOM      1  C6  ZIN A   1      18.709   0.838   8.347  0.00  0.00     0.211 C 
ENDROOT
BRANCH   1   2
ATOM      2  C5  ZIN A   1      18.887   2.223   8.972  0.00  0.00     0.245 C 
BRANCH   2   3
ATOM      3  O4  ZIN A   1      18.857   2.112  10.396  0.00  0.00    -0.219 OA
BRANCH   3   4
ATOM      4  N2  ZIN A   1      17.565   2.258  10.959  0.00  0.00     0.005 N 
ATOM      5  O1  ZIN A   1      16.972   1.281  11.382  0.00  0.00    -0.511 OA
ATOM      6  O3  ZIN A   1      17.051   3.359  11.025  0.00  0.00    -0.511 OA
ENDBRANCH   3   4
ENDBRANCH   2   3
ENDBRANCH   1   2
BRANCH   1   7
ATOM      7  C7  ZIN A   1      19.040   0.904   6.855  0.00  0.00     0.245 C 
BRANCH   7   8
ATOM      8  O8  ZIN A   1      18.457  -0.217   6.188  0.00  0.00    -0.219 OA
BRANCH   8   9
ATOM      9  N9  ZIN A   1      19.402  -1.080   5.581  0.00  0.00     0.005 N 
ATOM     10  O10 ZIN A   1      19.647  -2.163   6.079  0.00  0.00    -0.511 OA
ATOM     11  O11 ZIN A   1      19.970  -0.737   4.559  0.00  0.00    -0.511 OA
ENDBRANCH   8   9
ENDBRANCH   7   8
ENDBRANCH   1   7
BRANCH   1  12
ATOM     12  O12 ZIN A   1      19.585  -0.091   8.989  0.00  0.00    -0.211 OA
BRANCH  12  13
ATOM     13  N13 ZIN A   1      18.941  -1.260   9.461  0.00  0.00     0.005 N 
ATOM     14  O14 ZIN A   1      17.749  -1.419   9.265  0.00  0.00    -0.511 OA
ATOM     15  O15 ZIN A   1      19.577  -2.106  10.063  0.00  0.00    -0.511 OA
ENDBRANCH  12  13
ENDBRANCH   1  12
TORSDOF 8
ENDMDL
MODEL 3
REMARK VINA RESULT:      -4.7      2.317      4.012
REMARK  8 active torsions:
REMARK  status: ('A' for Active; 'I' for Inactive)
REMARK    1  A    between atoms: N2_2  and  O4_4 
REMARK    2  A    between atoms: O4_4  and  C5_5 
REMARK    3  A    between atoms: C5_5  and  C6_6 
REMARK    4  A    between atoms: C6_6  and  C7_7 
REMARK    5  A    between atoms: C6_6  and  O12_12 
REMARK    6  A    between atoms: C7_7  and  O8_8 
REMARK    7  A    between atoms: O8_8  and  N9_9 
REMARK    8  A    between atoms: O12_12  and  N13_13 
ROOT
ATOM      1  C6  ZIN A   1      18.695   0.230   8.598  0.00  0.00     0.211 C 
ENDROOT
BRANCH   1   2
ATOM      2  C5  ZIN A   1      19.365  -0.909   9.369  0.00  0.00     0.245 C 
BRANCH   2   3
ATOM      3  O4  ZIN A   1      20.506  -0.406  10.067  0.00  0.00    -0.219 OA
BRANCH   3   4
ATOM      4  N2  ZIN A   1      20.299  -0.229  11.457  0.00  0.00     0.005 N 
ATOM      5  O1  ZIN A   1      19.598  -1.013  12.073  0.00  0.00    -0.511 OA
ATOM      6  O3  ZIN A   1      20.828   0.701  12.038  0.00  0.00    -0.511 OA
ENDBRANCH   3   4
ENDBRANCH   2   3
ENDBRANCH   1   2
BRANCH   1   7
ATOM      7  C7  ZIN A   1      18.154  -0.302   7.269  0.00  0.00     0.245 C 
BRANCH   7   8
ATOM      8  O8  ZIN A   1      19.109  -0.057   6.234  0.00  0.00    -0.219 OA
BRANCH   8   9
ATOM      9  N9  ZIN A   1      19.507  -1.221   5.533  0.00  0.00     0.005 N 
ATOM     10  O10 ZIN A   1      19.596  -2.285   6.118  0.00  0.00    -0.511 OA
ATOM     11  O11 ZIN A   1      19.763  -1.157   4.343  0.00  0.00    -0.511 OA
ENDBRANCH   8   9
ENDBRANCH   7   8
ENDBRANCH   1   7
BRANCH   1  12
ATOM     12  O12 ZIN A   1      17.618   0.761   9.372  0.00  0.00    -0.211 OA
BRANCH  12  13
ATOM     13  N13 ZIN A   1      17.928   1.973  10.035  0.00  0.00     0.005 N 
ATOM     14  O14 ZIN A   1      17.230   2.359  10.956  0.00  0.00    -0.511 OA
ATOM     15  O15 ZIN A   1      18.892   2.630   9.685  0.00  0.00    -0.511 OA
ENDBRANCH  12  13
ENDBRANCH   1  12
TORSDOF 8
ENDMDL
MODEL 4
REMARK VINA RESULT:      -4.7      1.555      5.079
REMARK  8 active torsions:
REMARK  status: ('A' for Active; 'I' for Inactive)
REMARK    1  A    between atoms: N2_2  and  O4_4 
REMARK    2  A    between atoms: O4_4  and  C5_5 
REMARK    3  A    between atoms: C5_5  and  C6_6 
REMARK    4  A    between atoms: C6_6  and  C7_7 
REMARK    5  A    between atoms: C6_6  and  O12_12 
REMARK    6  A    between atoms: C7_7  and  O8_8 
REMARK    7  A    between atoms: O8_8  and  N9_9 
REMARK    8  A    between atoms: O12_12  and  N13_13 
ROOT
ATOM      1  C6  ZIN A   1      18.604   0.345   8.867  0.00  0.00     0.211 C 
ENDROOT
BRANCH   1   2
ATOM      2  C5  ZIN A   1      18.698   0.593   7.361  0.00  0.00     0.245 C 
BRANCH   2   3
ATOM      3  O4  ZIN A   1      19.206  -0.575   6.715  0.00  0.00    -0.219 OA
BRANCH   3   4
ATOM      4  N2  ZIN A   1      19.141  -0.528   5.301  0.00  0.00     0.005 N 
ATOM      5  O1  ZIN A   1      20.004  -1.069   4.634  0.00  0.00    -0.511 OA
ATOM      6  O3  ZIN A   1      18.219   0.049   4.753  0.00  0.00    -0.511 OA
ENDBRANCH   3   4
ENDBRANCH   2   3
ENDBRANCH   1   2
BRANCH   1   7
ATOM      7  C7  ZIN A   1      19.255   1.508   9.619  0.00  0.00     0.245 C 
BRANCH   7   8
ATOM      8  O8  ZIN A   1      18.459   2.684   9.460  0.00  0.00    -0.219 OA
BRANCH   8   9
ATOM      9  N9  ZIN A   1      18.123   3.319  10.679  0.00  0.00     0.005 N 
ATOM     10  O10 ZIN A   1      16.954   3.491  10.975  0.00  0.00    -0.511 OA
ATOM     11  O11 ZIN A   1      19.003   3.696  11.432  0.00  0.00    -0.511 OA
ENDBRANCH   8   9
ENDBRANCH   7   8
ENDBRANCH   1   7
BRANCH   1  12
ATOM     12  O12 ZIN A   1      17.231   0.241   9.249  0.00  0.00    -0.211 OA
BRANCH  12  13
ATOM     13  N13 ZIN A   1      17.029  -0.329  10.529  0.00  0.00     0.005 N 
ATOM     14  O14 ZIN A   1      16.210   0.155  11.289  0.00  0.00    -0.511 OA
ATOM     15  O15 ZIN A   1      17.676  -1.303  10.871  0.00  0.00    -0.511 OA
ENDBRANCH  12  13
ENDBRANCH   1  12
TORSDOF 8
ENDMDL
MODEL 5
REMARK VINA RESULT:      -4.6      2.100      5.452
REMARK  8 active torsions:
REMARK  status: ('A' for Active; 'I' for Inactive)
REMARK    1  A    between atoms: N2_2  and  O4_4 
REMARK    2  A    between atoms: O4_4  and  C5_5 
REMARK    3  A    between atoms: C5_5  and  C6_6 
REMARK    4  A    between atoms: C6_6  and  C7_7 
REMARK    5  A    between atoms: C6_6  and  O12_12 
REMARK    6  A    between atoms: C7_7  and  O8_8 
REMARK    7  A    between atoms: O8_8  and  N9_9 
REMARK    8  A    between atoms: O12_12  and  N13_13 
ROOT
ATOM      1  C6  ZIN A   1      19.302   0.916   8.272  0.00  0.00     0.211 C 
ENDROOT
BRANCH   1   2
ATOM      2  C5  ZIN A   1      18.776   0.642   6.862  0.00  0.00     0.245 C 
BRANCH   2   3
ATOM      3  O4  ZIN A   1      19.236  -0.637   6.420  0.00  0.00    -0.219 OA
BRANCH   3   4
ATOM      4  N2  ZIN A   1      19.353  -0.754   5.014  0.00  0.00     0.005 N 
ATOM      5  O1  ZIN A   1      19.825  -1.764   4.524  0.00  0.00    -0.511 OA
ATOM      6  O3  ZIN A   1      18.975   0.153   4.294  0.00  0.00    -0.511 OA
ENDBRANCH   3   4
ENDBRANCH   2   3
ENDBRANCH   1   2
BRANCH   1   7
ATOM      7  C7  ZIN A   1      19.020   2.371   8.649  0.00  0.00     0.245 C 
BRANCH   7   8
ATOM      8  O8  ZIN A   1      19.062   2.512  10.070  0.00  0.00    -0.219 OA
BRANCH   8   9
ATOM      9  N9  ZIN A   1      17.918   3.138  10.620  0.00  0.00     0.005 N 
ATOM     10  O10 ZIN A   1      17.077   2.472  11.198  0.00  0.00    -0.511 OA
ATOM     11  O11 ZIN A   1      17.774   4.343  10.515  0.00  0.00    -0.511 OA
ENDBRANCH   8   9
ENDBRANCH   7   8
ENDBRANCH   1   7
BRANCH   1  12
ATOM     12  O12 ZIN A   1      18.650   0.048   9.201  0.00  0.00    -0.211 OA
BRANCH  12  13
ATOM     13  N13 ZIN A   1      19.507  -0.911   9.794  0.00  0.00     0.005 N 
ATOM     14  O14 ZIN A   1      20.543  -0.554  10.328  0.00  0.00    -0.511 OA
ATOM     15  O15 ZIN A   1      19.210  -2.092   9.769  0.00  0.00    -0.511 OA
ENDBRANCH  12  13
ENDBRANCH   1  12
TORSDOF 8
ENDMDL
MODEL 6
REMARK VINA RESULT:      -4.6      2.630      4.803
REMARK  8 active torsions:
REMARK  status: ('A' for Active; 'I' for Inactive)
REMARK    1  A    between atoms: N2_2  and  O4_4 
REMARK    2  A    between atoms: O4_4  and  C5_5 
REMARK    3  A    between atoms: C5_5  and  C6_6 
REMARK    4  A    between atoms: C6_6  and  C7_7 
REMARK    5  A    between atoms: C6_6  and  O12_12 
REMARK    6  A    between atoms: C7_7  and  O8_8 
REMARK    7  A    between atoms: O8_8  and  N9_9 
REMARK    8  A    between atoms: O12_12  and  N13_13 
ROOT
ATOM      1  C6  ZIN A   1      19.047  -0.221   7.259  0.00  0.00     0.211 C 
ENDROOT
BRANCH   1   2
ATOM      2  C5  ZIN A   1      19.085   0.902   8.297  0.00  0.00     0.245 C 
BRANCH   2   3
ATOM      3  O4  ZIN A   1      18.568   0.421   9.539  0.00  0.00    -0.219 OA
BRANCH   3   4
ATOM      4  N2  ZIN A   1      17.717   1.338  10.203  0.00  0.00     0.005 N 
ATOM      5  O1  ZIN A   1      16.881   0.931  10.991  0.00  0.00    -0.511 OA
ATOM      6  O3  ZIN A   1      17.824   2.532   9.991  0.00  0.00    -0.511 OA
ENDBRANCH   3   4
ENDBRANCH   2   3
ENDBRANCH   1   2
BRANCH   1   7
ATOM      7  C7  ZIN A   1      18.193  -1.375   7.786  0.00  0.00     0.245 C 
BRANCH   7   8
ATOM      8  O8  ZIN A   1      19.017  -2.526   7.985  0.00  0.00    -0.219 OA
BRANCH   8   9
ATOM      9  N9  ZIN A   1      19.181  -3.323   6.826  0.00  0.00     0.005 N 
ATOM     10  O10 ZIN A   1      20.298  -3.567   6.407  0.00  0.00    -0.511 OA
ATOM     11  O11 ZIN A   1      18.204  -3.764   6.247  0.00  0.00    -0.511 OA
ENDBRANCH   8   9
ENDBRANCH   7   8
ENDBRANCH   1   7
BRANCH   1  12
ATOM     12  O12 ZIN A   1      18.482   0.273   6.043  0.00  0.00    -0.211 OA
BRANCH  12  13
ATOM     13  N13 ZIN A   1      18.798  -0.506   4.903  0.00  0.00     0.005 N 
ATOM     14  O14 ZIN A   1      17.905  -0.966   4.214  0.00  0.00    -0.511 OA
ATOM     15  O15 ZIN A   1      19.962  -0.715   4.611  0.00  0.00    -0.511 OA
ENDBRANCH  12  13
ENDBRANCH   1  12
TORSDOF 8
ENDMDL
MODEL 7
REMARK VINA RESULT:      -4.6      2.165      5.570
REMARK  8 active torsions:
REMARK  status: ('A' for Active; 'I' for Inactive)
REMARK    1  A    between atoms: N2_2  and  O4_4 
REMARK    2  A    between atoms: O4_4  and  C5_5 
REMARK    3  A    between atoms: C5_5  and  C6_6 
REMARK    4  A    between atoms: C6_6  and  C7_7 
REMARK    5  A    between atoms: C6_6  and  O12_12 
REMARK    6  A    between atoms: C7_7  and  O8_8 
REMARK    7  A    between atoms: O8_8  and  N9_9 
REMARK    8  A    between atoms: O12_12  and  N13_13 
ROOT
ATOM      1  C6  ZIN A   1      18.588   0.261   7.253  0.00  0.00     0.211 C 
ENDROOT
BRANCH   1   2
ATOM      2  C5  ZIN A   1      17.382  -0.311   8.000  0.00  0.00     0.245 C 
BRANCH   2   3
ATOM      3  O4  ZIN A   1      17.665  -1.651   8.407  0.00  0.00    -0.219 OA
BRANCH   3   4
ATOM      4  N2  ZIN A   1      18.088  -1.768   9.754  0.00  0.00     0.005 N 
ATOM      5  O1  ZIN A   1      17.484  -1.182  10.634  0.00  0.00    -0.511 OA
ATOM      6  O3  ZIN A   1      19.052  -2.459  10.031  0.00  0.00    -0.511 OA
ENDBRANCH   3   4
ENDBRANCH   2   3
ENDBRANCH   1   2
BRANCH   1   7
ATOM      7  C7  ZIN A   1      19.505   0.985   8.240  0.00  0.00     0.245 C 
BRANCH   7   8
ATOM      8  O8  ZIN A   1      18.993   2.295   8.494  0.00  0.00    -0.219 OA
BRANCH   8   9
ATOM      9  N9  ZIN A   1      18.718   2.549   9.860  0.00  0.00     0.005 N 
ATOM     10  O10 ZIN A   1      19.608   2.921  10.602  0.00  0.00    -0.511 OA
ATOM     11  O11 ZIN A   1      17.589   2.396  10.291  0.00  0.00    -0.511 OA
ENDBRANCH   8   9
ENDBRANCH   7   8
ENDBRANCH   1   7
BRANCH   1  12
ATOM     12  O12 ZIN A   1      19.307  -0.801   6.625  0.00  0.00    -0.211 OA
BRANCH  12  13
ATOM     13  N13 ZIN A   1      19.463  -0.645   5.226  0.00  0.00     0.005 N 
ATOM     14  O14 ZIN A   1      19.251   0.437   4.707  0.00  0.00    -0.511 OA
ATOM     15  O15 ZIN A   1      19.808  -1.592   4.542  0.00  0.00    -0.511 OA
ENDBRANCH  12  13
ENDBRANCH   1  12
TORSDOF 8
ENDMDL
MODEL 8
REMARK VINA RESULT:      -4.6      2.685      3.710
REMARK  8 active torsions:
REMARK  status: ('A' for Active; 'I' for Inactive)
REMARK    1  A    between atoms: N2_2  and  O4_4 
REMARK    2  A    between atoms: O4_4  and  C5_5 
REMARK    3  A    between atoms: C5_5  and  C6_6 
REMARK    4  A    between atoms: C6_6  and  C7_7 
REMARK    5  A    between atoms: C6_6  and  O12_12 
REMARK    6  A    between atoms: C7_7  and  O8_8 
REMARK    7  A    between atoms: O8_8  and  N9_9 
REMARK    8  A    between atoms: O12_12  and  N13_13 
ROOT
ATOM      1  C6  ZIN A   1      18.025  -0.883   8.930  0.00  0.00     0.211 C 
ENDROOT
BRANCH   1   2
ATOM      2  C5  ZIN A   1      18.071   0.448   9.682  0.00  0.00     0.245 C 
BRANCH   2   3
ATOM      3  O4  ZIN A   1      18.081   0.201  11.090  0.00  0.00    -0.219 OA
BRANCH   3   4
ATOM      4  N2  ZIN A   1      16.897  -0.402  11.578  0.00  0.00     0.005 N 
ATOM      5  O1  ZIN A   1      15.825   0.158  11.433  0.00  0.00    -0.511 OA
ATOM      6  O3  ZIN A   1      16.949  -1.483  12.136  0.00  0.00    -0.511 OA
ENDBRANCH   3   4
ENDBRANCH   2   3
ENDBRANCH   1   2
BRANCH   1   7
ATOM      7  C7  ZIN A   1      17.820  -0.620   7.438  0.00  0.00     0.245 C 
BRANCH   7   8
ATOM      8  O8  ZIN A   1      18.818  -1.317   6.689  0.00  0.00    -0.219 OA
BRANCH   8   9
ATOM      9  N9  ZIN A   1      19.321  -0.589   5.584  0.00  0.00     0.005 N 
ATOM     10  O10 ZIN A   1      19.811  -1.178   4.637  0.00  0.00    -0.511 OA
ATOM     11  O11 ZIN A   1      19.264   0.628   5.580  0.00  0.00    -0.511 OA
ENDBRANCH   8   9
ENDBRANCH   7   8
ENDBRANCH   1   7
BRANCH   1  12
ATOM     12  O12 ZIN A   1      19.255  -1.584   9.126  0.00  0.00    -0.211 OA
BRANCH  12  13
ATOM     13  N13 ZIN A   1      19.122  -2.789   9.858  0.00  0.00     0.005 N 
ATOM     14  O14 ZIN A   1      19.702  -2.923  10.921  0.00  0.00    -0.511 OA
ATOM     15  O15 ZIN A   1      18.429  -3.692   9.424  0.00  0.00    -0.511 OA
ENDBRANCH  12  13
ENDBRANCH   1  12
TORSDOF 8
ENDMDL
MODEL 9
REMARK VINA RESULT:      -4.5      3.630      5.104
REMARK  8 active torsions:
REMARK  status: ('A' for Active; 'I' for Inactive)
REMARK    1  A    between atoms: N2_2  and  O4_4 
REMARK    2  A    between atoms: O4_4  and  C5_5 
REMARK    3  A    between atoms: C5_5  and  C6_6 
REMARK    4  A    between atoms: C6_6  and  C7_7 
REMARK    5  A    between atoms: C6_6  and  O12_12 
REMARK    6  A    between atoms: C7_7  and  O8_8 
REMARK    7  A    between atoms: O8_8  and  N9_9 
REMARK    8  A    between atoms: O12_12  and  N13_13 
ROOT
ATOM      1  C6  ZIN A   1      19.030  -1.982   8.378  0.00  0.00     0.211 C 
ENDROOT
BRANCH   1   2
ATOM      2  C5  ZIN A   1      19.105  -2.832   9.647  0.00  0.00     0.245 C 
BRANCH   2   3
ATOM      3  O4  ZIN A   1      17.810  -2.914  10.245  0.00  0.00    -0.219 OA
BRANCH   3   4
ATOM      4  N2  ZIN A   1      17.758  -2.437  11.577  0.00  0.00     0.005 N 
ATOM      5  O1  ZIN A   1      17.006  -1.524  11.868  0.00  0.00    -0.511 OA
ATOM      6  O3  ZIN A   1      18.461  -2.942  12.434  0.00  0.00    -0.511 OA
ENDBRANCH   3   4
ENDBRANCH   2   3
ENDBRANCH   1   2
BRANCH   1   7
ATOM      7  C7  ZIN A   1      18.816  -2.890   7.166  0.00  0.00     0.245 C 
BRANCH   7   8
ATOM      8  O8  ZIN A   1      19.835  -2.639   6.197  0.00  0.00    -0.219 OA
BRANCH   8   9
ATOM      9  N9  ZIN A   1      19.386  -1.916   5.065  0.00  0.00     0.005 N 
ATOM     10  O10 ZIN A   1      18.384  -2.271   4.472  0.00  0.00    -0.511 OA
ATOM     11  O11 ZIN A   1      20.005  -0.938   4.684  0.00  0.00    -0.511 OA
ENDBRANCH   8   9
ENDBRANCH   7   8
ENDBRANCH   1   7
BRANCH   1  12
ATOM     12  O12 ZIN A   1      17.940  -1.064   8.484  0.00  0.00    -0.211 OA
BRANCH  12  13
ATOM     13  N13 ZIN A   1      17.918  -0.075   7.471  0.00  0.00     0.005 N 
ATOM     14  O14 ZIN A   1      18.858   0.690   7.347  0.00  0.00    -0.511 OA
ATOM     15  O15 ZIN A   1      16.960   0.011   6.724  0.00  0.00    -0.511 OA
ENDBRANCH  12  13
ENDBRANCH   1  12
TORSDOF 8
ENDMDL
