MODEL 1
REMARK VINA RESULT:      -7.1      0.000      0.000
REMARK  7 active torsions:
REMARK  status: ('A' for Active; 'I' for Inactive)
REMARK    1  A    between atoms: C2_2  and  N3_3 
REMARK    2  A    between atoms: N3_3  and  C4_4 
REMARK       I    between atoms: N3_3  and  C11_11 
REMARK    3  A    between atoms: C4_4  and  C5_5 
REMARK    4  A    between atoms: C11_11  and  C13_13 
REMARK    5  A    between atoms: C13_13  and  C15_14 
REMARK    6  A    between atoms: C13_13  and  C17_16 
REMARK    7  A    between atoms: C15_14  and  O16_15 
ROOT
ATOM      1  N3  ZIN A   1      18.632  -0.631  12.074  0.00  0.00    -0.348 N 
ATOM      2  C11 ZIN A   1      19.272   0.014  11.078  0.00  0.00     0.230 C 
ATOM      3  O12 ZIN A   1      20.345  -0.392  10.684  0.00  0.00    -0.273 OA
ENDROOT
BRANCH   2   4
ATOM      4  C13 ZIN A   1      18.653   1.237  10.452  0.00  0.00     0.134 C 
BRANCH   4   5
ATOM      5  C15 ZIN A   1      19.590   2.433  10.634  0.00  0.00     0.182 C 
BRANCH   5   6
ATOM      6  O16 ZIN A   1      20.434   2.210  11.766  0.00  0.00    -0.400 OA
ATOM      7  H36 ZIN A   1      19.976   1.831  12.529  0.00  0.00     0.209 HD
ENDBRANCH   5   6
ENDBRANCH   4   5
BRANCH   4   8
ATOM      8  C17 ZIN A   1      18.433   0.991   8.981  0.00  0.00    -0.043 A 
ATOM      9  C22 ZIN A   1      17.474   0.086   8.568  0.00  0.00     0.008 A 
ATOM     10  C21 ZIN A   1      17.268  -0.136   7.220  0.00  0.00     0.001 A 
ATOM     11  C20 ZIN A   1      18.028   0.540   6.284  0.00  0.00     0.000 A 
ATOM     12  C19 ZIN A   1      18.991   1.443   6.697  0.00  0.00     0.001 A 
ATOM     13  C18 ZIN A   1      19.193   1.668   8.046  0.00  0.00     0.008 A 
ENDBRANCH   4   8
ENDBRANCH   2   4
BRANCH   1  14
ATOM     14  C2  ZIN A   1      17.312  -0.172  12.514  0.00  0.00     0.121 C 
ATOM     15  C1  ZIN A   1      17.442   0.536  13.864  0.00  0.00     0.026 C 
ENDBRANCH   1  14
BRANCH   1  16
ATOM     16  C4  ZIN A   1      19.257  -1.789  12.717  0.00  0.00     0.164 C 
BRANCH  16  17
ATOM     17  C5  ZIN A   1      18.957  -3.030  11.916  0.00  0.00    -0.037 A 
ATOM     18  C10 ZIN A   1      17.656  -3.491  11.784  0.00  0.00     0.028 A 
ATOM     19  C9  ZIN A   1      17.416  -4.629  11.037  0.00  0.00     0.116 A 
ATOM     20  N8  ZIN A   1      18.409  -5.281  10.465  0.00  0.00    -0.273 NA
ATOM     21  C7  ZIN A   1      19.659  -4.875  10.574  0.00  0.00     0.116 A 
ATOM     22  C6  ZIN A   1      19.974  -3.741  11.299  0.00  0.00     0.028 A 
ENDBRANCH  16  17
ENDBRANCH   1  16
TORSDOF 7
ENDMDL
MODEL 2
REMARK VINA RESULT:      -7.0      2.586      6.953
REMARK  7 active torsions:
REMARK  status: ('A' for Active; 'I' for Inactive)
REMARK    1  A    between atoms: C2_2  and  N3_3 
REMARK    2  A    between atoms: N3_3  and  C4_4 
REMARK       I    between atoms: N3_3  and  C11_11 
REMARK    3  A    between atoms: C4_4  and  C5_5 
REMARK    4  A    between atoms: C11_11  and  C13_13 
REMARK    5  A    between atoms: C13_13  and  C15_14 
REMARK    6  A    between atoms: C13_13  and  C17_16 
REMARK    7  A    between atoms: C15_14  and  O16_15 
ROOT
ATOM      1  N3  ZIN A   1      18.660   0.938  11.270  0.00  0.00    -0.348 N 
ATOM      2  C11 ZIN A   1      19.327   0.231  12.204  0.00  0.00     0.230 C 
ATOM      3  O12 ZIN A   1      20.395   0.630  12.619  0.00  0.00    -0.273 OA
ENDROOT
BRANCH   2   4
ATOM      4  C13 ZIN A   1      18.745  -1.054  12.734  0.00  0.00     0.134 C 
BRANCH   4   5
ATOM      5  C15 ZIN A   1      19.713  -2.206  12.455  0.00  0.00     0.182 C 
BRANCH   5   6
ATOM      6  O16 ZIN A   1      20.508  -1.895  11.310  0.00  0.00    -0.400 OA
ATOM      7  H36 ZIN A   1      20.073  -2.083  10.466  0.00  0.00     0.209 HD
ENDBRANCH   5   6
ENDBRANCH   4   5
BRANCH   4   8
ATOM      8  C17 ZIN A   1      18.526  -0.931  14.220  0.00  0.00    -0.043 A 
ATOM      9  C22 ZIN A   1      17.547  -0.085  14.706  0.00  0.00     0.008 A 
ATOM     10  C21 ZIN A   1      17.342   0.026  16.068  0.00  0.00     0.001 A 
ATOM     11  C20 ZIN A   1      18.124  -0.703  16.946  0.00  0.00     0.000 A 
ATOM     12  C19 ZIN A   1      19.106  -1.547  16.460  0.00  0.00     0.001 A 
ATOM     13  C18 ZIN A   1      19.308  -1.660  15.097  0.00  0.00     0.008 A 
ENDBRANCH   4   8
ENDBRANCH   2   4
BRANCH   1  14
ATOM     14  C2  ZIN A   1      17.347   0.484  10.807  0.00  0.00     0.121 C 
ATOM     15  C1  ZIN A   1      17.428   0.116   9.323  0.00  0.00     0.026 C 
ENDBRANCH   1  14
BRANCH   1  16
ATOM     16  C4  ZIN A   1      19.250   2.159  10.717  0.00  0.00     0.164 C 
BRANCH  16  17
ATOM     17  C5  ZIN A   1      18.415   3.347  11.122  0.00  0.00    -0.037 A 
ATOM     18  C10 ZIN A   1      17.828   4.160  10.165  0.00  0.00     0.028 A 
ATOM     19  C9  ZIN A   1      17.064   5.238  10.572  0.00  0.00     0.116 A 
ATOM     20  N8  ZIN A   1      16.899   5.501  11.854  0.00  0.00    -0.273 NA
ATOM     21  C7  ZIN A   1      17.447   4.753  12.791  0.00  0.00     0.116 A 
ATOM     22  C6  ZIN A   1      18.219   3.655  12.459  0.00  0.00     0.028 A 
ENDBRANCH  16  17
ENDBRANCH   1  16
TORSDOF 7
ENDMDL
MODEL 3
REMARK VINA RESULT:      -7.0      2.030      3.938
REMARK  7 active torsions:
REMARK  status: ('A' for Active; 'I' for Inactive)
REMARK    1  A    between atoms: C2_2  and  N3_3 
REMARK    2  A    between atoms: N3_3  and  C4_4 
REMARK       I    between atoms: N3_3  and  C11_11 
REMARK    3  A    between atoms: C4_4  and  C5_5 
REMARK    4  A    between atoms: C11_11  and  C13_13 
REMARK    5  A    between atoms: C13_13  and  C15_14 
REMARK    6  A    between atoms: C13_13  and  C17_16 
REMARK    7  A    between atoms: C15_14  and  O16_15 
ROOT
ATOM      1  N3  ZIN A   1      18.603  -0.146  12.231  0.00  0.00    -0.348 N 
ATOM      2  C11 ZIN A   1      18.814   0.947  11.469  0.00  0.00     0.230 C 
ATOM      3  O12 ZIN A   1      19.891   1.504  11.493  0.00  0.00    -0.273 OA
ENDROOT
BRANCH   2   4
ATOM      4  C13 ZIN A   1      17.712   1.474  10.587  0.00  0.00     0.134 C 
BRANCH   4   5
ATOM      5  C15 ZIN A   1      17.652   2.999  10.702  0.00  0.00     0.182 C 
BRANCH   5   6
ATOM      6  O16 ZIN A   1      17.539   3.369  12.077  0.00  0.00    -0.400 OA
ATOM      7  H36 ZIN A   1      17.975   2.758  12.687  0.00  0.00     0.209 HD
ENDBRANCH   5   6
ENDBRANCH   4   5
BRANCH   4   8
ATOM      8  C17 ZIN A   1      17.987   1.089   9.156  0.00  0.00    -0.043 A 
ATOM      9  C22 ZIN A   1      18.883   1.824   8.403  0.00  0.00     0.008 A 
ATOM     10  C21 ZIN A   1      19.139   1.469   7.092  0.00  0.00     0.001 A 
ATOM     11  C20 ZIN A   1      18.491   0.384   6.531  0.00  0.00     0.000 A 
ATOM     12  C19 ZIN A   1      17.591  -0.349   7.283  0.00  0.00     0.001 A 
ATOM     13  C18 ZIN A   1      17.339   0.004   8.596  0.00  0.00     0.008 A 
ENDBRANCH   4   8
ENDBRANCH   2   4
BRANCH   1  14
ATOM     14  C2  ZIN A   1      17.320  -0.849  12.163  0.00  0.00     0.121 C 
ATOM     15  C1  ZIN A   1      17.544  -2.266  11.628  0.00  0.00     0.026 C 
ENDBRANCH   1  14
BRANCH   1  16
ATOM     16  C4  ZIN A   1      19.657  -0.628  13.127  0.00  0.00     0.164 C 
BRANCH  16  17
ATOM     17  C5  ZIN A   1      19.294  -0.298  14.552  0.00  0.00    -0.037 A 
ATOM     18  C10 ZIN A   1      18.999  -1.304  15.459  0.00  0.00     0.028 A 
ATOM     19  C9  ZIN A   1      18.676  -0.965  16.760  0.00  0.00     0.116 A 
ATOM     20  N8  ZIN A   1      18.637   0.298  17.137  0.00  0.00    -0.273 NA
ATOM     21  C7  ZIN A   1      18.906   1.280  16.299  0.00  0.00     0.116 A 
ATOM     22  C6  ZIN A   1      19.243   1.018  14.985  0.00  0.00     0.028 A 
ENDBRANCH  16  17
ENDBRANCH   1  16
TORSDOF 7
ENDMDL
MODEL 4
REMARK VINA RESULT:      -6.8      2.303      5.949
REMARK  7 active torsions:
REMARK  status: ('A' for Active; 'I' for Inactive)
REMARK    1  A    between atoms: C2_2  and  N3_3 
REMARK    2  A    between atoms: N3_3  and  C4_4 
REMARK       I    between atoms: N3_3  and  C11_11 
REMARK    3  A    between atoms: C4_4  and  C5_5 
REMARK    4  A    between atoms: C11_11  and  C13_13 
REMARK    5  A    between atoms: C13_13  and  C15_14 
REMARK    6  A    between atoms: C13_13  and  C17_16 
REMARK    7  A    between atoms: C15_14  and  O16_15 
ROOT
ATOM      1  N3  ZIN A   1      18.058  -0.482  11.101  0.00  0.00    -0.348 N 
ATOM      2  C11 ZIN A   1      18.439   0.256  12.163  0.00  0.00     0.230 C 
ATOM      3  O12 ZIN A   1      17.886   1.309  12.399  0.00  0.00    -0.273 OA
ENDROOT
BRANCH   2   4
ATOM      4  C13 ZIN A   1      19.549  -0.230  13.058  0.00  0.00     0.134 C 
BRANCH   4   5
ATOM      5  C15 ZIN A   1      20.733   0.735  12.972  0.00  0.00     0.182 C 
BRANCH   5   6
ATOM      6  O16 ZIN A   1      21.592   0.341  11.901  0.00  0.00    -0.400 OA
ATOM      7  H36 ZIN A   1      22.527   0.286  12.146  0.00  0.00     0.209 HD
ENDBRANCH   5   6
ENDBRANCH   4   5
BRANCH   4   8
ATOM      8  C17 ZIN A   1      19.055  -0.293  14.481  0.00  0.00    -0.043 A 
ATOM      9  C22 ZIN A   1      18.451  -1.443  14.953  0.00  0.00     0.008 A 
ATOM     10  C21 ZIN A   1      18.002  -1.503  16.258  0.00  0.00     0.001 A 
ATOM     11  C20 ZIN A   1      18.149  -0.409  17.091  0.00  0.00     0.000 A 
ATOM     12  C19 ZIN A   1      18.750   0.744  16.618  0.00  0.00     0.001 A 
ATOM     13  C18 ZIN A   1      19.202   0.802  15.313  0.00  0.00     0.008 A 
ENDBRANCH   4   8
ENDBRANCH   2   4
BRANCH   1  14
ATOM     14  C2  ZIN A   1      18.690  -1.779  10.846  0.00  0.00     0.121 C 
ATOM     15  C1  ZIN A   1      17.646  -2.890  10.984  0.00  0.00     0.026 C 
ENDBRANCH   1  14
BRANCH   1  16
ATOM     16  C4  ZIN A   1      17.014   0.014  10.201  0.00  0.00     0.164 C 
BRANCH  16  17
ATOM     17  C5  ZIN A   1      17.620   0.340   8.860  0.00  0.00    -0.037 A 
ATOM     18  C10 ZIN A   1      17.166  -0.282   7.707  0.00  0.00     0.028 A 
ATOM     19  C9  ZIN A   1      17.741   0.045   6.494  0.00  0.00     0.116 A 
ATOM     20  N8  ZIN A   1      18.717   0.929   6.427  0.00  0.00    -0.273 NA
ATOM     21  C7  ZIN A   1      19.178   1.536   7.504  0.00  0.00     0.116 A 
ATOM     22  C6  ZIN A   1      18.648   1.264   8.751  0.00  0.00     0.028 A 
ENDBRANCH  16  17
ENDBRANCH   1  16
TORSDOF 7
ENDMDL
MODEL 5
REMARK VINA RESULT:      -6.7      2.609      5.264
REMARK  7 active torsions:
REMARK  status: ('A' for Active; 'I' for Inactive)
REMARK    1  A    between atoms: C2_2  and  N3_3 
REMARK    2  A    between atoms: N3_3  and  C4_4 
REMARK       I    between atoms: N3_3  and  C11_11 
REMARK    3  A    between atoms: C4_4  and  C5_5 
REMARK    4  A    between atoms: C11_11  and  C13_13 
REMARK    5  A    between atoms: C13_13  and  C15_14 
REMARK    6  A    between atoms: C13_13  and  C17_16 
REMARK    7  A    between atoms: C15_14  and  O16_15 
ROOT
ATOM      1  N3  ZIN A   1      17.992   0.369   9.611  0.00  0.00    -0.348 N 
ATOM      2  C11 ZIN A   1      17.498   0.501  10.859  0.00  0.00     0.230 C 
ATOM      3  O12 ZIN A   1      16.400   0.061  11.126  0.00  0.00    -0.273 OA
ENDROOT
BRANCH   2   4
ATOM      4  C13 ZIN A   1      18.312   1.193  11.921  0.00  0.00     0.134 C 
BRANCH   4   5
ATOM      5  C15 ZIN A   1      17.658   2.531  12.274  0.00  0.00     0.182 C 
BRANCH   5   6
ATOM      6  O16 ZIN A   1      16.981   3.048  11.127  0.00  0.00    -0.400 OA
ATOM      7  H36 ZIN A   1      16.036   2.844  11.102  0.00  0.00     0.209 HD
ENDBRANCH   5   6
ENDBRANCH   4   5
BRANCH   4   8
ATOM      8  C17 ZIN A   1      18.374   0.325  13.152  0.00  0.00    -0.043 A 
ATOM      9  C22 ZIN A   1      19.172  -0.803  13.162  0.00  0.00     0.008 A 
ATOM     10  C21 ZIN A   1      19.233  -1.597  14.291  0.00  0.00     0.001 A 
ATOM     11  C20 ZIN A   1      18.487  -1.269  15.408  0.00  0.00     0.000 A 
ATOM     12  C19 ZIN A   1      17.684  -0.142  15.396  0.00  0.00     0.001 A 
ATOM     13  C18 ZIN A   1      17.628   0.654  14.268  0.00  0.00     0.008 A 
ENDBRANCH   4   8
ENDBRANCH   2   4
BRANCH   1  14
ATOM     14  C2  ZIN A   1      19.339   0.852   9.301  0.00  0.00     0.121 C 
ATOM     15  C1  ZIN A   1      19.243   2.174   8.536  0.00  0.00     0.026 C 
ENDBRANCH   1  14
BRANCH   1  16
ATOM     16  C4  ZIN A   1      17.180  -0.259   8.566  0.00  0.00     0.164 C 
BRANCH  16  17
ATOM     17  C5  ZIN A   1      18.054  -1.146   7.717  0.00  0.00    -0.037 A 
ATOM     18  C10 ZIN A   1      18.556  -2.337   8.219  0.00  0.00     0.028 A 
ATOM     19  C9  ZIN A   1      19.349  -3.129   7.411  0.00  0.00     0.116 A 
ATOM     20  N8  ZIN A   1      19.638  -2.757   6.179  0.00  0.00    -0.273 NA
ATOM     21  C7  ZIN A   1      19.183  -1.629   5.670  0.00  0.00     0.116 A 
ATOM     22  C6  ZIN A   1      18.378  -0.789   6.417  0.00  0.00     0.028 A 
ENDBRANCH  16  17
ENDBRANCH   1  16
TORSDOF 7
ENDMDL
MODEL 6
REMARK VINA RESULT:      -6.6      2.370      3.680
REMARK  7 active torsions:
REMARK  status: ('A' for Active; 'I' for Inactive)
REMARK    1  A    between atoms: C2_2  and  N3_3 
REMARK    2  A    between atoms: N3_3  and  C4_4 
REMARK       I    between atoms: N3_3  and  C11_11 
REMARK    3  A    between atoms: C4_4  and  C5_5 
REMARK    4  A    between atoms: C11_11  and  C13_13 
REMARK    5  A    between atoms: C13_13  and  C15_14 
REMARK    6  A    between atoms: C13_13  and  C17_16 
REMARK    7  A    between atoms: C15_14  and  O16_15 
ROOT
ATOM      1  N3  ZIN A   1      18.625  -0.096  11.709  0.00  0.00    -0.348 N 
ATOM      2  C11 ZIN A   1      18.023   0.881  11.003  0.00  0.00     0.230 C 
ATOM      3  O12 ZIN A   1      16.865   0.759  10.664  0.00  0.00    -0.273 OA
ENDROOT
BRANCH   2   4
ATOM      4  C13 ZIN A   1      18.788   2.126  10.636  0.00  0.00     0.134 C 
BRANCH   4   5
ATOM      5  C15 ZIN A   1      18.880   2.239   9.113  0.00  0.00     0.182 C 
BRANCH   5   6
ATOM      6  O16 ZIN A   1      20.033   1.534   8.651  0.00  0.00    -0.400 OA
ATOM      7  H36 ZIN A   1      20.234   1.677   7.716  0.00  0.00     0.209 HD
ENDBRANCH   5   6
ENDBRANCH   4   5
BRANCH   4   8
ATOM      8  C17 ZIN A   1      18.075   3.335  11.187  0.00  0.00    -0.043 A 
ATOM      9  C22 ZIN A   1      17.584   4.299  10.326  0.00  0.00     0.008 A 
ATOM     10  C21 ZIN A   1      16.926   5.404  10.830  0.00  0.00     0.001 A 
ATOM     11  C20 ZIN A   1      16.766   5.551  12.196  0.00  0.00     0.000 A 
ATOM     12  C19 ZIN A   1      17.261   4.589  13.057  0.00  0.00     0.001 A 
ATOM     13  C18 ZIN A   1      17.916   3.481  12.552  0.00  0.00     0.008 A 
ENDBRANCH   4   8
ENDBRANCH   2   4
BRANCH   1  14
ATOM     14  C2  ZIN A   1      20.008   0.073  12.163  0.00  0.00     0.121 C 
ATOM     15  C1  ZIN A   1      20.024   0.289  13.678  0.00  0.00     0.026 C 
ENDBRANCH   1  14
BRANCH   1  16
ATOM     16  C4  ZIN A   1      17.898  -1.329  12.021  0.00  0.00     0.164 C 
BRANCH  16  17
ATOM     17  C5  ZIN A   1      18.488  -2.473  11.238  0.00  0.00    -0.037 A 
ATOM     18  C10 ZIN A   1      19.281  -3.424  11.861  0.00  0.00     0.028 A 
ATOM     19  C9  ZIN A   1      19.801  -4.463  11.113  0.00  0.00     0.116 A 
ATOM     20  N8  ZIN A   1      19.560  -4.549   9.820  0.00  0.00    -0.273 NA
ATOM     21  C7  ZIN A   1      18.816  -3.659   9.193  0.00  0.00     0.116 A 
ATOM     22  C6  ZIN A   1      18.257  -2.596   9.877  0.00  0.00     0.028 A 
ENDBRANCH  16  17
ENDBRANCH   1  16
TORSDOF 7
ENDMDL
MODEL 7
REMARK VINA RESULT:      -6.6      2.476      5.596
REMARK  7 active torsions:
REMARK  status: ('A' for Active; 'I' for Inactive)
REMARK    1  A    between atoms: C2_2  and  N3_3 
REMARK    2  A    between atoms: N3_3  and  C4_4 
REMARK       I    between atoms: N3_3  and  C11_11 
REMARK    3  A    between atoms: C4_4  and  C5_5 
REMARK    4  A    between atoms: C11_11  and  C13_13 
REMARK    5  A    between atoms: C13_13  and  C15_14 
REMARK    6  A    between atoms: C13_13  and  C17_16 
REMARK    7  A    between atoms: C15_14  and  O16_15 
ROOT
ATOM      1  N3  ZIN A   1      18.415  -1.492  11.144  0.00  0.00    -0.348 N 
ATOM      2  C11 ZIN A   1      17.768  -0.610  11.931  0.00  0.00     0.230 C 
ATOM      3  O12 ZIN A   1      16.562  -0.506  11.861  0.00  0.00    -0.273 OA
ENDROOT
BRANCH   2   4
ATOM      4  C13 ZIN A   1      18.543   0.246  12.898  0.00  0.00     0.134 C 
BRANCH   4   5
ATOM      5  C15 ZIN A   1      18.112   1.707  12.746  0.00  0.00     0.182 C 
BRANCH   5   6
ATOM      6  O16 ZIN A   1      17.819   1.977  11.375  0.00  0.00    -0.400 OA
ATOM      7  H36 ZIN A   1      17.164   2.678  11.242  0.00  0.00     0.209 HD
ENDBRANCH   5   6
ENDBRANCH   4   5
BRANCH   4   8
ATOM      8  C17 ZIN A   1      18.270  -0.214  14.307  0.00  0.00    -0.043 A 
ATOM      9  C22 ZIN A   1      17.401   0.501  15.111  0.00  0.00     0.008 A 
ATOM     10  C21 ZIN A   1      17.147   0.077  16.401  0.00  0.00     0.001 A 
ATOM     11  C20 ZIN A   1      17.767  -1.057  16.892  0.00  0.00     0.000 A 
ATOM     12  C19 ZIN A   1      18.640  -1.769  16.089  0.00  0.00     0.001 A 
ATOM     13  C18 ZIN A   1      18.891  -1.347  14.797  0.00  0.00     0.008 A 
ENDBRANCH   4   8
ENDBRANCH   2   4
BRANCH   1  14
ATOM     14  C2  ZIN A   1      19.866  -1.655  11.264  0.00  0.00     0.121 C 
ATOM     15  C1  ZIN A   1      20.188  -3.107  11.622  0.00  0.00     0.026 C 
ENDBRANCH   1  14
BRANCH   1  16
ATOM     16  C4  ZIN A   1      17.668  -2.288  10.167  0.00  0.00     0.164 C 
BRANCH  16  17
ATOM     17  C5  ZIN A   1      17.962  -1.784   8.778  0.00  0.00    -0.037 A 
ATOM     18  C10 ZIN A   1      17.439  -0.578   8.335  0.00  0.00     0.028 A 
ATOM     19  C9  ZIN A   1      17.735  -0.144   7.057  0.00  0.00     0.116 A 
ATOM     20  N8  ZIN A   1      18.495  -0.868   6.258  0.00  0.00    -0.273 NA
ATOM     21  C7  ZIN A   1      19.004  -2.022   6.644  0.00  0.00     0.116 A 
ATOM     22  C6  ZIN A   1      18.757  -2.517   7.910  0.00  0.00     0.028 A 
ENDBRANCH  16  17
ENDBRANCH   1  16
TORSDOF 7
ENDMDL
MODEL 8
REMARK VINA RESULT:      -6.5      2.892      5.078
REMARK  7 active torsions:
REMARK  status: ('A' for Active; 'I' for Inactive)
REMARK    1  A    between atoms: C2_2  and  N3_3 
REMARK    2  A    between atoms: N3_3  and  C4_4 
REMARK       I    between atoms: N3_3  and  C11_11 
REMARK    3  A    between atoms: C4_4  and  C5_5 
REMARK    4  A    between atoms: C11_11  and  C13_13 
REMARK    5  A    between atoms: C13_13  and  C15_14 
REMARK    6  A    between atoms: C13_13  and  C17_16 
REMARK    7  A    between atoms: C15_14  and  O16_15 
ROOT
ATOM      1  N3  ZIN A   1      18.746   0.155  12.258  0.00  0.00    -0.348 N 
ATOM      2  C11 ZIN A   1      17.943   1.047  11.645  0.00  0.00     0.230 C 
ATOM      3  O12 ZIN A   1      16.739   0.908  11.686  0.00  0.00    -0.273 OA
ENDROOT
BRANCH   2   4
ATOM      4  C13 ZIN A   1      18.542   2.218  10.910  0.00  0.00     0.134 C 
BRANCH   4   5
ATOM      5  C15 ZIN A   1      18.260   2.080   9.413  0.00  0.00     0.182 C 
BRANCH   5   6
ATOM      6  O16 ZIN A   1      17.687   0.797   9.152  0.00  0.00    -0.400 OA
ATOM      7  H36 ZIN A   1      18.132   0.303   8.448  0.00  0.00     0.209 HD
ENDBRANCH   5   6
ENDBRANCH   4   5
BRANCH   4   8
ATOM      8  C17 ZIN A   1      17.928   3.497  11.420  0.00  0.00    -0.043 A 
ATOM      9  C22 ZIN A   1      17.992   3.806  12.766  0.00  0.00     0.008 A 
ATOM     10  C21 ZIN A   1      17.434   4.980  13.234  0.00  0.00     0.001 A 
ATOM     11  C20 ZIN A   1      16.803   5.843  12.357  0.00  0.00     0.000 A 
ATOM     12  C19 ZIN A   1      16.734   5.532  11.011  0.00  0.00     0.001 A 
ATOM     13  C18 ZIN A   1      17.297   4.359  10.543  0.00  0.00     0.008 A 
ENDBRANCH   4   8
ENDBRANCH   2   4
BRANCH   1  14
ATOM     14  C2  ZIN A   1      20.198   0.351  12.254  0.00  0.00     0.121 C 
ATOM     15  C1  ZIN A   1      20.824  -0.495  11.143  0.00  0.00     0.026 C 
ENDBRANCH   1  14
BRANCH   1  16
ATOM     16  C4  ZIN A   1      18.167  -1.012  12.928  0.00  0.00     0.164 C 
BRANCH  16  17
ATOM     17  C5  ZIN A   1      18.259  -0.830  14.421  0.00  0.00    -0.037 A 
ATOM     18  C10 ZIN A   1      19.110  -1.618  15.181  0.00  0.00     0.028 A 
ATOM     19  C9  ZIN A   1      19.173  -1.419  16.547  0.00  0.00     0.116 A 
ATOM     20  N8  ZIN A   1      18.427  -0.501  17.130  0.00  0.00    -0.273 NA
ATOM     21  C7  ZIN A   1      17.603   0.262  16.440  0.00  0.00     0.116 A 
ATOM     22  C6  ZIN A   1      17.491   0.125  15.069  0.00  0.00     0.028 A 
ENDBRANCH  16  17
ENDBRANCH   1  16
TORSDOF 7
ENDMDL
MODEL 9
REMARK VINA RESULT:      -6.4      2.078      3.503
REMARK  7 active torsions:
REMARK  status: ('A' for Active; 'I' for Inactive)
REMARK    1  A    between atoms: C2_2  and  N3_3 
REMARK    2  A    between atoms: N3_3  and  C4_4 
REMARK       I    between atoms: N3_3  and  C11_11 
REMARK    3  A    between atoms: C4_4  and  C5_5 
REMARK    4  A    between atoms: C11_11  and  C13_13 
REMARK    5  A    between atoms: C13_13  and  C15_14 
REMARK    6  A    between atoms: C13_13  and  C17_16 
REMARK    7  A    between atoms: C15_14  and  O16_15 
ROOT
ATOM      1  N3  ZIN A   1      18.822  -0.859  10.763  0.00  0.00    -0.348 N 
ATOM      2  C11 ZIN A   1      19.414  -0.148   9.783  0.00  0.00     0.230 C 
ATOM      3  O12 ZIN A   1      20.624  -0.123   9.697  0.00  0.00    -0.273 OA
ENDROOT
BRANCH   2   4
ATOM      4  C13 ZIN A   1      18.573   0.614   8.792  0.00  0.00     0.134 C 
BRANCH   4   5
ATOM      5  C15 ZIN A   1      18.952   2.096   8.834  0.00  0.00     0.182 C 
BRANCH   5   6
ATOM      6  O16 ZIN A   1      19.657   2.374  10.045  0.00  0.00    -0.400 OA
ATOM      7  H36 ZIN A   1      19.298   1.923  10.822  0.00  0.00     0.209 HD
ENDBRANCH   5   6
ENDBRANCH   4   5
BRANCH   4   8
ATOM      8  C17 ZIN A   1      18.815   0.073   7.406  0.00  0.00    -0.043 A 
ATOM      9  C22 ZIN A   1      19.029   0.942   6.352  0.00  0.00     0.008 A 
ATOM     10  C21 ZIN A   1      19.255   0.446   5.083  0.00  0.00     0.001 A 
ATOM     11  C20 ZIN A   1      19.259  -0.919   4.864  0.00  0.00     0.000 A 
ATOM     12  C19 ZIN A   1      19.041  -1.789   5.918  0.00  0.00     0.001 A 
ATOM     13  C18 ZIN A   1      18.819  -1.292   7.189  0.00  0.00     0.008 A 
ENDBRANCH   4   8
ENDBRANCH   2   4
BRANCH   1  14
ATOM     14  C2  ZIN A   1      17.361  -0.931  10.836  0.00  0.00     0.121 C 
ATOM     15  C1  ZIN A   1      16.821   0.322  11.528  0.00  0.00     0.026 C 
ENDBRANCH   1  14
BRANCH   1  16
ATOM     16  C4  ZIN A   1      19.640  -1.558  11.757  0.00  0.00     0.164 C 
BRANCH  16  17
ATOM     17  C5  ZIN A   1      19.424  -0.935  13.112  0.00  0.00    -0.037 A 
ATOM     18  C10 ZIN A   1      19.848   0.358  13.375  0.00  0.00     0.028 A 
ATOM     19  C9  ZIN A   1      19.629   0.899  14.628  0.00  0.00     0.116 A 
ATOM     20  N8  ZIN A   1      19.033   0.195  15.570  0.00  0.00    -0.273 NA
ATOM     21  C7  ZIN A   1      18.622  -1.040  15.358  0.00  0.00     0.116 A 
ATOM     22  C6  ZIN A   1      18.802  -1.644  14.128  0.00  0.00     0.028 A 
ENDBRANCH  16  17
ENDBRANCH   1  16
TORSDOF 7
ENDMDL
