MODEL 1
REMARK VINA RESULT:      -8.9      0.000      0.000
REMARK  13 active torsions:
REMARK  status: ('A' for Active; 'I' for Inactive)
REMARK    1  A    between atoms: C2_2  and  C3_3 
REMARK    2  A    between atoms: C3_3  and  C5_4 
REMARK    3  A    between atoms: C3_3  and  N9_7 
REMARK    4  A    between atoms: C5_4  and  O8_6 
REMARK    5  A    between atoms: N12_10  and  C13_11 
REMARK    6  A    between atoms: C16_14  and  N17_15 
REMARK    7  A    between atoms: N20_18  and  C21_19 
REMARK    8  A    between atoms: C24_22  and  O25_23 
REMARK    9  A    between atoms: O25_23  and  C26_24 
REMARK   10  A    between atoms: C26_24  and  C27_25 
REMARK   11  A    between atoms: C31_28  and  C32_29 
REMARK   12  A    between atoms: C31_28  and  C38_35 
REMARK   13  A    between atoms: C32_29  and  N33_30 
ROOT
ATOM      1  C21 ZIN A   1      18.263   0.164  15.353  0.00  0.00     0.010 A 
ATOM      2  C22 ZIN A   1      17.422   0.104  16.455  0.00  0.00     0.026 A 
ATOM      3  C23 ZIN A   1      17.548   1.032  17.471  0.00  0.00     0.038 A 
ATOM      4  C24 ZIN A   1      18.515   2.023  17.388  0.00  0.00     0.068 A 
ATOM      5  C47 ZIN A   1      19.356   2.084  16.288  0.00  0.00     0.038 A 
ATOM      6  C48 ZIN A   1      19.235   1.154  15.274  0.00  0.00     0.026 A 
ENDROOT
BRANCH   1   7
ATOM      7  N20 ZIN A   1      18.137  -0.777  14.324  0.00  0.00    -0.281 NA
ATOM      8  C19 ZIN A   1      19.442  -1.360  13.981  0.00  0.00     0.110 C 
ATOM      9  C18 ZIN A   1      19.250  -2.438  12.911  0.00  0.00     0.110 C 
ATOM     10  N17 ZIN A   1      18.614  -1.843  11.728  0.00  0.00    -0.281 NA
ATOM     11  C50 ZIN A   1      17.309  -1.260  12.071  0.00  0.00     0.110 C 
ATOM     12  C49 ZIN A   1      17.501  -0.182  13.141  0.00  0.00     0.110 C 
BRANCH  10  13
ATOM     13  C16 ZIN A   1      18.488  -2.783  10.700  0.00  0.00     0.010 A 
ATOM     14  C15 ZIN A   1      18.312  -2.360   9.390  0.00  0.00     0.026 A 
ATOM     15  C14 ZIN A   1      18.188  -3.289   8.376  0.00  0.00     0.032 A 
ATOM     16  C13 ZIN A   1      18.238  -4.645   8.667  0.00  0.00     0.045 A 
ATOM     17  C52 ZIN A   1      18.409  -5.069   9.978  0.00  0.00     0.032 A 
ATOM     18  C51 ZIN A   1      18.539  -4.140  10.992  0.00  0.00     0.026 A 
BRANCH  16  19
ATOM     19  N12 ZIN A   1      18.110  -5.590   7.636  0.00  0.00    -0.256 N 
ATOM     20  C11 ZIN A   1      19.071  -5.900   6.703  0.00  0.00     0.242 A 
ATOM     21  N10 ZIN A   1      18.605  -6.812   5.911  0.00  0.00    -0.162 NA
ATOM     22  N9  ZIN A   1      17.301  -7.121   6.322  0.00  0.00    -0.211 N 
ATOM     23  C53 ZIN A   1      17.020  -6.344   7.388  0.00  0.00     0.351 A 
ATOM     24  O54 ZIN A   1      15.976  -6.331   8.017  0.00  0.00    -0.244 OA
BRANCH  22  25
ATOM     25  C3  ZIN A   1      16.406  -8.102   5.702  0.00  0.00     0.143 C 
BRANCH  25  26
ATOM     26  C2  ZIN A   1      16.594  -8.077   4.184  0.00  0.00     0.025 C 
ATOM     27  C1  ZIN A   1      15.817  -6.898   3.593  0.00  0.00     0.007 C 
ENDBRANCH  25  26
BRANCH  25  28
ATOM     28  C5  ZIN A   1      16.733  -9.498   6.234  0.00  0.00     0.139 C 
ATOM     29  C7  ZIN A   1      15.738  -9.871   7.334  0.00  0.00     0.041 C 
BRANCH  28  30
ATOM     30  O8  ZIN A   1      18.059  -9.505   6.769  0.00  0.00    -0.394 OA
ATOM     31  H63 ZIN A   1      18.745  -9.302   6.120  0.00  0.00     0.210 HD
ENDBRANCH  28  30
ENDBRANCH  25  28
ENDBRANCH  22  25
ENDBRANCH  16  19
ENDBRANCH  10  13
ENDBRANCH   1   7
BRANCH   4  32
ATOM     32  O25 ZIN A   1      18.637   2.937  18.388  0.00  0.00    -0.351 OA
BRANCH  32  33
ATOM     33  C26 ZIN A   1      18.328   4.296  18.068  0.00  0.00     0.182 C 
BRANCH  33  34
ATOM     34  C27 ZIN A   1      18.746   4.587  16.625  0.00  0.00     0.037 C 
ATOM     35  C46 ZIN A   1      17.506   4.829  15.729  0.00  0.00     0.054 C 
ATOM     36  C31 ZIN A   1      17.918   6.008  14.826  0.00  0.00     0.109 C 
ATOM     37  O30 ZIN A   1      19.276   6.346  15.158  0.00  0.00    -0.373 OA
ATOM     38  C29 ZIN A   1      19.488   5.944  16.528  0.00  0.00     0.176 C 
BRANCH  36  39
ATOM     39  C32 ZIN A   1      17.006   7.207  15.086  0.00  0.00     0.195 C 
BRANCH  39  40
ATOM     40  N33 ZIN A   1      15.936   6.817  16.007  0.00  0.00    -0.259 N 
ATOM     41  N37 ZIN A   1      15.992   6.813  17.411  0.00  0.00    -0.165 NA
ATOM     42  C36 ZIN A   1      14.828   6.401  17.835  0.00  0.00     0.256 A 
ATOM     43  N35 ZIN A   1      14.052   6.138  16.784  0.00  0.00    -0.234 NA
ATOM     44  C34 ZIN A   1      14.706   6.385  15.678  0.00  0.00     0.230 A 
ENDBRANCH  39  40
ENDBRANCH  36  39
BRANCH  36  45
ATOM     45  C38 ZIN A   1      17.831   5.602  13.377  0.00  0.00     0.017 A 
ATOM     46  C44 ZIN A   1      18.842   4.846  12.809  0.00  0.00     0.128 A 
ATOM     47  C43 ZIN A   1      18.760   4.468  11.479  0.00  0.00     0.085 A 
ATOM     48  F45 ZIN A   1      19.904   4.468  13.554  0.00  0.00    -0.205 F 
ATOM     49  C41 ZIN A   1      17.672   4.856  10.717  0.00  0.00     0.119 A 
ATOM     50  C40 ZIN A   1      16.664   5.616  11.287  0.00  0.00     0.043 A 
ATOM     51  F42 ZIN A   1      17.592   4.493   9.419  0.00  0.00    -0.206 F 
ATOM     52  C39 ZIN A   1      16.745   5.989  12.615  0.00  0.00     0.016 A 
ENDBRANCH  36  45
ENDBRANCH  33  34
ENDBRANCH  32  33
ENDBRANCH   4  32
TORSDOF 13
ENDMDL
MODEL 2
REMARK VINA RESULT:      -8.8      2.829     13.217
REMARK  13 active torsions:
REMARK  status: ('A' for Active; 'I' for Inactive)
REMARK    1  A    between atoms: C2_2  and  C3_3 
REMARK    2  A    between atoms: C3_3  and  C5_4 
REMARK    3  A    between atoms: C3_3  and  N9_7 
REMARK    4  A    between atoms: C5_4  and  O8_6 
REMARK    5  A    between atoms: N12_10  and  C13_11 
REMARK    6  A    between atoms: C16_14  and  N17_15 
REMARK    7  A    between atoms: N20_18  and  C21_19 
REMARK    8  A    between atoms: C24_22  and  O25_23 
REMARK    9  A    between atoms: O25_23  and  C26_24 
REMARK   10  A    between atoms: C26_24  and  C27_25 
REMARK   11  A    between atoms: C31_28  and  C32_29 
REMARK   12  A    between atoms: C31_28  and  C38_35 
REMARK   13  A    between atoms: C32_29  and  N33_30 
ROOT
ATOM      1  C21 ZIN A   1      18.652  -2.805  12.204  0.00  0.00     0.010 A 
ATOM      2  C22 ZIN A   1      17.604  -3.642  11.850  0.00  0.00     0.026 A 
ATOM      3  C23 ZIN A   1      17.845  -4.764  11.080  0.00  0.00     0.038 A 
ATOM      4  C24 ZIN A   1      19.136  -5.053  10.663  0.00  0.00     0.068 A 
ATOM      5  C47 ZIN A   1      20.185  -4.217  11.016  0.00  0.00     0.038 A 
ATOM      6  C48 ZIN A   1      19.944  -3.092  11.781  0.00  0.00     0.026 A 
ENDROOT
BRANCH   1   7
ATOM      7  N20 ZIN A   1      18.407  -1.668  12.983  0.00  0.00    -0.281 NA
ATOM      8  C19 ZIN A   1      18.257  -0.474  12.139  0.00  0.00     0.110 C 
ATOM      9  C18 ZIN A   1      17.913   0.730  13.019  0.00  0.00     0.110 C 
ATOM     10  N17 ZIN A   1      18.973   0.923  14.018  0.00  0.00    -0.281 NA
ATOM     11  C50 ZIN A   1      19.121  -0.270  14.862  0.00  0.00     0.110 C 
ATOM     12  C49 ZIN A   1      19.467  -1.475  13.981  0.00  0.00     0.110 C 
BRANCH  10  13
ATOM     13  C16 ZIN A   1      18.728   2.060  14.796  0.00  0.00     0.010 A 
ATOM     14  C15 ZIN A   1      19.177   2.113  16.108  0.00  0.00     0.026 A 
ATOM     15  C14 ZIN A   1      18.935   3.235  16.875  0.00  0.00     0.032 A 
ATOM     16  C13 ZIN A   1      18.241   4.309  16.335  0.00  0.00     0.045 A 
ATOM     17  C52 ZIN A   1      17.786   4.253  15.024  0.00  0.00     0.032 A 
ATOM     18  C51 ZIN A   1      18.034   3.134  14.255  0.00  0.00     0.026 A 
BRANCH  16  19
ATOM     19  N12 ZIN A   1      17.993   5.449  17.115  0.00  0.00    -0.256 N 
ATOM     20  C11 ZIN A   1      18.439   6.721  16.848  0.00  0.00     0.242 A 
ATOM     21  N10 ZIN A   1      18.020   7.516  17.780  0.00  0.00    -0.162 NA
ATOM     22  N9  ZIN A   1      17.274   6.759  18.695  0.00  0.00    -0.211 N 
ATOM     23  C53 ZIN A   1      17.281   5.482  18.260  0.00  0.00     0.351 A 
ATOM     24  O54 ZIN A   1      16.737   4.533  18.799  0.00  0.00    -0.244 OA
BRANCH  22  25
ATOM     25  C3  ZIN A   1      16.617   7.261  19.904  0.00  0.00     0.143 C 
BRANCH  25  26
ATOM     26  C2  ZIN A   1      17.432   8.419  20.485  0.00  0.00     0.025 C 
ATOM     27  C1  ZIN A   1      16.492   9.566  20.861  0.00  0.00     0.007 C 
ENDBRANCH  25  26
BRANCH  25  28
ATOM     28  C5  ZIN A   1      15.211   7.752  19.553  0.00  0.00     0.139 C 
ATOM     29  C7  ZIN A   1      14.178   6.745  20.061  0.00  0.00     0.041 C 
BRANCH  28  30
ATOM     30  O8  ZIN A   1      15.092   7.882  18.135  0.00  0.00    -0.394 OA
ATOM     31  H63 ZIN A   1      15.656   8.569  17.755  0.00  0.00     0.210 HD
ENDBRANCH  28  30
ENDBRANCH  25  28
ENDBRANCH  22  25
ENDBRANCH  16  19
ENDBRANCH  10  13
ENDBRANCH   1   7
BRANCH   4  32
ATOM     32  O25 ZIN A   1      19.374  -6.157   9.906  0.00  0.00    -0.351 OA
BRANCH  32  33
ATOM     33  C26 ZIN A   1      19.342  -5.991   8.486  0.00  0.00     0.182 C 
BRANCH  33  34
ATOM     34  C27 ZIN A   1      18.667  -4.662   8.144  0.00  0.00     0.037 C 
ATOM     35  C46 ZIN A   1      19.558  -3.817   7.200  0.00  0.00     0.054 C 
ATOM     36  C31 ZIN A   1      18.567  -3.214   6.186  0.00  0.00     0.109 C 
ATOM     37  O30 ZIN A   1      17.249  -3.642   6.570  0.00  0.00    -0.373 OA
ATOM     38  C29 ZIN A   1      17.402  -4.890   7.280  0.00  0.00     0.176 C 
BRANCH  36  39
ATOM     39  C32 ZIN A   1      18.888  -3.719   4.779  0.00  0.00     0.195 C 
BRANCH  39  40
ATOM     40  N33 ZIN A   1      17.647  -4.099   4.100  0.00  0.00    -0.259 N 
ATOM     41  N37 ZIN A   1      17.223  -5.401   3.788  0.00  0.00    -0.165 NA
ATOM     42  C36 ZIN A   1      16.066  -5.289   3.192  0.00  0.00     0.256 A 
ATOM     43  N35 ZIN A   1      15.746  -3.999   3.105  0.00  0.00    -0.234 NA
ATOM     44  C34 ZIN A   1      16.690  -3.271   3.648  0.00  0.00     0.230 A 
ENDBRANCH  39  40
ENDBRANCH  36  39
BRANCH  36  45
ATOM     45  C38 ZIN A   1      18.647  -1.709   6.221  0.00  0.00     0.017 A 
ATOM     46  C44 ZIN A   1      18.107  -1.012   7.290  0.00  0.00     0.128 A 
ATOM     47  C43 ZIN A   1      18.185   0.369   7.326  0.00  0.00     0.085 A 
ATOM     48  F45 ZIN A   1      17.515  -1.682   8.303  0.00  0.00    -0.205 F 
ATOM     49  C41 ZIN A   1      18.792   1.054   6.287  0.00  0.00     0.119 A 
ATOM     50  C40 ZIN A   1      19.326   0.355   5.217  0.00  0.00     0.043 A 
ATOM     51  F42 ZIN A   1      18.864   2.402   6.316  0.00  0.00    -0.206 F 
ATOM     52  C39 ZIN A   1      19.252  -1.024   5.185  0.00  0.00     0.016 A 
ENDBRANCH  36  45
ENDBRANCH  33  34
ENDBRANCH  32  33
ENDBRANCH   4  32
TORSDOF 13
ENDMDL
MODEL 3
REMARK VINA RESULT:      -8.3      2.811     13.233
REMARK  13 active torsions:
REMARK  status: ('A' for Active; 'I' for Inactive)
REMARK    1  A    between atoms: C2_2  and  C3_3 
REMARK    2  A    between atoms: C3_3  and  C5_4 
REMARK    3  A    between atoms: C3_3  and  N9_7 
REMARK    4  A    between atoms: C5_4  and  O8_6 
REMARK    5  A    between atoms: N12_10  and  C13_11 
REMARK    6  A    between atoms: C16_14  and  N17_15 
REMARK    7  A    between atoms: N20_18  and  C21_19 
REMARK    8  A    between atoms: C24_22  and  O25_23 
REMARK    9  A    between atoms: O25_23  and  C26_24 
REMARK   10  A    between atoms: C26_24  and  C27_25 
REMARK   11  A    between atoms: C31_28  and  C32_29 
REMARK   12  A    between atoms: C31_28  and  C38_35 
REMARK   13  A    between atoms: C32_29  and  N33_30 
ROOT
ATOM      1  C21 ZIN A   1      18.764  -3.291  11.254  0.00  0.00     0.010 A 
ATOM      2  C22 ZIN A   1      19.963  -3.783  10.757  0.00  0.00     0.026 A 
ATOM      3  C23 ZIN A   1      19.974  -4.935   9.994  0.00  0.00     0.038 A 
ATOM      4  C24 ZIN A   1      18.786  -5.599   9.725  0.00  0.00     0.068 A 
ATOM      5  C47 ZIN A   1      17.587  -5.109  10.221  0.00  0.00     0.038 A 
ATOM      6  C48 ZIN A   1      17.576  -3.961  10.989  0.00  0.00     0.026 A 
ENDROOT
BRANCH   1   7
ATOM      7  N20 ZIN A   1      18.752  -2.125  12.028  0.00  0.00    -0.281 NA
ATOM      8  C19 ZIN A   1      17.396  -1.566  12.118  0.00  0.00     0.110 C 
ATOM      9  C18 ZIN A   1      17.412  -0.341  13.035  0.00  0.00     0.110 C 
ATOM     10  N17 ZIN A   1      18.355   0.653  12.505  0.00  0.00    -0.281 NA
ATOM     11  C50 ZIN A   1      19.711   0.094  12.417  0.00  0.00     0.110 C 
ATOM     12  C49 ZIN A   1      19.695  -1.132  11.499  0.00  0.00     0.110 C 
BRANCH  10  13
ATOM     13  C16 ZIN A   1      18.343   1.818  13.279  0.00  0.00     0.010 A 
ATOM     14  C15 ZIN A   1      18.769   3.021  12.731  0.00  0.00     0.026 A 
ATOM     15  C14 ZIN A   1      18.757   4.170  13.496  0.00  0.00     0.032 A 
ATOM     16  C13 ZIN A   1      18.320   4.123  14.812  0.00  0.00     0.045 A 
ATOM     17  C52 ZIN A   1      17.900   2.920  15.363  0.00  0.00     0.032 A 
ATOM     18  C51 ZIN A   1      17.906   1.771  14.596  0.00  0.00     0.026 A 
BRANCH  16  19
ATOM     19  N12 ZIN A   1      18.309   5.291  15.590  0.00  0.00    -0.256 N 
ATOM     20  C11 ZIN A   1      19.414   5.934  16.095  0.00  0.00     0.242 A 
ATOM     21  N10 ZIN A   1      19.026   6.973  16.762  0.00  0.00    -0.162 NA
ATOM     22  N9  ZIN A   1      17.626   7.029  16.704  0.00  0.00    -0.211 N 
ATOM     23  C53 ZIN A   1      17.211   5.972  15.977  0.00  0.00     0.351 A 
ATOM     24  O54 ZIN A   1      16.055   5.687  15.712  0.00  0.00    -0.244 OA
BRANCH  22  25
ATOM     25  C3  ZIN A   1      16.773   8.046  17.325  0.00  0.00     0.143 C 
BRANCH  25  26
ATOM     26  C2  ZIN A   1      17.223   8.278  18.769  0.00  0.00     0.025 C 
ATOM     27  C1  ZIN A   1      16.311   9.315  19.427  0.00  0.00     0.007 C 
ENDBRANCH  25  26
BRANCH  25  28
ATOM     28  C5  ZIN A   1      16.883   9.354  16.539  0.00  0.00     0.139 C 
ATOM     29  C7  ZIN A   1      16.089   9.236  15.238  0.00  0.00     0.041 C 
BRANCH  28  30
ATOM     30  O8  ZIN A   1      18.256   9.613  16.238  0.00  0.00    -0.394 OA
ATOM     31  H63 ZIN A   1      18.407  10.453  15.785  0.00  0.00     0.210 HD
ENDBRANCH  28  30
ENDBRANCH  25  28
ENDBRANCH  22  25
ENDBRANCH  16  19
ENDBRANCH  10  13
ENDBRANCH   1   7
BRANCH   4  32
ATOM     32  O25 ZIN A   1      18.798  -6.732   8.973  0.00  0.00    -0.351 OA
BRANCH  32  33
ATOM     33  C26 ZIN A   1      18.597  -6.580   7.566  0.00  0.00     0.182 C 
BRANCH  33  34
ATOM     34  C27 ZIN A   1      18.051  -5.180   7.277  0.00  0.00     0.037 C 
ATOM     35  C46 ZIN A   1      19.099  -4.323   6.525  0.00  0.00     0.054 C 
ATOM     36  C31 ZIN A   1      18.276  -3.563   5.467  0.00  0.00     0.109 C 
ATOM     37  O30 ZIN A   1      16.898  -3.926   5.656  0.00  0.00    -0.373 OA
ATOM     38  C29 ZIN A   1      16.887  -5.239   6.257  0.00  0.00     0.176 C 
BRANCH  36  39
ATOM     39  C32 ZIN A   1      18.732  -3.964   4.064  0.00  0.00     0.195 C 
BRANCH  39  40
ATOM     40  N33 ZIN A   1      17.566  -4.333   3.258  0.00  0.00    -0.259 N 
ATOM     41  N37 ZIN A   1      17.327  -5.571   2.638  0.00  0.00    -0.165 NA
ATOM     42  C36 ZIN A   1      16.176  -5.473   2.028  0.00  0.00     0.256 A 
ATOM     43  N35 ZIN A   1      15.687  -4.248   2.221  0.00  0.00    -0.234 NA
ATOM     44  C34 ZIN A   1      16.513  -3.552   2.960  0.00  0.00     0.230 A 
ENDBRANCH  39  40
ENDBRANCH  36  39
BRANCH  36  45
ATOM     45  C38 ZIN A   1      18.443  -2.076   5.655  0.00  0.00     0.017 A 
ATOM     46  C44 ZIN A   1      18.158  -1.497   6.880  0.00  0.00     0.128 A 
ATOM     47  C43 ZIN A   1      18.316  -0.133   7.055  0.00  0.00     0.085 A 
ATOM     48  F45 ZIN A   1      17.735  -2.265   7.908  0.00  0.00    -0.205 F 
ATOM     49  C41 ZIN A   1      18.750   0.652   6.000  0.00  0.00     0.119 A 
ATOM     50  C40 ZIN A   1      19.030   0.071   4.774  0.00  0.00     0.043 A 
ATOM     51  F42 ZIN A   1      18.900   1.984   6.166  0.00  0.00    -0.206 F 
ATOM     52  C39 ZIN A   1      18.876  -1.291   4.603  0.00  0.00     0.016 A 
ENDBRANCH  36  45
ENDBRANCH  33  34
ENDBRANCH  32  33
ENDBRANCH   4  32
TORSDOF 13
ENDMDL
MODEL 4
REMARK VINA RESULT:      -8.0      1.616      2.333
REMARK  13 active torsions:
REMARK  status: ('A' for Active; 'I' for Inactive)
REMARK    1  A    between atoms: C2_2  and  C3_3 
REMARK    2  A    between atoms: C3_3  and  C5_4 
REMARK    3  A    between atoms: C3_3  and  N9_7 
REMARK    4  A    between atoms: C5_4  and  O8_6 
REMARK    5  A    between atoms: N12_10  and  C13_11 
REMARK    6  A    between atoms: C16_14  and  N17_15 
REMARK    7  A    between atoms: N20_18  and  C21_19 
REMARK    8  A    between atoms: C24_22  and  O25_23 
REMARK    9  A    between atoms: O25_23  and  C26_24 
REMARK   10  A    between atoms: C26_24  and  C27_25 
REMARK   11  A    between atoms: C31_28  and  C32_29 
REMARK   12  A    between atoms: C31_28  and  C38_35 
REMARK   13  A    between atoms: C32_29  and  N33_30 
ROOT
ATOM      1  C21 ZIN A   1      18.457  -0.406  14.799  0.00  0.00     0.010 A 
ATOM      2  C22 ZIN A   1      17.760  -0.609  15.982  0.00  0.00     0.026 A 
ATOM      3  C23 ZIN A   1      17.961   0.237  17.056  0.00  0.00     0.038 A 
ATOM      4  C24 ZIN A   1      18.859   1.289  16.951  0.00  0.00     0.068 A 
ATOM      5  C47 ZIN A   1      19.557   1.493  15.770  0.00  0.00     0.038 A 
ATOM      6  C48 ZIN A   1      19.361   0.644  14.698  0.00  0.00     0.026 A 
ENDROOT
BRANCH   1   7
ATOM      7  N20 ZIN A   1      18.255  -1.264  13.712  0.00  0.00    -0.281 NA
ATOM      8  C19 ZIN A   1      19.490  -1.988  13.376  0.00  0.00     0.110 C 
ATOM      9  C18 ZIN A   1      19.207  -2.970  12.237  0.00  0.00     0.110 C 
ATOM     10  N17 ZIN A   1      18.698  -2.233  11.072  0.00  0.00    -0.281 NA
ATOM     11  C50 ZIN A   1      17.463  -1.510  11.409  0.00  0.00     0.110 C 
ATOM     12  C49 ZIN A   1      17.746  -0.527  12.548  0.00  0.00     0.110 C 
BRANCH  10  13
ATOM     13  C16 ZIN A   1      18.496  -3.091   9.986  0.00  0.00     0.010 A 
ATOM     14  C15 ZIN A   1      18.346  -4.455  10.197  0.00  0.00     0.026 A 
ATOM     15  C14 ZIN A   1      18.147  -5.301   9.124  0.00  0.00     0.032 A 
ATOM     16  C13 ZIN A   1      18.097  -4.789   7.835  0.00  0.00     0.045 A 
ATOM     17  C52 ZIN A   1      18.253  -3.425   7.623  0.00  0.00     0.032 A 
ATOM     18  C51 ZIN A   1      18.446  -2.578   8.697  0.00  0.00     0.026 A 
BRANCH  16  19
ATOM     19  N12 ZIN A   1      17.896  -5.649   6.744  0.00  0.00    -0.256 N 
ATOM     20  C11 ZIN A   1      18.085  -7.010   6.746  0.00  0.00     0.242 A 
ATOM     21  N10 ZIN A   1      17.805  -7.473   5.570  0.00  0.00    -0.162 NA
ATOM     22  N9  ZIN A   1      17.419  -6.396   4.759  0.00  0.00    -0.211 N 
ATOM     23  C53 ZIN A   1      17.492  -5.279   5.512  0.00  0.00     0.351 A 
ATOM     24  O54 ZIN A   1      17.232  -4.145   5.148  0.00  0.00    -0.244 OA
BRANCH  22  25
ATOM     25  C3  ZIN A   1      17.018  -6.470   3.351  0.00  0.00     0.143 C 
BRANCH  25  26
ATOM     26  C2  ZIN A   1      15.531  -6.135   3.226  0.00  0.00     0.025 C 
ATOM     27  C1  ZIN A   1      14.711  -7.425   3.285  0.00  0.00     0.007 C 
ENDBRANCH  25  26
BRANCH  25  28
ATOM     28  C5  ZIN A   1      17.838  -5.469   2.535  0.00  0.00     0.139 C 
ATOM     29  C7  ZIN A   1      16.899  -4.615   1.682  0.00  0.00     0.041 C 
BRANCH  28  30
ATOM     30  O8  ZIN A   1      18.743  -6.176   1.685  0.00  0.00    -0.394 OA
ATOM     31  H63 ZIN A   1      18.448  -7.066   1.450  0.00  0.00     0.210 HD
ENDBRANCH  28  30
ENDBRANCH  25  28
ENDBRANCH  22  25
ENDBRANCH  16  19
ENDBRANCH  10  13
ENDBRANCH   1   7
BRANCH   4  32
ATOM     32  O25 ZIN A   1      19.056   2.122  18.008  0.00  0.00    -0.351 OA
BRANCH  32  33
ATOM     33  C26 ZIN A   1      18.525   3.445  17.899  0.00  0.00     0.182 C 
BRANCH  33  34
ATOM     34  C27 ZIN A   1      18.863   4.018  16.521  0.00  0.00     0.037 C 
ATOM     35  C46 ZIN A   1      17.609   4.047  15.613  0.00  0.00     0.054 C 
ATOM     36  C31 ZIN A   1      17.706   5.398  14.878  0.00  0.00     0.109 C 
ATOM     37  O30 ZIN A   1      18.927   6.028  15.303  0.00  0.00    -0.373 OA
ATOM     38  C29 ZIN A   1      19.227   5.521  16.621  0.00  0.00     0.176 C 
BRANCH  36  39
ATOM     39  C32 ZIN A   1      16.511   6.278  15.247  0.00  0.00     0.195 C 
BRANCH  39  40
ATOM     40  N33 ZIN A   1      16.978   7.633  15.553  0.00  0.00    -0.259 N 
ATOM     41  N37 ZIN A   1      16.980   8.259  16.810  0.00  0.00    -0.165 NA
ATOM     42  C36 ZIN A   1      17.480   9.453  16.637  0.00  0.00     0.256 A 
ATOM     43  N35 ZIN A   1      17.781   9.614  15.349  0.00  0.00    -0.234 NA
ATOM     44  C34 ZIN A   1      17.484   8.526  14.685  0.00  0.00     0.230 A 
ENDBRANCH  39  40
ENDBRANCH  36  39
BRANCH  36  45
ATOM     45  C38 ZIN A   1      17.738   5.173  13.388  0.00  0.00     0.017 A 
ATOM     46  C44 ZIN A   1      18.867   4.638  12.793  0.00  0.00     0.128 A 
ATOM     47  C43 ZIN A   1      18.895   4.426  11.425  0.00  0.00     0.085 A 
ATOM     48  F45 ZIN A   1      19.939   4.311  13.549  0.00  0.00    -0.205 F 
ATOM     49  C41 ZIN A   1      17.796   4.761  10.653  0.00  0.00     0.119 A 
ATOM     50  C40 ZIN A   1      16.669   5.301  11.250  0.00  0.00     0.043 A 
ATOM     51  F42 ZIN A   1      17.823   4.560   9.317  0.00  0.00    -0.206 F 
ATOM     52  C39 ZIN A   1      16.642   5.507  12.616  0.00  0.00     0.016 A 
ENDBRANCH  36  45
ENDBRANCH  33  34
ENDBRANCH  32  33
ENDBRANCH   4  32
TORSDOF 13
ENDMDL
MODEL 5
REMARK VINA RESULT:      -7.9      1.462      1.883
REMARK  13 active torsions:
REMARK  status: ('A' for Active; 'I' for Inactive)
REMARK    1  A    between atoms: C2_2  and  C3_3 
REMARK    2  A    between atoms: C3_3  and  C5_4 
REMARK    3  A    between atoms: C3_3  and  N9_7 
REMARK    4  A    between atoms: C5_4  and  O8_6 
REMARK    5  A    between atoms: N12_10  and  C13_11 
REMARK    6  A    between atoms: C16_14  and  N17_15 
REMARK    7  A    between atoms: N20_18  and  C21_19 
REMARK    8  A    between atoms: C24_22  and  O25_23 
REMARK    9  A    between atoms: O25_23  and  C26_24 
REMARK   10  A    between atoms: C26_24  and  C27_25 
REMARK   11  A    between atoms: C31_28  and  C32_29 
REMARK   12  A    between atoms: C31_28  and  C38_35 
REMARK   13  A    between atoms: C32_29  and  N33_30 
ROOT
ATOM      1  C21 ZIN A   1      18.289  -0.334  14.434  0.00  0.00     0.010 A 
ATOM      2  C22 ZIN A   1      17.404  -0.443  15.498  0.00  0.00     0.026 A 
ATOM      3  C23 ZIN A   1      17.618   0.285  16.652  0.00  0.00     0.038 A 
ATOM      4  C24 ZIN A   1      18.718   1.124  16.748  0.00  0.00     0.068 A 
ATOM      5  C47 ZIN A   1      19.604   1.234  15.687  0.00  0.00     0.038 A 
ATOM      6  C48 ZIN A   1      19.394   0.503  14.534  0.00  0.00     0.026 A 
ENDROOT
BRANCH   1   7
ATOM      7  N20 ZIN A   1      18.073  -1.072  13.265  0.00  0.00    -0.281 NA
ATOM      8  C19 ZIN A   1      19.176  -2.013  13.025  0.00  0.00     0.110 C 
ATOM      9  C18 ZIN A   1      18.865  -2.854  11.785  0.00  0.00     0.110 C 
ATOM     10  N17 ZIN A   1      18.672  -1.967  10.629  0.00  0.00    -0.281 NA
ATOM     11  C50 ZIN A   1      17.568  -1.027  10.870  0.00  0.00     0.110 C 
ATOM     12  C49 ZIN A   1      17.880  -0.185  12.110  0.00  0.00     0.110 C 
BRANCH  10  13
ATOM     13  C16 ZIN A   1      18.456  -2.705   9.461  0.00  0.00     0.010 A 
ATOM     14  C15 ZIN A   1      18.987  -2.268   8.255  0.00  0.00     0.026 A 
ATOM     15  C14 ZIN A   1      18.773  -2.996   7.103  0.00  0.00     0.032 A 
ATOM     16  C13 ZIN A   1      18.028  -4.166   7.149  0.00  0.00     0.045 A 
ATOM     17  C52 ZIN A   1      17.492  -4.601   8.354  0.00  0.00     0.032 A 
ATOM     18  C51 ZIN A   1      17.710  -3.875   9.508  0.00  0.00     0.026 A 
BRANCH  16  19
ATOM     19  N12 ZIN A   1      17.809  -4.907   5.977  0.00  0.00    -0.256 N 
ATOM     20  C11 ZIN A   1      17.281  -4.422   4.804  0.00  0.00     0.242 A 
ATOM     21  N10 ZIN A   1      17.225  -5.386   3.941  0.00  0.00    -0.162 NA
ATOM     22  N9  ZIN A   1      17.727  -6.545   4.549  0.00  0.00    -0.211 N 
ATOM     23  C53 ZIN A   1      18.075  -6.218   5.811  0.00  0.00     0.351 A 
ATOM     24  O54 ZIN A   1      18.549  -6.970   6.646  0.00  0.00    -0.244 OA
BRANCH  22  25
ATOM     25  C3  ZIN A   1      17.845  -7.868   3.930  0.00  0.00     0.143 C 
BRANCH  25  26
ATOM     26  C2  ZIN A   1      16.537  -8.638   4.120  0.00  0.00     0.025 C 
ATOM     27  C1  ZIN A   1      16.763  -9.795   5.096  0.00  0.00     0.007 C 
ENDBRANCH  25  26
BRANCH  25  28
ATOM     28  C5  ZIN A   1      18.131  -7.707   2.436  0.00  0.00     0.139 C 
ATOM     29  C7  ZIN A   1      17.083  -8.477   1.630  0.00  0.00     0.041 C 
BRANCH  28  30
ATOM     30  O8  ZIN A   1      19.431  -8.223   2.142  0.00  0.00    -0.394 OA
ATOM     31  H63 ZIN A   1      19.452  -9.179   2.001  0.00  0.00     0.210 HD
ENDBRANCH  28  30
ENDBRANCH  25  28
ENDBRANCH  22  25
ENDBRANCH  16  19
ENDBRANCH  10  13
ENDBRANCH   1   7
BRANCH   4  32
ATOM     32  O25 ZIN A   1      18.928   1.841  17.885  0.00  0.00    -0.351 OA
BRANCH  32  33
ATOM     33  C26 ZIN A   1      18.839   3.264  17.780  0.00  0.00     0.182 C 
BRANCH  33  34
ATOM     34  C27 ZIN A   1      19.142   3.691  16.343  0.00  0.00     0.037 C 
ATOM     35  C46 ZIN A   1      17.881   4.275  15.662  0.00  0.00     0.054 C 
ATOM     36  C31 ZIN A   1      18.408   5.486  14.867  0.00  0.00     0.109 C 
ATOM     37  O30 ZIN A   1      19.833   5.529  15.050  0.00  0.00    -0.373 OA
ATOM     38  C29 ZIN A   1      20.115   4.896  16.317  0.00  0.00     0.176 C 
BRANCH  36  39
ATOM     39  C32 ZIN A   1      17.776   6.773  15.398  0.00  0.00     0.195 C 
BRANCH  39  40
ATOM     40  N33 ZIN A   1      16.825   6.447  16.464  0.00  0.00    -0.259 N 
ATOM     41  N37 ZIN A   1      17.097   6.371  17.840  0.00  0.00    -0.165 NA
ATOM     42  C36 ZIN A   1      15.974   6.057  18.430  0.00  0.00     0.256 A 
ATOM     43  N35 ZIN A   1      15.022   5.924  17.507  0.00  0.00    -0.234 NA
ATOM     44  C34 ZIN A   1      15.521   6.156  16.320  0.00  0.00     0.230 A 
ENDBRANCH  39  40
ENDBRANCH  36  39
BRANCH  36  45
ATOM     45  C38 ZIN A   1      18.084   5.321  13.404  0.00  0.00     0.017 A 
ATOM     46  C44 ZIN A   1      18.939   4.604  12.583  0.00  0.00     0.128 A 
ATOM     47  C43 ZIN A   1      18.640   4.448  11.241  0.00  0.00     0.085 A 
ATOM     48  F45 ZIN A   1      20.058   4.046  13.095  0.00  0.00    -0.205 F 
ATOM     49  C41 ZIN A   1      17.492   5.019  10.718  0.00  0.00     0.119 A 
ATOM     50  C40 ZIN A   1      16.642   5.741  11.540  0.00  0.00     0.043 A 
ATOM     51  F42 ZIN A   1      17.201   4.873   9.407  0.00  0.00    -0.206 F 
ATOM     52  C39 ZIN A   1      16.940   5.891  12.881  0.00  0.00     0.016 A 
ENDBRANCH  36  45
ENDBRANCH  33  34
ENDBRANCH  32  33
ENDBRANCH   4  32
TORSDOF 13
ENDMDL
MODEL 6
REMARK VINA RESULT:      -7.7      4.005     14.735
REMARK  13 active torsions:
REMARK  status: ('A' for Active; 'I' for Inactive)
REMARK    1  A    between atoms: C2_2  and  C3_3 
REMARK    2  A    between atoms: C3_3  and  C5_4 
REMARK    3  A    between atoms: C3_3  and  N9_7 
REMARK    4  A    between atoms: C5_4  and  O8_6 
REMARK    5  A    between atoms: N12_10  and  C13_11 
REMARK    6  A    between atoms: C16_14  and  N17_15 
REMARK    7  A    between atoms: N20_18  and  C21_19 
REMARK    8  A    between atoms: C24_22  and  O25_23 
REMARK    9  A    between atoms: O25_23  and  C26_24 
REMARK   10  A    between atoms: C26_24  and  C27_25 
REMARK   11  A    between atoms: C31_28  and  C32_29 
REMARK   12  A    between atoms: C31_28  and  C38_35 
REMARK   13  A    between atoms: C32_29  and  N33_30 
ROOT
ATOM      1  C21 ZIN A   1      18.672  -0.291   8.927  0.00  0.00     0.010 A 
ATOM      2  C22 ZIN A   1      18.886   0.012   7.589  0.00  0.00     0.026 A 
ATOM      3  C23 ZIN A   1      18.902  -0.997   6.646  0.00  0.00     0.038 A 
ATOM      4  C24 ZIN A   1      18.703  -2.313   7.036  0.00  0.00     0.068 A 
ATOM      5  C47 ZIN A   1      18.488  -2.618   8.372  0.00  0.00     0.038 A 
ATOM      6  C48 ZIN A   1      18.478  -1.610   9.317  0.00  0.00     0.026 A 
ENDROOT
BRANCH   1   7
ATOM      7  N20 ZIN A   1      18.657   0.731   9.883  0.00  0.00    -0.281 NA
ATOM      8  C19 ZIN A   1      17.573   0.527  10.854  0.00  0.00     0.110 C 
ATOM      9  C18 ZIN A   1      17.641   1.619  11.925  0.00  0.00     0.110 C 
ATOM     10  N17 ZIN A   1      17.531   2.937  11.286  0.00  0.00    -0.281 NA
ATOM     11  C50 ZIN A   1      18.616   3.140  10.315  0.00  0.00     0.110 C 
ATOM     12  C49 ZIN A   1      18.548   2.049   9.243  0.00  0.00     0.110 C 
BRANCH  10  13
ATOM     13  C16 ZIN A   1      17.517   3.958  12.242  0.00  0.00     0.010 A 
ATOM     14  C15 ZIN A   1      16.699   5.065  12.063  0.00  0.00     0.026 A 
ATOM     15  C14 ZIN A   1      16.685   6.073  13.007  0.00  0.00     0.032 A 
ATOM     16  C13 ZIN A   1      17.489   5.979  14.134  0.00  0.00     0.045 A 
ATOM     17  C52 ZIN A   1      18.312   4.875  14.310  0.00  0.00     0.032 A 
ATOM     18  C51 ZIN A   1      18.322   3.864  13.369  0.00  0.00     0.026 A 
BRANCH  16  19
ATOM     19  N12 ZIN A   1      17.477   7.004  15.093  0.00  0.00    -0.256 N 
ATOM     20  C11 ZIN A   1      18.148   8.200  15.004  0.00  0.00     0.242 A 
ATOM     21  N10 ZIN A   1      17.907   8.896  16.068  0.00  0.00    -0.162 NA
ATOM     22  N9  ZIN A   1      17.053   8.149  16.892  0.00  0.00    -0.211 N 
ATOM     23  C53 ZIN A   1      16.810   6.980  16.265  0.00  0.00     0.351 A 
ATOM     24  O54 ZIN A   1      16.109   6.072  16.677  0.00  0.00    -0.244 OA
BRANCH  22  25
ATOM     25  C3  ZIN A   1      16.528   8.561  18.197  0.00  0.00     0.143 C 
BRANCH  25  26
ATOM     26  C2  ZIN A   1      15.090   8.062  18.349  0.00  0.00     0.025 C 
ATOM     27  C1  ZIN A   1      14.131   9.065  17.705  0.00  0.00     0.007 C 
ENDBRANCH  25  26
BRANCH  25  28
ATOM     28  C5  ZIN A   1      17.396   7.964  19.306  0.00  0.00     0.139 C 
ATOM     29  C7  ZIN A   1      16.521   7.141  20.252  0.00  0.00     0.041 C 
BRANCH  28  30
ATOM     30  O8  ZIN A   1      18.027   9.019  20.037  0.00  0.00    -0.394 OA
ATOM     31  H63 ZIN A   1      18.298   9.767  19.490  0.00  0.00     0.210 HD
ENDBRANCH  28  30
ENDBRANCH  25  28
ENDBRANCH  22  25
ENDBRANCH  16  19
ENDBRANCH  10  13
ENDBRANCH   1   7
BRANCH   4  32
ATOM     32  O25 ZIN A   1      18.717  -3.306   6.107  0.00  0.00    -0.351 OA
BRANCH  32  33
ATOM     33  C26 ZIN A   1      18.923  -2.920   4.746  0.00  0.00     0.182 C 
BRANCH  33  34
ATOM     34  C27 ZIN A   1      18.006  -3.742   3.838  0.00  0.00     0.037 C 
ATOM     35  C46 ZIN A   1      17.806  -5.169   4.402  0.00  0.00     0.054 C 
ATOM     36  C31 ZIN A   1      16.310  -5.459   4.172  0.00  0.00     0.109 C 
ATOM     37  O30 ZIN A   1      15.753  -4.319   3.496  0.00  0.00    -0.373 OA
ATOM     38  C29 ZIN A   1      16.563  -3.179   3.855  0.00  0.00     0.176 C 
BRANCH  36  39
ATOM     39  C32 ZIN A   1      15.606  -5.662   5.514  0.00  0.00     0.195 C 
BRANCH  39  40
ATOM     40  N33 ZIN A   1      16.538  -6.266   6.469  0.00  0.00    -0.259 N 
ATOM     41  N37 ZIN A   1      17.005  -5.698   7.666  0.00  0.00    -0.165 NA
ATOM     42  C36 ZIN A   1      17.812  -6.570   8.209  0.00  0.00     0.256 A 
ATOM     43  N35 ZIN A   1      17.885  -7.642   7.422  0.00  0.00    -0.234 NA
ATOM     44  C34 ZIN A   1      17.123  -7.472   6.371  0.00  0.00     0.230 A 
ENDBRANCH  39  40
ENDBRANCH  36  39
BRANCH  36  45
ATOM     45  C38 ZIN A   1      16.149  -6.690   3.317  0.00  0.00     0.017 A 
ATOM     46  C44 ZIN A   1      14.883  -7.145   2.990  0.00  0.00     0.128 A 
ATOM     47  C43 ZIN A   1      14.735  -8.273   2.201  0.00  0.00     0.085 A 
ATOM     48  F45 ZIN A   1      13.792  -6.482   3.431  0.00  0.00    -0.205 F 
ATOM     49  C41 ZIN A   1      15.854  -8.951   1.749  0.00  0.00     0.119 A 
ATOM     50  C40 ZIN A   1      17.119  -8.497   2.082  0.00  0.00     0.043 A 
ATOM     51  F42 ZIN A   1      15.712 -10.055   0.984  0.00  0.00    -0.206 F 
ATOM     52  C39 ZIN A   1      17.265  -7.368   2.866  0.00  0.00     0.016 A 
ENDBRANCH  36  45
ENDBRANCH  33  34
ENDBRANCH  32  33
ENDBRANCH   4  32
TORSDOF 13
ENDMDL
MODEL 7
REMARK VINA RESULT:      -7.7      3.158     14.297
REMARK  13 active torsions:
REMARK  status: ('A' for Active; 'I' for Inactive)
REMARK    1  A    between atoms: C2_2  and  C3_3 
REMARK    2  A    between atoms: C3_3  and  C5_4 
REMARK    3  A    between atoms: C3_3  and  N9_7 
REMARK    4  A    between atoms: C5_4  and  O8_6 
REMARK    5  A    between atoms: N12_10  and  C13_11 
REMARK    6  A    between atoms: C16_14  and  N17_15 
REMARK    7  A    between atoms: N20_18  and  C21_19 
REMARK    8  A    between atoms: C24_22  and  O25_23 
REMARK    9  A    between atoms: O25_23  and  C26_24 
REMARK   10  A    between atoms: C26_24  and  C27_25 
REMARK   11  A    between atoms: C31_28  and  C32_29 
REMARK   12  A    between atoms: C31_28  and  C38_35 
REMARK   13  A    between atoms: C32_29  and  N33_30 
ROOT
ATOM      1  C21 ZIN A   1      19.002  -2.207  11.141  0.00  0.00     0.010 A 
ATOM      2  C22 ZIN A   1      18.788  -2.168   9.771  0.00  0.00     0.026 A 
ATOM      3  C23 ZIN A   1      18.897  -3.323   9.021  0.00  0.00     0.038 A 
ATOM      4  C24 ZIN A   1      19.219  -4.523   9.639  0.00  0.00     0.068 A 
ATOM      5  C47 ZIN A   1      19.433  -4.564  11.009  0.00  0.00     0.038 A 
ATOM      6  C48 ZIN A   1      19.330  -3.408  11.758  0.00  0.00     0.026 A 
ENDROOT
BRANCH   1   7
ATOM      7  N20 ZIN A   1      18.894  -1.037  11.901  0.00  0.00    -0.281 NA
ATOM      8  C19 ZIN A   1      17.496  -0.590  11.982  0.00  0.00     0.110 C 
ATOM      9  C18 ZIN A   1      17.410   0.644  12.884  0.00  0.00     0.110 C 
ATOM     10  N17 ZIN A   1      18.270   1.706  12.343  0.00  0.00    -0.281 NA
ATOM     11  C50 ZIN A   1      19.667   1.258  12.262  0.00  0.00     0.110 C 
ATOM     12  C49 ZIN A   1      19.753   0.024  11.360  0.00  0.00     0.110 C 
BRANCH  10  13
ATOM     13  C16 ZIN A   1      18.161   2.875  13.102  0.00  0.00     0.010 A 
ATOM     14  C15 ZIN A   1      17.477   3.972  12.595  0.00  0.00     0.026 A 
ATOM     15  C14 ZIN A   1      17.370   5.126  13.345  0.00  0.00     0.032 A 
ATOM     16  C13 ZIN A   1      17.947   5.190  14.606  0.00  0.00     0.045 A 
ATOM     17  C52 ZIN A   1      18.636   4.096  15.111  0.00  0.00     0.032 A 
ATOM     18  C51 ZIN A   1      18.738   2.939  14.364  0.00  0.00     0.026 A 
BRANCH  16  19
ATOM     19  N12 ZIN A   1      17.840   6.364  15.368  0.00  0.00    -0.256 N 
ATOM     20  C11 ZIN A   1      18.448   7.564  15.090  0.00  0.00     0.242 A 
ATOM     21  N10 ZIN A   1      18.126   8.419  16.007  0.00  0.00    -0.162 NA
ATOM     22  N9  ZIN A   1      17.281   7.777  16.923  0.00  0.00    -0.211 N 
ATOM     23  C53 ZIN A   1      17.127   6.504  16.504  0.00  0.00     0.351 A 
ATOM     24  O54 ZIN A   1      16.460   5.641  17.049  0.00  0.00    -0.244 OA
BRANCH  22  25
ATOM     25  C3  ZIN A   1      16.682   8.378  18.118  0.00  0.00     0.143 C 
BRANCH  25  26
ATOM     26  C2  ZIN A   1      15.164   8.462  17.941  0.00  0.00     0.025 C 
ATOM     27  C1  ZIN A   1      14.840   9.339  16.729  0.00  0.00     0.007 C 
ENDBRANCH  25  26
BRANCH  25  28
ATOM     28  C5  ZIN A   1      17.007   7.515  19.339  0.00  0.00     0.139 C 
ATOM     29  C7  ZIN A   1      16.683   8.294  20.614  0.00  0.00     0.041 C 
BRANCH  28  30
ATOM     30  O8  ZIN A   1      18.395   7.176  19.327  0.00  0.00    -0.394 OA
ATOM     31  H63 ZIN A   1      18.609   6.378  19.827  0.00  0.00     0.210 HD
ENDBRANCH  28  30
ENDBRANCH  25  28
ENDBRANCH  22  25
ENDBRANCH  16  19
ENDBRANCH  10  13
ENDBRANCH   1   7
BRANCH   4  32
ATOM     32  O25 ZIN A   1      19.324  -5.660   8.901  0.00  0.00    -0.351 OA
BRANCH  32  33
ATOM     33  C26 ZIN A   1      18.167  -6.496   8.827  0.00  0.00     0.182 C 
BRANCH  33  34
ATOM     34  C27 ZIN A   1      17.142  -5.864   7.883  0.00  0.00     0.037 C 
ATOM     35  C46 ZIN A   1      17.031  -6.673   6.567  0.00  0.00     0.054 C 
ATOM     36  C31 ZIN A   1      15.520  -6.697   6.265  0.00  0.00     0.109 C 
ATOM     37  O30 ZIN A   1      14.867  -5.927   7.289  0.00  0.00    -0.373 OA
ATOM     38  C29 ZIN A   1      15.710  -5.984   8.461  0.00  0.00     0.176 C 
BRANCH  36  39
ATOM     39  C32 ZIN A   1      15.006  -8.137   6.291  0.00  0.00     0.195 C 
BRANCH  39  40
ATOM     40  N33 ZIN A   1      16.142  -9.062   6.283  0.00  0.00    -0.259 N 
ATOM     41  N37 ZIN A   1      16.744  -9.665   7.399  0.00  0.00    -0.165 NA
ATOM     42  C36 ZIN A   1      17.714 -10.414   6.947  0.00  0.00     0.256 A 
ATOM     43  N35 ZIN A   1      17.761 -10.308   5.619  0.00  0.00    -0.234 NA
ATOM     44  C34 ZIN A   1      16.819  -9.497   5.207  0.00  0.00     0.230 A 
ENDBRANCH  39  40
ENDBRANCH  36  39
BRANCH  36  45
ATOM     45  C38 ZIN A   1      15.255  -6.082   4.915  0.00  0.00     0.017 A 
ATOM     46  C44 ZIN A   1      16.045  -5.038   4.463  0.00  0.00     0.128 A 
ATOM     47  C43 ZIN A   1      15.805  -4.476   3.221  0.00  0.00     0.085 A 
ATOM     48  F45 ZIN A   1      17.056  -4.575   5.230  0.00  0.00    -0.205 F 
ATOM     49  C41 ZIN A   1      14.768  -4.951   2.437  0.00  0.00     0.119 A 
ATOM     50  C40 ZIN A   1      13.976  -5.992   2.893  0.00  0.00     0.043 A 
ATOM     51  F42 ZIN A   1      14.529  -4.401   1.227  0.00  0.00    -0.206 F 
ATOM     52  C39 ZIN A   1      14.220  -6.555   4.131  0.00  0.00     0.016 A 
ENDBRANCH  36  45
ENDBRANCH  33  34
ENDBRANCH  32  33
ENDBRANCH   4  32
TORSDOF 13
ENDMDL
MODEL 8
REMARK VINA RESULT:      -7.5      3.217      5.550
REMARK  13 active torsions:
REMARK  status: ('A' for Active; 'I' for Inactive)
REMARK    1  A    between atoms: C2_2  and  C3_3 
REMARK    2  A    between atoms: C3_3  and  C5_4 
REMARK    3  A    between atoms: C3_3  and  N9_7 
REMARK    4  A    between atoms: C5_4  and  O8_6 
REMARK    5  A    between atoms: N12_10  and  C13_11 
REMARK    6  A    between atoms: C16_14  and  N17_15 
REMARK    7  A    between atoms: N20_18  and  C21_19 
REMARK    8  A    between atoms: C24_22  and  O25_23 
REMARK    9  A    between atoms: O25_23  and  C26_24 
REMARK   10  A    between atoms: C26_24  and  C27_25 
REMARK   11  A    between atoms: C31_28  and  C32_29 
REMARK   12  A    between atoms: C31_28  and  C38_35 
REMARK   13  A    between atoms: C32_29  and  N33_30 
ROOT
ATOM      1  C21 ZIN A   1      18.600   1.533  10.015  0.00  0.00     0.010 A 
ATOM      2  C22 ZIN A   1      17.927   2.745  10.087  0.00  0.00     0.026 A 
ATOM      3  C23 ZIN A   1      18.285   3.679  11.040  0.00  0.00     0.038 A 
ATOM      4  C24 ZIN A   1      19.317   3.405  11.926  0.00  0.00     0.068 A 
ATOM      5  C47 ZIN A   1      19.990   2.194  11.856  0.00  0.00     0.038 A 
ATOM      6  C48 ZIN A   1      19.629   1.258  10.907  0.00  0.00     0.026 A 
ENDROOT
BRANCH   1   7
ATOM      7  N20 ZIN A   1      18.237   0.587   9.051  0.00  0.00    -0.281 NA
ATOM      8  C19 ZIN A   1      18.816  -0.728   9.360  0.00  0.00     0.110 C 
ATOM      9  C18 ZIN A   1      18.332  -1.751   8.329  0.00  0.00     0.110 C 
ATOM     10  N17 ZIN A   1      18.724  -1.309   6.983  0.00  0.00    -0.281 NA
ATOM     11  C50 ZIN A   1      18.144   0.006   6.674  0.00  0.00     0.110 C 
ATOM     12  C49 ZIN A   1      18.629   1.029   7.706  0.00  0.00     0.110 C 
BRANCH  10  13
ATOM     13  C16 ZIN A   1      18.361  -2.255   6.019  0.00  0.00     0.010 A 
ATOM     14  C15 ZIN A   1      18.615  -3.602   6.239  0.00  0.00     0.026 A 
ATOM     15  C14 ZIN A   1      18.256  -4.536   5.288  0.00  0.00     0.032 A 
ATOM     16  C13 ZIN A   1      17.643  -4.129   4.111  0.00  0.00     0.045 A 
ATOM     17  C52 ZIN A   1      17.394  -2.781   3.888  0.00  0.00     0.032 A 
ATOM     18  C51 ZIN A   1      17.747  -1.847   4.843  0.00  0.00     0.026 A 
BRANCH  16  19
ATOM     19  N12 ZIN A   1      17.280  -5.078   3.143  0.00  0.00    -0.256 N 
ATOM     20  C11 ZIN A   1      17.835  -5.206   1.892  0.00  0.00     0.242 A 
ATOM     21  N10 ZIN A   1      17.254  -6.185   1.275  0.00  0.00    -0.162 NA
ATOM     22  N9  ZIN A   1      16.284  -6.725   2.131  0.00  0.00    -0.211 N 
ATOM     23  C53 ZIN A   1      16.320  -6.015   3.278  0.00  0.00     0.351 A 
ATOM     24  O54 ZIN A   1      15.617  -6.193   4.258  0.00  0.00    -0.244 OA
BRANCH  22  25
ATOM     25  C3  ZIN A   1      15.393  -7.849   1.832  0.00  0.00     0.143 C 
BRANCH  25  26
ATOM     26  C2  ZIN A   1      15.610  -8.960   2.861  0.00  0.00     0.025 C 
ATOM     27  C1  ZIN A   1      16.001 -10.253   2.142  0.00  0.00     0.007 C 
ENDBRANCH  25  26
BRANCH  25  28
ATOM     28  C5  ZIN A   1      13.939  -7.376   1.890  0.00  0.00     0.139 C 
ATOM     29  C7  ZIN A   1      13.079  -8.258   0.984  0.00  0.00     0.041 C 
BRANCH  28  30
ATOM     30  O8  ZIN A   1      13.862  -6.019   1.446  0.00  0.00    -0.394 OA
ATOM     31  H63 ZIN A   1      13.180  -5.499   1.889  0.00  0.00     0.210 HD
ENDBRANCH  28  30
ENDBRANCH  25  28
ENDBRANCH  22  25
ENDBRANCH  16  19
ENDBRANCH  10  13
ENDBRANCH   1   7
BRANCH   4  32
ATOM     32  O25 ZIN A   1      19.669   4.325  12.863  0.00  0.00    -0.351 OA
BRANCH  32  33
ATOM     33  C26 ZIN A   1      18.855   5.496  12.963  0.00  0.00     0.182 C 
BRANCH  33  34
ATOM     34  C27 ZIN A   1      18.596   5.813  14.437  0.00  0.00     0.037 C 
ATOM     35  C46 ZIN A   1      18.004   4.585  15.171  0.00  0.00     0.054 C 
ATOM     36  C31 ZIN A   1      18.724   4.576  16.533  0.00  0.00     0.109 C 
ATOM     37  O30 ZIN A   1      19.591   5.723  16.565  0.00  0.00    -0.373 OA
ATOM     38  C29 ZIN A   1      19.928   6.035  15.197  0.00  0.00     0.176 C 
BRANCH  36  39
ATOM     39  C32 ZIN A   1      19.549   3.296  16.678  0.00  0.00     0.195 C 
BRANCH  39  40
ATOM     40  N33 ZIN A   1      18.788   2.162  16.149  0.00  0.00    -0.259 N 
ATOM     41  N37 ZIN A   1      18.109   2.101  14.921  0.00  0.00    -0.165 NA
ATOM     42  C36 ZIN A   1      17.570   0.914  14.845  0.00  0.00     0.256 A 
ATOM     43  N35 ZIN A   1      17.862   0.233  15.953  0.00  0.00    -0.234 NA
ATOM     44  C34 ZIN A   1      18.595   0.973  16.747  0.00  0.00     0.230 A 
ENDBRANCH  39  40
ENDBRANCH  36  39
BRANCH  36  45
ATOM     45  C38 ZIN A   1      17.715   4.664  17.649  0.00  0.00     0.017 A 
ATOM     46  C44 ZIN A   1      17.957   4.023  18.853  0.00  0.00     0.128 A 
ATOM     47  C43 ZIN A   1      17.033   4.108  19.880  0.00  0.00     0.085 A 
ATOM     48  F45 ZIN A   1      19.100   3.324  19.028  0.00  0.00    -0.205 F 
ATOM     49  C41 ZIN A   1      15.863   4.825  19.699  0.00  0.00     0.119 A 
ATOM     50  C40 ZIN A   1      15.621   5.461  18.493  0.00  0.00     0.043 A 
ATOM     51  F42 ZIN A   1      14.958   4.905  20.698  0.00  0.00    -0.206 F 
ATOM     52  C39 ZIN A   1      16.547   5.379  17.470  0.00  0.00     0.016 A 
ENDBRANCH  36  45
ENDBRANCH  33  34
ENDBRANCH  32  33
ENDBRANCH   4  32
TORSDOF 13
ENDMDL
MODEL 9
REMARK VINA RESULT:      -7.4      2.553      4.938
REMARK  13 active torsions:
REMARK  status: ('A' for Active; 'I' for Inactive)
REMARK    1  A    between atoms: C2_2  and  C3_3 
REMARK    2  A    between atoms: C3_3  and  C5_4 
REMARK    3  A    between atoms: C3_3  and  N9_7 
REMARK    4  A    between atoms: C5_4  and  O8_6 
REMARK    5  A    between atoms: N12_10  and  C13_11 
REMARK    6  A    between atoms: C16_14  and  N17_15 
REMARK    7  A    between atoms: N20_18  and  C21_19 
REMARK    8  A    between atoms: C24_22  and  O25_23 
REMARK    9  A    between atoms: O25_23  and  C26_24 
REMARK   10  A    between atoms: C26_24  and  C27_25 
REMARK   11  A    between atoms: C31_28  and  C32_29 
REMARK   12  A    between atoms: C31_28  and  C38_35 
REMARK   13  A    between atoms: C32_29  and  N33_30 
ROOT
ATOM      1  C21 ZIN A   1      18.452   0.859  10.769  0.00  0.00     0.010 A 
ATOM      2  C22 ZIN A   1      17.565   1.927  10.790  0.00  0.00     0.026 A 
ATOM      3  C23 ZIN A   1      17.928   3.115  11.395  0.00  0.00     0.038 A 
ATOM      4  C24 ZIN A   1      19.180   3.240  11.980  0.00  0.00     0.068 A 
ATOM      5  C47 ZIN A   1      20.067   2.174  11.960  0.00  0.00     0.038 A 
ATOM      6  C48 ZIN A   1      19.703   0.984  11.361  0.00  0.00     0.026 A 
ENDROOT
BRANCH   1   7
ATOM      7  N20 ZIN A   1      18.083  -0.345  10.158  0.00  0.00    -0.281 NA
ATOM      8  C19 ZIN A   1      18.410  -1.492  11.016  0.00  0.00     0.110 C 
ATOM      9  C18 ZIN A   1      17.920  -2.780  10.349  0.00  0.00     0.110 C 
ATOM     10  N17 ZIN A   1      18.552  -2.916   9.029  0.00  0.00    -0.281 NA
ATOM     11  C50 ZIN A   1      18.224  -1.769   8.171  0.00  0.00     0.110 C 
ATOM     12  C49 ZIN A   1      18.714  -0.480   8.838  0.00  0.00     0.110 C 
BRANCH  10  13
ATOM     13  C16 ZIN A   1      18.183  -4.120   8.419  0.00  0.00     0.010 A 
ATOM     14  C15 ZIN A   1      17.030  -4.779   8.824  0.00  0.00     0.026 A 
ATOM     15  C14 ZIN A   1      16.667  -5.967   8.222  0.00  0.00     0.032 A 
ATOM     16  C13 ZIN A   1      17.453  -6.502   7.212  0.00  0.00     0.045 A 
ATOM     17  C52 ZIN A   1      18.609  -5.845   6.810  0.00  0.00     0.032 A 
ATOM     18  C51 ZIN A   1      18.970  -4.654   7.408  0.00  0.00     0.026 A 
BRANCH  16  19
ATOM     19  N12 ZIN A   1      17.085  -7.710   6.600  0.00  0.00    -0.256 N 
ATOM     20  C11 ZIN A   1      17.402  -8.970   7.049  0.00  0.00     0.242 A 
ATOM     21  N10 ZIN A   1      16.897  -9.843   6.236  0.00  0.00    -0.162 NA
ATOM     22  N9  ZIN A   1      16.227  -9.152   5.217  0.00  0.00    -0.211 N 
ATOM     23  C53 ZIN A   1      16.366  -7.833   5.466  0.00  0.00     0.351 A 
ATOM     24  O54 ZIN A   1      15.917  -6.921   4.793  0.00  0.00    -0.244 OA
BRANCH  22  25
ATOM     25  C3  ZIN A   1      15.513  -9.752   4.087  0.00  0.00     0.143 C 
BRANCH  25  26
ATOM     26  C2  ZIN A   1      16.483 -10.602   3.264  0.00  0.00     0.025 C 
ATOM     27  C1  ZIN A   1      16.833  -9.866   1.968  0.00  0.00     0.007 C 
ENDBRANCH  25  26
BRANCH  25  28
ATOM     28  C5  ZIN A   1      14.379 -10.635   4.611  0.00  0.00     0.139 C 
ATOM     29  C7  ZIN A   1      13.152 -10.477   3.712  0.00  0.00     0.041 C 
BRANCH  28  30
ATOM     30  O8  ZIN A   1      14.047 -10.241   5.944  0.00  0.00    -0.394 OA
ATOM     31  H63 ZIN A   1      13.204  -9.774   6.018  0.00  0.00     0.210 HD
ENDBRANCH  28  30
ENDBRANCH  25  28
ENDBRANCH  22  25
ENDBRANCH  16  19
ENDBRANCH  10  13
ENDBRANCH   1   7
BRANCH   4  32
ATOM     32  O25 ZIN A   1      19.538   4.410  12.574  0.00  0.00    -0.351 OA
BRANCH  32  33
ATOM     33  C26 ZIN A   1      18.492   5.344  12.851  0.00  0.00     0.182 C 
BRANCH  33  34
ATOM     34  C27 ZIN A   1      18.383   5.555  14.362  0.00  0.00     0.037 C 
ATOM     35  C46 ZIN A   1      17.904   4.262  15.067  0.00  0.00     0.054 C 
ATOM     36  C31 ZIN A   1      18.765   4.187  16.343  0.00  0.00     0.109 C 
ATOM     37  O30 ZIN A   1      19.600   5.357  16.364  0.00  0.00    -0.373 OA
ATOM     38  C29 ZIN A   1      19.781   5.771  14.992  0.00  0.00     0.176 C 
BRANCH  36  39
ATOM     39  C32 ZIN A   1      19.634   2.929  16.311  0.00  0.00     0.195 C 
BRANCH  39  40
ATOM     40  N33 ZIN A   1      18.925   1.863  15.599  0.00  0.00    -0.259 N 
ATOM     41  N37 ZIN A   1      17.758   1.996  14.829  0.00  0.00    -0.165 NA
ATOM     42  C36 ZIN A   1      17.468   0.807  14.373  0.00  0.00     0.256 A 
ATOM     43  N35 ZIN A   1      18.377  -0.061  14.818  0.00  0.00    -0.234 NA
ATOM     44  C34 ZIN A   1      19.260   0.562  15.557  0.00  0.00     0.230 A 
ENDBRANCH  39  40
ENDBRANCH  36  39
BRANCH  36  45
ATOM     45  C38 ZIN A   1      17.879   4.168  17.561  0.00  0.00     0.017 A 
ATOM     46  C44 ZIN A   1      17.135   5.288  17.894  0.00  0.00     0.128 A 
ATOM     47  C43 ZIN A   1      16.317   5.269  19.010  0.00  0.00     0.085 A 
ATOM     48  F45 ZIN A   1      17.199   6.395  17.122  0.00  0.00    -0.205 F 
ATOM     49  C41 ZIN A   1      16.252   4.134  19.800  0.00  0.00     0.119 A 
ATOM     50  C40 ZIN A   1      17.000   3.017  19.468  0.00  0.00     0.043 A 
ATOM     51  F42 ZIN A   1      15.458   4.115  20.892  0.00  0.00    -0.206 F 
ATOM     52  C39 ZIN A   1      17.813   3.035  18.351  0.00  0.00     0.016 A 
ENDBRANCH  36  45
ENDBRANCH  33  34
ENDBRANCH  32  33
ENDBRANCH   4  32
TORSDOF 13
ENDMDL
