MODEL 1
REMARK VINA RESULT:      -9.6      0.000      0.000
REMARK  0 active torsions:
REMARK  status: ('A' for Active; 'I' for Inactive)
ROOT
ATOM      1  N1  <0> d   1      21.392   0.613  12.094  0.00  0.00    -0.235 N 
ATOM      2  H2  <0> d   1      21.200   1.544  12.290  0.00  0.00     0.174 HD
ATOM      3  H3  <0> d   1      22.192   0.197  12.450  0.00  0.00     0.174 HD
ATOM      4  C4  <0> d   1      20.570  -0.079  11.355  0.00  0.00     0.675 A 
ATOM      5  N5  <0> d   1      20.762  -1.395  11.035  0.00  0.00    -0.224 N 
ATOM      6  C6  <0> d   1      19.656  -1.845  10.178  0.00  0.00     0.169 A 
ATOM      7  C7  <0> d   1      18.769  -0.595  10.015  0.00  0.00     0.160 A 
ATOM      8  C9  <0> d   1      18.639  -0.268   8.556  0.00  0.00    -0.026 A 
ATOM      9  C10 <0> d   1      18.241  -1.345   7.757  0.00  0.00     0.010 A 
ATOM     10  C11 <0> d   1      18.028  -1.198   6.406  0.00  0.00     0.001 A 
ATOM     11  C12 <0> d   1      18.205   0.044   5.826  0.00  0.00     0.001 A 
ATOM     12  C13 <0> d   1      18.615   1.099   6.605  0.00  0.00     0.008 A 
ATOM     13  C14 <0> d   1      18.864   0.949   7.976  0.00  0.00    -0.045 A 
ATOM     14  C15 <0> d   1      19.426   2.170   8.630  0.00  0.00     0.080 C 
ATOM     15  C16 <0> d   1      18.795   2.566   9.925  0.00  0.00    -0.026 A 
ATOM     16  C17 <0> d   1      18.104   3.754  10.051  0.00  0.00     0.010 A 
ATOM     17  C18 <0> d   1      17.598   4.130  11.283  0.00  0.00     0.001 A 
ATOM     18  C19 <0> d   1      17.791   3.323  12.389  0.00  0.00     0.002 A 
ATOM     19  C20 <0> d   1      18.456   2.118  12.261  0.00  0.00     0.031 A 
ATOM     20  C21 <0> d   1      18.926   1.723  11.016  0.00  0.00     0.059 A 
ATOM     21  N22 <0> d   1      19.413   0.431  10.816  0.00  0.00    -0.173 N 
ATOM     22  H23 <0> d   1      21.507  -1.943  11.326  0.00  0.00     0.177 HD
ENDROOT
TORSDOF 0
ENDMDL
MODEL 2
REMARK VINA RESULT:      -8.6      2.401      4.863
REMARK  0 active torsions:
REMARK  status: ('A' for Active; 'I' for Inactive)
ROOT
ATOM      1  N1  <0> d   1      17.748  -2.285   8.566  0.00  0.00    -0.235 N 
ATOM      2  H2  <0> d   1      17.512  -1.440   8.153  0.00  0.00     0.174 HD
ATOM      3  H3  <0> d   1      17.485  -3.120   8.149  0.00  0.00     0.174 HD
ATOM      4  C4  <0> d   1      18.424  -2.298   9.681  0.00  0.00     0.675 A 
ATOM      5  N5  <0> d   1      18.802  -3.444  10.326  0.00  0.00    -0.224 N 
ATOM      6  C6  <0> d   1      19.528  -3.084  11.553  0.00  0.00     0.169 A 
ATOM      7  C7  <0> d   1      19.520  -1.543  11.561  0.00  0.00     0.160 A 
ATOM      8  C9  <0> d   1      18.867  -1.058  12.822  0.00  0.00    -0.026 A 
ATOM      9  C10 <0> d   1      19.385  -1.621  13.993  0.00  0.00     0.010 A 
ATOM     10  C11 <0> d   1      18.929  -1.246  15.235  0.00  0.00     0.001 A 
ATOM     11  C12 <0> d   1      17.941  -0.284  15.327  0.00  0.00     0.001 A 
ATOM     12  C13 <0> d   1      17.416   0.257  14.179  0.00  0.00     0.008 A 
ATOM     13  C14 <0> d   1      17.855  -0.144  12.909  0.00  0.00    -0.045 A 
ATOM     14  C15 <0> d   1      17.080   0.456  11.780  0.00  0.00     0.080 C 
ATOM     15  C16 <0> d   1      17.891   1.012  10.656  0.00  0.00    -0.026 A 
ATOM     16  C17 <0> d   1      17.882   2.362  10.366  0.00  0.00     0.010 A 
ATOM     17  C18 <0> d   1      18.581   2.836   9.270  0.00  0.00     0.001 A 
ATOM     18  C19 <0> d   1      19.282   1.961   8.460  0.00  0.00     0.002 A 
ATOM     19  C20 <0> d   1      19.320   0.613   8.766  0.00  0.00     0.031 A 
ATOM     20  C21 <0> d   1      18.652   0.145   9.889  0.00  0.00     0.059 A 
ATOM     21  N22 <0> d   1      18.839  -1.163  10.335  0.00  0.00    -0.173 N 
ATOM     22  H23 <0> d   1      18.621  -4.347  10.024  0.00  0.00     0.177 HD
ENDROOT
TORSDOF 0
ENDMDL
MODEL 3
REMARK VINA RESULT:      -8.6      2.255      4.155
REMARK  0 active torsions:
REMARK  status: ('A' for Active; 'I' for Inactive)
ROOT
ATOM      1  N1  <0> d   1      21.533  -0.555  10.912  0.00  0.00    -0.235 N 
ATOM      2  H2  <0> d   1      21.654  -0.078  10.076  0.00  0.00     0.174 HD
ATOM      3  H3  <0> d   1      22.254  -0.587  11.560  0.00  0.00     0.174 HD
ATOM      4  C4  <0> d   1      20.401  -1.149  11.165  0.00  0.00     0.675 A 
ATOM      5  N5  <0> d   1      20.147  -1.838  12.320  0.00  0.00    -0.224 N 
ATOM      6  C6  <0> d   1      18.786  -2.390  12.257  0.00  0.00     0.169 A 
ATOM      7  C7  <0> d   1      18.257  -1.941  10.881  0.00  0.00     0.160 A 
ATOM      8  C9  <0> d   1      17.867  -3.151  10.084  0.00  0.00    -0.026 A 
ATOM      9  C10 <0> d   1      17.010  -4.031  10.753  0.00  0.00     0.010 A 
ATOM     10  C11 <0> d   1      16.521  -5.163  10.143  0.00  0.00     0.001 A 
ATOM     11  C12 <0> d   1      16.879  -5.431   8.835  0.00  0.00     0.001 A 
ATOM     12  C13 <0> d   1      17.735  -4.579   8.181  0.00  0.00     0.008 A 
ATOM     13  C14 <0> d   1      18.262  -3.441   8.808  0.00  0.00    -0.045 A 
ATOM     14  C15 <0> d   1      19.274  -2.708   7.988  0.00  0.00     0.080 C 
ATOM     15  C16 <0> d   1      19.110  -1.225   7.922  0.00  0.00    -0.026 A 
ATOM     16  C17 <0> d   1      18.817  -0.589   6.732  0.00  0.00     0.010 A 
ATOM     17  C18 <0> d   1      18.748   0.792   6.687  0.00  0.00     0.001 A 
ATOM     18  C19 <0> d   1      18.982   1.537   7.829  0.00  0.00     0.002 A 
ATOM     19  C20 <0> d   1      19.245   0.903   9.028  0.00  0.00     0.031 A 
ATOM     20  C21 <0> d   1      19.272  -0.483   9.081  0.00  0.00     0.059 A 
ATOM     21  N22 <0> d   1      19.329  -1.149  10.305  0.00  0.00    -0.173 N 
ATOM     22  H23 <0> d   1      20.765  -1.946  13.060  0.00  0.00     0.177 HD
ENDROOT
TORSDOF 0
ENDMDL
MODEL 4
REMARK VINA RESULT:      -8.5      2.890      6.362
REMARK  0 active torsions:
REMARK  status: ('A' for Active; 'I' for Inactive)
ROOT
ATOM      1  N1  <0> d   1      21.460  -0.494  10.723  0.00  0.00    -0.235 N 
ATOM      2  H2  <0> d   1      21.260  -1.382  10.387  0.00  0.00     0.174 HD
ATOM      3  H3  <0> d   1      22.307  -0.075  10.507  0.00  0.00     0.174 HD
ATOM      4  C4  <0> d   1      20.589   0.136  11.460  0.00  0.00     0.675 A 
ATOM      5  N5  <0> d   1      20.791   1.390  11.968  0.00  0.00    -0.224 N 
ATOM      6  C6  <0> d   1      19.616   1.778  12.761  0.00  0.00     0.169 A 
ATOM      7  C7  <0> d   1      18.675   0.561  12.668  0.00  0.00     0.160 A 
ATOM      8  C9  <0> d   1      18.381   0.057  14.051  0.00  0.00    -0.026 A 
ATOM      9  C10 <0> d   1      17.936   1.041  14.941  0.00  0.00     0.010 A 
ATOM     10  C11 <0> d   1      17.577   0.734  16.232  0.00  0.00     0.001 A 
ATOM     11  C12 <0> d   1      17.650  -0.579  16.658  0.00  0.00     0.001 A 
ATOM     12  C13 <0> d   1      18.104  -1.544  15.792  0.00  0.00     0.008 A 
ATOM     13  C14 <0> d   1      18.501  -1.233  14.485  0.00  0.00    -0.045 A 
ATOM     14  C15 <0> d   1      19.088  -2.386  13.736  0.00  0.00     0.080 C 
ATOM     15  C16 <0> d   1      18.585  -2.583  12.344  0.00  0.00    -0.026 A 
ATOM     16  C17 <0> d   1      17.871  -3.711  11.993  0.00  0.00     0.010 A 
ATOM     17  C18 <0> d   1      17.486  -3.903  10.678  0.00  0.00     0.001 A 
ATOM     18  C19 <0> d   1      17.822  -2.971   9.712  0.00  0.00     0.002 A 
ATOM     19  C20 <0> d   1      18.510  -1.825  10.065  0.00  0.00     0.031 A 
ATOM     20  C21 <0> d   1      18.859  -1.614  11.391  0.00  0.00     0.059 A 
ATOM     21  N22 <0> d   1      19.366  -0.384  11.808  0.00  0.00    -0.173 N 
ATOM     22  H23 <0> d   1      21.580   1.935  11.828  0.00  0.00     0.177 HD
ENDROOT
TORSDOF 0
ENDMDL
MODEL 5
REMARK VINA RESULT:      -8.4      2.936      5.780
REMARK  0 active torsions:
REMARK  status: ('A' for Active; 'I' for Inactive)
ROOT
ATOM      1  N1  <0> d   1      21.391   0.615  12.233  0.00  0.00    -0.235 N 
ATOM      2  H2  <0> d   1      21.419   0.168  13.094  0.00  0.00     0.174 HD
ATOM      3  H3  <0> d   1      22.166   0.595  11.651  0.00  0.00     0.174 HD
ATOM      4  C4  <0> d   1      20.308   1.238  11.858  0.00  0.00     0.675 A 
ATOM      5  N5  <0> d   1      20.183   1.887  10.660  0.00  0.00    -0.224 N 
ATOM      6  C6  <0> d   1      18.844   2.488  10.582  0.00  0.00     0.169 A 
ATOM      7  C7  <0> d   1      18.180   2.115  11.921  0.00  0.00     0.160 A 
ATOM      8  C9  <0> d   1      17.768   3.369  12.635  0.00  0.00    -0.026 A 
ATOM      9  C10 <0> d   1      17.008   4.251  11.860  0.00  0.00     0.010 A 
ATOM     10  C11 <0> d   1      16.511   5.422  12.382  0.00  0.00     0.001 A 
ATOM     11  C12 <0> d   1      16.764   5.731  13.705  0.00  0.00     0.001 A 
ATOM     12  C13 <0> d   1      17.527   4.877  14.464  0.00  0.00     0.008 A 
ATOM     13  C14 <0> d   1      18.062   3.696  13.929  0.00  0.00    -0.045 A 
ATOM     14  C15 <0> d   1      18.970   2.963  14.863  0.00  0.00     0.080 C 
ATOM     15  C16 <0> d   1      18.743   1.490  14.969  0.00  0.00    -0.026 A 
ATOM     16  C17 <0> d   1      18.323   0.914  16.151  0.00  0.00     0.010 A 
ATOM     17  C18 <0> d   1      18.198  -0.461  16.241  0.00  0.00     0.001 A 
ATOM     18  C19 <0> d   1      18.502  -1.260  15.154  0.00  0.00     0.002 A 
ATOM     19  C20 <0> d   1      18.893  -0.685  13.959  0.00  0.00     0.031 A 
ATOM     20  C21 <0> d   1      18.977   0.696  13.857  0.00  0.00     0.059 A 
ATOM     21  N22 <0> d   1      19.166   1.310  12.619  0.00  0.00    -0.173 N 
ATOM     22  H23 <0> d   1      20.866   1.943   9.975  0.00  0.00     0.177 HD
ENDROOT
TORSDOF 0
ENDMDL
MODEL 6
REMARK VINA RESULT:      -8.2      1.580      2.208
REMARK  0 active torsions:
REMARK  status: ('A' for Active; 'I' for Inactive)
ROOT
ATOM      1  N1  <0> d   1      20.684   0.381  13.329  0.00  0.00    -0.235 N 
ATOM      2  H2  <0> d   1      20.750   1.277  12.964  0.00  0.00     0.174 HD
ATOM      3  H3  <0> d   1      21.249   0.117  14.071  0.00  0.00     0.174 HD
ATOM      4  C4  <0> d   1      19.832  -0.466  12.823  0.00  0.00     0.675 A 
ATOM      5  N5  <0> d   1      19.671  -1.746  13.281  0.00  0.00    -0.224 N 
ATOM      6  C6  <0> d   1      18.646  -2.418  12.471  0.00  0.00     0.169 A 
ATOM      7  C7  <0> d   1      18.217  -1.354  11.441  0.00  0.00     0.160 A 
ATOM      8  C9  <0> d   1      18.444  -1.887  10.057  0.00  0.00    -0.026 A 
ATOM      9  C10 <0> d   1      17.883  -3.148   9.825  0.00  0.00     0.010 A 
ATOM     10  C11 <0> d   1      17.960  -3.754   8.593  0.00  0.00     0.001 A 
ATOM     11  C12 <0> d   1      18.599  -3.098   7.558  0.00  0.00     0.001 A 
ATOM     12  C13 <0> d   1      19.167  -1.868   7.787  0.00  0.00     0.008 A 
ATOM     13  C14 <0> d   1      19.120  -1.259   9.049  0.00  0.00    -0.045 A 
ATOM     14  C15 <0> d   1      19.902   0.011   9.140  0.00  0.00     0.080 C 
ATOM     15  C16 <0> d   1      19.207   1.159   9.797  0.00  0.00    -0.026 A 
ATOM     16  C17 <0> d   1      18.894   2.304   9.092  0.00  0.00     0.010 A 
ATOM     17  C18 <0> d   1      18.321   3.381   9.746  0.00  0.00     0.001 A 
ATOM     18  C19 <0> d   1      18.070   3.316  11.104  0.00  0.00     0.002 A 
ATOM     19  C20 <0> d   1      18.353   2.160  11.807  0.00  0.00     0.031 A 
ATOM     20  C21 <0> d   1      18.889   1.066  11.142  0.00  0.00     0.059 A 
ATOM     21  N22 <0> d   1      18.993  -0.172  11.775  0.00  0.00    -0.173 N 
ATOM     22  H23 <0> d   1      20.156  -2.145  14.020  0.00  0.00     0.177 HD
ENDROOT
TORSDOF 0
ENDMDL
MODEL 7
REMARK VINA RESULT:      -8.1      2.846      4.662
REMARK  0 active torsions:
REMARK  status: ('A' for Active; 'I' for Inactive)
ROOT
ATOM      1  N1  <0> d   1      17.377   3.812  14.849  0.00  0.00    -0.235 N 
ATOM      2  H2  <0> d   1      17.196   3.037  15.404  0.00  0.00     0.174 HD
ATOM      3  H3  <0> d   1      17.031   4.681  15.105  0.00  0.00     0.174 HD
ATOM      4  C4  <0> d   1      18.088   3.686  13.764  0.00  0.00     0.675 A 
ATOM      5  N5  <0> d   1      18.393   4.727  12.931  0.00  0.00    -0.224 N 
ATOM      6  C6  <0> d   1      19.188   4.220  11.804  0.00  0.00     0.169 A 
ATOM      7  C7  <0> d   1      19.308   2.707  12.073  0.00  0.00     0.160 A 
ATOM      8  C9  <0> d   1      18.742   1.951  10.908  0.00  0.00    -0.026 A 
ATOM      9  C10 <0> d   1      19.253   2.340   9.665  0.00  0.00     0.010 A 
ATOM     10  C11 <0> d   1      18.873   1.711   8.502  0.00  0.00     0.001 A 
ATOM     11  C12 <0> d   1      17.971   0.666   8.565  0.00  0.00     0.001 A 
ATOM     12  C13 <0> d   1      17.453   0.294   9.781  0.00  0.00     0.008 A 
ATOM     13  C14 <0> d   1      17.812   0.951  10.966  0.00  0.00    -0.045 A 
ATOM     14  C15 <0> d   1      17.051   0.496  12.169  0.00  0.00     0.080 C 
ATOM     15  C16 <0> d   1      17.865   0.221  13.391  0.00  0.00    -0.026 A 
ATOM     16  C17 <0> d   1      17.956  -1.051  13.920  0.00  0.00     0.010 A 
ATOM     17  C18 <0> d   1      18.653  -1.260  15.097  0.00  0.00     0.001 A 
ATOM     18  C19 <0> d   1      19.251  -0.197  15.749  0.00  0.00     0.002 A 
ATOM     19  C20 <0> d   1      19.188   1.073  15.207  0.00  0.00     0.031 A 
ATOM     20  C21 <0> d   1      18.524   1.274  14.005  0.00  0.00     0.059 A 
ATOM     21  N22 <0> d   1      18.618   2.493  13.334  0.00  0.00    -0.173 N 
ATOM     22  H23 <0> d   1      18.128   5.651  13.062  0.00  0.00     0.177 HD
ENDROOT
TORSDOF 0
ENDMDL
MODEL 8
REMARK VINA RESULT:      -8.0      1.937      5.001
REMARK  0 active torsions:
REMARK  status: ('A' for Active; 'I' for Inactive)
ROOT
ATOM      1  N1  <0> d   1      17.349  -3.728   8.321  0.00  0.00    -0.235 N 
ATOM      2  H2  <0> d   1      17.149  -3.484   7.404  0.00  0.00     0.174 HD
ATOM      3  H3  <0> d   1      16.925  -4.504   8.720  0.00  0.00     0.174 HD
ATOM      4  C4  <0> d   1      18.192  -3.016   9.015  0.00  0.00     0.675 A 
ATOM      5  N5  <0> d   1      18.533  -3.294  10.311  0.00  0.00    -0.224 N 
ATOM      6  C6  <0> d   1      19.486  -2.279  10.782  0.00  0.00     0.169 A 
ATOM      7  C7  <0> d   1      19.661  -1.334   9.577  0.00  0.00     0.160 A 
ATOM      8  C9  <0> d   1      19.284   0.060   9.984  0.00  0.00    -0.026 A 
ATOM      9  C10 <0> d   1      19.917   0.513  11.147  0.00  0.00     0.010 A 
ATOM     10  C11 <0> d   1      19.717   1.786  11.626  0.00  0.00     0.001 A 
ATOM     11  C12 <0> d   1      18.877   2.641  10.938  0.00  0.00     0.001 A 
ATOM     12  C13 <0> d   1      18.239   2.194   9.807  0.00  0.00     0.008 A 
ATOM     13  C14 <0> d   1      18.414   0.887   9.331  0.00  0.00    -0.045 A 
ATOM     14  C15 <0> d   1      17.541   0.541   8.168  0.00  0.00     0.080 C 
ATOM     15  C16 <0> d   1      18.217  -0.146   7.027  0.00  0.00    -0.026 A 
ATOM     16  C17 <0> d   1      18.319   0.454   5.787  0.00  0.00     0.010 A 
ATOM     17  C18 <0> d   1      18.880  -0.239   4.730  0.00  0.00     0.001 A 
ATOM     18  C19 <0> d   1      19.332  -1.534   4.908  0.00  0.00     0.002 A 
ATOM     19  C20 <0> d   1      19.261  -2.127   6.155  0.00  0.00     0.031 A 
ATOM     20  C21 <0> d   1      18.736  -1.416   7.225  0.00  0.00     0.059 A 
ATOM     21  N22 <0> d   1      18.839  -1.907   8.526  0.00  0.00    -0.173 N 
ATOM     22  H23 <0> d   1      18.200  -4.040  10.834  0.00  0.00     0.177 HD
ENDROOT
TORSDOF 0
ENDMDL
MODEL 9
REMARK VINA RESULT:      -7.9      2.082      3.092
REMARK  0 active torsions:
REMARK  status: ('A' for Active; 'I' for Inactive)
ROOT
ATOM      1  N1  <0> d   1      20.752  -3.826  11.648  0.00  0.00    -0.235 N 
ATOM      2  H2  <0> d   1      20.896  -3.311  12.458  0.00  0.00     0.174 HD
ATOM      3  H3  <0> d   1      21.247  -4.647  11.501  0.00  0.00     0.174 HD
ATOM      4  C4  <0> d   1      19.890  -3.416  10.761  0.00  0.00     0.675 A 
ATOM      5  N5  <0> d   1      19.623  -4.084   9.597  0.00  0.00    -0.224 N 
ATOM      6  C6  <0> d   1      18.619  -3.330   8.833  0.00  0.00     0.169 A 
ATOM      7  C7  <0> d   1      18.327  -2.094   9.706  0.00  0.00     0.160 A 
ATOM      8  C9  <0> d   1      18.618  -0.851   8.917  0.00  0.00    -0.026 A 
ATOM      9  C10 <0> d   1      18.003  -0.808   7.661  0.00  0.00     0.010 A 
ATOM     10  C11 <0> d   1      18.130   0.284   6.835  0.00  0.00     0.001 A 
ATOM     11  C12 <0> d   1      18.877   1.367   7.259  0.00  0.00     0.001 A 
ATOM     12  C13 <0> d   1      19.498   1.320   8.483  0.00  0.00     0.008 A 
ATOM     13  C14 <0> d   1      19.399   0.197   9.316  0.00  0.00    -0.045 A 
ATOM     14  C15 <0> d   1      20.245   0.275  10.546  0.00  0.00     0.080 C 
ATOM     15  C16 <0> d   1      19.574  -0.106  11.825  0.00  0.00    -0.026 A 
ATOM     16  C17 <0> d   1      19.378   0.817  12.833  0.00  0.00     0.010 A 
ATOM     17  C18 <0> d   1      18.825   0.417  14.036  0.00  0.00     0.001 A 
ATOM     18  C19 <0> d   1      18.476  -0.907  14.235  0.00  0.00     0.002 A 
ATOM     19  C20 <0> d   1      18.642  -1.827  13.217  0.00  0.00     0.031 A 
ATOM     20  C21 <0> d   1      19.158  -1.416  11.996  0.00  0.00     0.059 A 
ATOM     21  N22 <0> d   1      19.144  -2.269  10.893  0.00  0.00    -0.173 N 
ATOM     22  H23 <0> d   1      20.030  -4.919   9.320  0.00  0.00     0.177 HD
ENDROOT
TORSDOF 0
ENDMDL
