MODEL 1
REMARK VINA RESULT:      -5.9      0.000      0.000
REMARK  1 active torsions:
REMARK  status: ('A' for Active; 'I' for Inactive)
REMARK    1  A    between atoms: N6_6  and  C7_7 
ROOT
ATOM      1  C1  ZIN A   1      19.561  -1.253  14.357  0.00  0.00     0.070 C 
ATOM      2  C2  ZIN A   1      18.786  -0.776  13.157  0.00  0.00     0.028 A 
ATOM      3  C3  ZIN A   1      17.456  -0.558  13.113  0.00  0.00     0.102 A 
ATOM      4  C4  ZIN A   1      17.125  -0.118  11.810  0.00  0.00     0.268 A 
ATOM      5  O5  ZIN A   1      16.013   0.173  11.410  0.00  0.00    -0.266 OA
ATOM      6  N6  ZIN A   1      18.266  -0.079  11.090  0.00  0.00    -0.221 N 
ATOM      7  N13 ZIN A   1      19.312  -0.484  11.930  0.00  0.00    -0.295 N 
ATOM      8  H23 ZIN A   1      20.247  -0.553  11.681  0.00  0.00     0.187 HD
ENDROOT
BRANCH   6   9
ATOM      9  C7  ZIN A   1      18.384   0.303   9.751  0.00  0.00     0.060 A 
ATOM     10  C12 ZIN A   1      17.802  -0.469   8.753  0.00  0.00     0.031 A 
ATOM     11  C11 ZIN A   1      17.915  -0.086   7.431  0.00  0.00     0.002 A 
ATOM     12  C10 ZIN A   1      18.617   1.058   7.099  0.00  0.00     0.000 A 
ATOM     13  C9  ZIN A   1      19.202   1.826   8.090  0.00  0.00     0.002 A 
ATOM     14  C8  ZIN A   1      19.088   1.452   9.414  0.00  0.00     0.031 A 
ENDBRANCH   6   9
TORSDOF 1
ENDMDL
MODEL 2
REMARK VINA RESULT:      -5.9      2.744      4.859
REMARK  1 active torsions:
REMARK  status: ('A' for Active; 'I' for Inactive)
REMARK    1  A    between atoms: N6_6  and  C7_7 
ROOT
ATOM      1  C1  ZIN A   1      19.031   0.362   5.805  0.00  0.00     0.070 C 
ATOM      2  C2  ZIN A   1      18.649   0.723   7.218  0.00  0.00     0.028 A 
ATOM      3  C3  ZIN A   1      17.852  -0.002   8.028  0.00  0.00     0.102 A 
ATOM      4  C4  ZIN A   1      17.745   0.678   9.263  0.00  0.00     0.268 A 
ATOM      5  O5  ZIN A   1      17.104   0.314  10.232  0.00  0.00    -0.266 OA
ATOM      6  N6  ZIN A   1      18.483   1.804   9.175  0.00  0.00    -0.221 N 
ATOM      7  N13 ZIN A   1      19.058   1.836   7.898  0.00  0.00    -0.295 N 
ATOM      8  H23 ZIN A   1      19.640   2.530   7.552  0.00  0.00     0.187 HD
ENDROOT
BRANCH   6   9
ATOM      9  C7  ZIN A   1      18.649   2.763  10.178  0.00  0.00     0.060 A 
ATOM     10  C12 ZIN A   1      17.735   3.801  10.308  0.00  0.00     0.031 A 
ATOM     11  C11 ZIN A   1      17.899   4.743  11.304  0.00  0.00     0.002 A 
ATOM     12  C10 ZIN A   1      18.978   4.661  12.165  0.00  0.00     0.000 A 
ATOM     13  C9  ZIN A   1      19.894   3.632  12.035  0.00  0.00     0.002 A 
ATOM     14  C8  ZIN A   1      19.733   2.684  11.044  0.00  0.00     0.031 A 
ENDBRANCH   6   9
TORSDOF 1
ENDMDL
MODEL 3
REMARK VINA RESULT:      -5.9      1.992      5.534
REMARK  1 active torsions:
REMARK  status: ('A' for Active; 'I' for Inactive)
REMARK    1  A    between atoms: N6_6  and  C7_7 
ROOT
ATOM      1  C1  ZIN A   1      18.492   2.904  10.059  0.00  0.00     0.070 C 
ATOM      2  C2  ZIN A   1      18.126   1.766  10.976  0.00  0.00     0.028 A 
ATOM      3  C3  ZIN A   1      17.377   0.695  10.643  0.00  0.00     0.102 A 
ATOM      4  C4  ZIN A   1      17.268  -0.136  11.782  0.00  0.00     0.268 A 
ATOM      5  O5  ZIN A   1      16.665  -1.192  11.847  0.00  0.00    -0.266 OA
ATOM      6  N6  ZIN A   1      17.956   0.451  12.783  0.00  0.00    -0.221 N 
ATOM      7  N13 ZIN A   1      18.501   1.641  12.284  0.00  0.00    -0.295 N 
ATOM      8  H23 ZIN A   1      19.045   2.270  12.782  0.00  0.00     0.187 HD
ENDROOT
BRANCH   6   9
ATOM      9  C7  ZIN A   1      18.103  -0.042  14.083  0.00  0.00     0.060 A 
ATOM     10  C12 ZIN A   1      19.031  -1.041  14.348  0.00  0.00     0.031 A 
ATOM     11  C11 ZIN A   1      19.178  -1.521  15.635  0.00  0.00     0.002 A 
ATOM     12  C10 ZIN A   1      18.393  -1.019  16.656  0.00  0.00     0.000 A 
ATOM     13  C9  ZIN A   1      17.463  -0.029  16.394  0.00  0.00     0.002 A 
ATOM     14  C8  ZIN A   1      17.316   0.460  15.112  0.00  0.00     0.031 A 
ENDBRANCH   6   9
TORSDOF 1
ENDMDL
MODEL 4
REMARK VINA RESULT:      -5.8      3.214      5.800
REMARK  1 active torsions:
REMARK  status: ('A' for Active; 'I' for Inactive)
REMARK    1  A    between atoms: N6_6  and  C7_7 
ROOT
ATOM      1  C1  ZIN A   1      19.644   4.732  12.283  0.00  0.00     0.070 C 
ATOM      2  C2  ZIN A   1      18.982   3.414  12.592  0.00  0.00     0.028 A 
ATOM      3  C3  ZIN A   1      18.047   2.805  11.836  0.00  0.00     0.102 A 
ATOM      4  C4  ZIN A   1      17.687   1.594  12.473  0.00  0.00     0.268 A 
ATOM      5  O5  ZIN A   1      16.869   0.786  12.071  0.00  0.00    -0.266 OA
ATOM      6  N6  ZIN A   1      18.414   1.496  13.605  0.00  0.00    -0.221 N 
ATOM      7  N13 ZIN A   1      19.233   2.630  13.684  0.00  0.00    -0.295 N 
ATOM      8  H23 ZIN A   1      19.863   2.829  14.393  0.00  0.00     0.187 HD
ENDROOT
BRANCH   6   9
ATOM      9  C7  ZIN A   1      18.364   0.449  14.529  0.00  0.00     0.060 A 
ATOM     10  C12 ZIN A   1      17.406   0.454  15.536  0.00  0.00     0.031 A 
ATOM     11  C11 ZIN A   1      17.356  -0.585  16.444  0.00  0.00     0.002 A 
ATOM     12  C10 ZIN A   1      18.265  -1.624  16.360  0.00  0.00     0.000 A 
ATOM     13  C9  ZIN A   1      19.224  -1.629  15.363  0.00  0.00     0.002 A 
ATOM     14  C8  ZIN A   1      19.276  -0.596  14.448  0.00  0.00     0.031 A 
ENDBRANCH   6   9
TORSDOF 1
ENDMDL
MODEL 5
REMARK VINA RESULT:      -5.8      3.297      4.058
REMARK  1 active torsions:
REMARK  status: ('A' for Active; 'I' for Inactive)
REMARK    1  A    between atoms: N6_6  and  C7_7 
ROOT
ATOM      1  C1  ZIN A   1      16.624   5.841  12.659  0.00  0.00     0.070 C 
ATOM      2  C2  ZIN A   1      17.499   4.780  12.044  0.00  0.00     0.028 A 
ATOM      3  C3  ZIN A   1      18.756   4.477  12.425  0.00  0.00     0.102 A 
ATOM      4  C4  ZIN A   1      19.225   3.428  11.599  0.00  0.00     0.268 A 
ATOM      5  O5  ZIN A   1      20.321   2.900  11.659  0.00  0.00    -0.266 OA
ATOM      6  N6  ZIN A   1      18.238   3.118  10.734  0.00  0.00    -0.221 N 
ATOM      7  N13 ZIN A   1      17.151   3.956  11.010  0.00  0.00    -0.295 N 
ATOM      8  H23 ZIN A   1      16.300   3.958  10.545  0.00  0.00     0.187 HD
ENDROOT
BRANCH   6   9
ATOM      9  C7  ZIN A   1      18.289   2.132   9.743  0.00  0.00     0.060 A 
ATOM     10  C12 ZIN A   1      17.603   0.936   9.915  0.00  0.00     0.031 A 
ATOM     11  C11 ZIN A   1      17.650  -0.032   8.932  0.00  0.00     0.002 A 
ATOM     12  C10 ZIN A   1      18.389   0.181   7.783  0.00  0.00     0.000 A 
ATOM     13  C9  ZIN A   1      19.078   1.369   7.612  0.00  0.00     0.002 A 
ATOM     14  C8  ZIN A   1      19.031   2.344   8.588  0.00  0.00     0.031 A 
ENDBRANCH   6   9
TORSDOF 1
ENDMDL
MODEL 6
REMARK VINA RESULT:      -5.8      3.202      3.926
REMARK  1 active torsions:
REMARK  status: ('A' for Active; 'I' for Inactive)
REMARK    1  A    between atoms: N6_6  and  C7_7 
ROOT
ATOM      1  C1  ZIN A   1      17.038  -0.626  16.810  0.00  0.00     0.070 C 
ATOM      2  C2  ZIN A   1      17.790  -0.022  15.652  0.00  0.00     0.028 A 
ATOM      3  C3  ZIN A   1      19.009  -0.402  15.221  0.00  0.00     0.102 A 
ATOM      4  C4  ZIN A   1      19.357   0.411  14.117  0.00  0.00     0.268 A 
ATOM      5  O5  ZIN A   1      20.390   0.349  13.474  0.00  0.00    -0.266 OA
ATOM      6  N6  ZIN A   1      18.338   1.269  13.904  0.00  0.00    -0.221 N 
ATOM      7  N13 ZIN A   1      17.349   0.999  14.858  0.00  0.00    -0.295 N 
ATOM      8  H23 ZIN A   1      16.501   1.461  14.946  0.00  0.00     0.187 HD
ENDROOT
BRANCH   6   9
ATOM      9  C7  ZIN A   1      18.276   2.246  12.906  0.00  0.00     0.060 A 
ATOM     10  C12 ZIN A   1      17.731   1.941  11.665  0.00  0.00     0.031 A 
ATOM     11  C11 ZIN A   1      17.666   2.911  10.684  0.00  0.00     0.002 A 
ATOM     12  C10 ZIN A   1      18.156   4.180  10.930  0.00  0.00     0.000 A 
ATOM     13  C9  ZIN A   1      18.705   4.485  12.163  0.00  0.00     0.002 A 
ATOM     14  C8  ZIN A   1      18.767   3.522  13.150  0.00  0.00     0.031 A 
ENDBRANCH   6   9
TORSDOF 1
ENDMDL
MODEL 7
REMARK VINA RESULT:      -5.7      2.048      2.452
REMARK  1 active torsions:
REMARK  status: ('A' for Active; 'I' for Inactive)
REMARK    1  A    between atoms: N6_6  and  C7_7 
ROOT
ATOM      1  C1  ZIN A   1      19.904  -4.510  11.431  0.00  0.00     0.070 C 
ATOM      2  C2  ZIN A   1      19.224  -3.235  11.003  0.00  0.00     0.028 A 
ATOM      3  C3  ZIN A   1      18.123  -2.702  11.569  0.00  0.00     0.102 A 
ATOM      4  C4  ZIN A   1      17.807  -1.509  10.877  0.00  0.00     0.268 A 
ATOM      5  O5  ZIN A   1      16.874  -0.764  11.116  0.00  0.00    -0.266 OA
ATOM      6  N6  ZIN A   1      18.726  -1.347   9.903  0.00  0.00    -0.221 N 
ATOM      7  N13 ZIN A   1      19.621  -2.422   9.980  0.00  0.00    -0.295 N 
ATOM      8  H23 ZIN A   1      20.387  -2.567   9.403  0.00  0.00     0.187 HD
ENDROOT
BRANCH   6   9
ATOM      9  C7  ZIN A   1      18.780  -0.293   8.987  0.00  0.00     0.060 A 
ATOM     10  C12 ZIN A   1      19.202   0.966   9.397  0.00  0.00     0.031 A 
ATOM     11  C11 ZIN A   1      19.260   2.003   8.487  0.00  0.00     0.002 A 
ATOM     12  C10 ZIN A   1      18.885   1.795   7.173  0.00  0.00     0.000 A 
ATOM     13  C9  ZIN A   1      18.459   0.544   6.763  0.00  0.00     0.002 A 
ATOM     14  C8  ZIN A   1      18.404  -0.499   7.665  0.00  0.00     0.031 A 
ENDBRANCH   6   9
TORSDOF 1
ENDMDL
MODEL 8
REMARK VINA RESULT:      -5.6      5.144      6.925
REMARK  1 active torsions:
REMARK  status: ('A' for Active; 'I' for Inactive)
REMARK    1  A    between atoms: N6_6  and  C7_7 
ROOT
ATOM      1  C1  ZIN A   1      17.676   5.318  17.732  0.00  0.00     0.070 C 
ATOM      2  C2  ZIN A   1      18.220   3.919  17.594  0.00  0.00     0.028 A 
ATOM      3  C3  ZIN A   1      18.878   3.232  18.549  0.00  0.00     0.102 A 
ATOM      4  C4  ZIN A   1      19.217   1.964  18.023  0.00  0.00     0.268 A 
ATOM      5  O5  ZIN A   1      19.817   1.079  18.608  0.00  0.00    -0.266 OA
ATOM      6  N6  ZIN A   1      18.756   1.910  16.757  0.00  0.00    -0.221 N 
ATOM      7  N13 ZIN A   1      18.124   3.130  16.483  0.00  0.00    -0.295 N 
ATOM      8  H23 ZIN A   1      17.698   3.375  15.647  0.00  0.00     0.187 HD
ENDROOT
BRANCH   6   9
ATOM      9  C7  ZIN A   1      18.880   0.830  15.878  0.00  0.00     0.060 A 
ATOM     10  C12 ZIN A   1      19.502   1.001  14.648  0.00  0.00     0.031 A 
ATOM     11  C11 ZIN A   1      19.628  -0.070  13.785  0.00  0.00     0.002 A 
ATOM     12  C10 ZIN A   1      19.126  -1.308  14.139  0.00  0.00     0.000 A 
ATOM     13  C9  ZIN A   1      18.501  -1.481  15.361  0.00  0.00     0.002 A 
ATOM     14  C8  ZIN A   1      18.376  -0.416  16.230  0.00  0.00     0.031 A 
ENDBRANCH   6   9
TORSDOF 1
ENDMDL
MODEL 9
REMARK VINA RESULT:      -5.6      5.505      6.991
REMARK  1 active torsions:
REMARK  status: ('A' for Active; 'I' for Inactive)
REMARK    1  A    between atoms: N6_6  and  C7_7 
ROOT
ATOM      1  C1  ZIN A   1      17.361   5.755  14.221  0.00  0.00     0.070 C 
ATOM      2  C2  ZIN A   1      17.978   4.596  14.961  0.00  0.00     0.028 A 
ATOM      3  C3  ZIN A   1      18.892   4.689  15.947  0.00  0.00     0.102 A 
ATOM      4  C4  ZIN A   1      19.211   3.378  16.375  0.00  0.00     0.268 A 
ATOM      5  O5  ZIN A   1      20.002   3.080  17.252  0.00  0.00    -0.266 OA
ATOM      6  N6  ZIN A   1      18.481   2.519  15.636  0.00  0.00    -0.221 N 
ATOM      7  N13 ZIN A   1      17.700   3.275  14.751  0.00  0.00    -0.295 N 
ATOM      8  H23 ZIN A   1      17.077   2.922  14.098  0.00  0.00     0.187 HD
ENDROOT
BRANCH   6   9
ATOM      9  C7  ZIN A   1      18.495   1.124  15.738  0.00  0.00     0.060 A 
ATOM     10  C12 ZIN A   1      19.237   0.368  14.840  0.00  0.00     0.031 A 
ATOM     11  C11 ZIN A   1      19.254  -1.009  14.947  0.00  0.00     0.002 A 
ATOM     12  C10 ZIN A   1      18.522  -1.635  15.939  0.00  0.00     0.000 A 
ATOM     13  C9  ZIN A   1      17.777  -0.885  16.831  0.00  0.00     0.002 A 
ATOM     14  C8  ZIN A   1      17.761   0.492  16.733  0.00  0.00     0.031 A 
ENDBRANCH   6   9
TORSDOF 1
ENDMDL
