MODEL 1
REMARK VINA RESULT:      -6.2      0.000      0.000
REMARK  6 active torsions:
REMARK  status: ('A' for Active; 'I' for Inactive)
REMARK    1  A    between atoms: N1_1  and  C2_2 
REMARK    2  A    between atoms: N6_6  and  C7_7 
REMARK    3  A    between atoms: C10_9  and  C12_10 
REMARK    4  A    between atoms: C12_10  and  O13_11 
REMARK    5  A    between atoms: C14_12  and  O16_13 
REMARK    6  A    between atoms: C17_14  and  O19_15 
ROOT
ATOM      1  C7  ZIN A   1      19.205  -1.188   9.877  0.00  0.00     0.265 C 
ATOM      2  O9  ZIN A   1      17.882  -1.025  10.431  0.00  0.00    -0.353 OA
ATOM      3  C10 ZIN A   1      18.036  -0.903  11.856  0.00  0.00     0.179 C 
ATOM      4  C14 ZIN A   1      19.443  -0.333  12.116  0.00  0.00     0.182 C 
ATOM      5  C17 ZIN A   1      20.072  -0.206  10.706  0.00  0.00     0.198 C 
ENDROOT
BRANCH   1   6
ATOM      6  N6  ZIN A   1      19.219  -0.817   8.459  0.00  0.00    -0.261 N 
ATOM      7  C4  ZIN A   1      19.281  -1.773   7.509  0.00  0.00     0.367 A 
ATOM      8  N3  ZIN A   1      19.293  -1.420   6.220  0.00  0.00    -0.004 NA
ATOM      9  O5  ZIN A   1      19.325  -2.949   7.823  0.00  0.00    -0.244 OA
ATOM     10  C2  ZIN A   1      19.245  -0.140   5.882  0.00  0.00     0.725 A 
ATOM     11  N21 ZIN A   1      19.190   0.809   6.827  0.00  0.00    -0.058 NA
ATOM     12  C20 ZIN A   1      19.171   0.483   8.095  0.00  0.00     0.236 A 
BRANCH  10  13
ATOM     13  N1  ZIN A   1      19.258   0.217   4.557  0.00  0.00    -0.231 N 
ATOM     14  H22 ZIN A   1      19.742   1.009   4.272  0.00  0.00     0.174 HD
ATOM     15  H23 ZIN A   1      18.788  -0.324   3.904  0.00  0.00     0.174 HD
ENDBRANCH  10  13
ENDBRANCH   1   6
BRANCH   5  16
ATOM     16  O19 ZIN A   1      21.442  -0.611  10.718  0.00  0.00    -0.388 OA
ATOM     17  H28 ZIN A   1      21.717  -1.045  11.537  0.00  0.00     0.210 HD
ENDBRANCH   5  16
BRANCH   4  18
ATOM     18  O16 ZIN A   1      20.206  -1.234  12.923  0.00  0.00    -0.390 OA
ATOM     19  H27 ZIN A   1      19.947  -1.244  13.855  0.00  0.00     0.210 HD
ENDBRANCH   4  18
BRANCH   3  20
ATOM     20  C12 ZIN A   1      16.975   0.048  12.414  0.00  0.00     0.198 C 
BRANCH  20  21
ATOM     21  O13 ZIN A   1      15.878   0.125  11.501  0.00  0.00    -0.398 OA
ATOM     22  H26 ZIN A   1      15.664  -0.715  11.072  0.00  0.00     0.209 HD
ENDBRANCH  20  21
ENDBRANCH   3  20
TORSDOF 6
ENDMDL
MODEL 2
REMARK VINA RESULT:      -6.1      2.967      3.549
REMARK  6 active torsions:
REMARK  status: ('A' for Active; 'I' for Inactive)
REMARK    1  A    between atoms: N1_1  and  C2_2 
REMARK    2  A    between atoms: N6_6  and  C7_7 
REMARK    3  A    between atoms: C10_9  and  C12_10 
REMARK    4  A    between atoms: C12_10  and  O13_11 
REMARK    5  A    between atoms: C14_12  and  O16_13 
REMARK    6  A    between atoms: C17_14  and  O19_15 
ROOT
ATOM      1  C7  ZIN A   1      19.935  -1.744  11.421  0.00  0.00     0.265 C 
ATOM      2  O9  ZIN A   1      19.184  -1.392  12.602  0.00  0.00    -0.353 OA
ATOM      3  C10 ZIN A   1      19.795  -0.212  13.151  0.00  0.00     0.179 C 
ATOM      4  C14 ZIN A   1      20.479   0.532  11.989  0.00  0.00     0.182 C 
ATOM      5  C17 ZIN A   1      20.237  -0.376  10.758  0.00  0.00     0.198 C 
ENDROOT
BRANCH   1   6
ATOM      6  N6  ZIN A   1      19.130  -2.583  10.529  0.00  0.00    -0.261 N 
ATOM      7  C4  ZIN A   1      19.185  -3.928  10.628  0.00  0.00     0.367 A 
ATOM      8  N3  ZIN A   1      18.446  -4.680   9.808  0.00  0.00    -0.004 NA
ATOM      9  O5  ZIN A   1      19.904  -4.452  11.461  0.00  0.00    -0.244 OA
ATOM     10  C2  ZIN A   1      17.665  -4.105   8.904  0.00  0.00     0.725 A 
ATOM     11  N21 ZIN A   1      17.615  -2.769   8.802  0.00  0.00    -0.058 NA
ATOM     12  C20 ZIN A   1      18.328  -2.016   9.601  0.00  0.00     0.236 A 
BRANCH  10  13
ATOM     13  N1  ZIN A   1      16.908  -4.882   8.065  0.00  0.00    -0.231 N 
ATOM     14  H22 ZIN A   1      16.240  -4.470   7.493  0.00  0.00     0.174 HD
ATOM     15  H23 ZIN A   1      17.043  -5.842   8.038  0.00  0.00     0.174 HD
ENDBRANCH  10  13
ENDBRANCH   1   6
BRANCH   5  16
ATOM     16  O19 ZIN A   1      21.404  -0.447   9.937  0.00  0.00    -0.388 OA
ATOM     17  H28 ZIN A   1      21.977  -1.202  10.132  0.00  0.00     0.210 HD
ENDBRANCH   5  16
BRANCH   4  18
ATOM     18  O16 ZIN A   1      21.880   0.670  12.240  0.00  0.00    -0.390 OA
ATOM     19  H27 ZIN A   1      22.287   1.426  11.794  0.00  0.00     0.210 HD
ENDBRANCH   4  18
BRANCH   3  20
ATOM     20  C12 ZIN A   1      18.726   0.680  13.787  0.00  0.00     0.198 C 
BRANCH  20  21
ATOM     21  O13 ZIN A   1      19.342   1.855  14.319  0.00  0.00    -0.398 OA
ATOM     22  H26 ZIN A   1      18.779   2.352  14.929  0.00  0.00     0.209 HD
ENDBRANCH  20  21
ENDBRANCH   3  20
TORSDOF 6
ENDMDL
MODEL 3
REMARK VINA RESULT:      -6.1      4.416      6.385
REMARK  6 active torsions:
REMARK  status: ('A' for Active; 'I' for Inactive)
REMARK    1  A    between atoms: N1_1  and  C2_2 
REMARK    2  A    between atoms: N6_6  and  C7_7 
REMARK    3  A    between atoms: C10_9  and  C12_10 
REMARK    4  A    between atoms: C12_10  and  O13_11 
REMARK    5  A    between atoms: C14_12  and  O16_13 
REMARK    6  A    between atoms: C17_14  and  O19_15 
ROOT
ATOM      1  C7  ZIN A   1      19.381   1.376  12.003  0.00  0.00     0.265 C 
ATOM      2  O9  ZIN A   1      18.214   0.715  11.470  0.00  0.00    -0.353 OA
ATOM      3  C10 ZIN A   1      18.682  -0.283  10.546  0.00  0.00     0.179 C 
ATOM      4  C14 ZIN A   1      20.100  -0.689  10.992  0.00  0.00     0.182 C 
ATOM      5  C17 ZIN A   1      20.392   0.220  12.212  0.00  0.00     0.198 C 
ENDROOT
BRANCH   1   6
ATOM      6  N6  ZIN A   1      19.068   2.025  13.279  0.00  0.00    -0.261 N 
ATOM      7  C4  ZIN A   1      18.858   3.357  13.330  0.00  0.00     0.367 A 
ATOM      8  N3  ZIN A   1      18.573   3.934  14.501  0.00  0.00    -0.004 NA
ATOM      9  O5  ZIN A   1      18.926   4.028  12.315  0.00  0.00    -0.244 OA
ATOM     10  C2  ZIN A   1      18.500   3.200  15.602  0.00  0.00     0.725 A 
ATOM     11  N21 ZIN A   1      18.715   1.878  15.552  0.00  0.00    -0.058 NA
ATOM     12  C20 ZIN A   1      18.989   1.293  14.413  0.00  0.00     0.236 A 
BRANCH  10  13
ATOM     13  N1  ZIN A   1      18.208   3.799  16.802  0.00  0.00    -0.231 N 
ATOM     14  H22 ZIN A   1      17.819   3.277  17.522  0.00  0.00     0.174 HD
ATOM     15  H23 ZIN A   1      18.394   4.742  16.932  0.00  0.00     0.174 HD
ENDBRANCH  10  13
ENDBRANCH   1   6
BRANCH   5  16
ATOM     16  O19 ZIN A   1      21.738   0.700  12.182  0.00  0.00    -0.388 OA
ATOM     17  H28 ZIN A   1      21.900   1.453  12.766  0.00  0.00     0.210 HD
ENDBRANCH   5  16
BRANCH   4  18
ATOM     18  O16 ZIN A   1      21.043  -0.438   9.946  0.00  0.00    -0.390 OA
ATOM     19  H27 ZIN A   1      20.818   0.319   9.387  0.00  0.00     0.210 HD
ENDBRANCH   4  18
BRANCH   3  20
ATOM     20  C12 ZIN A   1      17.754  -1.500  10.581  0.00  0.00     0.198 C 
BRANCH  20  21
ATOM     21  O13 ZIN A   1      16.958  -1.456  11.767  0.00  0.00    -0.398 OA
ATOM     22  H26 ZIN A   1      16.282  -2.146  11.812  0.00  0.00     0.209 HD
ENDBRANCH  20  21
ENDBRANCH   3  20
TORSDOF 6
ENDMDL
MODEL 4
REMARK VINA RESULT:      -6.1      2.973      3.968
REMARK  6 active torsions:
REMARK  status: ('A' for Active; 'I' for Inactive)
REMARK    1  A    between atoms: N1_1  and  C2_2 
REMARK    2  A    between atoms: N6_6  and  C7_7 
REMARK    3  A    between atoms: C10_9  and  C12_10 
REMARK    4  A    between atoms: C12_10  and  O13_11 
REMARK    5  A    between atoms: C14_12  and  O16_13 
REMARK    6  A    between atoms: C17_14  and  O19_15 
ROOT
ATOM      1  C7  ZIN A   1      19.124  -0.108  10.246  0.00  0.00     0.265 C 
ATOM      2  O9  ZIN A   1      18.028  -1.046  10.277  0.00  0.00    -0.353 OA
ATOM      3  C10 ZIN A   1      18.551  -2.287  10.781  0.00  0.00     0.179 C 
ATOM      4  C14 ZIN A   1      19.765  -1.945  11.666  0.00  0.00     0.182 C 
ATOM      5  C17 ZIN A   1      19.897  -0.405  11.556  0.00  0.00     0.198 C 
ENDROOT
BRANCH   1   6
ATOM      6  N6  ZIN A   1      18.625   1.270  10.243  0.00  0.00    -0.261 N 
ATOM      7  C4  ZIN A   1      18.988   2.122   9.262  0.00  0.00     0.367 A 
ATOM      8  N3  ZIN A   1      18.525   3.375   9.273  0.00  0.00    -0.004 NA
ATOM      9  O5  ZIN A   1      19.733   1.750   8.372  0.00  0.00    -0.244 OA
ATOM     10  C2  ZIN A   1      17.715   3.774  10.243  0.00  0.00     0.725 A 
ATOM     11  N21 ZIN A   1      17.360   2.929  11.220  0.00  0.00    -0.058 NA
ATOM     12  C20 ZIN A   1      17.798   1.696  11.224  0.00  0.00     0.236 A 
BRANCH  10  13
ATOM     13  N1  ZIN A   1      17.242   5.062  10.249  0.00  0.00    -0.231 N 
ATOM     14  H22 ZIN A   1      17.577   5.699  10.900  0.00  0.00     0.174 HD
ATOM     15  H23 ZIN A   1      16.578   5.339   9.599  0.00  0.00     0.174 HD
ENDBRANCH  10  13
ENDBRANCH   1   6
BRANCH   5  16
ATOM     16  O19 ZIN A   1      21.267  -0.016  11.447  0.00  0.00    -0.388 OA
ATOM     17  H28 ZIN A   1      21.538   0.654  12.088  0.00  0.00     0.210 HD
ENDBRANCH   5  16
BRANCH   4  18
ATOM     18  O16 ZIN A   1      20.943  -2.584  11.165  0.00  0.00    -0.390 OA
ATOM     19  H27 ZIN A   1      20.953  -2.694  10.205  0.00  0.00     0.210 HD
ENDBRANCH   4  18
BRANCH   3  20
ATOM     20  C12 ZIN A   1      17.483  -3.002  11.611  0.00  0.00     0.198 C 
BRANCH  20  21
ATOM     21  O13 ZIN A   1      17.959  -4.297  11.984  0.00  0.00    -0.398 OA
ATOM     22  H26 ZIN A   1      17.453  -5.027  11.602  0.00  0.00     0.209 HD
ENDBRANCH  20  21
ENDBRANCH   3  20
TORSDOF 6
ENDMDL
MODEL 5
REMARK VINA RESULT:      -6.0      3.318      3.767
REMARK  6 active torsions:
REMARK  status: ('A' for Active; 'I' for Inactive)
REMARK    1  A    between atoms: N1_1  and  C2_2 
REMARK    2  A    between atoms: N6_6  and  C7_7 
REMARK    3  A    between atoms: C10_9  and  C12_10 
REMARK    4  A    between atoms: C12_10  and  O13_11 
REMARK    5  A    between atoms: C14_12  and  O16_13 
REMARK    6  A    between atoms: C17_14  and  O19_15 
ROOT
ATOM      1  C7  ZIN A   1      18.268   2.158  10.978  0.00  0.00     0.265 C 
ATOM      2  O9  ZIN A   1      17.165   3.086  11.039  0.00  0.00    -0.353 OA
ATOM      3  C10 ZIN A   1      17.461   4.022  12.090  0.00  0.00     0.179 C 
ATOM      4  C14 ZIN A   1      18.994   4.086  12.226  0.00  0.00     0.182 C 
ATOM      5  C17 ZIN A   1      19.513   3.056  11.192  0.00  0.00     0.198 C 
ENDROOT
BRANCH   1   6
ATOM      6  N6  ZIN A   1      18.322   1.505   9.667  0.00  0.00    -0.261 N 
ATOM      7  C4  ZIN A   1      17.611   0.382   9.438  0.00  0.00     0.367 A 
ATOM      8  N3  ZIN A   1      17.669  -0.202   8.238  0.00  0.00    -0.004 NA
ATOM      9  O5  ZIN A   1      16.919  -0.096  10.320  0.00  0.00    -0.244 OA
ATOM     10  C2  ZIN A   1      18.423   0.322   7.282  0.00  0.00     0.725 A 
ATOM     11  N21 ZIN A   1      19.134   1.435   7.512  0.00  0.00    -0.058 NA
ATOM     12  C20 ZIN A   1      19.084   2.025   8.680  0.00  0.00     0.236 A 
BRANCH  10  13
ATOM     13  N1  ZIN A   1      18.479  -0.281   6.051  0.00  0.00    -0.231 N 
ATOM     14  H22 ZIN A   1      19.302  -0.702   5.754  0.00  0.00     0.174 HD
ATOM     15  H23 ZIN A   1      17.696  -0.292   5.479  0.00  0.00     0.174 HD
ENDBRANCH  10  13
ENDBRANCH   1   6
BRANCH   5  16
ATOM     16  O19 ZIN A   1      20.606   2.305  11.723  0.00  0.00    -0.388 OA
ATOM     17  H28 ZIN A   1      21.466   2.545  11.353  0.00  0.00     0.210 HD
ENDBRANCH   5  16
BRANCH   4  18
ATOM     18  O16 ZIN A   1      19.394   3.712  13.547  0.00  0.00    -0.390 OA
ATOM     19  H27 ZIN A   1      18.760   3.958  14.235  0.00  0.00     0.210 HD
ENDBRANCH   4  18
BRANCH   3  20
ATOM     20  C12 ZIN A   1      16.910   5.403  11.727  0.00  0.00     0.198 C 
BRANCH  20  21
ATOM     21  O13 ZIN A   1      17.069   5.625  10.324  0.00  0.00    -0.398 OA
ATOM     22  H26 ZIN A   1      16.387   6.190   9.935  0.00  0.00     0.209 HD
ENDBRANCH  20  21
ENDBRANCH   3  20
TORSDOF 6
ENDMDL
MODEL 6
REMARK VINA RESULT:      -6.0      4.322      5.596
REMARK  6 active torsions:
REMARK  status: ('A' for Active; 'I' for Inactive)
REMARK    1  A    between atoms: N1_1  and  C2_2 
REMARK    2  A    between atoms: N6_6  and  C7_7 
REMARK    3  A    between atoms: C10_9  and  C12_10 
REMARK    4  A    between atoms: C12_10  and  O13_11 
REMARK    5  A    between atoms: C14_12  and  O16_13 
REMARK    6  A    between atoms: C17_14  and  O19_15 
ROOT
ATOM      1  C7  ZIN A   1      17.706   1.486  13.029  0.00  0.00     0.265 C 
ATOM      2  O9  ZIN A   1      18.376   2.343  12.082  0.00  0.00    -0.353 OA
ATOM      3  C10 ZIN A   1      18.564   3.615  12.725  0.00  0.00     0.179 C 
ATOM      4  C14 ZIN A   1      18.619   3.356  14.243  0.00  0.00     0.182 C 
ATOM      5  C17 ZIN A   1      18.386   1.830  14.379  0.00  0.00     0.198 C 
ENDROOT
BRANCH   1   6
ATOM      6  N6  ZIN A   1      17.917   0.077  12.690  0.00  0.00    -0.261 N 
ATOM      7  C4  ZIN A   1      17.004  -0.588  11.951  0.00  0.00     0.367 A 
ATOM      8  N3  ZIN A   1      17.211  -1.873  11.648  0.00  0.00    -0.004 NA
ATOM      9  O5  ZIN A   1      16.000  -0.019  11.560  0.00  0.00    -0.244 OA
ATOM     10  C2  ZIN A   1      18.305  -2.487  12.075  0.00  0.00     0.725 A 
ATOM     11  N21 ZIN A   1      19.208  -1.828  12.814  0.00  0.00    -0.058 NA
ATOM     12  C20 ZIN A   1      19.027  -0.567  13.115  0.00  0.00     0.236 A 
BRANCH  10  13
ATOM     13  N1  ZIN A   1      18.512  -3.806  11.761  0.00  0.00    -0.231 N 
ATOM     14  H22 ZIN A   1      19.239  -4.296  12.178  0.00  0.00     0.174 HD
ATOM     15  H23 ZIN A   1      17.928  -4.253  11.129  0.00  0.00     0.174 HD
ENDBRANCH  10  13
ENDBRANCH   1   6
BRANCH   5  16
ATOM     16  O19 ZIN A   1      17.524   1.540  15.480  0.00  0.00    -0.388 OA
ATOM     17  H28 ZIN A   1      17.486   2.241  16.145  0.00  0.00     0.210 HD
ENDBRANCH   5  16
BRANCH   4  18
ATOM     18  O16 ZIN A   1      17.582   4.080  14.911  0.00  0.00    -0.390 OA
ATOM     19  H27 ZIN A   1      17.565   5.024  14.703  0.00  0.00     0.210 HD
ENDBRANCH   4  18
BRANCH   3  20
ATOM     20  C12 ZIN A   1      19.876   4.248  12.255  0.00  0.00     0.198 C 
BRANCH  20  21
ATOM     21  O13 ZIN A   1      20.747   3.226  11.765  0.00  0.00    -0.398 OA
ATOM     22  H26 ZIN A   1      21.064   2.618  12.447  0.00  0.00     0.209 HD
ENDBRANCH  20  21
ENDBRANCH   3  20
TORSDOF 6
ENDMDL
MODEL 7
REMARK VINA RESULT:      -6.0      3.895      5.454
REMARK  6 active torsions:
REMARK  status: ('A' for Active; 'I' for Inactive)
REMARK    1  A    between atoms: N1_1  and  C2_2 
REMARK    2  A    between atoms: N6_6  and  C7_7 
REMARK    3  A    between atoms: C10_9  and  C12_10 
REMARK    4  A    between atoms: C12_10  and  O13_11 
REMARK    5  A    between atoms: C14_12  and  O16_13 
REMARK    6  A    between atoms: C17_14  and  O19_15 
ROOT
ATOM      1  C7  ZIN A   1      19.861   1.759  10.618  0.00  0.00     0.265 C 
ATOM      2  O9  ZIN A   1      19.339   1.114   9.437  0.00  0.00    -0.353 OA
ATOM      3  C10 ZIN A   1      19.991  -0.163   9.334  0.00  0.00     0.179 C 
ATOM      4  C14 ZIN A   1      20.399  -0.585  10.758  0.00  0.00     0.182 C 
ATOM      5  C17 ZIN A   1      19.963   0.605  11.649  0.00  0.00     0.198 C 
ENDROOT
BRANCH   1   6
ATOM      6  N6  ZIN A   1      18.937   2.793  11.092  0.00  0.00    -0.261 N 
ATOM      7  C4  ZIN A   1      19.398   3.838  11.810  0.00  0.00     0.367 A 
ATOM      8  N3  ZIN A   1      18.545   4.774  12.235  0.00  0.00    -0.004 NA
ATOM      9  O5  ZIN A   1      20.586   3.929  12.067  0.00  0.00    -0.244 OA
ATOM     10  C2  ZIN A   1      17.254   4.671  11.952  0.00  0.00     0.725 A 
ATOM     11  N21 ZIN A   1      16.795   3.629  11.245  0.00  0.00    -0.058 NA
ATOM     12  C20 ZIN A   1      17.617   2.706  10.814  0.00  0.00     0.236 A 
BRANCH  10  13
ATOM     13  N1  ZIN A   1      16.381   5.635  12.391  0.00  0.00    -0.231 N 
ATOM     14  H22 ZIN A   1      16.244   6.440  11.867  0.00  0.00     0.174 HD
ATOM     15  H23 ZIN A   1      15.898   5.510  13.222  0.00  0.00     0.174 HD
ENDBRANCH  10  13
ENDBRANCH   1   6
BRANCH   5  16
ATOM     16  O19 ZIN A   1      20.949   0.888  12.643  0.00  0.00    -0.388 OA
ATOM     17  H28 ZIN A   1      20.694   0.621  13.537  0.00  0.00     0.210 HD
ENDBRANCH   5  16
BRANCH   4  18
ATOM     18  O16 ZIN A   1      21.814  -0.775  10.837  0.00  0.00    -0.390 OA
ATOM     19  H27 ZIN A   1      22.097  -1.688  10.687  0.00  0.00     0.210 HD
ENDBRANCH   4  18
BRANCH   3  20
ATOM     20  C12 ZIN A   1      19.026  -1.192   8.739  0.00  0.00     0.198 C 
BRANCH  20  21
ATOM     21  O13 ZIN A   1      18.831  -2.256   9.674  0.00  0.00    -0.398 OA
ATOM     22  H26 ZIN A   1      18.470  -3.063   9.282  0.00  0.00     0.209 HD
ENDBRANCH  20  21
ENDBRANCH   3  20
TORSDOF 6
ENDMDL
MODEL 8
REMARK VINA RESULT:      -5.9      4.514      6.949
REMARK  6 active torsions:
REMARK  status: ('A' for Active; 'I' for Inactive)
REMARK    1  A    between atoms: N1_1  and  C2_2 
REMARK    2  A    between atoms: N6_6  and  C7_7 
REMARK    3  A    between atoms: C10_9  and  C12_10 
REMARK    4  A    between atoms: C12_10  and  O13_11 
REMARK    5  A    between atoms: C14_12  and  O16_13 
REMARK    6  A    between atoms: C17_14  and  O19_15 
ROOT
ATOM      1  C7  ZIN A   1      19.121   0.051  12.779  0.00  0.00     0.265 C 
ATOM      2  O9  ZIN A   1      18.702  -1.264  12.358  0.00  0.00    -0.353 OA
ATOM      3  C10 ZIN A   1      19.229  -1.470  11.036  0.00  0.00     0.179 C 
ATOM      4  C14 ZIN A   1      20.491  -0.596  10.906  0.00  0.00     0.182 C 
ATOM      5  C17 ZIN A   1      20.578   0.154  12.259  0.00  0.00     0.198 C 
ENDROOT
BRANCH   1   6
ATOM      6  N6  ZIN A   1      19.087   0.161  14.240  0.00  0.00    -0.261 N 
ATOM      7  C4  ZIN A   1      19.004   1.372  14.827  0.00  0.00     0.367 A 
ATOM      8  N3  ZIN A   1      18.973   1.458  16.160  0.00  0.00    -0.004 NA
ATOM      9  O5  ZIN A   1      18.956   2.382  14.147  0.00  0.00    -0.244 OA
ATOM     10  C2  ZIN A   1      19.024   0.357  16.896  0.00  0.00     0.725 A 
ATOM     11  N21 ZIN A   1      19.113  -0.846  16.312  0.00  0.00    -0.058 NA
ATOM     12  C20 ZIN A   1      19.138  -0.950  15.007  0.00  0.00     0.236 A 
BRANCH  10  13
ATOM     13  N1  ZIN A   1      18.992   0.450  18.265  0.00  0.00    -0.231 N 
ATOM     14  H22 ZIN A   1      18.867   1.313  18.690  0.00  0.00     0.174 HD
ATOM     15  H23 ZIN A   1      19.089  -0.348  18.808  0.00  0.00     0.174 HD
ENDBRANCH  10  13
ENDBRANCH   1   6
BRANCH   5  16
ATOM     16  O19 ZIN A   1      20.961   1.516  12.064  0.00  0.00    -0.388 OA
ATOM     17  H28 ZIN A   1      20.479   1.964  11.355  0.00  0.00     0.210 HD
ENDBRANCH   5  16
BRANCH   4  18
ATOM     18  O16 ZIN A   1      20.346   0.333   9.828  0.00  0.00    -0.390 OA
ATOM     19  H27 ZIN A   1      20.544  -0.039   8.958  0.00  0.00     0.210 HD
ENDBRANCH   4  18
BRANCH   3  20
ATOM     20  C12 ZIN A   1      19.591  -2.944  10.844  0.00  0.00     0.198 C 
BRANCH  20  21
ATOM     21  O13 ZIN A   1      20.873  -3.198  11.424  0.00  0.00    -0.398 OA
ATOM     22  H26 ZIN A   1      20.892  -3.113  12.388  0.00  0.00     0.209 HD
ENDBRANCH  20  21
ENDBRANCH   3  20
TORSDOF 6
ENDMDL
MODEL 9
REMARK VINA RESULT:      -5.8      4.799      7.125
REMARK  6 active torsions:
REMARK  status: ('A' for Active; 'I' for Inactive)
REMARK    1  A    between atoms: N1_1  and  C2_2 
REMARK    2  A    between atoms: N6_6  and  C7_7 
REMARK    3  A    between atoms: C10_9  and  C12_10 
REMARK    4  A    between atoms: C12_10  and  O13_11 
REMARK    5  A    between atoms: C14_12  and  O16_13 
REMARK    6  A    between atoms: C17_14  and  O19_15 
ROOT
ATOM      1  C7  ZIN A   1      19.172   1.244  13.261  0.00  0.00     0.265 C 
ATOM      2  O9  ZIN A   1      17.859   1.159  12.670  0.00  0.00    -0.353 OA
ATOM      3  C10 ZIN A   1      18.046   0.981  11.255  0.00  0.00     0.179 C 
ATOM      4  C14 ZIN A   1      19.415   0.303  11.057  0.00  0.00     0.182 C 
ATOM      5  C17 ZIN A   1      19.990   0.176  12.490  0.00  0.00     0.198 C 
ENDROOT
BRANCH   1   6
ATOM      6  N6  ZIN A   1      19.117   0.919  14.689  0.00  0.00    -0.261 N 
ATOM      7  C4  ZIN A   1      19.133   1.904  15.611  0.00  0.00     0.367 A 
ATOM      8  N3  ZIN A   1      19.082   1.593  16.909  0.00  0.00    -0.004 NA
ATOM      9  O5  ZIN A   1      19.193   3.070  15.261  0.00  0.00    -0.244 OA
ATOM     10  C2  ZIN A   1      19.017   0.324  17.284  0.00  0.00     0.725 A 
ATOM     11  N21 ZIN A   1      19.007  -0.655  16.369  0.00  0.00    -0.058 NA
ATOM     12  C20 ZIN A   1      19.050  -0.370  15.092  0.00  0.00     0.236 A 
BRANCH  10  13
ATOM     13  N1  ZIN A   1      18.965   0.009  18.619  0.00  0.00    -0.231 N 
ATOM     14  H22 ZIN A   1      18.177  -0.424  18.985  0.00  0.00     0.174 HD
ATOM     15  H23 ZIN A   1      19.717   0.215  19.196  0.00  0.00     0.174 HD
ENDBRANCH  10  13
ENDBRANCH   1   6
BRANCH   5  16
ATOM     16  O19 ZIN A   1      21.385   0.482  12.510  0.00  0.00    -0.388 OA
ATOM     17  H28 ZIN A   1      21.793   0.518  11.634  0.00  0.00     0.210 HD
ENDBRANCH   5  16
BRANCH   4  18
ATOM     18  O16 ZIN A   1      20.265   1.121  10.249  0.00  0.00    -0.390 OA
ATOM     19  H27 ZIN A   1      21.192   0.845  10.250  0.00  0.00     0.210 HD
ENDBRANCH   4  18
BRANCH   3  20
ATOM     20  C12 ZIN A   1      16.935   0.091  10.692  0.00  0.00     0.198 C 
BRANCH  20  21
ATOM     21  O13 ZIN A   1      15.857   0.026  11.628  0.00  0.00    -0.398 OA
ATOM     22  H26 ZIN A   1      15.391  -0.821  11.632  0.00  0.00     0.209 HD
ENDBRANCH  20  21
ENDBRANCH   3  20
TORSDOF 6
ENDMDL
