MODEL 1
REMARK VINA RESULT:      -9.2      0.000      0.000
REMARK  6 active torsions:
REMARK  status: ('A' for Active; 'I' for Inactive)
REMARK    1  A    between atoms: C2_2  and  N3_3 
REMARK    2  A    between atoms: C5_5  and  C7_6 
REMARK    3  A    between atoms: C7_6  and  C8_7 
REMARK    4  A    between atoms: C8_7  and  N9_8 
REMARK    5  A    between atoms: C15_14  and  C16_15 
REMARK    6  A    between atoms: C15_14  and  C22_21 
ROOT
ATOM      1  N3  ZIN A   1      18.084  -1.229  11.232  0.00  0.00    -0.351 N 
ATOM      2  C4  ZIN A   1      19.517  -1.095  10.945  0.00  0.00     0.132 C 
ATOM      3  C5  ZIN A   1      19.735   0.401  10.627  0.00  0.00     0.032 C 
ATOM      4  C15 ZIN A   1      18.333   0.826  10.133  0.00  0.00     0.100 C 
ATOM      5  C28 ZIN A   1      17.393  -0.169  10.777  0.00  0.00     0.238 C 
ATOM      6  O29 ZIN A   1      16.193  -0.028  10.875  0.00  0.00    -0.272 OA
ENDROOT
BRANCH   4   7
ATOM      7  C16 ZIN A   1      18.017   2.228  10.588  0.00  0.00    -0.035 A 
ATOM      8  C21 ZIN A   1      17.606   2.456  11.888  0.00  0.00     0.009 A 
ATOM      9  C20 ZIN A   1      17.320   3.741  12.308  0.00  0.00     0.001 A 
ATOM     10  C19 ZIN A   1      17.434   4.798  11.423  0.00  0.00     0.000 A 
ATOM     11  C18 ZIN A   1      17.839   4.569  10.121  0.00  0.00     0.001 A 
ATOM     12  C17 ZIN A   1      18.130   3.284   9.704  0.00  0.00     0.009 A 
ENDBRANCH   4   7
BRANCH   4  13
ATOM     13  C22 ZIN A   1      18.251   0.730   8.631  0.00  0.00    -0.035 A 
ATOM     14  C27 ZIN A   1      17.238   0.000   8.039  0.00  0.00     0.009 A 
ATOM     15  C26 ZIN A   1      17.160  -0.086   6.662  0.00  0.00     0.001 A 
ATOM     16  C25 ZIN A   1      18.102   0.553   5.876  0.00  0.00     0.000 A 
ATOM     17  C24 ZIN A   1      19.119   1.278   6.468  0.00  0.00     0.001 A 
ATOM     18  C23 ZIN A   1      19.193   1.367   7.845  0.00  0.00     0.009 A 
ENDBRANCH   4  13
BRANCH   3  19
ATOM     19  C7  ZIN A   1      20.132   1.176  11.885  0.00  0.00     0.038 C 
BRANCH  19  20
ATOM     20  C8  ZIN A   1      20.501   0.191  12.996  0.00  0.00     0.273 C 
BRANCH  20  21
ATOM     21  N9  ZIN A   1      19.406   0.121  13.973  0.00  0.00     0.092 N 
ATOM     22  C14 ZIN A   1      19.465  -1.130  14.743  0.00  0.00     0.298 C 
ATOM     23  C13 ZIN A   1      18.275  -1.188  15.704  0.00  0.00     0.198 C 
ATOM     24  O12 ZIN A   1      18.293  -0.033  16.547  0.00  0.00    -0.388 OA
ATOM     25  C11 ZIN A   1      18.236   1.203  15.830  0.00  0.00     0.198 C 
ATOM     26  C10 ZIN A   1      19.426   1.286  14.870  0.00  0.00     0.298 C 
ENDBRANCH  20  21
ENDBRANCH  19  20
ENDBRANCH   3  19
BRANCH   1  27
ATOM     27  C2  ZIN A   1      17.483  -2.373  11.920  0.00  0.00     0.121 C 
ATOM     28  C1  ZIN A   1      18.465  -3.546  11.917  0.00  0.00     0.026 C 
ENDBRANCH   1  27
TORSDOF 6
ENDMDL
MODEL 2
REMARK VINA RESULT:      -8.6      1.723      6.756
REMARK  6 active torsions:
REMARK  status: ('A' for Active; 'I' for Inactive)
REMARK    1  A    between atoms: C2_2  and  N3_3 
REMARK    2  A    between atoms: C5_5  and  C7_6 
REMARK    3  A    between atoms: C7_6  and  C8_7 
REMARK    4  A    between atoms: C8_7  and  N9_8 
REMARK    5  A    between atoms: C15_14  and  C16_15 
REMARK    6  A    between atoms: C15_14  and  C22_21 
ROOT
ATOM      1  N3  ZIN A   1      18.127   1.397  11.580  0.00  0.00    -0.351 N 
ATOM      2  C4  ZIN A   1      19.557   1.444  11.905  0.00  0.00     0.132 C 
ATOM      3  C5  ZIN A   1      19.974  -0.025  12.141  0.00  0.00     0.032 C 
ATOM      4  C15 ZIN A   1      18.634  -0.669  12.563  0.00  0.00     0.100 C 
ATOM      5  C28 ZIN A   1      17.580   0.225  11.949  0.00  0.00     0.238 C 
ATOM      6  O29 ZIN A   1      16.414  -0.073  11.805  0.00  0.00    -0.272 OA
ENDROOT
BRANCH   4   7
ATOM      7  C16 ZIN A   1      18.526  -2.069  12.016  0.00  0.00    -0.035 A 
ATOM      8  C21 ZIN A   1      17.339  -2.504  11.457  0.00  0.00     0.009 A 
ATOM      9  C20 ZIN A   1      17.241  -3.786  10.950  0.00  0.00     0.001 A 
ATOM     10  C19 ZIN A   1      18.329  -4.638  11.013  0.00  0.00     0.000 A 
ATOM     11  C18 ZIN A   1      19.514  -4.206  11.577  0.00  0.00     0.001 A 
ATOM     12  C17 ZIN A   1      19.613  -2.922  12.078  0.00  0.00     0.009 A 
ENDBRANCH   4   7
BRANCH   4  13
ATOM     13  C22 ZIN A   1      18.504  -0.680  14.064  0.00  0.00    -0.035 A 
ATOM     14  C27 ZIN A   1      17.534   0.089  14.680  0.00  0.00     0.009 A 
ATOM     15  C26 ZIN A   1      17.412   0.076  16.057  0.00  0.00     0.001 A 
ATOM     16  C25 ZIN A   1      18.266  -0.700  16.819  0.00  0.00     0.000 A 
ATOM     17  C24 ZIN A   1      19.239  -1.465  16.204  0.00  0.00     0.001 A 
ATOM     18  C23 ZIN A   1      19.358  -1.455  14.827  0.00  0.00     0.009 A 
ENDBRANCH   4  13
BRANCH   3  19
ATOM     19  C7  ZIN A   1      20.504  -0.657  10.852  0.00  0.00     0.038 C 
BRANCH  19  20
ATOM     20  C8  ZIN A   1      20.226   0.277   9.673  0.00  0.00     0.273 C 
BRANCH  20  21
ATOM     21  N9  ZIN A   1      19.160  -0.291   8.837  0.00  0.00     0.092 N 
ATOM     22  C14 ZIN A   1      18.916   0.546   7.653  0.00  0.00     0.298 C 
ATOM     23  C13 ZIN A   1      17.761  -0.050   6.844  0.00  0.00     0.198 C 
ATOM     24  O12 ZIN A   1      18.076  -1.401   6.496  0.00  0.00    -0.388 OA
ATOM     25  C11 ZIN A   1      18.320  -2.243   7.625  0.00  0.00     0.198 C 
ATOM     26  C10 ZIN A   1      19.480  -1.671   8.442  0.00  0.00     0.298 C 
ENDBRANCH  20  21
ENDBRANCH  19  20
ENDBRANCH   3  19
BRANCH   1  27
ATOM     27  C2  ZIN A   1      17.388   2.488  10.942  0.00  0.00     0.121 C 
ATOM     28  C1  ZIN A   1      18.361   3.377  10.163  0.00  0.00     0.026 C 
ENDBRANCH   1  27
TORSDOF 6
ENDMDL
MODEL 3
REMARK VINA RESULT:      -8.4      1.846      4.374
REMARK  6 active torsions:
REMARK  status: ('A' for Active; 'I' for Inactive)
REMARK    1  A    between atoms: C2_2  and  N3_3 
REMARK    2  A    between atoms: C5_5  and  C7_6 
REMARK    3  A    between atoms: C7_6  and  C8_7 
REMARK    4  A    between atoms: C8_7  and  N9_8 
REMARK    5  A    between atoms: C15_14  and  C16_15 
REMARK    6  A    between atoms: C15_14  and  C22_21 
ROOT
ATOM      1  N3  ZIN A   1      19.178   1.421  10.497  0.00  0.00    -0.351 N 
ATOM      2  C4  ZIN A   1      17.712   1.481  10.438  0.00  0.00     0.132 C 
ATOM      3  C5  ZIN A   1      17.244   0.013  10.330  0.00  0.00     0.032 C 
ATOM      4  C15 ZIN A   1      18.477  -0.665   9.690  0.00  0.00     0.100 C 
ATOM      5  C28 ZIN A   1      19.635   0.230  10.071  0.00  0.00     0.238 C 
ATOM      6  O29 ZIN A   1      20.805  -0.082  10.009  0.00  0.00    -0.272 OA
ENDROOT
BRANCH   4   7
ATOM      7  C16 ZIN A   1      18.669  -2.050  10.253  0.00  0.00    -0.035 A 
ATOM      8  C21 ZIN A   1      17.787  -3.060   9.920  0.00  0.00     0.009 A 
ATOM      9  C20 ZIN A   1      17.966  -4.332  10.433  0.00  0.00     0.001 A 
ATOM     10  C19 ZIN A   1      19.021  -4.589  11.288  0.00  0.00     0.000 A 
ATOM     11  C18 ZIN A   1      19.900  -3.578  11.626  0.00  0.00     0.001 A 
ATOM     12  C17 ZIN A   1      19.724  -2.308  11.109  0.00  0.00     0.009 A 
ENDBRANCH   4   7
BRANCH   4  13
ATOM     13  C22 ZIN A   1      18.329  -0.723   8.192  0.00  0.00    -0.035 A 
ATOM     14  C27 ZIN A   1      17.233  -0.143   7.582  0.00  0.00     0.009 A 
ATOM     15  C26 ZIN A   1      17.099  -0.192   6.207  0.00  0.00     0.001 A 
ATOM     16  C25 ZIN A   1      18.059  -0.829   5.442  0.00  0.00     0.000 A 
ATOM     17  C24 ZIN A   1      19.153  -1.414   6.052  0.00  0.00     0.001 A 
ATOM     18  C23 ZIN A   1      19.288  -1.360   7.426  0.00  0.00     0.009 A 
ENDBRANCH   4  13
BRANCH   3  19
ATOM     19  C7  ZIN A   1      16.953  -0.573  11.714  0.00  0.00     0.038 C 
BRANCH  19  20
ATOM     20  C8  ZIN A   1      16.956   0.550  12.754  0.00  0.00     0.273 C 
BRANCH  20  21
ATOM     21  N9  ZIN A   1      18.031   0.313  13.727  0.00  0.00     0.092 N 
ATOM     22  C14 ZIN A   1      17.826   1.113  14.943  0.00  0.00     0.298 C 
ATOM     23  C13 ZIN A   1      18.996   0.882  15.903  0.00  0.00     0.198 C 
ATOM     24  O12 ZIN A   1      19.106  -0.516  16.186  0.00  0.00    -0.388 OA
ATOM     25  C11 ZIN A   1      19.306  -1.324  15.023  0.00  0.00     0.198 C 
ATOM     26  C10 ZIN A   1      18.139  -1.115  14.055  0.00  0.00     0.298 C 
ENDBRANCH  20  21
ENDBRANCH  19  20
ENDBRANCH   3  19
BRANCH   1  27
ATOM     27  C2  ZIN A   1      20.032   2.519  10.954  0.00  0.00     0.121 C 
ATOM     28  C1  ZIN A   1      19.226   3.449  11.863  0.00  0.00     0.026 C 
ENDBRANCH   1  27
TORSDOF 6
ENDMDL
MODEL 4
REMARK VINA RESULT:      -8.2      1.941      6.000
REMARK  6 active torsions:
REMARK  status: ('A' for Active; 'I' for Inactive)
REMARK    1  A    between atoms: C2_2  and  N3_3 
REMARK    2  A    between atoms: C5_5  and  C7_6 
REMARK    3  A    between atoms: C7_6  and  C8_7 
REMARK    4  A    between atoms: C8_7  and  N9_8 
REMARK    5  A    between atoms: C15_14  and  C16_15 
REMARK    6  A    between atoms: C15_14  and  C22_21 
ROOT
ATOM      1  N3  ZIN A   1      19.144  -1.280  12.550  0.00  0.00    -0.351 N 
ATOM      2  C4  ZIN A   1      17.676  -1.297  12.557  0.00  0.00     0.132 C 
ATOM      3  C5  ZIN A   1      17.249   0.164  12.823  0.00  0.00     0.032 C 
ATOM      4  C15 ZIN A   1      18.479   0.721  13.574  0.00  0.00     0.100 C 
ATOM      5  C28 ZIN A   1      19.622  -0.163  13.125  0.00  0.00     0.238 C 
ATOM      6  O29 ZIN A   1      20.798   0.101  13.259  0.00  0.00    -0.272 OA
ENDROOT
BRANCH   4   7
ATOM      7  C16 ZIN A   1      18.731   2.155  13.183  0.00  0.00    -0.035 A 
ATOM      8  C21 ZIN A   1      17.976   3.167  13.743  0.00  0.00     0.009 A 
ATOM      9  C20 ZIN A   1      18.209   4.482  13.388  0.00  0.00     0.001 A 
ATOM     10  C19 ZIN A   1      19.193   4.784  12.464  0.00  0.00     0.000 A 
ATOM     11  C18 ZIN A   1      19.945   3.771  11.899  0.00  0.00     0.001 A 
ATOM     12  C17 ZIN A   1      19.714   2.456  12.259  0.00  0.00     0.009 A 
ENDBRANCH   4   7
BRANCH   4  13
ATOM     13  C22 ZIN A   1      18.283   0.609  15.064  0.00  0.00    -0.035 A 
ATOM     14  C27 ZIN A   1      17.188  -0.066  15.569  0.00  0.00     0.009 A 
ATOM     15  C26 ZIN A   1      17.010  -0.172  16.935  0.00  0.00     0.001 A 
ATOM     16  C25 ZIN A   1      17.924   0.404  17.798  0.00  0.00     0.000 A 
ATOM     17  C24 ZIN A   1      19.017   1.084  17.294  0.00  0.00     0.001 A 
ATOM     18  C23 ZIN A   1      19.196   1.186  15.927  0.00  0.00     0.009 A 
ENDBRANCH   4  13
BRANCH   3  19
ATOM     19  C7  ZIN A   1      17.022   0.915  11.509  0.00  0.00     0.038 C 
BRANCH  19  20
ATOM     20  C8  ZIN A   1      16.833  -0.091  10.372  0.00  0.00     0.273 C 
BRANCH  20  21
ATOM     21  N9  ZIN A   1      17.843   0.150   9.332  0.00  0.00     0.092 N 
ATOM     22  C14 ZIN A   1      17.355  -0.282   8.014  0.00  0.00     0.298 C 
ATOM     23  C13 ZIN A   1      18.457  -0.069   6.973  0.00  0.00     0.198 C 
ATOM     24  O12 ZIN A   1      18.854   1.305   6.980  0.00  0.00    -0.388 OA
ATOM     25  C11 ZIN A   1      19.334   1.759   8.248  0.00  0.00     0.198 C 
ATOM     26  C10 ZIN A   1      18.241   1.565   9.302  0.00  0.00     0.298 C 
ENDBRANCH  20  21
ENDBRANCH  19  20
ENDBRANCH   3  19
BRANCH   1  27
ATOM     27  C2  ZIN A   1      19.980  -2.345  11.993  0.00  0.00     0.121 C 
ATOM     28  C1  ZIN A   1      19.088  -3.463  11.448  0.00  0.00     0.026 C 
ENDBRANCH   1  27
TORSDOF 6
ENDMDL
MODEL 5
REMARK VINA RESULT:      -7.9      2.024      5.890
REMARK  6 active torsions:
REMARK  status: ('A' for Active; 'I' for Inactive)
REMARK    1  A    between atoms: C2_2  and  N3_3 
REMARK    2  A    between atoms: C5_5  and  C7_6 
REMARK    3  A    between atoms: C7_6  and  C8_7 
REMARK    4  A    between atoms: C8_7  and  N9_8 
REMARK    5  A    between atoms: C15_14  and  C16_15 
REMARK    6  A    between atoms: C15_14  and  C22_21 
ROOT
ATOM      1  N3  ZIN A   1      19.506  -1.911  11.830  0.00  0.00    -0.351 N 
ATOM      2  C4  ZIN A   1      18.081  -2.192  12.039  0.00  0.00     0.132 C 
ATOM      3  C5  ZIN A   1      17.370  -0.825  11.917  0.00  0.00     0.032 C 
ATOM      4  C15 ZIN A   1      18.503   0.155  12.301  0.00  0.00     0.100 C 
ATOM      5  C28 ZIN A   1      19.774  -0.602  11.983  0.00  0.00     0.238 C 
ATOM      6  O29 ZIN A   1      20.872  -0.101  11.875  0.00  0.00    -0.272 OA
ENDROOT
BRANCH   4   7
ATOM      7  C16 ZIN A   1      18.414   1.413  11.476  0.00  0.00    -0.035 A 
ATOM      8  C21 ZIN A   1      19.157   1.533  10.316  0.00  0.00     0.009 A 
ATOM      9  C20 ZIN A   1      19.072   2.685   9.556  0.00  0.00     0.001 A 
ATOM     10  C19 ZIN A   1      18.251   3.721   9.963  0.00  0.00     0.000 A 
ATOM     11  C18 ZIN A   1      17.513   3.603  11.125  0.00  0.00     0.001 A 
ATOM     12  C17 ZIN A   1      17.594   2.449  11.881  0.00  0.00     0.009 A 
ENDBRANCH   4   7
BRANCH   4  13
ATOM     13  C22 ZIN A   1      18.442   0.484  13.770  0.00  0.00    -0.035 A 
ATOM     14  C27 ZIN A   1      17.522  -0.150  14.583  0.00  0.00     0.009 A 
ATOM     15  C26 ZIN A   1      17.468   0.148  15.931  0.00  0.00     0.001 A 
ATOM     16  C25 ZIN A   1      18.330   1.089  16.465  0.00  0.00     0.000 A 
ATOM     17  C24 ZIN A   1      19.246   1.728  15.652  0.00  0.00     0.001 A 
ATOM     18  C23 ZIN A   1      19.302   1.424  14.304  0.00  0.00     0.009 A 
ENDBRANCH   4  13
BRANCH   3  19
ATOM     19  C7  ZIN A   1      16.895  -0.580  10.484  0.00  0.00     0.038 C 
BRANCH  19  20
ATOM     20  C8  ZIN A   1      17.329  -1.748   9.596  0.00  0.00     0.273 C 
BRANCH  20  21
ATOM     21  N9  ZIN A   1      18.055  -1.232   8.427  0.00  0.00     0.092 N 
ATOM     22  C14 ZIN A   1      18.448  -2.325   7.526  0.00  0.00     0.298 C 
ATOM     23  C13 ZIN A   1      19.251  -1.752   6.356  0.00  0.00     0.198 C 
ATOM     24  O12 ZIN A   1      18.470  -0.756   5.691  0.00  0.00    -0.388 OA
ATOM     25  C11 ZIN A   1      18.070   0.324   6.539  0.00  0.00     0.198 C 
ATOM     26  C10 ZIN A   1      17.255  -0.229   7.711  0.00  0.00     0.298 C 
ENDBRANCH  20  21
ENDBRANCH  19  20
ENDBRANCH   3  19
BRANCH   1  27
ATOM     27  C2  ZIN A   1      20.509  -2.927  11.505  0.00  0.00     0.121 C 
ATOM     28  C1  ZIN A   1      19.828  -4.289  11.360  0.00  0.00     0.026 C 
ENDBRANCH   1  27
TORSDOF 6
ENDMDL
MODEL 6
REMARK VINA RESULT:      -7.8      2.133      5.239
REMARK  6 active torsions:
REMARK  status: ('A' for Active; 'I' for Inactive)
REMARK    1  A    between atoms: C2_2  and  N3_3 
REMARK    2  A    between atoms: C5_5  and  C7_6 
REMARK    3  A    between atoms: C7_6  and  C8_7 
REMARK    4  A    between atoms: C8_7  and  N9_8 
REMARK    5  A    between atoms: C15_14  and  C16_15 
REMARK    6  A    between atoms: C15_14  and  C22_21 
ROOT
ATOM      1  N3  ZIN A   1      19.153   0.178   9.887  0.00  0.00    -0.351 N 
ATOM      2  C4  ZIN A   1      17.696   0.014   9.828  0.00  0.00     0.132 C 
ATOM      3  C5  ZIN A   1      17.272  -0.414  11.251  0.00  0.00     0.032 C 
ATOM      4  C15 ZIN A   1      18.567  -1.073  11.781  0.00  0.00     0.100 C 
ATOM      5  C28 ZIN A   1      19.671  -0.433  10.968  0.00  0.00     0.238 C 
ATOM      6  O29 ZIN A   1      20.848  -0.460  11.253  0.00  0.00    -0.272 OA
ENDROOT
BRANCH   4   7
ATOM      7  C16 ZIN A   1      18.747  -0.775  13.248  0.00  0.00    -0.035 A 
ATOM      8  C21 ZIN A   1      19.476   0.330  13.644  0.00  0.00     0.009 A 
ATOM      9  C20 ZIN A   1      19.637   0.606  14.989  0.00  0.00     0.001 A 
ATOM     10  C19 ZIN A   1      19.078  -0.231  15.938  0.00  0.00     0.000 A 
ATOM     11  C18 ZIN A   1      18.355  -1.339  15.541  0.00  0.00     0.001 A 
ATOM     12  C17 ZIN A   1      18.189  -1.612  14.196  0.00  0.00     0.009 A 
ENDBRANCH   4   7
BRANCH   4  13
ATOM     13  C22 ZIN A   1      18.537  -2.561  11.546  0.00  0.00    -0.035 A 
ATOM     14  C27 ZIN A   1      19.718  -3.276  11.491  0.00  0.00     0.009 A 
ATOM     15  C26 ZIN A   1      19.691  -4.642  11.279  0.00  0.00     0.001 A 
ATOM     16  C25 ZIN A   1      18.481  -5.291  11.113  0.00  0.00     0.000 A 
ATOM     17  C24 ZIN A   1      17.300  -4.575  11.162  0.00  0.00     0.001 A 
ATOM     18  C23 ZIN A   1      17.328  -3.210  11.379  0.00  0.00     0.009 A 
ENDBRANCH   4  13
BRANCH   3  19
ATOM     19  C7  ZIN A   1      16.889   0.801  12.097  0.00  0.00     0.038 C 
BRANCH  19  20
ATOM     20  C8  ZIN A   1      17.283   2.082  11.359  0.00  0.00     0.273 C 
BRANCH  20  21
ATOM     21  N9  ZIN A   1      18.230   2.849  12.180  0.00  0.00     0.092 N 
ATOM     22  C14 ZIN A   1      18.947   3.842  11.367  0.00  0.00     0.298 C 
ATOM     23  C13 ZIN A   1      19.963   4.576  12.247  0.00  0.00     0.198 C 
ATOM     24  O12 ZIN A   1      19.283   5.172  13.356  0.00  0.00    -0.388 OA
ATOM     25  C11 ZIN A   1      18.574   4.233  14.168  0.00  0.00     0.198 C 
ATOM     26  C10 ZIN A   1      17.545   3.496  13.308  0.00  0.00     0.298 C 
ENDBRANCH  20  21
ENDBRANCH  19  20
ENDBRANCH   3  19
BRANCH   1  27
ATOM     27  C2  ZIN A   1      19.944   0.906   8.893  0.00  0.00     0.121 C 
ATOM     28  C1  ZIN A   1      19.028   1.831   8.089  0.00  0.00     0.026 C 
ENDBRANCH   1  27
TORSDOF 6
ENDMDL
MODEL 7
REMARK VINA RESULT:      -7.4      1.959      5.489
REMARK  6 active torsions:
REMARK  status: ('A' for Active; 'I' for Inactive)
REMARK    1  A    between atoms: C2_2  and  N3_3 
REMARK    2  A    between atoms: C5_5  and  C7_6 
REMARK    3  A    between atoms: C7_6  and  C8_7 
REMARK    4  A    between atoms: C8_7  and  N9_8 
REMARK    5  A    between atoms: C15_14  and  C16_15 
REMARK    6  A    between atoms: C15_14  and  C22_21 
ROOT
ATOM      1  N3  ZIN A   1      18.089   0.890  10.296  0.00  0.00    -0.351 N 
ATOM      2  C4  ZIN A   1      19.523   1.203  10.249  0.00  0.00     0.132 C 
ATOM      3  C5  ZIN A   1      20.016   1.089  11.708  0.00  0.00     0.032 C 
ATOM      4  C15 ZIN A   1      18.719   1.365  12.503  0.00  0.00     0.100 C 
ATOM      5  C28 ZIN A   1      17.609   0.985  11.548  0.00  0.00     0.238 C 
ATOM      6  O29 ZIN A   1      16.456   0.788  11.867  0.00  0.00    -0.272 OA
ENDROOT
BRANCH   4   7
ATOM      7  C16 ZIN A   1      18.669   0.511  13.743  0.00  0.00    -0.035 A 
ATOM      8  C21 ZIN A   1      19.157   0.999  14.940  0.00  0.00     0.009 A 
ATOM      9  C20 ZIN A   1      19.106   0.218  16.079  0.00  0.00     0.001 A 
ATOM     10  C19 ZIN A   1      18.577  -1.058  16.018  0.00  0.00     0.000 A 
ATOM     11  C18 ZIN A   1      18.094  -1.550  14.820  0.00  0.00     0.001 A 
ATOM     12  C17 ZIN A   1      18.140  -0.765  13.682  0.00  0.00     0.009 A 
ENDBRANCH   4   7
BRANCH   4  13
ATOM     13  C22 ZIN A   1      18.623   2.825  12.865  0.00  0.00    -0.035 A 
ATOM     14  C27 ZIN A   1      19.633   3.696  12.504  0.00  0.00     0.009 A 
ATOM     15  C26 ZIN A   1      19.544   5.035  12.833  0.00  0.00     0.001 A 
ATOM     16  C25 ZIN A   1      18.446   5.502  13.532  0.00  0.00     0.000 A 
ATOM     17  C24 ZIN A   1      17.438   4.631  13.899  0.00  0.00     0.001 A 
ATOM     18  C23 ZIN A   1      17.526   3.292  13.565  0.00  0.00     0.009 A 
ENDBRANCH   4  13
BRANCH   3  19
ATOM     19  C7  ZIN A   1      20.548  -0.316  11.999  0.00  0.00     0.038 C 
BRANCH  19  20
ATOM     20  C8  ZIN A   1      20.550  -1.138  10.708  0.00  0.00     0.273 C 
BRANCH  20  21
ATOM     21  N9  ZIN A   1      19.558  -2.216  10.812  0.00  0.00     0.092 N 
ATOM     22  C14 ZIN A   1      19.045  -2.590   9.486  0.00  0.00     0.298 C 
ATOM     23  C13 ZIN A   1      17.974  -3.673   9.646  0.00  0.00     0.198 C 
ATOM     24  O12 ZIN A   1      18.531  -4.788  10.345  0.00  0.00    -0.388 OA
ATOM     25  C11 ZIN A   1      19.041  -4.460  11.640  0.00  0.00     0.198 C 
ATOM     26  C10 ZIN A   1      20.123  -3.386  11.500  0.00  0.00     0.298 C 
ENDBRANCH  20  21
ENDBRANCH  19  20
ENDBRANCH   3  19
BRANCH   1  27
ATOM     27  C2  ZIN A   1      17.284   0.529   9.128  0.00  0.00     0.121 C 
ATOM     28  C1  ZIN A   1      18.171   0.509   7.881  0.00  0.00     0.026 C 
ENDBRANCH   1  27
TORSDOF 6
ENDMDL
MODEL 8
REMARK VINA RESULT:      -6.8      2.924      6.019
REMARK  6 active torsions:
REMARK  status: ('A' for Active; 'I' for Inactive)
REMARK    1  A    between atoms: C2_2  and  N3_3 
REMARK    2  A    between atoms: C5_5  and  C7_6 
REMARK    3  A    between atoms: C7_6  and  C8_7 
REMARK    4  A    between atoms: C8_7  and  N9_8 
REMARK    5  A    between atoms: C15_14  and  C16_15 
REMARK    6  A    between atoms: C15_14  and  C22_21 
ROOT
ATOM      1  N3  ZIN A   1      19.578  -1.693  11.297  0.00  0.00    -0.351 N 
ATOM      2  C4  ZIN A   1      18.116  -1.654  11.423  0.00  0.00     0.132 C 
ATOM      3  C5  ZIN A   1      17.614  -0.919  10.160  0.00  0.00     0.032 C 
ATOM      4  C15 ZIN A   1      18.843  -0.058   9.786  0.00  0.00     0.100 C 
ATOM      5  C28 ZIN A   1      20.014  -0.798  10.393  0.00  0.00     0.238 C 
ATOM      6  O29 ZIN A   1      21.177  -0.616  10.102  0.00  0.00    -0.272 OA
ENDROOT
BRANCH   4   7
ATOM      7  C16 ZIN A   1      18.988   0.030   8.289  0.00  0.00    -0.035 A 
ATOM      8  C21 ZIN A   1      18.841   1.247   7.651  0.00  0.00     0.009 A 
ATOM      9  C20 ZIN A   1      18.979   1.330   6.278  0.00  0.00     0.001 A 
ATOM     10  C19 ZIN A   1      19.255   0.192   5.542  0.00  0.00     0.000 A 
ATOM     11  C18 ZIN A   1      19.397  -1.026   6.179  0.00  0.00     0.001 A 
ATOM     12  C17 ZIN A   1      19.264  -1.107   7.553  0.00  0.00     0.009 A 
ENDBRANCH   4   7
BRANCH   4  13
ATOM     13  C22 ZIN A   1      18.724   1.319  10.386  0.00  0.00    -0.035 A 
ATOM     14  C27 ZIN A   1      19.825   1.917  10.968  0.00  0.00     0.009 A 
ATOM     15  C26 ZIN A   1      19.718   3.182  11.515  0.00  0.00     0.001 A 
ATOM     16  C25 ZIN A   1      18.505   3.846  11.486  0.00  0.00     0.000 A 
ATOM     17  C24 ZIN A   1      17.402   3.246  10.909  0.00  0.00     0.001 A 
ATOM     18  C23 ZIN A   1      17.512   1.983  10.358  0.00  0.00     0.009 A 
ENDBRANCH   4  13
BRANCH   3  19
ATOM     19  C7  ZIN A   1      17.280  -1.911   9.045  0.00  0.00     0.038 C 
BRANCH  19  20
ATOM     20  C8  ZIN A   1      17.319  -3.336   9.601  0.00  0.00     0.273 C 
BRANCH  20  21
ATOM     21  N9  ZIN A   1      17.600  -4.281   8.511  0.00  0.00     0.092 N 
ATOM     22  C14 ZIN A   1      19.048  -4.465   8.334  0.00  0.00     0.298 C 
ATOM     23  C13 ZIN A   1      19.297  -5.407   7.153  0.00  0.00     0.198 C 
ATOM     24  O12 ZIN A   1      18.618  -6.644   7.386  0.00  0.00    -0.388 OA
ATOM     25  C11 ZIN A   1      17.207  -6.502   7.564  0.00  0.00     0.198 C 
ATOM     26  C10 ZIN A   1      16.937  -5.571   8.748  0.00  0.00     0.298 C 
ENDBRANCH  20  21
ENDBRANCH  19  20
ENDBRANCH   3  19
BRANCH   1  27
ATOM     27  C2  ZIN A   1      20.450  -2.585  12.063  0.00  0.00     0.121 C 
ATOM     28  C1  ZIN A   1      20.222  -4.031  11.615  0.00  0.00     0.026 C 
ENDBRANCH   1  27
TORSDOF 6
ENDMDL
