MODEL 1
REMARK VINA RESULT:      -9.0      0.000      0.000
REMARK  6 active torsions:
REMARK  status: ('A' for Active; 'I' for Inactive)
REMARK    1  A    between atoms: C2_2  and  C5_5 
REMARK    2  A    between atoms: C7_7  and  C8_8 
REMARK    3  A    between atoms: C12_12  and  N13_13 
REMARK       I    between atoms: N13_13  and  C14_14 
REMARK    4  A    between atoms: C14_14  and  C16_16 
REMARK    5  A    between atoms: C25_25  and  O26_26 
REMARK    6  A    between atoms: C28_28  and  O29_29 
ROOT
ATOM      1  C5  <0> d   1      18.300  -0.163   7.674  0.00  0.00    -0.017 A 
ATOM      2  C6  <0> d   1      18.446   1.088   8.243  0.00  0.00     0.021 A 
ATOM      3  C7  <0> d   1      18.359   1.240   9.613  0.00  0.00    -0.023 A 
ATOM      4  C12 <0> d   1      18.125   0.136  10.422  0.00  0.00     0.044 A 
ATOM      5  C27 <0> d   1      17.978  -1.121   9.851  0.00  0.00     0.067 A 
ATOM      6  C28 <0> d   1      18.061  -1.270   8.476  0.00  0.00     0.074 A 
ENDROOT
BRANCH   4   7
ATOM      7  N13 <0> d   1      18.036   0.290  11.809  0.00  0.00    -0.322 N 
ATOM      8  C14 <0> d   1      19.013  -0.189  12.605  0.00  0.00     0.260 C 
ATOM      9  O15 <0> d   1      20.024  -0.655  12.112  0.00  0.00    -0.267 OA
ATOM     10  H49 <0> d   1      17.271   0.742  12.199  0.00  0.00     0.169 HD
BRANCH   8  11
ATOM     11  C16 <0> d   1      18.857  -0.149  14.069  0.00  0.00     0.083 A 
ATOM     12  C25 <0> d   1      19.090   1.039  14.771  0.00  0.00     0.095 A 
ATOM     13  C24 <0> d   1      18.922   1.020  16.174  0.00  0.00     0.027 A 
ATOM     14  C19 <0> d   1      18.537  -0.189  16.803  0.00  0.00     0.069 A 
ATOM     15  C23 <0> d   1      19.131   2.171  16.948  0.00  0.00     0.017 A 
ATOM     16  N18 <0> d   1      18.334  -1.295  16.075  0.00  0.00    -0.259 NA
ATOM     17  C20 <0> d   1      18.375  -0.208  18.198  0.00  0.00     0.032 A 
ATOM     18  C17 <0> d   1      18.480  -1.302  14.775  0.00  0.00     0.137 A 
ATOM     19  C21 <0> d   1      18.587   0.927  18.921  0.00  0.00     0.002 A 
ATOM     20  C22 <0> d   1      18.964   2.114  18.299  0.00  0.00     0.001 A 
BRANCH  12  21
ATOM     21  O26 <0> d   1      19.461   2.170  14.129  0.00  0.00    -0.359 OA
ATOM     22  H55 <0> d   1      19.564   2.937  14.709  0.00  0.00     0.217 HD
ENDBRANCH  12  21
ENDBRANCH   8  11
ENDBRANCH   4   7
BRANCH   3  23
ATOM     23  C8  <0> d   1      18.518   2.606  10.231  0.00  0.00    -0.022 C 
ATOM     24  C9  <0> d   1      18.375   3.675   9.146  0.00  0.00     0.019 C 
ATOM     25  C10 <0> d   1      17.440   2.813  11.296  0.00  0.00     0.019 C 
ATOM     26  C11 <0> d   1      19.901   2.716  10.876  0.00  0.00     0.019 C 
ENDBRANCH   3  23
BRANCH   6  27
ATOM     27  O29 <0> d   1      17.917  -2.498   7.915  0.00  0.00    -0.360 OA
ATOM     28  H57 <0> d   1      17.758  -2.480   6.962  0.00  0.00     0.217 HD
ENDBRANCH   6  27
BRANCH   1  29
ATOM     29  C2  <0> d   1      18.397  -0.325   6.178  0.00  0.00    -0.021 C 
ATOM     30  C1  <0> d   1      19.231  -1.566   5.852  0.00  0.00     0.019 C 
ATOM     31  C3  <0> d   1      19.066   0.912   5.573  0.00  0.00     0.019 C 
ATOM     32  C4  <0> d   1      16.993  -0.485   5.590  0.00  0.00     0.019 C 
ENDBRANCH   1  29
TORSDOF 6
ENDMDL
MODEL 2
REMARK VINA RESULT:      -9.0      1.704      8.297
REMARK  6 active torsions:
REMARK  status: ('A' for Active; 'I' for Inactive)
REMARK    1  A    between atoms: C2_2  and  C5_5 
REMARK    2  A    between atoms: C7_7  and  C8_8 
REMARK    3  A    between atoms: C12_12  and  N13_13 
REMARK       I    between atoms: N13_13  and  C14_14 
REMARK    4  A    between atoms: C14_14  and  C16_16 
REMARK    5  A    between atoms: C25_25  and  O26_26 
REMARK    6  A    between atoms: C28_28  and  O29_29 
ROOT
ATOM      1  C5  <0> d   1      18.491   0.736  15.716  0.00  0.00    -0.017 A 
ATOM      2  C6  <0> d   1      18.654   1.876  14.951  0.00  0.00     0.021 A 
ATOM      3  C7  <0> d   1      18.549   1.807  13.575  0.00  0.00    -0.023 A 
ATOM      4  C12 <0> d   1      18.280   0.593  12.958  0.00  0.00     0.044 A 
ATOM      5  C27 <0> d   1      18.116  -0.553  13.726  0.00  0.00     0.067 A 
ATOM      6  C28 <0> d   1      18.227  -0.481  15.105  0.00  0.00     0.074 A 
ENDROOT
BRANCH   4   7
ATOM      7  N13 <0> d   1      18.175   0.523  11.565  0.00  0.00    -0.322 N 
ATOM      8  C14 <0> d   1      19.167  -0.032  10.840  0.00  0.00     0.260 C 
ATOM      9  O15 <0> d   1      20.101  -0.572  11.403  0.00  0.00    -0.267 OA
ATOM     10  H49 <0> d   1      17.388   0.875  11.121  0.00  0.00     0.169 HD
BRANCH   8  11
ATOM     11  C16 <0> d   1      19.120   0.016   9.369  0.00  0.00     0.083 A 
ATOM     12  C25 <0> d   1      19.215  -1.163   8.620  0.00  0.00     0.095 A 
ATOM     13  C24 <0> d   1      19.161  -1.055   7.212  0.00  0.00     0.027 A 
ATOM     14  C19 <0> d   1      19.022   0.226   6.625  0.00  0.00     0.069 A 
ATOM     15  C23 <0> d   1      19.244  -2.191   6.393  0.00  0.00     0.017 A 
ATOM     16  N18 <0> d   1      18.942   1.317   7.398  0.00  0.00    -0.259 NA
ATOM     17  C20 <0> d   1      18.973   0.331   5.226  0.00  0.00     0.032 A 
ATOM     18  C17 <0> d   1      18.986   1.245   8.703  0.00  0.00     0.137 A 
ATOM     19  C21 <0> d   1      19.057  -0.792   4.458  0.00  0.00     0.002 A 
ATOM     20  C22 <0> d   1      19.193  -2.050   5.039  0.00  0.00     0.001 A 
BRANCH  12  21
ATOM     21  O26 <0> d   1      19.351  -2.365   9.224  0.00  0.00    -0.359 OA
ATOM     22  H55 <0> d   1      19.712  -3.055   8.650  0.00  0.00     0.217 HD
ENDBRANCH  12  21
ENDBRANCH   8  11
ENDBRANCH   4   7
BRANCH   3  23
ATOM     23  C8  <0> d   1      18.728   3.052  12.744  0.00  0.00    -0.022 C 
ATOM     24  C9  <0> d   1      20.019   2.940  11.931  0.00  0.00     0.019 C 
ATOM     25  C10 <0> d   1      17.538   3.206  11.795  0.00  0.00     0.019 C 
ATOM     26  C11 <0> d   1      18.809   4.271  13.664  0.00  0.00     0.019 C 
ENDBRANCH   3  23
BRANCH   6  27
ATOM     27  O29 <0> d   1      18.068  -1.600  15.858  0.00  0.00    -0.360 OA
ATOM     28  H57 <0> d   1      17.850  -1.424  16.784  0.00  0.00     0.217 HD
ENDBRANCH   6  27
BRANCH   1  29
ATOM     29  C2  <0> d   1      18.605   0.815  17.217  0.00  0.00    -0.021 C 
ATOM     30  C1  <0> d   1      19.197   2.170  17.613  0.00  0.00     0.019 C 
ATOM     31  C3  <0> d   1      19.519  -0.306  17.719  0.00  0.00     0.019 C 
ATOM     32  C4  <0> d   1      17.218   0.662  17.844  0.00  0.00     0.019 C 
ENDBRANCH   1  29
TORSDOF 6
ENDMDL
MODEL 3
REMARK VINA RESULT:      -9.0      1.894      8.178
REMARK  6 active torsions:
REMARK  status: ('A' for Active; 'I' for Inactive)
REMARK    1  A    between atoms: C2_2  and  C5_5 
REMARK    2  A    between atoms: C7_7  and  C8_8 
REMARK    3  A    between atoms: C12_12  and  N13_13 
REMARK       I    between atoms: N13_13  and  C14_14 
REMARK    4  A    between atoms: C14_14  and  C16_16 
REMARK    5  A    between atoms: C25_25  and  O26_26 
REMARK    6  A    between atoms: C28_28  and  O29_29 
ROOT
ATOM      1  C5  <0> d   1      18.622   0.703  15.826  0.00  0.00    -0.017 A 
ATOM      2  C6  <0> d   1      18.661   1.775  14.954  0.00  0.00     0.021 A 
ATOM      3  C7  <0> d   1      18.832   1.561  13.600  0.00  0.00    -0.023 A 
ATOM      4  C12 <0> d   1      18.965   0.268  13.112  0.00  0.00     0.044 A 
ATOM      5  C27 <0> d   1      18.925  -0.810  13.987  0.00  0.00     0.067 A 
ATOM      6  C28 <0> d   1      18.759  -0.591  15.345  0.00  0.00     0.074 A 
ENDROOT
BRANCH   4   7
ATOM      7  N13 <0> d   1      19.138   0.051  11.741  0.00  0.00    -0.322 N 
ATOM      8  C14 <0> d   1      18.176  -0.570  11.029  0.00  0.00     0.260 C 
ATOM      9  O15 <0> d   1      17.112  -0.840  11.554  0.00  0.00    -0.267 OA
ATOM     10  H49 <0> d   1      19.951   0.347  11.303  0.00  0.00     0.169 HD
BRANCH   8  11
ATOM     11  C16 <0> d   1      18.413  -0.919   9.619  0.00  0.00     0.083 A 
ATOM     12  C25 <0> d   1      18.506   0.085   8.648  0.00  0.00     0.095 A 
ATOM     13  C24 <0> d   1      18.738  -0.310   7.311  0.00  0.00     0.027 A 
ATOM     14  C19 <0> d   1      18.856  -1.688   7.012  0.00  0.00     0.069 A 
ATOM     15  C23 <0> d   1      18.849   0.638   6.282  0.00  0.00     0.017 A 
ATOM     16  N18 <0> d   1      18.752  -2.602   7.986  0.00  0.00    -0.259 NA
ATOM     17  C20 <0> d   1      19.082  -2.079   5.682  0.00  0.00     0.032 A 
ATOM     18  C17 <0> d   1      18.542  -2.263   9.232  0.00  0.00     0.137 A 
ATOM     19  C21 <0> d   1      19.183  -1.134   4.706  0.00  0.00     0.002 A 
ATOM     20  C22 <0> d   1      19.067   0.221   5.003  0.00  0.00     0.001 A 
BRANCH  12  21
ATOM     21  O26 <0> d   1      18.382   1.391   8.979  0.00  0.00    -0.359 OA
ATOM     22  H55 <0> d   1      17.733   1.560   9.677  0.00  0.00     0.217 HD
ENDBRANCH  12  21
ENDBRANCH   8  11
ENDBRANCH   4   7
BRANCH   3  23
ATOM     23  C8  <0> d   1      18.875   2.732  12.652  0.00  0.00    -0.022 C 
ATOM     24  C9  <0> d   1      19.047   4.026  13.449  0.00  0.00     0.019 C 
ATOM     25  C10 <0> d   1      20.052   2.566  11.689  0.00  0.00     0.019 C 
ATOM     26  C11 <0> d   1      17.569   2.792  11.858  0.00  0.00     0.019 C 
ENDBRANCH   3  23
BRANCH   6  27
ATOM     27  O29 <0> d   1      18.721  -1.643  16.203  0.00  0.00    -0.360 OA
ATOM     28  H57 <0> d   1      19.580  -1.872  16.584  0.00  0.00     0.217 HD
ENDBRANCH   6  27
BRANCH   1  29
ATOM     29  C2  <0> d   1      18.435   0.941  17.303  0.00  0.00    -0.021 C 
ATOM     30  C1  <0> d   1      18.543   2.439  17.596  0.00  0.00     0.019 C 
ATOM     31  C3  <0> d   1      19.518   0.191  18.081  0.00  0.00     0.019 C 
ATOM     32  C4  <0> d   1      17.056   0.435  17.730  0.00  0.00     0.019 C 
ENDBRANCH   1  29
TORSDOF 6
ENDMDL
MODEL 4
REMARK VINA RESULT:      -9.0      1.873      3.306
REMARK  6 active torsions:
REMARK  status: ('A' for Active; 'I' for Inactive)
REMARK    1  A    between atoms: C2_2  and  C5_5 
REMARK    2  A    between atoms: C7_7  and  C8_8 
REMARK    3  A    between atoms: C12_12  and  N13_13 
REMARK       I    between atoms: N13_13  and  C14_14 
REMARK    4  A    between atoms: C14_14  and  C16_16 
REMARK    5  A    between atoms: C25_25  and  O26_26 
REMARK    6  A    between atoms: C28_28  and  O29_29 
ROOT
ATOM      1  C5  <0> d   1      18.678  -0.815   7.325  0.00  0.00    -0.017 A 
ATOM      2  C6  <0> d   1      18.662  -1.882   8.203  0.00  0.00     0.021 A 
ATOM      3  C7  <0> d   1      18.819  -1.666   9.559  0.00  0.00    -0.023 A 
ATOM      4  C12 <0> d   1      18.994  -0.376  10.042  0.00  0.00     0.044 A 
ATOM      5  C27 <0> d   1      19.009   0.697   9.160  0.00  0.00     0.067 A 
ATOM      6  C28 <0> d   1      18.857   0.477   7.801  0.00  0.00     0.074 A 
ENDROOT
BRANCH   4   7
ATOM      7  N13 <0> d   1      19.153  -0.157  11.414  0.00  0.00    -0.322 N 
ATOM      8  C14 <0> d   1      18.208   0.511  12.105  0.00  0.00     0.260 C 
ATOM      9  O15 <0> d   1      17.166   0.825  11.561  0.00  0.00    -0.267 OA
ATOM     10  H49 <0> d   1      19.945  -0.486  11.868  0.00  0.00     0.169 HD
BRANCH   8  11
ATOM     11  C16 <0> d   1      18.436   0.859  13.517  0.00  0.00     0.083 A 
ATOM     12  C25 <0> d   1      18.529  -0.146  14.487  0.00  0.00     0.095 A 
ATOM     13  C24 <0> d   1      18.752   0.248  15.826  0.00  0.00     0.027 A 
ATOM     14  C19 <0> d   1      18.863   1.626  16.127  0.00  0.00     0.069 A 
ATOM     15  C23 <0> d   1      18.862  -0.701  16.854  0.00  0.00     0.017 A 
ATOM     16  N18 <0> d   1      18.760   2.541  15.154  0.00  0.00    -0.259 NA
ATOM     17  C20 <0> d   1      19.080   2.016  17.459  0.00  0.00     0.032 A 
ATOM     18  C17 <0> d   1      18.557   2.203  13.907  0.00  0.00     0.137 A 
ATOM     19  C21 <0> d   1      19.181   1.070  18.434  0.00  0.00     0.002 A 
ATOM     20  C22 <0> d   1      19.073  -0.285  18.134  0.00  0.00     0.001 A 
BRANCH  12  21
ATOM     21  O26 <0> d   1      18.413  -1.452  14.154  0.00  0.00    -0.359 OA
ATOM     22  H55 <0> d   1      17.539  -1.696  13.816  0.00  0.00     0.217 HD
ENDBRANCH  12  21
ENDBRANCH   8  11
ENDBRANCH   4   7
BRANCH   3  23
ATOM     23  C8  <0> d   1      18.802  -2.832  10.514  0.00  0.00    -0.022 C 
ATOM     24  C9  <0> d   1      19.978  -2.713  11.485  0.00  0.00     0.019 C 
ATOM     25  C10 <0> d   1      17.489  -2.829  11.298  0.00  0.00     0.019 C 
ATOM     26  C11 <0> d   1      18.923  -4.138   9.725  0.00  0.00     0.019 C 
ENDBRANCH   3  23
BRANCH   6  27
ATOM     27  O29 <0> d   1      18.873   1.524   6.937  0.00  0.00    -0.360 OA
ATOM     28  H57 <0> d   1      19.240   1.312   6.068  0.00  0.00     0.217 HD
ENDBRANCH   6  27
BRANCH   1  29
ATOM     29  C2  <0> d   1      18.505  -1.054   5.847  0.00  0.00    -0.021 C 
ATOM     30  C1  <0> d   1      17.127  -0.555   5.407  0.00  0.00     0.019 C 
ATOM     31  C3  <0> d   1      18.621  -2.552   5.556  0.00  0.00     0.019 C 
ATOM     32  C4  <0> d   1      19.591  -0.299   5.077  0.00  0.00     0.019 C 
ENDBRANCH   1  29
TORSDOF 6
ENDMDL
MODEL 5
REMARK VINA RESULT:      -8.9      1.624      3.088
REMARK  6 active torsions:
REMARK  status: ('A' for Active; 'I' for Inactive)
REMARK    1  A    between atoms: C2_2  and  C5_5 
REMARK    2  A    between atoms: C7_7  and  C8_8 
REMARK    3  A    between atoms: C12_12  and  N13_13 
REMARK       I    between atoms: N13_13  and  C14_14 
REMARK    4  A    between atoms: C14_14  and  C16_16 
REMARK    5  A    between atoms: C25_25  and  O26_26 
REMARK    6  A    between atoms: C28_28  and  O29_29 
ROOT
ATOM      1  C5  <0> d   1      18.522  -1.269   7.172  0.00  0.00    -0.017 A 
ATOM      2  C6  <0> d   1      18.564  -2.376   7.998  0.00  0.00     0.021 A 
ATOM      3  C7  <0> d   1      18.432  -2.227   9.365  0.00  0.00    -0.023 A 
ATOM      4  C12 <0> d   1      18.257  -0.963   9.913  0.00  0.00     0.044 A 
ATOM      5  C27 <0> d   1      18.214   0.151   9.084  0.00  0.00     0.067 A 
ATOM      6  C28 <0> d   1      18.352  -0.002   7.713  0.00  0.00     0.074 A 
ENDROOT
BRANCH   4   7
ATOM      7  N13 <0> d   1      18.124  -0.811  11.297  0.00  0.00    -0.322 N 
ATOM      8  C14 <0> d   1      19.139  -0.296  12.019  0.00  0.00     0.260 C 
ATOM      9  O15 <0> d   1      20.125   0.141  11.456  0.00  0.00    -0.267 OA
ATOM     10  H49 <0> d   1      17.302  -1.078  11.736  0.00  0.00     0.169 HD
BRANCH   8  11
ATOM     11  C16 <0> d   1      19.053  -0.262  13.489  0.00  0.00     0.083 A 
ATOM     12  C25 <0> d   1      19.206   0.947  14.178  0.00  0.00     0.095 A 
ATOM     13  C24 <0> d   1      19.110   0.920  15.587  0.00  0.00     0.027 A 
ATOM     14  C19 <0> d   1      18.875  -0.317  16.236  0.00  0.00     0.069 A 
ATOM     15  C23 <0> d   1      19.246   2.090  16.348  0.00  0.00     0.017 A 
ATOM     16  N18 <0> d   1      18.744  -1.441  15.520  0.00  0.00    -0.259 NA
ATOM     17  C20 <0> d   1      18.786  -0.343  17.638  0.00  0.00     0.032 A 
ATOM     18  C17 <0> d   1      18.824  -1.442  14.214  0.00  0.00     0.137 A 
ATOM     19  C21 <0> d   1      18.923   0.812  18.347  0.00  0.00     0.002 A 
ATOM     20  C22 <0> d   1      19.153   2.026  17.706  0.00  0.00     0.001 A 
BRANCH  12  21
ATOM     21  O26 <0> d   1      19.433   2.105  13.516  0.00  0.00    -0.359 OA
ATOM     22  H55 <0> d   1      19.451   2.011  12.553  0.00  0.00     0.217 HD
ENDBRANCH  12  21
ENDBRANCH   8  11
ENDBRANCH   4   7
BRANCH   3  23
ATOM     23  C8  <0> d   1      18.480  -3.437  10.263  0.00  0.00    -0.022 C 
ATOM     24  C9  <0> d   1      18.390  -4.705   9.413  0.00  0.00     0.019 C 
ATOM     25  C10 <0> d   1      19.794  -3.439  11.046  0.00  0.00     0.019 C 
ATOM     26  C11 <0> d   1      17.303  -3.392  11.239  0.00  0.00     0.019 C 
ENDBRANCH   3  23
BRANCH   6  27
ATOM     27  O29 <0> d   1      18.311   1.085   6.901  0.00  0.00    -0.360 OA
ATOM     28  H57 <0> d   1      18.985   1.085   6.208  0.00  0.00     0.217 HD
ENDBRANCH   6  27
BRANCH   1  29
ATOM     29  C2  <0> d   1      18.665  -1.436   5.681  0.00  0.00    -0.021 C 
ATOM     30  C1  <0> d   1      17.303  -1.240   5.012  0.00  0.00     0.019 C 
ATOM     31  C3  <0> d   1      19.185  -2.842   5.373  0.00  0.00     0.019 C 
ATOM     32  C4  <0> d   1      19.652  -0.398   5.143  0.00  0.00     0.019 C 
ENDBRANCH   1  29
TORSDOF 6
ENDMDL
MODEL 6
REMARK VINA RESULT:      -8.5      2.327      8.488
REMARK  6 active torsions:
REMARK  status: ('A' for Active; 'I' for Inactive)
REMARK    1  A    between atoms: C2_2  and  C5_5 
REMARK    2  A    between atoms: C7_7  and  C8_8 
REMARK    3  A    between atoms: C12_12  and  N13_13 
REMARK       I    between atoms: N13_13  and  C14_14 
REMARK    4  A    between atoms: C14_14  and  C16_16 
REMARK    5  A    between atoms: C25_25  and  O26_26 
REMARK    6  A    between atoms: C28_28  and  O29_29 
ROOT
ATOM      1  C5  <0> d   1      18.745   3.885  14.960  0.00  0.00    -0.017 A 
ATOM      2  C6  <0> d   1      18.618   2.510  15.014  0.00  0.00     0.021 A 
ATOM      3  C7  <0> d   1      18.801   1.752  13.873  0.00  0.00    -0.023 A 
ATOM      4  C12 <0> d   1      19.111   2.371  12.669  0.00  0.00     0.044 A 
ATOM      5  C27 <0> d   1      19.239   3.752  12.614  0.00  0.00     0.067 A 
ATOM      6  C28 <0> d   1      19.050   4.510  13.759  0.00  0.00     0.074 A 
ENDROOT
BRANCH   4   7
ATOM      7  N13 <0> d   1      19.296   1.603  11.514  0.00  0.00    -0.322 N 
ATOM      8  C14 <0> d   1      18.347   1.588  10.557  0.00  0.00     0.260 C 
ATOM      9  O15 <0> d   1      17.384   2.327  10.644  0.00  0.00    -0.267 OA
ATOM     10  H49 <0> d   1      20.106   1.082  11.403  0.00  0.00     0.169 HD
BRANCH   8  11
ATOM     11  C16 <0> d   1      18.476   0.679   9.406  0.00  0.00     0.083 A 
ATOM     12  C25 <0> d   1      18.756   1.186   8.132  0.00  0.00     0.095 A 
ATOM     13  C24 <0> d   1      18.873   0.265   7.066  0.00  0.00     0.027 A 
ATOM     14  C19 <0> d   1      18.696  -1.115   7.328  0.00  0.00     0.069 A 
ATOM     15  C23 <0> d   1      19.156   0.696   5.761  0.00  0.00     0.017 A 
ATOM     16  N18 <0> d   1      18.425  -1.537   8.570  0.00  0.00    -0.259 NA
ATOM     17  C20 <0> d   1      18.808  -2.028   6.267  0.00  0.00     0.032 A 
ATOM     18  C17 <0> d   1      18.316  -0.706   9.574  0.00  0.00     0.137 A 
ATOM     19  C21 <0> d   1      19.083  -1.578   5.011  0.00  0.00     0.002 A 
ATOM     20  C22 <0> d   1      19.257  -0.220   4.757  0.00  0.00     0.001 A 
BRANCH  12  21
ATOM     21  O26 <0> d   1      18.912   2.514   7.927  0.00  0.00    -0.359 OA
ATOM     22  H55 <0> d   1      18.540   2.830   7.092  0.00  0.00     0.217 HD
ENDBRANCH  12  21
ENDBRANCH   8  11
ENDBRANCH   4   7
BRANCH   3  23
ATOM     23  C8  <0> d   1      18.662   0.252  13.935  0.00  0.00    -0.022 C 
ATOM     24  C9  <0> d   1      17.385  -0.172  13.208  0.00  0.00     0.019 C 
ATOM     25  C10 <0> d   1      19.872  -0.400  13.265  0.00  0.00     0.019 C 
ATOM     26  C11 <0> d   1      18.588  -0.192  15.398  0.00  0.00     0.019 C 
ENDBRANCH   3  23
BRANCH   6  27
ATOM     27  O29 <0> d   1      19.173   5.861  13.707  0.00  0.00    -0.360 OA
ATOM     28  H57 <0> d   1      18.958   6.244  12.846  0.00  0.00     0.217 HD
ENDBRANCH   6  27
BRANCH   1  29
ATOM     29  C2  <0> d   1      18.546   4.708  16.207  0.00  0.00    -0.021 C 
ATOM     30  C1  <0> d   1      19.711   5.689  16.362  0.00  0.00     0.019 C 
ATOM     31  C3  <0> d   1      18.493   3.783  17.425  0.00  0.00     0.019 C 
ATOM     32  C4  <0> d   1      17.234   5.487  16.100  0.00  0.00     0.019 C 
ENDBRANCH   1  29
TORSDOF 6
ENDMDL
MODEL 7
REMARK VINA RESULT:      -8.5      2.214      3.070
REMARK  6 active torsions:
REMARK  status: ('A' for Active; 'I' for Inactive)
REMARK    1  A    between atoms: C2_2  and  C5_5 
REMARK    2  A    between atoms: C7_7  and  C8_8 
REMARK    3  A    between atoms: C12_12  and  N13_13 
REMARK       I    between atoms: N13_13  and  C14_14 
REMARK    4  A    between atoms: C14_14  and  C16_16 
REMARK    5  A    between atoms: C25_25  and  O26_26 
REMARK    6  A    between atoms: C28_28  and  O29_29 
ROOT
ATOM      1  C5  <0> d   1      17.995  -3.877   9.374  0.00  0.00    -0.017 A 
ATOM      2  C6  <0> d   1      18.065  -2.507   9.206  0.00  0.00     0.021 A 
ATOM      3  C7  <0> d   1      17.958  -1.669  10.299  0.00  0.00    -0.023 A 
ATOM      4  C12 <0> d   1      17.779  -2.201  11.569  0.00  0.00     0.044 A 
ATOM      5  C27 <0> d   1      17.708  -3.577  11.739  0.00  0.00     0.067 A 
ATOM      6  C28 <0> d   1      17.810  -4.415  10.640  0.00  0.00     0.074 A 
ENDROOT
BRANCH   4   7
ATOM      7  N13 <0> d   1      17.671  -1.352  12.675  0.00  0.00    -0.322 N 
ATOM      8  C14 <0> d   1      18.654  -1.316  13.596  0.00  0.00     0.260 C 
ATOM      9  O15 <0> d   1      19.685  -1.935  13.410  0.00  0.00    -0.267 OA
ATOM     10  H49 <0> d   1      16.887  -0.790  12.779  0.00  0.00     0.169 HD
BRANCH   8  11
ATOM     11  C16 <0> d   1      18.481  -0.526  14.827  0.00  0.00     0.083 A 
ATOM     12  C25 <0> d   1      19.086   0.730  14.952  0.00  0.00     0.095 A 
ATOM     13  C24 <0> d   1      18.882   1.444  16.154  0.00  0.00     0.027 A 
ATOM     14  C19 <0> d   1      18.091   0.861  17.174  0.00  0.00     0.069 A 
ATOM     15  C23 <0> d   1      19.449   2.711  16.353  0.00  0.00     0.017 A 
ATOM     16  N18 <0> d   1      17.544  -0.349  16.995  0.00  0.00    -0.259 NA
ATOM     17  C20 <0> d   1      17.893   1.570  18.371  0.00  0.00     0.032 A 
ATOM     18  C17 <0> d   1      17.714  -1.028  15.891  0.00  0.00     0.137 A 
ATOM     19  C21 <0> d   1      18.460   2.798  18.532  0.00  0.00     0.002 A 
ATOM     20  C22 <0> d   1      19.236   3.369  17.527  0.00  0.00     0.001 A 
BRANCH  12  21
ATOM     21  O26 <0> d   1      19.837   1.247  13.953  0.00  0.00    -0.359 OA
ATOM     22  H55 <0> d   1      20.142   0.590  13.310  0.00  0.00     0.217 HD
ENDBRANCH  12  21
ENDBRANCH   8  11
ENDBRANCH   4   7
BRANCH   3  23
ATOM     23  C8  <0> d   1      18.036  -0.175  10.112  0.00  0.00    -0.022 C 
ATOM     24  C9  <0> d   1      16.970   0.503  10.975  0.00  0.00     0.019 C 
ATOM     25  C10 <0> d   1      19.422   0.320  10.530  0.00  0.00     0.019 C 
ATOM     26  C11 <0> d   1      17.794   0.167   8.640  0.00  0.00     0.019 C 
ENDBRANCH   3  23
BRANCH   6  27
ATOM     27  O29 <0> d   1      17.740  -5.762  10.803  0.00  0.00    -0.360 OA
ATOM     28  H57 <0> d   1      18.595  -6.184  10.964  0.00  0.00     0.217 HD
ENDBRANCH   6  27
BRANCH   1  29
ATOM     29  C2  <0> d   1      18.112  -4.789   8.179  0.00  0.00    -0.021 C 
ATOM     30  C1  <0> d   1      19.283  -5.753   8.387  0.00  0.00     0.019 C 
ATOM     31  C3  <0> d   1      18.360  -3.952   6.922  0.00  0.00     0.019 C 
ATOM     32  C4  <0> d   1      16.817  -5.586   8.015  0.00  0.00     0.019 C 
ENDBRANCH   1  29
TORSDOF 6
ENDMDL
MODEL 8
REMARK VINA RESULT:      -8.4      2.575      3.563
REMARK  6 active torsions:
REMARK  status: ('A' for Active; 'I' for Inactive)
REMARK    1  A    between atoms: C2_2  and  C5_5 
REMARK    2  A    between atoms: C7_7  and  C8_8 
REMARK    3  A    between atoms: C12_12  and  N13_13 
REMARK       I    between atoms: N13_13  and  C14_14 
REMARK    4  A    between atoms: C14_14  and  C16_16 
REMARK    5  A    between atoms: C25_25  and  O26_26 
REMARK    6  A    between atoms: C28_28  and  O29_29 
ROOT
ATOM      1  C5  <0> d   1      17.513  -4.245   9.408  0.00  0.00    -0.017 A 
ATOM      2  C6  <0> d   1      17.820  -2.981   8.943  0.00  0.00     0.021 A 
ATOM      3  C7  <0> d   1      17.928  -1.924   9.826  0.00  0.00    -0.023 A 
ATOM      4  C12 <0> d   1      17.727  -2.130  11.185  0.00  0.00     0.044 A 
ATOM      5  C27 <0> d   1      17.418  -3.400  11.654  0.00  0.00     0.067 A 
ATOM      6  C28 <0> d   1      17.305  -4.457  10.764  0.00  0.00     0.074 A 
ENDROOT
BRANCH   4   7
ATOM      7  N13 <0> d   1      17.835  -1.060  12.079  0.00  0.00    -0.322 N 
ATOM      8  C14 <0> d   1      18.790  -1.071  13.030  0.00  0.00     0.260 C 
ATOM      9  O15 <0> d   1      19.627  -1.954  13.041  0.00  0.00    -0.267 OA
ATOM     10  H49 <0> d   1      17.223  -0.311  12.014  0.00  0.00     0.169 HD
BRANCH   8  11
ATOM     11  C16 <0> d   1      18.821  -0.013  14.055  0.00  0.00     0.083 A 
ATOM     12  C25 <0> d   1      18.814  -0.346  15.415  0.00  0.00     0.095 A 
ATOM     13  C24 <0> d   1      18.848   0.710  16.352  0.00  0.00     0.027 A 
ATOM     14  C19 <0> d   1      18.878   2.046  15.882  0.00  0.00     0.069 A 
ATOM     15  C23 <0> d   1      18.850   0.458  17.732  0.00  0.00     0.017 A 
ATOM     16  N18 <0> d   1      18.877   2.299  14.567  0.00  0.00    -0.259 NA
ATOM     17  C20 <0> d   1      18.906   3.095  16.816  0.00  0.00     0.032 A 
ATOM     18  C17 <0> d   1      18.850   1.339  13.678  0.00  0.00     0.137 A 
ATOM     19  C21 <0> d   1      18.906   2.816  18.149  0.00  0.00     0.002 A 
ATOM     20  C22 <0> d   1      18.878   1.502  18.608  0.00  0.00     0.001 A 
BRANCH  12  21
ATOM     21  O26 <0> d   1      18.781  -1.637  15.818  0.00  0.00    -0.359 OA
ATOM     22  H55 <0> d   1      18.708  -2.274  15.093  0.00  0.00     0.217 HD
ENDBRANCH  12  21
ENDBRANCH   8  11
ENDBRANCH   4   7
BRANCH   3  23
ATOM     23  C8  <0> d   1      18.263  -0.546   9.314  0.00  0.00    -0.022 C 
ATOM     24  C9  <0> d   1      18.021  -0.491   7.805  0.00  0.00     0.019 C 
ATOM     25  C10 <0> d   1      17.377   0.487  10.013  0.00  0.00     0.019 C 
ATOM     26  C11 <0> d   1      19.734  -0.239   9.607  0.00  0.00     0.019 C 
ENDBRANCH   3  23
BRANCH   6  27
ATOM     27  O29 <0> d   1      17.002  -5.699  11.220  0.00  0.00    -0.360 OA
ATOM     28  H57 <0> d   1      16.075  -5.947  11.103  0.00  0.00     0.217 HD
ENDBRANCH   6  27
BRANCH   1  29
ATOM     29  C2  <0> d   1      17.397  -5.396   8.442  0.00  0.00    -0.021 C 
ATOM     30  C1  <0> d   1      18.360  -6.510   8.857  0.00  0.00     0.019 C 
ATOM     31  C3  <0> d   1      17.752  -4.915   7.032  0.00  0.00     0.019 C 
ATOM     32  C4  <0> d   1      15.963  -5.930   8.453  0.00  0.00     0.019 C 
ENDBRANCH   1  29
TORSDOF 6
ENDMDL
MODEL 9
REMARK VINA RESULT:      -8.3      3.004      7.402
REMARK  6 active torsions:
REMARK  status: ('A' for Active; 'I' for Inactive)
REMARK    1  A    between atoms: C2_2  and  C5_5 
REMARK    2  A    between atoms: C7_7  and  C8_8 
REMARK    3  A    between atoms: C12_12  and  N13_13 
REMARK       I    between atoms: N13_13  and  C14_14 
REMARK    4  A    between atoms: C14_14  and  C16_16 
REMARK    5  A    between atoms: C25_25  and  O26_26 
REMARK    6  A    between atoms: C28_28  and  O29_29 
ROOT
ATOM      1  C5  <0> d   1      18.654   3.153  14.542  0.00  0.00    -0.017 A 
ATOM      2  C6  <0> d   1      18.774   3.081  13.168  0.00  0.00     0.021 A 
ATOM      3  C7  <0> d   1      18.482   1.902  12.508  0.00  0.00    -0.023 A 
ATOM      4  C12 <0> d   1      18.066   0.788  13.225  0.00  0.00     0.044 A 
ATOM      5  C27 <0> d   1      17.945   0.860  14.606  0.00  0.00     0.067 A 
ATOM      6  C28 <0> d   1      18.244   2.042  15.266  0.00  0.00     0.074 A 
ENDROOT
BRANCH   4   7
ATOM      7  N13 <0> d   1      17.771  -0.405  12.557  0.00  0.00    -0.322 N 
ATOM      8  C14 <0> d   1      18.598  -1.464  12.671  0.00  0.00     0.260 C 
ATOM      9  O15 <0> d   1      19.538  -1.420  13.442  0.00  0.00    -0.267 OA
ATOM     10  H49 <0> d   1      16.972  -0.469  12.011  0.00  0.00     0.169 HD
BRANCH   8  11
ATOM     11  C16 <0> d   1      18.362  -2.672  11.863  0.00  0.00     0.083 A 
ATOM     12  C25 <0> d   1      19.400  -3.233  11.111  0.00  0.00     0.095 A 
ATOM     13  C24 <0> d   1      19.116  -4.395  10.358  0.00  0.00     0.027 A 
ATOM     14  C19 <0> d   1      17.806  -4.931  10.389  0.00  0.00     0.069 A 
ATOM     15  C23 <0> d   1      20.105  -5.019   9.583  0.00  0.00     0.017 A 
ATOM     16  N18 <0> d   1      16.854  -4.343  11.126  0.00  0.00    -0.259 NA
ATOM     17  C20 <0> d   1      17.524  -6.083   9.636  0.00  0.00     0.032 A 
ATOM     18  C17 <0> d   1      17.092  -3.270  11.835  0.00  0.00     0.137 A 
ATOM     19  C21 <0> d   1      18.507  -6.664   8.893  0.00  0.00     0.002 A 
ATOM     20  C22 <0> d   1      19.794  -6.135   8.865  0.00  0.00     0.001 A 
BRANCH  12  21
ATOM     21  O26 <0> d   1      20.637  -2.684  11.107  0.00  0.00    -0.359 OA
ATOM     22  H55 <0> d   1      20.704  -1.869  10.590  0.00  0.00     0.217 HD
ENDBRANCH  12  21
ENDBRANCH   8  11
ENDBRANCH   4   7
BRANCH   3  23
ATOM     23  C8  <0> d   1      18.615   1.826  11.008  0.00  0.00    -0.022 C 
ATOM     24  C9  <0> d   1      19.862   1.018  10.647  0.00  0.00     0.019 C 
ATOM     25  C10 <0> d   1      17.377   1.146  10.420  0.00  0.00     0.019 C 
ATOM     26  C11 <0> d   1      18.740   3.240  10.436  0.00  0.00     0.019 C 
ENDBRANCH   3  23
BRANCH   6  27
ATOM     27  O29 <0> d   1      18.127   2.115  16.616  0.00  0.00    -0.360 OA
ATOM     28  H57 <0> d   1      18.021   1.256  17.049  0.00  0.00     0.217 HD
ENDBRANCH   6  27
BRANCH   1  29
ATOM     29  C2  <0> d   1      18.973   4.441  15.258  0.00  0.00    -0.021 C 
ATOM     30  C1  <0> d   1      17.695   5.007  15.882  0.00  0.00     0.019 C 
ATOM     31  C3  <0> d   1      19.543   5.451  14.261  0.00  0.00     0.019 C 
ATOM     32  C4  <0> d   1      20.002   4.172  16.358  0.00  0.00     0.019 C 
ENDBRANCH   1  29
TORSDOF 6
ENDMDL
