MODEL 1
REMARK VINA RESULT:      -7.7      0.000      0.000
REMARK  9 active torsions:
REMARK  status: ('A' for Active; 'I' for Inactive)
REMARK    1  A    between atoms: O1_1  and  C2_2 
REMARK    2  A    between atoms: C2_2  and  C3_3 
REMARK    3  A    between atoms: C3_3  and  O4_4 
REMARK    4  A    between atoms: O4_4  and  C5_5 
REMARK    5  A    between atoms: C5_5  and  C6_6 
REMARK    6  A    between atoms: C6_6  and  N7_7 
REMARK    7  A    between atoms: N11_11  and  C12_12 
REMARK    8  A    between atoms: C12_12  and  C14_13 
REMARK    9  A    between atoms: C12_12  and  C20_19 
ROOT
ATOM      1  N7  <0> d   1      19.241  -2.361   8.793  0.00  0.00    -0.066 N 
ATOM      2  H8  <0> d   1      20.132  -2.726   9.095  0.00  0.00     0.280 HD
ATOM      3  C9  <0> d   1      18.295  -2.389   9.917  0.00  0.00     0.265 C 
ATOM      4  C10 <0> d   1      18.846  -1.545  11.068  0.00  0.00     0.301 C 
ATOM      5  N11 <0> d   1      19.046  -0.164  10.608  0.00  0.00     0.105 N 
ATOM      6  C27 <0> d   1      19.972  -0.123   9.467  0.00  0.00     0.301 C 
ATOM      7  C28 <0> d   1      19.411  -0.978   8.328  0.00  0.00     0.265 C 
ENDROOT
BRANCH   5   8
ATOM      8  C12 <0> d   1      19.521   0.693  11.702  0.00  0.00     0.289 C 
BRANCH   8   9
ATOM      9  C14 <0> d   1      19.039   2.104  11.482  0.00  0.00    -0.021 A 
ATOM     10  C19 <0> d   1      19.675   3.157  12.111  0.00  0.00     0.010 A 
ATOM     11  C18 <0> d   1      19.234   4.452  11.906  0.00  0.00     0.001 A 
ATOM     12  C17 <0> d   1      18.152   4.691  11.079  0.00  0.00     0.000 A 
ATOM     13  C16 <0> d   1      17.513   3.636  10.456  0.00  0.00     0.001 A 
ATOM     14  C15 <0> d   1      17.955   2.342  10.657  0.00  0.00     0.010 A 
ENDBRANCH   8   9
BRANCH   8  15
ATOM     15  C20 <0> d   1      18.986   0.177  13.013  0.00  0.00    -0.021 A 
ATOM     16  C26 <0> d   1      19.738  -0.705  13.767  0.00  0.00     0.011 A 
ATOM     17  C25 <0> d   1      19.250  -1.174  14.972  0.00  0.00     0.024 A 
ATOM     18  C23 <0> d   1      18.005  -0.770  15.419  0.00  0.00     0.034 A 
ATOM     19  C22 <0> d   1      17.250   0.109  14.661  0.00  0.00     0.024 A 
ATOM     20 Cl24 <0> d   1      17.388  -1.364  16.929  0.00  0.00    -0.084 Cl
ATOM     21  C21 <0> d   1      17.741   0.582  13.459  0.00  0.00     0.011 A 
ENDBRANCH   8  15
ENDBRANCH   5   8
BRANCH   1  22
ATOM     22  C6  <0> d   1      18.721  -3.186   7.694  0.00  0.00     0.261 C 
BRANCH  22  23
ATOM     23  C5  <0> d   1      19.888  -3.738   6.875  0.00  0.00     0.195 C 
BRANCH  23  24
ATOM     24  O4  <0> d   1      19.932  -3.082   5.606  0.00  0.00    -0.387 OA
BRANCH  24  25
ATOM     25  C3  <0> d   1      18.646  -2.755   5.076  0.00  0.00     0.193 C 
BRANCH  25  26
ATOM     26  C2  <0> d   1      18.661  -1.317   4.554  0.00  0.00     0.190 C 
BRANCH  26  27
ATOM     27  O1  <0> d   1      19.993  -0.801   4.614  0.00  0.00    -0.399 OA
ATOM     28  H29 <0> d   1      20.059   0.071   5.027  0.00  0.00     0.209 HD
ENDBRANCH  26  27
ENDBRANCH  25  26
ENDBRANCH  24  25
ENDBRANCH  23  24
ENDBRANCH  22  23
ENDBRANCH   1  22
TORSDOF 9
ENDMDL
MODEL 2
REMARK VINA RESULT:      -7.5      5.327      8.732
REMARK  9 active torsions:
REMARK  status: ('A' for Active; 'I' for Inactive)
REMARK    1  A    between atoms: O1_1  and  C2_2 
REMARK    2  A    between atoms: C2_2  and  C3_3 
REMARK    3  A    between atoms: C3_3  and  O4_4 
REMARK    4  A    between atoms: O4_4  and  C5_5 
REMARK    5  A    between atoms: C5_5  and  C6_6 
REMARK    6  A    between atoms: C6_6  and  N7_7 
REMARK    7  A    between atoms: N11_11  and  C12_12 
REMARK    8  A    between atoms: C12_12  and  C14_13 
REMARK    9  A    between atoms: C12_12  and  C20_19 
ROOT
ATOM      1  N7  <0> d   1      18.958   0.278  15.896  0.00  0.00    -0.066 N 
ATOM      2  H8  <0> d   1      19.838  -0.120  16.188  0.00  0.00     0.280 HD
ATOM      3  C9  <0> d   1      19.199   1.292  14.860  0.00  0.00     0.265 C 
ATOM      4  C10 <0> d   1      19.903   0.642  13.666  0.00  0.00     0.301 C 
ATOM      5  N11 <0> d   1      19.061  -0.438  13.133  0.00  0.00     0.105 N 
ATOM      6  C27 <0> d   1      18.790  -1.447  14.167  0.00  0.00     0.301 C 
ATOM      7  C28 <0> d   1      18.096  -0.781  15.357  0.00  0.00     0.265 C 
ENDROOT
BRANCH   5   8
ATOM      8  C12 <0> d   1      19.676  -1.050  11.948  0.00  0.00     0.289 C 
BRANCH   8   9
ATOM      9  C14 <0> d   1      19.082  -2.416  11.722  0.00  0.00    -0.021 A 
ATOM     10  C19 <0> d   1      17.714  -2.562  11.589  0.00  0.00     0.010 A 
ATOM     11  C18 <0> d   1      17.170  -3.816  11.379  0.00  0.00     0.001 A 
ATOM     12  C17 <0> d   1      17.995  -4.924  11.308  0.00  0.00     0.000 A 
ATOM     13  C16 <0> d   1      19.362  -4.777  11.447  0.00  0.00     0.001 A 
ATOM     14  C15 <0> d   1      19.906  -3.524  11.654  0.00  0.00     0.010 A 
ENDBRANCH   8   9
BRANCH   8  15
ATOM     15  C20 <0> d   1      19.416  -0.182  10.743  0.00  0.00    -0.021 A 
ATOM     16  C26 <0> d   1      18.512   0.860  10.824  0.00  0.00     0.011 A 
ATOM     17  C25 <0> d   1      18.279   1.659   9.721  0.00  0.00     0.024 A 
ATOM     18  C23 <0> d   1      18.942   1.410   8.533  0.00  0.00     0.034 A 
ATOM     19  C22 <0> d   1      19.844   0.363   8.451  0.00  0.00     0.024 A 
ATOM     20 Cl24 <0> d   1      18.644   2.409   7.144  0.00  0.00    -0.084 Cl
ATOM     21  C21 <0> d   1      20.081  -0.432   9.557  0.00  0.00     0.011 A 
ENDBRANCH   8  15
ENDBRANCH   5   8
BRANCH   1  22
ATOM     22  C6  <0> d   1      18.299   0.905  17.051  0.00  0.00     0.261 C 
BRANCH  22  23
ATOM     23  C5  <0> d   1      19.205   0.791  18.278  0.00  0.00     0.195 C 
BRANCH  23  24
ATOM     24  O4  <0> d   1      19.653   2.093  18.662  0.00  0.00    -0.387 OA
BRANCH  24  25
ATOM     25  C3  <0> d   1      18.924   3.162  18.055  0.00  0.00     0.193 C 
BRANCH  25  26
ATOM     26  C2  <0> d   1      17.958   3.765  19.078  0.00  0.00     0.190 C 
BRANCH  26  27
ATOM     27  O1  <0> d   1      18.688   4.188  20.232  0.00  0.00    -0.399 OA
ATOM     28  H29 <0> d   1      19.470   3.651  20.420  0.00  0.00     0.209 HD
ENDBRANCH  26  27
ENDBRANCH  25  26
ENDBRANCH  24  25
ENDBRANCH  23  24
ENDBRANCH  22  23
ENDBRANCH   1  22
TORSDOF 9
ENDMDL
MODEL 3
REMARK VINA RESULT:      -7.3      1.478      2.065
REMARK  9 active torsions:
REMARK  status: ('A' for Active; 'I' for Inactive)
REMARK    1  A    between atoms: O1_1  and  C2_2 
REMARK    2  A    between atoms: C2_2  and  C3_3 
REMARK    3  A    between atoms: C3_3  and  O4_4 
REMARK    4  A    between atoms: O4_4  and  C5_5 
REMARK    5  A    between atoms: C5_5  and  C6_6 
REMARK    6  A    between atoms: C6_6  and  N7_7 
REMARK    7  A    between atoms: N11_11  and  C12_12 
REMARK    8  A    between atoms: C12_12  and  C14_13 
REMARK    9  A    between atoms: C12_12  and  C20_19 
ROOT
ATOM      1  N7  <0> d   1      19.048  -0.265   7.546  0.00  0.00    -0.066 N 
ATOM      2  H8  <0> d   1      20.043  -0.427   7.583  0.00  0.00     0.280 HD
ATOM      3  C9  <0> d   1      18.411  -0.853   8.732  0.00  0.00     0.265 C 
ATOM      4  C10 <0> d   1      18.999  -0.218   9.993  0.00  0.00     0.301 C 
ATOM      5  N11 <0> d   1      18.769   1.233   9.962  0.00  0.00     0.105 N 
ATOM      6  C27 <0> d   1      19.379   1.832   8.766  0.00  0.00     0.301 C 
ATOM      7  C28 <0> d   1      18.788   1.180   7.514  0.00  0.00     0.265 C 
ENDROOT
BRANCH   5   8
ATOM      8  C12 <0> d   1      19.269   1.874  11.185  0.00  0.00     0.289 C 
BRANCH   8   9
ATOM      9  C14 <0> d   1      18.539   3.173  11.407  0.00  0.00    -0.021 A 
ATOM     10  C19 <0> d   1      18.876   3.981  12.476  0.00  0.00     0.010 A 
ATOM     11  C18 <0> d   1      18.208   5.175  12.678  0.00  0.00     0.001 A 
ATOM     12  C17 <0> d   1      17.198   5.556  11.814  0.00  0.00     0.000 A 
ATOM     13  C16 <0> d   1      16.857   4.744  10.749  0.00  0.00     0.001 A 
ATOM     14  C15 <0> d   1      17.527   3.553  10.544  0.00  0.00     0.010 A 
ENDBRANCH   8   9
BRANCH   8  15
ATOM     15  C20 <0> d   1      19.038   0.959  12.360  0.00  0.00    -0.021 A 
ATOM     16  C26 <0> d   1      17.750   0.630  12.738  0.00  0.00     0.011 A 
ATOM     17  C25 <0> d   1      17.539  -0.214  13.812  0.00  0.00     0.024 A 
ATOM     18  C23 <0> d   1      18.616  -0.720  14.516  0.00  0.00     0.034 A 
ATOM     19  C22 <0> d   1      19.906  -0.386  14.141  0.00  0.00     0.024 A 
ATOM     20 Cl24 <0> d   1      18.352  -1.774  15.870  0.00  0.00    -0.084 Cl
ATOM     21  C21 <0> d   1      20.116   0.453  13.063  0.00  0.00     0.011 A 
ENDBRANCH   8  15
ENDBRANCH   5   8
BRANCH   1  22
ATOM     22  C6  <0> d   1      18.497  -0.888   6.334  0.00  0.00     0.261 C 
BRANCH  22  23
ATOM     23  C5  <0> d   1      19.434  -0.624   5.154  0.00  0.00     0.195 C 
BRANCH  23  24
ATOM     24  O4  <0> d   1      19.524  -1.799   4.346  0.00  0.00    -0.387 OA
BRANCH  24  25
ATOM     25  C3  <0> d   1      19.103  -2.995   5.007  0.00  0.00     0.193 C 
BRANCH  25  26
ATOM     26  C2  <0> d   1      18.175  -3.788   4.086  0.00  0.00     0.190 C 
BRANCH  26  27
ATOM     27  O1  <0> d   1      17.348  -2.886   3.349  0.00  0.00    -0.399 OA
ATOM     28  H29 <0> d   1      17.815  -2.108   3.014  0.00  0.00     0.209 HD
ENDBRANCH  26  27
ENDBRANCH  25  26
ENDBRANCH  24  25
ENDBRANCH  23  24
ENDBRANCH  22  23
ENDBRANCH   1  22
TORSDOF 9
ENDMDL
MODEL 4
REMARK VINA RESULT:      -7.2      4.548      8.016
REMARK  9 active torsions:
REMARK  status: ('A' for Active; 'I' for Inactive)
REMARK    1  A    between atoms: O1_1  and  C2_2 
REMARK    2  A    between atoms: C2_2  and  C3_3 
REMARK    3  A    between atoms: C3_3  and  O4_4 
REMARK    4  A    between atoms: O4_4  and  C5_5 
REMARK    5  A    between atoms: C5_5  and  C6_6 
REMARK    6  A    between atoms: C6_6  and  N7_7 
REMARK    7  A    between atoms: N11_11  and  C12_12 
REMARK    8  A    between atoms: C12_12  and  C14_13 
REMARK    9  A    between atoms: C12_12  and  C20_19 
ROOT
ATOM      1  N7  <0> d   1      18.518  -0.032  16.277  0.00  0.00    -0.066 N 
ATOM      2  H8  <0> d   1      19.238   0.675  16.283  0.00  0.00     0.280 HD
ATOM      3  C9  <0> d   1      17.486   0.330  15.297  0.00  0.00     0.265 C 
ATOM      4  C10 <0> d   1      18.119   0.446  13.909  0.00  0.00     0.301 C 
ATOM      5  N11 <0> d   1      18.735  -0.837  13.545  0.00  0.00     0.105 N 
ATOM      6  C27 <0> d   1      19.754  -1.225  14.532  0.00  0.00     0.301 C 
ATOM      7  C28 <0> d   1      19.107  -1.328  15.915  0.00  0.00     0.265 C 
ENDROOT
BRANCH   5   8
ATOM      8  C12 <0> d   1      19.306  -0.784  12.193  0.00  0.00     0.289 C 
BRANCH   8   9
ATOM      9  C14 <0> d   1      18.730  -1.900  11.360  0.00  0.00    -0.021 A 
ATOM     10  C19 <0> d   1      19.175  -2.097  10.066  0.00  0.00     0.010 A 
ATOM     11  C18 <0> d   1      18.649  -3.123   9.303  0.00  0.00     0.001 A 
ATOM     12  C17 <0> d   1      17.672  -3.946   9.832  0.00  0.00     0.000 A 
ATOM     13  C16 <0> d   1      17.224  -3.745  11.123  0.00  0.00     0.001 A 
ATOM     14  C15 <0> d   1      17.752  -2.722  11.888  0.00  0.00     0.010 A 
ENDBRANCH   8   9
BRANCH   8  15
ATOM     15  C20 <0> d   1      18.972   0.542  11.559  0.00  0.00    -0.021 A 
ATOM     16  C26 <0> d   1      17.771   0.707  10.895  0.00  0.00     0.011 A 
ATOM     17  C25 <0> d   1      17.462   1.925  10.319  0.00  0.00     0.024 A 
ATOM     18  C23 <0> d   1      18.359   2.975  10.398  0.00  0.00     0.034 A 
ATOM     19  C22 <0> d   1      19.563   2.808  11.058  0.00  0.00     0.024 A 
ATOM     20 Cl24 <0> d   1      17.974   4.503   9.669  0.00  0.00    -0.084 Cl
ATOM     21  C21 <0> d   1      19.869   1.591  11.639  0.00  0.00     0.011 A 
ENDBRANCH   8  15
ENDBRANCH   5   8
BRANCH   1  22
ATOM     22  C6  <0> d   1      17.914  -0.126  17.613  0.00  0.00     0.261 C 
BRANCH  22  23
ATOM     23  C5  <0> d   1      18.965   0.209  18.673  0.00  0.00     0.195 C 
BRANCH  23  24
ATOM     24  O4  <0> d   1      19.711   1.355  18.258  0.00  0.00    -0.387 OA
BRANCH  24  25
ATOM     25  C3  <0> d   1      19.002   2.589  18.387  0.00  0.00     0.193 C 
BRANCH  25  26
ATOM     26  C2  <0> d   1      19.391   3.523  17.239  0.00  0.00     0.190 C 
BRANCH  26  27
ATOM     27  O1  <0> d   1      19.806   2.748  16.113  0.00  0.00    -0.399 OA
ATOM     28  H29 <0> d   1      20.765   2.692  16.005  0.00  0.00     0.209 HD
ENDBRANCH  26  27
ENDBRANCH  25  26
ENDBRANCH  24  25
ENDBRANCH  23  24
ENDBRANCH  22  23
ENDBRANCH   1  22
TORSDOF 9
ENDMDL
MODEL 5
REMARK VINA RESULT:      -7.1      3.961      6.549
REMARK  9 active torsions:
REMARK  status: ('A' for Active; 'I' for Inactive)
REMARK    1  A    between atoms: O1_1  and  C2_2 
REMARK    2  A    between atoms: C2_2  and  C3_3 
REMARK    3  A    between atoms: C3_3  and  O4_4 
REMARK    4  A    between atoms: O4_4  and  C5_5 
REMARK    5  A    between atoms: C5_5  and  C6_6 
REMARK    6  A    between atoms: C6_6  and  N7_7 
REMARK    7  A    between atoms: N11_11  and  C12_12 
REMARK    8  A    between atoms: C12_12  and  C14_13 
REMARK    9  A    between atoms: C12_12  and  C20_19 
ROOT
ATOM      1  N7  <0> d   1      18.909   2.354  10.257  0.00  0.00    -0.066 N 
ATOM      2  H8  <0> d   1      19.866   2.245   9.958  0.00  0.00     0.280 HD
ATOM      3  C9  <0> d   1      18.162   1.124   9.963  0.00  0.00     0.265 C 
ATOM      4  C10 <0> d   1      18.810  -0.054  10.694  0.00  0.00     0.301 C 
ATOM      5  N11 <0> d   1      18.805   0.207  12.140  0.00  0.00     0.105 N 
ATOM      6  C27 <0> d   1      19.528   1.450  12.448  0.00  0.00     0.301 C 
ATOM      7  C28 <0> d   1      18.874   2.615  11.702  0.00  0.00     0.265 C 
ENDROOT
BRANCH   5   8
ATOM      8  C12 <0> d   1      19.368  -0.927  12.883  0.00  0.00     0.289 C 
BRANCH   8   9
ATOM      9  C14 <0> d   1      18.867  -0.897  14.303  0.00  0.00    -0.021 A 
ATOM     10  C19 <0> d   1      17.749  -0.151  14.626  0.00  0.00     0.010 A 
ATOM     11  C18 <0> d   1      17.287  -0.127  15.930  0.00  0.00     0.001 A 
ATOM     12  C17 <0> d   1      17.949  -0.842  16.910  0.00  0.00     0.000 A 
ATOM     13  C16 <0> d   1      19.070  -1.583  16.587  0.00  0.00     0.001 A 
ATOM     14  C15 <0> d   1      19.529  -1.611  15.284  0.00  0.00     0.010 A 
ENDBRANCH   8   9
BRANCH   8  15
ATOM     15  C20 <0> d   1      18.945  -2.216  12.227  0.00  0.00    -0.021 A 
ATOM     16  C26 <0> d   1      19.897  -3.146  11.852  0.00  0.00     0.011 A 
ATOM     17  C25 <0> d   1      19.509  -4.331  11.256  0.00  0.00     0.024 A 
ATOM     18  C23 <0> d   1      18.169  -4.583  11.025  0.00  0.00     0.034 A 
ATOM     19  C22 <0> d   1      17.216  -3.649  11.395  0.00  0.00     0.024 A 
ATOM     20 Cl24 <0> d   1      17.681  -6.068  10.269  0.00  0.00    -0.084 Cl
ATOM     21  C21 <0> d   1      17.605  -2.467  11.996  0.00  0.00     0.011 A 
ENDBRANCH   8  15
ENDBRANCH   5   8
BRANCH   1  22
ATOM     22  C6  <0> d   1      18.298   3.482   9.541  0.00  0.00     0.261 C 
BRANCH  22  23
ATOM     23  C5  <0> d   1      18.224   4.695  10.469  0.00  0.00     0.195 C 
BRANCH  23  24
ATOM     24  O4  <0> d   1      16.926   5.287  10.377  0.00  0.00    -0.387 OA
BRANCH  24  25
ATOM     25  C3  <0> d   1      16.167   5.214  11.586  0.00  0.00     0.193 C 
BRANCH  25  26
ATOM     26  C2  <0> d   1      17.047   5.628  12.767  0.00  0.00     0.190 C 
BRANCH  26  27
ATOM     27  O1  <0> d   1      16.358   5.367  13.991  0.00  0.00    -0.399 OA
ATOM     28  H29 <0> d   1      16.639   5.926  14.728  0.00  0.00     0.209 HD
ENDBRANCH  26  27
ENDBRANCH  25  26
ENDBRANCH  24  25
ENDBRANCH  23  24
ENDBRANCH  22  23
ENDBRANCH   1  22
TORSDOF 9
ENDMDL
MODEL 6
REMARK VINA RESULT:      -7.1      1.813      2.398
REMARK  9 active torsions:
REMARK  status: ('A' for Active; 'I' for Inactive)
REMARK    1  A    between atoms: O1_1  and  C2_2 
REMARK    2  A    between atoms: C2_2  and  C3_3 
REMARK    3  A    between atoms: C3_3  and  O4_4 
REMARK    4  A    between atoms: O4_4  and  C5_5 
REMARK    5  A    between atoms: C5_5  and  C6_6 
REMARK    6  A    between atoms: C6_6  and  N7_7 
REMARK    7  A    between atoms: N11_11  and  C12_12 
REMARK    8  A    between atoms: C12_12  and  C14_13 
REMARK    9  A    between atoms: C12_12  and  C20_19 
ROOT
ATOM      1  N7  <0> d   1      19.241  -2.485   9.063  0.00  0.00    -0.066 N 
ATOM      2  H8  <0> d   1      20.094  -2.874   9.434  0.00  0.00     0.280 HD
ATOM      3  C9  <0> d   1      18.234  -2.407  10.130  0.00  0.00     0.265 C 
ATOM      4  C10 <0> d   1      18.762  -1.528  11.266  0.00  0.00     0.301 C 
ATOM      5  N11 <0> d   1      19.054  -0.185  10.747  0.00  0.00     0.105 N 
ATOM      6  C27 <0> d   1      20.042  -0.249   9.661  0.00  0.00     0.301 C 
ATOM      7  C28 <0> d   1      19.504  -1.139   8.538  0.00  0.00     0.265 C 
ENDROOT
BRANCH   5   8
ATOM      8  C12 <0> d   1      19.510   0.708  11.821  0.00  0.00     0.289 C 
BRANCH   8   9
ATOM      9  C14 <0> d   1      19.019   2.107  11.554  0.00  0.00    -0.021 A 
ATOM     10  C19 <0> d   1      19.593   3.178  12.213  0.00  0.00     0.010 A 
ATOM     11  C18 <0> d   1      19.144   4.462  11.966  0.00  0.00     0.001 A 
ATOM     12  C17 <0> d   1      18.116   4.674  11.066  0.00  0.00     0.000 A 
ATOM     13  C16 <0> d   1      17.539   3.601  10.412  0.00  0.00     0.001 A 
ATOM     14  C15 <0> d   1      17.989   2.318  10.656  0.00  0.00     0.010 A 
ENDBRANCH   8   9
BRANCH   8  15
ATOM     15  C20 <0> d   1      18.964   0.225  13.140  0.00  0.00    -0.021 A 
ATOM     16  C26 <0> d   1      19.700  -0.655  13.912  0.00  0.00     0.011 A 
ATOM     17  C25 <0> d   1      19.202  -1.092  15.125  0.00  0.00     0.024 A 
ATOM     18  C23 <0> d   1      17.963  -0.659  15.562  0.00  0.00     0.034 A 
ATOM     19  C22 <0> d   1      17.225   0.217  14.786  0.00  0.00     0.024 A 
ATOM     20 Cl24 <0> d   1      17.334  -1.214  17.082  0.00  0.00    -0.084 Cl
ATOM     21  C21 <0> d   1      17.726   0.659  13.576  0.00  0.00     0.011 A 
ENDBRANCH   8  15
ENDBRANCH   5   8
BRANCH   1  22
ATOM     22  C6  <0> d   1      18.742  -3.344   7.981  0.00  0.00     0.261 C 
BRANCH  22  23
ATOM     23  C5  <0> d   1      19.334  -4.746   8.128  0.00  0.00     0.195 C 
BRANCH  23  24
ATOM     24  O4  <0> d   1      18.279  -5.692   8.311  0.00  0.00    -0.387 OA
BRANCH  24  25
ATOM     25  C3  <0> d   1      16.981  -5.184   7.998  0.00  0.00     0.193 C 
BRANCH  25  26
ATOM     26  C2  <0> d   1      16.010  -5.530   9.128  0.00  0.00     0.190 C 
BRANCH  26  27
ATOM     27  O1  <0> d   1      14.667  -5.442   8.648  0.00  0.00    -0.399 OA
ATOM     28  H29 <0> d   1      14.595  -5.122   7.739  0.00  0.00     0.209 HD
ENDBRANCH  26  27
ENDBRANCH  25  26
ENDBRANCH  24  25
ENDBRANCH  23  24
ENDBRANCH  22  23
ENDBRANCH   1  22
TORSDOF 9
ENDMDL
MODEL 7
REMARK VINA RESULT:      -7.1      1.808      2.504
REMARK  9 active torsions:
REMARK  status: ('A' for Active; 'I' for Inactive)
REMARK    1  A    between atoms: O1_1  and  C2_2 
REMARK    2  A    between atoms: C2_2  and  C3_3 
REMARK    3  A    between atoms: C3_3  and  O4_4 
REMARK    4  A    between atoms: O4_4  and  C5_5 
REMARK    5  A    between atoms: C5_5  and  C6_6 
REMARK    6  A    between atoms: C6_6  and  N7_7 
REMARK    7  A    between atoms: N11_11  and  C12_12 
REMARK    8  A    between atoms: C12_12  and  C14_13 
REMARK    9  A    between atoms: C12_12  and  C20_19 
ROOT
ATOM      1  N7  <0> d   1      17.794  -3.964  10.066  0.00  0.00    -0.066 N 
ATOM      2  H8  <0> d   1      18.691  -4.407  10.198  0.00  0.00     0.280 HD
ATOM      3  C9  <0> d   1      17.212  -3.639  11.375  0.00  0.00     0.265 C 
ATOM      4  C10 <0> d   1      18.154  -2.701  12.133  0.00  0.00     0.301 C 
ATOM      5  N11 <0> d   1      18.355  -1.475  11.350  0.00  0.00     0.105 N 
ATOM      6  C27 <0> d   1      18.915  -1.787  10.027  0.00  0.00     0.301 C 
ATOM      7  C28 <0> d   1      17.967  -2.732   9.286  0.00  0.00     0.265 C 
ENDROOT
BRANCH   5   8
ATOM      8  C12 <0> d   1      19.209  -0.523  12.071  0.00  0.00     0.289 C 
BRANCH   8   9
ATOM      9  C14 <0> d   1      19.016   0.859  11.501  0.00  0.00    -0.021 A 
ATOM     10  C19 <0> d   1      19.952   1.845  11.749  0.00  0.00     0.010 A 
ATOM     11  C18 <0> d   1      19.775   3.112  11.223  0.00  0.00     0.001 A 
ATOM     12  C17 <0> d   1      18.660   3.393  10.455  0.00  0.00     0.000 A 
ATOM     13  C16 <0> d   1      17.722   2.407  10.213  0.00  0.00     0.001 A 
ATOM     14  C15 <0> d   1      17.900   1.140  10.736  0.00  0.00     0.010 A 
ENDBRANCH   8   9
BRANCH   8  15
ATOM     15  C20 <0> d   1      18.838  -0.521  13.532  0.00  0.00    -0.021 A 
ATOM     16  C26 <0> d   1      17.775   0.245  13.974  0.00  0.00     0.011 A 
ATOM     17  C25 <0> d   1      17.431   0.241  15.312  0.00  0.00     0.024 A 
ATOM     18  C23 <0> d   1      18.154  -0.521  16.211  0.00  0.00     0.034 A 
ATOM     19  C22 <0> d   1      19.221  -1.284  15.769  0.00  0.00     0.024 A 
ATOM     20 Cl24 <0> d   1      17.727  -0.520  17.894  0.00  0.00    -0.084 Cl
ATOM     21  C21 <0> d   1      19.561  -1.284  14.429  0.00  0.00     0.011 A 
ENDBRANCH   8  15
ENDBRANCH   5   8
BRANCH   1  22
ATOM     22  C6  <0> d   1      16.899  -4.879   9.345  0.00  0.00     0.261 C 
BRANCH  22  23
ATOM     23  C5  <0> d   1      17.632  -6.191   9.060  0.00  0.00     0.195 C 
BRANCH  23  24
ATOM     24  O4  <0> d   1      18.231  -6.130   7.764  0.00  0.00    -0.387 OA
BRANCH  24  25
ATOM     25  C3  <0> d   1      19.612  -5.760   7.778  0.00  0.00     0.193 C 
BRANCH  25  26
ATOM     26  C2  <0> d   1      19.870  -4.713   6.692  0.00  0.00     0.190 C 
BRANCH  26  27
ATOM     27  O1  <0> d   1      21.214  -4.238   6.798  0.00  0.00    -0.399 OA
ATOM     28  H29 <0> d   1      21.458  -3.594   6.119  0.00  0.00     0.209 HD
ENDBRANCH  26  27
ENDBRANCH  25  26
ENDBRANCH  24  25
ENDBRANCH  23  24
ENDBRANCH  22  23
ENDBRANCH   1  22
TORSDOF 9
ENDMDL
MODEL 8
REMARK VINA RESULT:      -7.0      1.400      2.285
REMARK  9 active torsions:
REMARK  status: ('A' for Active; 'I' for Inactive)
REMARK    1  A    between atoms: O1_1  and  C2_2 
REMARK    2  A    between atoms: C2_2  and  C3_3 
REMARK    3  A    between atoms: C3_3  and  O4_4 
REMARK    4  A    between atoms: O4_4  and  C5_5 
REMARK    5  A    between atoms: C5_5  and  C6_6 
REMARK    6  A    between atoms: C6_6  and  N7_7 
REMARK    7  A    between atoms: N11_11  and  C12_12 
REMARK    8  A    between atoms: C12_12  and  C14_13 
REMARK    9  A    between atoms: C12_12  and  C20_19 
ROOT
ATOM      1  N7  <0> d   1      19.337  -0.680   7.692  0.00  0.00    -0.066 N 
ATOM      2  H8  <0> d   1      20.339  -0.787   7.738  0.00  0.00     0.280 HD
ATOM      3  C9  <0> d   1      18.725  -1.265   8.892  0.00  0.00     0.265 C 
ATOM      4  C10 <0> d   1      19.271  -0.561  10.137  0.00  0.00     0.301 C 
ATOM      5  N11 <0> d   1      18.963   0.873  10.059  0.00  0.00     0.105 N 
ATOM      6  C27 <0> d   1      19.547   1.468   8.849  0.00  0.00     0.301 C 
ATOM      7  C28 <0> d   1      19.000   0.747   7.615  0.00  0.00     0.265 C 
ENDROOT
BRANCH   5   8
ATOM      8  C12 <0> d   1      19.420   1.577  11.264  0.00  0.00     0.289 C 
BRANCH   8   9
ATOM      9  C14 <0> d   1      18.719   2.906  11.368  0.00  0.00    -0.021 A 
ATOM     10  C19 <0> d   1      17.634   3.180  10.557  0.00  0.00     0.010 A 
ATOM     11  C18 <0> d   1      16.989   4.400  10.655  0.00  0.00     0.001 A 
ATOM     12  C17 <0> d   1      17.433   5.346  11.560  0.00  0.00     0.000 A 
ATOM     13  C16 <0> d   1      18.521   5.072  12.367  0.00  0.00     0.001 A 
ATOM     14  C15 <0> d   1      19.165   3.853  12.272  0.00  0.00     0.010 A 
ENDBRANCH   8   9
BRANCH   8  15
ATOM     15  C20 <0> d   1      19.105   0.745  12.481  0.00  0.00    -0.021 A 
ATOM     16  C26 <0> d   1      20.129   0.285  13.288  0.00  0.00     0.011 A 
ATOM     17  C25 <0> d   1      19.840  -0.472  14.408  0.00  0.00     0.024 A 
ATOM     18  C23 <0> d   1      18.527  -0.780  14.714  0.00  0.00     0.034 A 
ATOM     19  C22 <0> d   1      17.503  -0.325  13.903  0.00  0.00     0.024 A 
ATOM     20 Cl24 <0> d   1      18.164  -1.738  16.116  0.00  0.00    -0.084 Cl
ATOM     21  C21 <0> d   1      17.792   0.438  12.787  0.00  0.00     0.011 A 
ENDBRANCH   8  15
ENDBRANCH   5   8
BRANCH   1  22
ATOM     22  C6  <0> d   1      18.827  -1.368   6.497  0.00  0.00     0.261 C 
BRANCH  22  23
ATOM     23  C5  <0> d   1      18.691  -2.863   6.790  0.00  0.00     0.195 C 
BRANCH  23  24
ATOM     24  O4  <0> d   1      19.961  -3.499   6.623  0.00  0.00    -0.387 OA
BRANCH  24  25
ATOM     25  C3  <0> d   1      19.912  -4.925   6.702  0.00  0.00     0.193 C 
BRANCH  25  26
ATOM     26  C2  <0> d   1      20.810  -5.403   7.845  0.00  0.00     0.190 C 
BRANCH  26  27
ATOM     27  O1  <0> d   1      22.169  -5.436   7.402  0.00  0.00    -0.399 OA
ATOM     28  H29 <0> d   1      22.588  -6.303   7.487  0.00  0.00     0.209 HD
ENDBRANCH  26  27
ENDBRANCH  25  26
ENDBRANCH  24  25
ENDBRANCH  23  24
ENDBRANCH  22  23
ENDBRANCH   1  22
TORSDOF 9
ENDMDL
MODEL 9
REMARK VINA RESULT:      -7.0      2.515      4.633
REMARK  9 active torsions:
REMARK  status: ('A' for Active; 'I' for Inactive)
REMARK    1  A    between atoms: O1_1  and  C2_2 
REMARK    2  A    between atoms: C2_2  and  C3_3 
REMARK    3  A    between atoms: C3_3  and  O4_4 
REMARK    4  A    between atoms: O4_4  and  C5_5 
REMARK    5  A    between atoms: C5_5  and  C6_6 
REMARK    6  A    between atoms: C6_6  and  N7_7 
REMARK    7  A    between atoms: N11_11  and  C12_12 
REMARK    8  A    between atoms: C12_12  and  C14_13 
REMARK    9  A    between atoms: C12_12  and  C20_19 
ROOT
ATOM      1  N7  <0> d   1      17.344   0.003   9.303  0.00  0.00    -0.066 N 
ATOM      2  H8  <0> d   1      16.341   0.103   9.335  0.00  0.00     0.280 HD
ATOM      3  C9  <0> d   1      17.974   1.307   9.548  0.00  0.00     0.265 C 
ATOM      4  C10 <0> d   1      17.542   1.831  10.920  0.00  0.00     0.301 C 
ATOM      5  N11 <0> d   1      17.944   0.871  11.957  0.00  0.00     0.105 N 
ATOM      6  C27 <0> d   1      17.342  -0.447  11.710  0.00  0.00     0.301 C 
ATOM      7  C28 <0> d   1      17.775  -0.952  10.332  0.00  0.00     0.265 C 
ENDROOT
BRANCH   5   8
ATOM      8  C12 <0> d   1      17.598   1.364  13.296  0.00  0.00     0.289 C 
BRANCH   8   9
ATOM      9  C14 <0> d   1      18.029   0.357  14.331  0.00  0.00    -0.021 A 
ATOM     10  C19 <0> d   1      19.252  -0.275  14.212  0.00  0.00     0.010 A 
ATOM     11  C18 <0> d   1      19.648  -1.197  15.164  0.00  0.00     0.001 A 
ATOM     12  C17 <0> d   1      18.818  -1.490  16.230  0.00  0.00     0.000 A 
ATOM     13  C16 <0> d   1      17.592  -0.861  16.344  0.00  0.00     0.001 A 
ATOM     14  C15 <0> d   1      17.197   0.063  15.395  0.00  0.00     0.010 A 
ENDBRANCH   8   9
BRANCH   8  15
ATOM     15  C20 <0> d   1      18.301   2.674  13.545  0.00  0.00    -0.021 A 
ATOM     16  C26 <0> d   1      18.072   3.369  14.718  0.00  0.00     0.011 A 
ATOM     17  C25 <0> d   1      18.721   4.567  14.949  0.00  0.00     0.024 A 
ATOM     18  C23 <0> d   1      19.591   5.077  14.002  0.00  0.00     0.034 A 
ATOM     19  C22 <0> d   1      19.815   4.384  12.826  0.00  0.00     0.024 A 
ATOM     20 Cl24 <0> d   1      20.401   6.586  14.289  0.00  0.00    -0.084 Cl
ATOM     21  C21 <0> d   1      19.171   3.183  12.598  0.00  0.00     0.011 A 
ENDBRANCH   8  15
ENDBRANCH   5   8
BRANCH   1  22
ATOM     22  C6  <0> d   1      17.744  -0.492   7.978  0.00  0.00     0.261 C 
BRANCH  22  23
ATOM     23  C5  <0> d   1      18.770   0.463   7.366  0.00  0.00     0.195 C 
BRANCH  23  24
ATOM     24  O4  <0> d   1      18.384   0.784   6.028  0.00  0.00    -0.387 OA
BRANCH  24  25
ATOM     25  C3  <0> d   1      19.255   0.251   5.027  0.00  0.00     0.193 C 
BRANCH  25  26
ATOM     26  C2  <0> d   1      18.582  -0.942   4.347  0.00  0.00     0.190 C 
BRANCH  26  27
ATOM     27  O1  <0> d   1      19.554  -1.959   4.096  0.00  0.00    -0.399 OA
ATOM     28  H29 <0> d   1      20.468  -1.667   4.213  0.00  0.00     0.209 HD
ENDBRANCH  26  27
ENDBRANCH  25  26
ENDBRANCH  24  25
ENDBRANCH  23  24
ENDBRANCH  22  23
ENDBRANCH   1  22
TORSDOF 9
ENDMDL
