MODEL 1
REMARK VINA RESULT:      -7.9      0.000      0.000
REMARK  4 active torsions:
REMARK  status: ('A' for Active; 'I' for Inactive)
REMARK    1  A    between atoms: C2_2  and  C4_3 
REMARK    2  A    between atoms: C2_2  and  C7_6 
REMARK    3  A    between atoms: C11_10  and  C12_11 
REMARK    4  A    between atoms: C12_11  and  C14_13 
ROOT
ATOM      1  C7  ZIN A   1      18.176  -0.043  15.055  0.00  0.00    -0.043 A 
ATOM      2  C8  ZIN A   1      19.128  -1.042  14.945  0.00  0.00     0.008 A 
ATOM      3  C9  ZIN A   1      19.373  -1.641  13.723  0.00  0.00     0.002 A 
ATOM      4  C10 ZIN A   1      18.670  -1.247  12.603  0.00  0.00     0.015 A 
ATOM      5  C11 ZIN A   1      17.707  -0.240  12.707  0.00  0.00     0.015 A 
ATOM      6  C20 ZIN A   1      17.461   0.357  13.945  0.00  0.00     0.023 A 
ENDROOT
BRANCH   5   7
ATOM      7  C12 ZIN A   1      16.950   0.187  11.512  0.00  0.00     0.192 C 
ATOM      8  O13 ZIN A   1      15.738   0.098  11.497  0.00  0.00    -0.287 OA
BRANCH   7   9
ATOM      9  C14 ZIN A   1      17.666   0.722  10.336  0.00  0.00     0.015 A 
ATOM     10  C19 ZIN A   1      17.644   0.026   9.125  0.00  0.00     0.015 A 
ATOM     11  C18 ZIN A   1      18.311   0.535   8.030  0.00  0.00     0.001 A 
ATOM     12  C17 ZIN A   1      19.009   1.725   8.131  0.00  0.00     0.000 A 
ATOM     13  C16 ZIN A   1      19.040   2.416   9.330  0.00  0.00     0.001 A 
ATOM     14  C15 ZIN A   1      18.373   1.923  10.431  0.00  0.00     0.015 A 
ENDBRANCH   7   9
ENDBRANCH   5   7
BRANCH   1  15
ATOM     15  C2  ZIN A   1      17.915   0.604  16.390  0.00  0.00     0.115 C 
ATOM     16  C1  ZIN A   1      17.745  -0.480  17.457  0.00  0.00     0.026 C 
BRANCH  15  17
ATOM     17  C4  ZIN A   1      19.078   1.490  16.754  0.00  0.00     0.181 C 
ATOM     18  O5  ZIN A   1      19.452   2.353  15.979  0.00  0.00    -0.647 OA
ATOM     19  O6  ZIN A   1      19.646   1.342  17.823  0.00  0.00    -0.647 OA
ENDBRANCH  15  17
ENDBRANCH   1  15
TORSDOF 4
ENDMDL
MODEL 2
REMARK VINA RESULT:      -7.8      2.439      7.152
REMARK  4 active torsions:
REMARK  status: ('A' for Active; 'I' for Inactive)
REMARK    1  A    between atoms: C2_2  and  C4_3 
REMARK    2  A    between atoms: C2_2  and  C7_6 
REMARK    3  A    between atoms: C11_10  and  C12_11 
REMARK    4  A    between atoms: C12_11  and  C14_13 
ROOT
ATOM      1  C7  ZIN A   1      18.174   0.233   7.899  0.00  0.00    -0.043 A 
ATOM      2  C8  ZIN A   1      18.972   1.362   7.932  0.00  0.00     0.008 A 
ATOM      3  C9  ZIN A   1      19.110   2.086   9.103  0.00  0.00     0.002 A 
ATOM      4  C10 ZIN A   1      18.452   1.685  10.248  0.00  0.00     0.015 A 
ATOM      5  C11 ZIN A   1      17.644   0.546  10.221  0.00  0.00     0.015 A 
ATOM      6  C20 ZIN A   1      17.505  -0.176   9.034  0.00  0.00     0.023 A 
ENDROOT
BRANCH   5   7
ATOM      7  C12 ZIN A   1      16.936   0.111  11.443  0.00  0.00     0.192 C 
ATOM      8  O13 ZIN A   1      15.721   0.084  11.464  0.00  0.00    -0.287 OA
BRANCH   7   9
ATOM      9  C14 ZIN A   1      17.705  -0.291  12.639  0.00  0.00     0.015 A 
ATOM     10  C19 ZIN A   1      17.548   0.404  13.840  0.00  0.00     0.015 A 
ATOM     11  C18 ZIN A   1      18.265   0.019  14.953  0.00  0.00     0.001 A 
ATOM     12  C17 ZIN A   1      19.146  -1.046  14.880  0.00  0.00     0.000 A 
ATOM     13  C16 ZIN A   1      19.310  -1.735  13.691  0.00  0.00     0.001 A 
ATOM     14  C15 ZIN A   1      18.595  -1.365  12.572  0.00  0.00     0.015 A 
ENDBRANCH   7   9
ENDBRANCH   5   7
BRANCH   1  15
ATOM     15  C2  ZIN A   1      18.029  -0.549   6.619  0.00  0.00     0.115 C 
ATOM     16  C1  ZIN A   1      18.115   0.406   5.427  0.00  0.00     0.026 C 
BRANCH  15  17
ATOM     17  C4  ZIN A   1      19.134  -1.569   6.526  0.00  0.00     0.181 C 
ATOM     18  O5  ZIN A   1      19.661  -1.800   5.451  0.00  0.00    -0.647 OA
ATOM     19  O6  ZIN A   1      19.500  -2.163   7.525  0.00  0.00    -0.647 OA
ENDBRANCH  15  17
ENDBRANCH   1  15
TORSDOF 4
ENDMDL
MODEL 3
REMARK VINA RESULT:      -7.4      3.817      7.794
REMARK  4 active torsions:
REMARK  status: ('A' for Active; 'I' for Inactive)
REMARK    1  A    between atoms: C2_2  and  C4_3 
REMARK    2  A    between atoms: C2_2  and  C7_6 
REMARK    3  A    between atoms: C11_10  and  C12_11 
REMARK    4  A    between atoms: C12_11  and  C14_13 
ROOT
ATOM      1  C7  ZIN A   1      18.630  -0.339   7.353  0.00  0.00    -0.043 A 
ATOM      2  C8  ZIN A   1      18.835   1.022   7.216  0.00  0.00     0.008 A 
ATOM      3  C9  ZIN A   1      19.236   1.781   8.300  0.00  0.00     0.002 A 
ATOM      4  C10 ZIN A   1      19.435   1.185   9.528  0.00  0.00     0.015 A 
ATOM      5  C11 ZIN A   1      19.230  -0.189   9.675  0.00  0.00     0.015 A 
ATOM      6  C20 ZIN A   1      18.819  -0.948   8.577  0.00  0.00     0.023 A 
ENDROOT
BRANCH   5   7
ATOM      7  C12 ZIN A   1      19.440  -0.834  10.987  0.00  0.00     0.192 C 
ATOM      8  O13 ZIN A   1      19.975  -0.219  11.888  0.00  0.00    -0.287 OA
BRANCH   7   9
ATOM      9  C14 ZIN A   1      19.002  -2.229  11.204  0.00  0.00     0.015 A 
ATOM     10  C19 ZIN A   1      19.941  -3.262  11.239  0.00  0.00     0.015 A 
ATOM     11  C18 ZIN A   1      19.524  -4.560  11.447  0.00  0.00     0.001 A 
ATOM     12  C17 ZIN A   1      18.179  -4.842  11.611  0.00  0.00     0.000 A 
ATOM     13  C16 ZIN A   1      17.243  -3.823  11.572  0.00  0.00     0.001 A 
ATOM     14  C15 ZIN A   1      17.646  -2.520  11.370  0.00  0.00     0.015 A 
ENDBRANCH   7   9
ENDBRANCH   5   7
BRANCH   1  15
ATOM     15  C2  ZIN A   1      18.193  -1.158   6.167  0.00  0.00     0.115 C 
ATOM     16  C1  ZIN A   1      17.353  -0.288   5.230  0.00  0.00     0.026 C 
BRANCH  15  17
ATOM     17  C4  ZIN A   1      19.407  -1.663   5.430  0.00  0.00     0.181 C 
ATOM     18  O5  ZIN A   1      19.848  -2.774   5.672  0.00  0.00    -0.647 OA
ATOM     19  O6  ZIN A   1      19.949  -0.960   4.595  0.00  0.00    -0.647 OA
ENDBRANCH  15  17
ENDBRANCH   1  15
TORSDOF 4
ENDMDL
MODEL 4
REMARK VINA RESULT:      -6.9      2.008      3.042
REMARK  4 active torsions:
REMARK  status: ('A' for Active; 'I' for Inactive)
REMARK    1  A    between atoms: C2_2  and  C4_3 
REMARK    2  A    between atoms: C2_2  and  C7_6 
REMARK    3  A    between atoms: C11_10  and  C12_11 
REMARK    4  A    between atoms: C12_11  and  C14_13 
ROOT
ATOM      1  C7  ZIN A   1      18.036   0.837  15.602  0.00  0.00    -0.043 A 
ATOM      2  C8  ZIN A   1      18.768   1.978  15.330  0.00  0.00     0.008 A 
ATOM      3  C9  ZIN A   1      18.958   2.393  14.024  0.00  0.00     0.002 A 
ATOM      4  C10 ZIN A   1      18.416   1.670  12.981  0.00  0.00     0.015 A 
ATOM      5  C11 ZIN A   1      17.675   0.516  13.248  0.00  0.00     0.015 A 
ATOM      6  C20 ZIN A   1      17.493   0.100  14.568  0.00  0.00     0.023 A 
ENDROOT
BRANCH   5   7
ATOM      7  C12 ZIN A   1      17.092  -0.264  12.137  0.00  0.00     0.192 C 
ATOM      8  O13 ZIN A   1      15.991   0.020  11.708  0.00  0.00    -0.287 OA
BRANCH   7   9
ATOM      9  C14 ZIN A   1      17.847  -1.388  11.547  0.00  0.00     0.015 A 
ATOM     10  C19 ZIN A   1      18.273  -1.328  10.219  0.00  0.00     0.015 A 
ATOM     11  C18 ZIN A   1      18.982  -2.380   9.677  0.00  0.00     0.001 A 
ATOM     12  C17 ZIN A   1      19.263  -3.497  10.443  0.00  0.00     0.000 A 
ATOM     13  C16 ZIN A   1      18.839  -3.566  11.759  0.00  0.00     0.001 A 
ATOM     14  C15 ZIN A   1      18.134  -2.520  12.315  0.00  0.00     0.015 A 
ENDBRANCH   7   9
ENDBRANCH   5   7
BRANCH   1  15
ATOM     15  C2  ZIN A   1      17.835   0.393  17.027  0.00  0.00     0.115 C 
ATOM     16  C1  ZIN A   1      16.873  -0.797  17.059  0.00  0.00     0.026 C 
BRANCH  15  17
ATOM     17  C4  ZIN A   1      19.159  -0.015  17.617  0.00  0.00     0.181 C 
ATOM     18  O5  ZIN A   1      19.608  -1.128  17.397  0.00  0.00    -0.647 OA
ATOM     19  O6  ZIN A   1      19.781   0.766  18.317  0.00  0.00    -0.647 OA
ENDBRANCH  15  17
ENDBRANCH   1  15
TORSDOF 4
ENDMDL
MODEL 5
REMARK VINA RESULT:      -6.9      3.133      5.328
REMARK  4 active torsions:
REMARK  status: ('A' for Active; 'I' for Inactive)
REMARK    1  A    between atoms: C2_2  and  C4_3 
REMARK    2  A    between atoms: C2_2  and  C7_6 
REMARK    3  A    between atoms: C11_10  and  C12_11 
REMARK    4  A    between atoms: C12_11  and  C14_13 
ROOT
ATOM      1  C7  ZIN A   1      17.890   0.521  10.614  0.00  0.00    -0.043 A 
ATOM      2  C8  ZIN A   1      18.688   0.147   9.548  0.00  0.00     0.008 A 
ATOM      3  C9  ZIN A   1      19.224   1.105   8.705  0.00  0.00     0.002 A 
ATOM      4  C10 ZIN A   1      18.966   2.442   8.923  0.00  0.00     0.015 A 
ATOM      5  C11 ZIN A   1      18.160   2.828   9.998  0.00  0.00     0.015 A 
ATOM      6  C20 ZIN A   1      17.618   1.855  10.840  0.00  0.00     0.023 A 
ENDROOT
BRANCH   5   7
ATOM      7  C12 ZIN A   1      17.879   4.258  10.237  0.00  0.00     0.192 C 
ATOM      8  O13 ZIN A   1      17.732   5.015   9.298  0.00  0.00    -0.287 OA
BRANCH   7   9
ATOM      9  C14 ZIN A   1      17.776   4.770  11.620  0.00  0.00     0.015 A 
ATOM     10  C19 ZIN A   1      18.891   4.750  12.460  0.00  0.00     0.015 A 
ATOM     11  C18 ZIN A   1      18.788   5.234  13.747  0.00  0.00     0.001 A 
ATOM     12  C17 ZIN A   1      17.582   5.729  14.211  0.00  0.00     0.000 A 
ATOM     13  C16 ZIN A   1      16.471   5.747  13.385  0.00  0.00     0.001 A 
ATOM     14  C15 ZIN A   1      16.561   5.271  12.094  0.00  0.00     0.015 A 
ENDBRANCH   7   9
ENDBRANCH   5   7
BRANCH   1  15
ATOM     15  C2  ZIN A   1      17.311  -0.529  11.526  0.00  0.00     0.115 C 
ATOM     16  C1  ZIN A   1      17.518  -1.912  10.905  0.00  0.00     0.026 C 
BRANCH  15  17
ATOM     17  C4  ZIN A   1      18.003  -0.469  12.863  0.00  0.00     0.181 C 
ATOM     18  O5  ZIN A   1      19.077  -1.026  13.018  0.00  0.00    -0.647 OA
ATOM     19  O6  ZIN A   1      17.488   0.133  13.789  0.00  0.00    -0.647 OA
ENDBRANCH  15  17
ENDBRANCH   1  15
TORSDOF 4
ENDMDL
MODEL 6
REMARK VINA RESULT:      -6.8      3.510      6.013
REMARK  4 active torsions:
REMARK  status: ('A' for Active; 'I' for Inactive)
REMARK    1  A    between atoms: C2_2  and  C4_3 
REMARK    2  A    between atoms: C2_2  and  C7_6 
REMARK    3  A    between atoms: C11_10  and  C12_11 
REMARK    4  A    between atoms: C12_11  and  C14_13 
ROOT
ATOM      1  C7  ZIN A   1      18.593  -3.991  10.096  0.00  0.00    -0.043 A 
ATOM      2  C8  ZIN A   1      19.665  -4.178  10.950  0.00  0.00     0.008 A 
ATOM      3  C9  ZIN A   1      20.006  -3.202  11.869  0.00  0.00     0.002 A 
ATOM      4  C10 ZIN A   1      19.277  -2.033  11.941  0.00  0.00     0.015 A 
ATOM      5  C11 ZIN A   1      18.192  -1.836  11.081  0.00  0.00     0.015 A 
ATOM      6  C20 ZIN A   1      17.858  -2.823  10.152  0.00  0.00     0.023 A 
ENDROOT
BRANCH   5   7
ATOM      7  C12 ZIN A   1      17.408  -0.587  11.152  0.00  0.00     0.192 C 
ATOM      8  O13 ZIN A   1      16.368  -0.557  11.780  0.00  0.00    -0.287 OA
BRANCH   7   9
ATOM      9  C14 ZIN A   1      17.887   0.627  10.459  0.00  0.00     0.015 A 
ATOM     10  C19 ZIN A   1      17.635   1.890  11.000  0.00  0.00     0.015 A 
ATOM     11  C18 ZIN A   1      18.090   3.018  10.350  0.00  0.00     0.001 A 
ATOM     12  C17 ZIN A   1      18.786   2.902   9.159  0.00  0.00     0.000 A 
ATOM     13  C16 ZIN A   1      19.035   1.654   8.615  0.00  0.00     0.001 A 
ATOM     14  C15 ZIN A   1      18.590   0.517   9.257  0.00  0.00     0.015 A 
ENDBRANCH   7   9
ENDBRANCH   5   7
BRANCH   1  15
ATOM     15  C2  ZIN A   1      18.229  -5.059   9.098  0.00  0.00     0.115 C 
ATOM     16  C1  ZIN A   1      19.406  -6.023   8.933  0.00  0.00     0.026 C 
BRANCH  15  17
ATOM     17  C4  ZIN A   1      17.024  -5.818   9.591  0.00  0.00     0.181 C 
ATOM     18  O5  ZIN A   1      17.128  -6.573  10.544  0.00  0.00    -0.647 OA
ATOM     19  O6  ZIN A   1      15.948  -5.678   9.038  0.00  0.00    -0.647 OA
ENDBRANCH  15  17
ENDBRANCH   1  15
TORSDOF 4
ENDMDL
MODEL 7
REMARK VINA RESULT:      -6.8      4.084      5.820
REMARK  4 active torsions:
REMARK  status: ('A' for Active; 'I' for Inactive)
REMARK    1  A    between atoms: C2_2  and  C4_3 
REMARK    2  A    between atoms: C2_2  and  C7_6 
REMARK    3  A    between atoms: C11_10  and  C12_11 
REMARK    4  A    between atoms: C12_11  and  C14_13 
ROOT
ATOM      1  C7  ZIN A   1      18.155  -4.337   9.784  0.00  0.00    -0.043 A 
ATOM      2  C8  ZIN A   1      18.821  -5.543   9.652  0.00  0.00     0.008 A 
ATOM      3  C9  ZIN A   1      19.661  -5.763   8.575  0.00  0.00     0.002 A 
ATOM      4  C10 ZIN A   1      19.842  -4.780   7.624  0.00  0.00     0.015 A 
ATOM      5  C11 ZIN A   1      19.173  -3.559   7.751  0.00  0.00     0.015 A 
ATOM      6  C20 ZIN A   1      18.322  -3.347   8.837  0.00  0.00     0.023 A 
ENDROOT
BRANCH   5   7
ATOM      7  C12 ZIN A   1      19.362  -2.502   6.737  0.00  0.00     0.192 C 
ATOM      8  O13 ZIN A   1      19.593  -2.802   5.582  0.00  0.00    -0.287 OA
BRANCH   7   9
ATOM      9  C14 ZIN A   1      19.270  -1.080   7.126  0.00  0.00     0.015 A 
ATOM     10  C19 ZIN A   1      18.879  -0.120   6.191  0.00  0.00     0.015 A 
ATOM     11  C18 ZIN A   1      18.791   1.205   6.564  0.00  0.00     0.001 A 
ATOM     12  C17 ZIN A   1      19.098   1.586   7.858  0.00  0.00     0.000 A 
ATOM     13  C16 ZIN A   1      19.492   0.640   8.789  0.00  0.00     0.001 A 
ATOM     14  C15 ZIN A   1      19.579  -0.689   8.432  0.00  0.00     0.015 A 
ENDBRANCH   7   9
ENDBRANCH   5   7
BRANCH   1  15
ATOM     15  C2  ZIN A   1      17.242  -4.106  10.960  0.00  0.00     0.115 C 
ATOM     16  C1  ZIN A   1      17.290  -5.322  11.888  0.00  0.00     0.026 C 
BRANCH  15  17
ATOM     17  C4  ZIN A   1      17.693  -2.881  11.712  0.00  0.00     0.181 C 
ATOM     18  O5  ZIN A   1      18.747  -2.896  12.325  0.00  0.00    -0.647 OA
ATOM     19  O6  ZIN A   1      17.002  -1.876  11.710  0.00  0.00    -0.647 OA
ENDBRANCH  15  17
ENDBRANCH   1  15
TORSDOF 4
ENDMDL
MODEL 8
REMARK VINA RESULT:      -6.7      3.886      6.380
REMARK  4 active torsions:
REMARK  status: ('A' for Active; 'I' for Inactive)
REMARK    1  A    between atoms: C2_2  and  C4_3 
REMARK    2  A    between atoms: C2_2  and  C7_6 
REMARK    3  A    between atoms: C11_10  and  C12_11 
REMARK    4  A    between atoms: C12_11  and  C14_13 
ROOT
ATOM      1  C7  ZIN A   1      18.383  -4.497   9.826  0.00  0.00    -0.043 A 
ATOM      2  C8  ZIN A   1      19.561  -4.737  10.512  0.00  0.00     0.008 A 
ATOM      3  C9  ZIN A   1      20.086  -3.777  11.358  0.00  0.00     0.002 A 
ATOM      4  C10 ZIN A   1      19.438  -2.570  11.524  0.00  0.00     0.015 A 
ATOM      5  C11 ZIN A   1      18.249  -2.320  10.835  0.00  0.00     0.015 A 
ATOM      6  C20 ZIN A   1      17.728  -3.292   9.978  0.00  0.00     0.023 A 
ENDROOT
BRANCH   5   7
ATOM      7  C12 ZIN A   1      17.549  -1.030  11.007  0.00  0.00     0.192 C 
ATOM      8  O13 ZIN A   1      16.585  -0.956  11.742  0.00  0.00    -0.287 OA
BRANCH   7   9
ATOM      9  C14 ZIN A   1      18.022   0.169  10.286  0.00  0.00     0.015 A 
ATOM     10  C19 ZIN A   1      18.797   0.034   9.132  0.00  0.00     0.015 A 
ATOM     11  C18 ZIN A   1      19.230   1.159   8.461  0.00  0.00     0.001 A 
ATOM     12  C17 ZIN A   1      18.908   2.419   8.934  0.00  0.00     0.000 A 
ATOM     13  C16 ZIN A   1      18.145   2.560  10.081  0.00  0.00     0.001 A 
ATOM     14  C15 ZIN A   1      17.701   1.445  10.758  0.00  0.00     0.015 A 
ENDBRANCH   7   9
ENDBRANCH   5   7
BRANCH   1  15
ATOM     15  C2  ZIN A   1      17.819  -5.549   8.908  0.00  0.00     0.115 C 
ATOM     16  C1  ZIN A   1      16.300  -5.387   8.821  0.00  0.00     0.026 C 
BRANCH  15  17
ATOM     17  C4  ZIN A   1      18.420  -5.391   7.535  0.00  0.00     0.181 C 
ATOM     18  O5  ZIN A   1      17.809  -4.789   6.668  0.00  0.00    -0.647 OA
ATOM     19  O6  ZIN A   1      19.515  -5.868   7.291  0.00  0.00    -0.647 OA
ENDBRANCH  15  17
ENDBRANCH   1  15
TORSDOF 4
ENDMDL
MODEL 9
REMARK VINA RESULT:      -6.5      2.595      6.539
REMARK  4 active torsions:
REMARK  status: ('A' for Active; 'I' for Inactive)
REMARK    1  A    between atoms: C2_2  and  C4_3 
REMARK    2  A    between atoms: C2_2  and  C7_6 
REMARK    3  A    between atoms: C11_10  and  C12_11 
REMARK    4  A    between atoms: C12_11  and  C14_13 
ROOT
ATOM      1  C7  ZIN A   1      18.172  -2.582  11.371  0.00  0.00    -0.043 A 
ATOM      2  C8  ZIN A   1      17.319  -1.784  10.628  0.00  0.00     0.008 A 
ATOM      3  C9  ZIN A   1      17.161  -0.447  10.944  0.00  0.00     0.002 A 
ATOM      4  C10 ZIN A   1      17.855   0.102  12.002  0.00  0.00     0.015 A 
ATOM      5  C11 ZIN A   1      18.718  -0.697  12.757  0.00  0.00     0.015 A 
ATOM      6  C20 ZIN A   1      18.867  -2.048  12.436  0.00  0.00     0.023 A 
ENDROOT
BRANCH   5   7
ATOM      7  C12 ZIN A   1      19.463  -0.116  13.892  0.00  0.00     0.192 C 
ATOM      8  O13 ZIN A   1      20.614   0.242  13.744  0.00  0.00    -0.287 OA
BRANCH   7   9
ATOM      9  C14 ZIN A   1      18.809   0.028  15.209  0.00  0.00     0.015 A 
ATOM     10  C19 ZIN A   1      19.009   1.182  15.969  0.00  0.00     0.015 A 
ATOM     11  C18 ZIN A   1      18.391   1.312  17.195  0.00  0.00     0.001 A 
ATOM     12  C17 ZIN A   1      17.582   0.298  17.678  0.00  0.00     0.000 A 
ATOM     13  C16 ZIN A   1      17.384  -0.851  16.932  0.00  0.00     0.001 A 
ATOM     14  C15 ZIN A   1      17.991  -0.992  15.702  0.00  0.00     0.015 A 
ENDBRANCH   7   9
ENDBRANCH   5   7
BRANCH   1  15
ATOM     15  C2  ZIN A   1      18.337  -4.038  11.020  0.00  0.00     0.115 C 
ATOM     16  C1  ZIN A   1      19.718  -4.517  11.472  0.00  0.00     0.026 C 
BRANCH  15  17
ATOM     17  C4  ZIN A   1      17.272  -4.846  11.714  0.00  0.00     0.181 C 
ATOM     18  O5  ZIN A   1      16.100  -4.695  11.412  0.00  0.00    -0.647 OA
ATOM     19  O6  ZIN A   1      17.582  -5.648  12.578  0.00  0.00    -0.647 OA
ENDBRANCH  15  17
ENDBRANCH   1  15
TORSDOF 4
ENDMDL
