MODEL 1
REMARK VINA RESULT:      -9.2      0.000      0.000
REMARK  8 active torsions:
REMARK  status: ('A' for Active; 'I' for Inactive)
REMARK    1  A    between atoms: O2_2  and  C3_3 
REMARK    2  A    between atoms: C3_3  and  C5_5 
REMARK    3  A    between atoms: C15_15  and  N16_16 
REMARK    4  A    between atoms: C15_15  and  C35_35 
REMARK    5  A    between atoms: N16_16  and  C17_17 
REMARK    6  A    between atoms: C20_20  and  N21_21 
REMARK       I    between atoms: N21_21  and  C23_23 
REMARK    7  A    between atoms: C23_23  and  C25_25 
REMARK    8  A    between atoms: C25_25  and  N26_26 
ROOT
ATOM      1  C5  ZIN A   1      17.476  -7.639   7.248  0.00  0.00     0.041 A 
ATOM      2  C6  ZIN A   1      17.011  -7.075   8.442  0.00  0.00     0.018 A 
ATOM      3  C7  ZIN A   1      17.268  -5.764   8.728  0.00  0.00     0.016 A 
ATOM      4  C8  ZIN A   1      17.994  -4.984   7.829  0.00  0.00     0.009 A 
ATOM      5  C9  ZIN A   1      18.468  -5.537   6.627  0.00  0.00     0.047 A 
ATOM      6  C10 ZIN A   1      18.210  -6.867   6.344  0.00  0.00     0.048 A 
ATOM      7  N11 ZIN A   1      19.151  -4.546   5.932  0.00  0.00    -0.322 N 
ATOM      8  C12 ZIN A   1      19.145  -3.391   6.617  0.00  0.00     0.259 A 
ATOM      9  O13 ZIN A   1      19.665  -2.350   6.253  0.00  0.00    -0.267 OA
ATOM     10  C14 ZIN A   1      18.434  -3.576   7.831  0.00  0.00     0.072 A 
ATOM     11  C15 ZIN A   1      18.198  -2.625   8.820  0.00  0.00     0.059 C 
ATOM     12  H47 ZIN A   1      19.575  -4.673   5.069  0.00  0.00     0.169 HD
ENDROOT
BRANCH  11  13
ATOM     13  N16 ZIN A   1      17.640  -3.001  10.012  0.00  0.00    -0.355 N 
ATOM     14  H48 ZIN A   1      17.137  -3.829  10.073  0.00  0.00     0.166 HD
BRANCH  13  15
ATOM     15  C17 ZIN A   1      17.794  -2.192  11.143  0.00  0.00     0.032 A 
ATOM     16  C34 ZIN A   1      18.741  -2.515  12.106  0.00  0.00     0.031 A 
ATOM     17  C33 ZIN A   1      18.894  -1.715  13.219  0.00  0.00     0.032 A 
ATOM     18  C20 ZIN A   1      18.095  -0.591  13.382  0.00  0.00     0.036 A 
ATOM     19  C19 ZIN A   1      17.144  -0.270  12.422  0.00  0.00     0.032 A 
ATOM     20  C18 ZIN A   1      16.993  -1.068  11.306  0.00  0.00     0.031 A 
BRANCH  18  21
ATOM     21  N21 ZIN A   1      18.248   0.220  14.514  0.00  0.00    -0.321 N 
ATOM     22  C22 ZIN A   1      17.537  -0.111  15.752  0.00  0.00     0.159 C 
ATOM     23  C23 ZIN A   1      19.049   1.302  14.465  0.00  0.00     0.252 C 
ATOM     24  O24 ZIN A   1      19.568   1.625  13.417  0.00  0.00    -0.271 OA
BRANCH  23  25
ATOM     25  C25 ZIN A   1      19.300   2.110  15.712  0.00  0.00     0.375 C 
BRANCH  25  26
ATOM     26  N26 ZIN A   1      19.189   3.541  15.399  0.00  0.00     0.100 N 
ATOM     27  C32 ZIN A   1      17.805   3.901  15.062  0.00  0.00     0.303 C 
ATOM     28  C31 ZIN A   1      17.746   5.377  14.664  0.00  0.00     0.302 C 
ATOM     29  N29 ZIN A   1      18.245   6.200  15.776  0.00  0.00     0.087 N 
ATOM     30  C28 ZIN A   1      19.630   5.842  16.113  0.00  0.00     0.302 C 
ATOM     31  C30 ZIN A   1      18.134   7.631  15.462  0.00  0.00     0.310 C 
ATOM     32  C27 ZIN A   1      19.688   4.365  16.509  0.00  0.00     0.303 C 
ENDBRANCH  25  26
ENDBRANCH  23  25
ENDBRANCH  18  21
ENDBRANCH  13  15
ENDBRANCH  11  13
BRANCH  11  33
ATOM     33  C35 ZIN A   1      18.551  -1.214   8.584  0.00  0.00    -0.008 A 
ATOM     34  C40 ZIN A   1      19.747  -0.694   9.090  0.00  0.00     0.014 A 
ATOM     35  C39 ZIN A   1      20.073   0.625   8.858  0.00  0.00     0.001 A 
ATOM     36  C38 ZIN A   1      19.216   1.438   8.138  0.00  0.00     0.000 A 
ATOM     37  C37 ZIN A   1      18.028   0.932   7.639  0.00  0.00     0.001 A 
ATOM     38  C36 ZIN A   1      17.691  -0.387   7.856  0.00  0.00     0.014 A 
ENDBRANCH  11  33
BRANCH   1  39
ATOM     39  C3  ZIN A   1      17.195  -9.054   6.947  0.00  0.00     0.293 C 
ATOM     40  O4  ZIN A   1      18.112  -9.839   6.807  0.00  0.00    -0.259 OA
BRANCH  39  41
ATOM     41  O2  ZIN A   1      15.921  -9.478   6.828  0.00  0.00    -0.323 OA
ATOM     42  C1  ZIN A   1      15.208  -9.090   5.625  0.00  0.00     0.213 C 
ENDBRANCH  39  41
ENDBRANCH   1  39
TORSDOF 8
ENDMDL
MODEL 2
REMARK VINA RESULT:      -9.0      4.299      7.284
REMARK  8 active torsions:
REMARK  status: ('A' for Active; 'I' for Inactive)
REMARK    1  A    between atoms: O2_2  and  C3_3 
REMARK    2  A    between atoms: C3_3  and  C5_5 
REMARK    3  A    between atoms: C15_15  and  N16_16 
REMARK    4  A    between atoms: C15_15  and  C35_35 
REMARK    5  A    between atoms: N16_16  and  C17_17 
REMARK    6  A    between atoms: C20_20  and  N21_21 
REMARK       I    between atoms: N21_21  and  C23_23 
REMARK    7  A    between atoms: C23_23  and  C25_25 
REMARK    8  A    between atoms: C25_25  and  N26_26 
ROOT
ATOM      1  C5  ZIN A   1      18.671   0.769   7.618  0.00  0.00     0.041 A 
ATOM      2  C6  ZIN A   1      19.318   1.708   8.429  0.00  0.00     0.018 A 
ATOM      3  C7  ZIN A   1      19.248   1.605   9.789  0.00  0.00     0.016 A 
ATOM      4  C8  ZIN A   1      18.532   0.561  10.373  0.00  0.00     0.009 A 
ATOM      5  C9  ZIN A   1      17.876  -0.389   9.571  0.00  0.00     0.047 A 
ATOM      6  C10 ZIN A   1      17.945  -0.277   8.193  0.00  0.00     0.048 A 
ATOM      7  N11 ZIN A   1      17.248  -1.305  10.407  0.00  0.00    -0.322 N 
ATOM      8  C12 ZIN A   1      17.460  -0.998  11.698  0.00  0.00     0.259 A 
ATOM      9  O13 ZIN A   1      17.033  -1.623  12.653  0.00  0.00    -0.267 OA
ATOM     10  C14 ZIN A   1      18.264   0.170  11.770  0.00  0.00     0.072 A 
ATOM     11  C15 ZIN A   1      18.710   0.813  12.921  0.00  0.00     0.059 C 
ATOM     12  H47 ZIN A   1      16.726  -2.062  10.100  0.00  0.00     0.169 HD
ENDROOT
BRANCH  11  13
ATOM     13  N16 ZIN A   1      19.338   2.026  12.829  0.00  0.00    -0.355 N 
ATOM     14  H48 ZIN A   1      20.234   2.081  12.459  0.00  0.00     0.166 HD
BRANCH  13  15
ATOM     15  C17 ZIN A   1      18.690   3.185  13.267  0.00  0.00     0.032 A 
ATOM     16  C34 ZIN A   1      17.819   3.858  12.420  0.00  0.00     0.031 A 
ATOM     17  C33 ZIN A   1      17.177   4.999  12.854  0.00  0.00     0.032 A 
ATOM     18  C20 ZIN A   1      17.409   5.481  14.135  0.00  0.00     0.036 A 
ATOM     19  C19 ZIN A   1      18.284   4.812  14.981  0.00  0.00     0.032 A 
ATOM     20  C18 ZIN A   1      18.923   3.668  14.549  0.00  0.00     0.031 A 
BRANCH  18  21
ATOM     21  N21 ZIN A   1      16.761   6.643  14.575  0.00  0.00    -0.321 N 
ATOM     22  C22 ZIN A   1      17.517   7.888  14.731  0.00  0.00     0.159 C 
ATOM     23  C23 ZIN A   1      15.443   6.614  14.852  0.00  0.00     0.252 C 
ATOM     24  O24 ZIN A   1      14.835   5.565  14.807  0.00  0.00    -0.271 OA
BRANCH  23  25
ATOM     25  C25 ZIN A   1      14.723   7.887  15.218  0.00  0.00     0.375 C 
BRANCH  25  26
ATOM     26  N26 ZIN A   1      14.043   7.711  16.509  0.00  0.00     0.100 N 
ATOM     27  C32 ZIN A   1      14.853   8.253  17.608  0.00  0.00     0.303 C 
ATOM     28  C31 ZIN A   1      14.150   7.979  18.940  0.00  0.00     0.302 C 
ATOM     29  N29 ZIN A   1      12.815   8.594  18.920  0.00  0.00     0.087 N 
ATOM     30  C28 ZIN A   1      12.004   8.051  17.821  0.00  0.00     0.302 C 
ATOM     31  C30 ZIN A   1      12.136   8.418  20.211  0.00  0.00     0.310 C 
ATOM     32  C27 ZIN A   1      12.708   8.326  16.490  0.00  0.00     0.303 C 
ENDBRANCH  25  26
ENDBRANCH  23  25
ENDBRANCH  18  21
ENDBRANCH  13  15
ENDBRANCH  11  13
BRANCH  11  33
ATOM     33  C35 ZIN A   1      18.504   0.188  14.240  0.00  0.00    -0.008 A 
ATOM     34  C40 ZIN A   1      19.394  -0.785  14.704  0.00  0.00     0.014 A 
ATOM     35  C39 ZIN A   1      19.198  -1.361  15.941  0.00  0.00     0.001 A 
ATOM     36  C38 ZIN A   1      18.117  -0.986  16.719  0.00  0.00     0.000 A 
ATOM     37  C37 ZIN A   1      17.228  -0.027  16.265  0.00  0.00     0.001 A 
ATOM     38  C36 ZIN A   1      17.415   0.562  15.033  0.00  0.00     0.014 A 
ENDBRANCH  11  33
BRANCH   1  39
ATOM     39  C3  ZIN A   1      18.750   0.888   6.151  0.00  0.00     0.293 C 
ATOM     40  O4  ZIN A   1      19.625   1.561   5.642  0.00  0.00    -0.259 OA
BRANCH  39  41
ATOM     41  O2  ZIN A   1      17.852   0.251   5.373  0.00  0.00    -0.323 OA
ATOM     42  C1  ZIN A   1      18.377  -0.664   4.375  0.00  0.00     0.213 C 
ENDBRANCH  39  41
ENDBRANCH   1  39
TORSDOF 8
ENDMDL
MODEL 3
REMARK VINA RESULT:      -8.7      2.683      3.519
REMARK  8 active torsions:
REMARK  status: ('A' for Active; 'I' for Inactive)
REMARK    1  A    between atoms: O2_2  and  C3_3 
REMARK    2  A    between atoms: C3_3  and  C5_5 
REMARK    3  A    between atoms: C15_15  and  N16_16 
REMARK    4  A    between atoms: C15_15  and  C35_35 
REMARK    5  A    between atoms: N16_16  and  C17_17 
REMARK    6  A    between atoms: C20_20  and  N21_21 
REMARK       I    between atoms: N21_21  and  C23_23 
REMARK    7  A    between atoms: C23_23  and  C25_25 
REMARK    8  A    between atoms: C25_25  and  N26_26 
ROOT
ATOM      1  C5  ZIN A   1      18.434  -4.549   7.567  0.00  0.00     0.041 A 
ATOM      2  C6  ZIN A   1      18.026  -4.472   8.904  0.00  0.00     0.018 A 
ATOM      3  C7  ZIN A   1      18.102  -3.286   9.577  0.00  0.00     0.016 A 
ATOM      4  C8  ZIN A   1      18.584  -2.148   8.933  0.00  0.00     0.009 A 
ATOM      5  C9  ZIN A   1      18.997  -2.211   7.591  0.00  0.00     0.047 A 
ATOM      6  C10 ZIN A   1      18.925  -3.416   6.914  0.00  0.00     0.048 A 
ATOM      7  N11 ZIN A   1      19.427  -0.945   7.209  0.00  0.00    -0.322 N 
ATOM      8  C12 ZIN A   1      19.315  -0.075   8.226  0.00  0.00     0.259 A 
ATOM      9  O13 ZIN A   1      19.616   1.106   8.183  0.00  0.00    -0.267 OA
ATOM     10  C14 ZIN A   1      18.789  -0.751   9.358  0.00  0.00     0.072 A 
ATOM     11  C15 ZIN A   1      18.521  -0.207  10.611  0.00  0.00     0.059 C 
ATOM     12  H47 ZIN A   1      19.763  -0.722   6.327  0.00  0.00     0.169 HD
ENDROOT
BRANCH  11  13
ATOM     13  N16 ZIN A   1      18.173  -1.024  11.652  0.00  0.00    -0.355 N 
ATOM     14  H48 ZIN A   1      17.846  -1.922  11.476  0.00  0.00     0.166 HD
BRANCH  13  15
ATOM     15  C17 ZIN A   1      18.287  -0.568  12.969  0.00  0.00     0.032 A 
ATOM     16  C34 ZIN A   1      17.303   0.250  13.510  0.00  0.00     0.031 A 
ATOM     17  C33 ZIN A   1      17.414   0.697  14.810  0.00  0.00     0.032 A 
ATOM     18  C20 ZIN A   1      18.516   0.337  15.576  0.00  0.00     0.036 A 
ATOM     19  C19 ZIN A   1      19.503  -0.475  15.034  0.00  0.00     0.032 A 
ATOM     20  C18 ZIN A   1      19.389  -0.926  13.734  0.00  0.00     0.031 A 
BRANCH  18  21
ATOM     21  N21 ZIN A   1      18.631   0.795  16.895  0.00  0.00    -0.321 N 
ATOM     22  C22 ZIN A   1      18.259  -0.082  18.009  0.00  0.00     0.159 C 
ATOM     23  C23 ZIN A   1      19.085   2.040  17.139  0.00  0.00     0.252 C 
ATOM     24  O24 ZIN A   1      19.310   2.795  16.217  0.00  0.00    -0.271 OA
BRANCH  23  25
ATOM     25  C25 ZIN A   1      19.313   2.494  18.557  0.00  0.00     0.375 C 
BRANCH  25  26
ATOM     26  N26 ZIN A   1      18.348   3.548  18.897  0.00  0.00     0.100 N 
ATOM     27  C32 ZIN A   1      18.166   4.477  17.774  0.00  0.00     0.303 C 
ATOM     28  C31 ZIN A   1      17.218   5.603  18.194  0.00  0.00     0.302 C 
ATOM     29  N29 ZIN A   1      15.932   5.024  18.609  0.00  0.00     0.087 N 
ATOM     30  C28 ZIN A   1      16.113   4.095  19.733  0.00  0.00     0.302 C 
ATOM     31  C30 ZIN A   1      14.967   6.079  18.949  0.00  0.00     0.310 C 
ATOM     32  C27 ZIN A   1      17.061   2.971  19.312  0.00  0.00     0.303 C 
ENDBRANCH  25  26
ENDBRANCH  23  25
ENDBRANCH  18  21
ENDBRANCH  13  15
ENDBRANCH  11  13
BRANCH  11  33
ATOM     33  C35 ZIN A   1      18.613   1.250  10.817  0.00  0.00    -0.008 A 
ATOM     34  C40 ZIN A   1      17.548   2.080  10.455  0.00  0.00     0.014 A 
ATOM     35  C39 ZIN A   1      17.639   3.441  10.656  0.00  0.00     0.001 A 
ATOM     36  C38 ZIN A   1      18.786   3.988  11.204  0.00  0.00     0.000 A 
ATOM     37  C37 ZIN A   1      19.848   3.173  11.560  0.00  0.00     0.001 A 
ATOM     38  C36 ZIN A   1      19.768   1.810  11.370  0.00  0.00     0.014 A 
ENDBRANCH  11  33
BRANCH   1  39
ATOM     39  C3  ZIN A   1      18.351  -5.832   6.848  0.00  0.00     0.293 C 
ATOM     40  O4  ZIN A   1      19.349  -6.319   6.355  0.00  0.00    -0.259 OA
BRANCH  39  41
ATOM     41  O2  ZIN A   1      17.167  -6.467   6.736  0.00  0.00    -0.323 OA
ATOM     42  C1  ZIN A   1      16.289  -6.040   5.661  0.00  0.00     0.213 C 
ENDBRANCH  39  41
ENDBRANCH   1  39
TORSDOF 8
ENDMDL
MODEL 4
REMARK VINA RESULT:      -8.6      3.771      6.709
REMARK  8 active torsions:
REMARK  status: ('A' for Active; 'I' for Inactive)
REMARK    1  A    between atoms: O2_2  and  C3_3 
REMARK    2  A    between atoms: C3_3  and  C5_5 
REMARK    3  A    between atoms: C15_15  and  N16_16 
REMARK    4  A    between atoms: C15_15  and  C35_35 
REMARK    5  A    between atoms: N16_16  and  C17_17 
REMARK    6  A    between atoms: C20_20  and  N21_21 
REMARK       I    between atoms: N21_21  and  C23_23 
REMARK    7  A    between atoms: C23_23  and  C25_25 
REMARK    8  A    between atoms: C25_25  and  N26_26 
ROOT
ATOM      1  C5  ZIN A   1      18.993  -0.943  14.892  0.00  0.00     0.041 A 
ATOM      2  C6  ZIN A   1      19.479   0.204  14.253  0.00  0.00     0.018 A 
ATOM      3  C7  ZIN A   1      19.439   0.301  12.892  0.00  0.00     0.016 A 
ATOM      4  C8  ZIN A   1      18.913  -0.744  12.134  0.00  0.00     0.009 A 
ATOM      5  C9  ZIN A   1      18.422  -1.902  12.761  0.00  0.00     0.047 A 
ATOM      6  C10 ZIN A   1      18.470  -1.998  14.141  0.00  0.00     0.048 A 
ATOM      7  N11 ZIN A   1      17.964  -2.769  11.775  0.00  0.00    -0.322 N 
ATOM      8  C12 ZIN A   1      18.132  -2.236  10.554  0.00  0.00     0.259 A 
ATOM      9  O13 ZIN A   1      17.823  -2.768   9.501  0.00  0.00    -0.267 OA
ATOM     10  C14 ZIN A   1      18.728  -0.954  10.686  0.00  0.00     0.072 A 
ATOM     11  C15 ZIN A   1      19.065  -0.075   9.660  0.00  0.00     0.059 C 
ATOM     12  H47 ZIN A   1      17.576  -3.641  11.947  0.00  0.00     0.169 HD
ENDROOT
BRANCH  11  13
ATOM     13  N16 ZIN A   1      19.786   1.055   9.936  0.00  0.00    -0.355 N 
ATOM     14  H48 ZIN A   1      20.713   1.120   9.654  0.00  0.00     0.166 HD
BRANCH  13  15
ATOM     15  C17 ZIN A   1      19.189   2.116  10.624  0.00  0.00     0.032 A 
ATOM     16  C34 ZIN A   1      19.961   2.951  11.421  0.00  0.00     0.031 A 
ATOM     17  C33 ZIN A   1      19.372   4.000  12.097  0.00  0.00     0.032 A 
ATOM     18  C20 ZIN A   1      18.004   4.215  11.987  0.00  0.00     0.036 A 
ATOM     19  C19 ZIN A   1      17.231   3.377  11.195  0.00  0.00     0.032 A 
ATOM     20  C18 ZIN A   1      17.821   2.330  10.515  0.00  0.00     0.031 A 
BRANCH  18  21
ATOM     21  N21 ZIN A   1      17.405   5.277  12.676  0.00  0.00    -0.321 N 
ATOM     22  C22 ZIN A   1      17.044   6.503  11.960  0.00  0.00     0.159 C 
ATOM     23  C23 ZIN A   1      17.161   5.171  13.997  0.00  0.00     0.252 C 
ATOM     24  O24 ZIN A   1      17.538   4.193  14.607  0.00  0.00    -0.271 OA
BRANCH  23  25
ATOM     25  C25 ZIN A   1      16.418   6.267  14.716  0.00  0.00     0.375 C 
BRANCH  25  26
ATOM     26  N26 ZIN A   1      16.470   6.026  16.165  0.00  0.00     0.100 N 
ATOM     27  C32 ZIN A   1      17.471   6.889  16.806  0.00  0.00     0.303 C 
ATOM     28  C31 ZIN A   1      17.552   6.552  18.297  0.00  0.00     0.302 C 
ATOM     29  N29 ZIN A   1      16.229   6.738  18.910  0.00  0.00     0.087 N 
ATOM     30  C28 ZIN A   1      15.228   5.874  18.269  0.00  0.00     0.302 C 
ATOM     31  C30 ZIN A   1      16.282   6.497  20.358  0.00  0.00     0.310 C 
ATOM     32  C27 ZIN A   1      15.148   6.212  16.779  0.00  0.00     0.303 C 
ENDBRANCH  25  26
ENDBRANCH  23  25
ENDBRANCH  18  21
ENDBRANCH  13  15
ENDBRANCH  11  13
BRANCH  11  33
ATOM     33  C35 ZIN A   1      18.646  -0.363   8.276  0.00  0.00    -0.008 A 
ATOM     34  C40 ZIN A   1      17.420   0.113   7.800  0.00  0.00     0.014 A 
ATOM     35  C39 ZIN A   1      17.038  -0.155   6.503  0.00  0.00     0.001 A 
ATOM     36  C38 ZIN A   1      17.858  -0.902   5.676  0.00  0.00     0.000 A 
ATOM     37  C37 ZIN A   1      19.071  -1.380   6.142  0.00  0.00     0.001 A 
ATOM     38  C36 ZIN A   1      19.469  -1.115   7.434  0.00  0.00     0.014 A 
ENDBRANCH  11  33
BRANCH   1  39
ATOM     39  C3  ZIN A   1      19.040  -1.041  16.361  0.00  0.00     0.293 C 
ATOM     40  O4  ZIN A   1      19.562  -2.002  16.890  0.00  0.00    -0.259 OA
BRANCH  39  41
ATOM     41  O2  ZIN A   1      18.503  -0.064  17.120  0.00  0.00    -0.323 OA
ATOM     42  C1  ZIN A   1      19.327   0.469  18.189  0.00  0.00     0.213 C 
ENDBRANCH  39  41
ENDBRANCH   1  39
TORSDOF 8
ENDMDL
MODEL 5
REMARK VINA RESULT:      -8.2      1.715      2.045
REMARK  8 active torsions:
REMARK  status: ('A' for Active; 'I' for Inactive)
REMARK    1  A    between atoms: O2_2  and  C3_3 
REMARK    2  A    between atoms: C3_3  and  C5_5 
REMARK    3  A    between atoms: C15_15  and  N16_16 
REMARK    4  A    between atoms: C15_15  and  C35_35 
REMARK    5  A    between atoms: N16_16  and  C17_17 
REMARK    6  A    between atoms: C20_20  and  N21_21 
REMARK       I    between atoms: N21_21  and  C23_23 
REMARK    7  A    between atoms: C23_23  and  C25_25 
REMARK    8  A    between atoms: C25_25  and  N26_26 
ROOT
ATOM      1  C5  ZIN A   1      17.677  -6.283   6.717  0.00  0.00     0.041 A 
ATOM      2  C6  ZIN A   1      17.360  -6.082   8.066  0.00  0.00     0.018 A 
ATOM      3  C7  ZIN A   1      17.597  -4.872   8.653  0.00  0.00     0.016 A 
ATOM      4  C8  ZIN A   1      18.154  -3.832   7.909  0.00  0.00     0.009 A 
ATOM      5  C9  ZIN A   1      18.477  -4.020   6.554  0.00  0.00     0.047 A 
ATOM      6  C10 ZIN A   1      18.241  -5.250   5.964  0.00  0.00     0.048 A 
ATOM      7  N11 ZIN A   1      19.010  -2.833   6.066  0.00  0.00    -0.322 N 
ATOM      8  C12 ZIN A   1      19.050  -1.895   7.027  0.00  0.00     0.259 A 
ATOM      9  O13 ZIN A   1      19.466  -0.758   6.889  0.00  0.00    -0.267 OA
ATOM     10  C14 ZIN A   1      18.526  -2.442   8.228  0.00  0.00     0.072 A 
ATOM     11  C15 ZIN A   1      18.391  -1.797   9.455  0.00  0.00     0.059 C 
ATOM     12  H47 ZIN A   1      19.314  -2.701   5.154  0.00  0.00     0.169 HD
ENDROOT
BRANCH  11  13
ATOM     13  N16 ZIN A   1      18.024  -2.508  10.565  0.00  0.00    -0.355 N 
ATOM     14  H48 ZIN A   1      17.685  -3.414  10.472  0.00  0.00     0.166 HD
BRANCH  13  15
ATOM     15  C17 ZIN A   1      18.136  -1.931  11.834  0.00  0.00     0.032 A 
ATOM     16  C34 ZIN A   1      19.198  -2.272  12.662  0.00  0.00     0.031 A 
ATOM     17  C33 ZIN A   1      19.310  -1.700  13.912  0.00  0.00     0.032 A 
ATOM     18  C20 ZIN A   1      18.355  -0.791  14.348  0.00  0.00     0.036 A 
ATOM     19  C19 ZIN A   1      17.290  -0.454  13.523  0.00  0.00     0.032 A 
ATOM     20  C18 ZIN A   1      17.180  -1.023  12.271  0.00  0.00     0.031 A 
BRANCH  18  21
ATOM     21  N21 ZIN A   1      18.467  -0.214  15.619  0.00  0.00    -0.321 N 
ATOM     22  C22 ZIN A   1      17.888  -0.890  16.783  0.00  0.00     0.159 C 
ATOM     23  C23 ZIN A   1      19.106   0.963  15.771  0.00  0.00     0.252 C 
ATOM     24  O24 ZIN A   1      19.508   1.565  14.798  0.00  0.00    -0.271 OA
BRANCH  23  25
ATOM     25  C25 ZIN A   1      19.323   1.530  17.151  0.00  0.00     0.375 C 
BRANCH  25  26
ATOM     26  N26 ZIN A   1      18.429   2.678  17.355  0.00  0.00     0.100 N 
ATOM     27  C32 ZIN A   1      17.905   2.700  18.727  0.00  0.00     0.303 C 
ATOM     28  C31 ZIN A   1      16.918   3.860  18.876  0.00  0.00     0.302 C 
ATOM     29  N29 ZIN A   1      17.600   5.122  18.554  0.00  0.00     0.087 N 
ATOM     30  C28 ZIN A   1      18.123   5.101  17.181  0.00  0.00     0.302 C 
ATOM     31  C30 ZIN A   1      16.705   6.270  18.758  0.00  0.00     0.310 C 
ATOM     32  C27 ZIN A   1      19.109   3.940  17.034  0.00  0.00     0.303 C 
ENDBRANCH  25  26
ENDBRANCH  23  25
ENDBRANCH  18  21
ENDBRANCH  13  15
ENDBRANCH  11  13
BRANCH  11  33
ATOM     33  C35 ZIN A   1      18.644  -0.349   9.557  0.00  0.00    -0.008 A 
ATOM     34  C40 ZIN A   1      17.632   0.565   9.249  0.00  0.00     0.014 A 
ATOM     35  C39 ZIN A   1      17.874   1.918   9.353  0.00  0.00     0.001 A 
ATOM     36  C38 ZIN A   1      19.119   2.374   9.751  0.00  0.00     0.000 A 
ATOM     37  C37 ZIN A   1      20.128   1.475  10.053  0.00  0.00     0.001 A 
ATOM     38  C36 ZIN A   1      19.898   0.119   9.960  0.00  0.00     0.014 A 
ENDBRANCH  11  33
BRANCH   1  39
ATOM     39  C3  ZIN A   1      17.420  -7.592   6.090  0.00  0.00     0.293 C 
ATOM     40  O4  ZIN A   1      16.873  -8.473   6.725  0.00  0.00    -0.259 OA
BRANCH  39  41
ATOM     41  O2  ZIN A   1      17.791  -7.813   4.813  0.00  0.00    -0.323 OA
ATOM     42  C1  ZIN A   1      16.772  -8.312   3.908  0.00  0.00     0.213 C 
ENDBRANCH  39  41
ENDBRANCH   1  39
TORSDOF 8
ENDMDL
MODEL 6
REMARK VINA RESULT:      -7.9      1.725      2.233
REMARK  8 active torsions:
REMARK  status: ('A' for Active; 'I' for Inactive)
REMARK    1  A    between atoms: O2_2  and  C3_3 
REMARK    2  A    between atoms: C3_3  and  C5_5 
REMARK    3  A    between atoms: C15_15  and  N16_16 
REMARK    4  A    between atoms: C15_15  and  C35_35 
REMARK    5  A    between atoms: N16_16  and  C17_17 
REMARK    6  A    between atoms: C20_20  and  N21_21 
REMARK       I    between atoms: N21_21  and  C23_23 
REMARK    7  A    between atoms: C23_23  and  C25_25 
REMARK    8  A    between atoms: C25_25  and  N26_26 
ROOT
ATOM      1  C5  ZIN A   1      17.302  -7.559   7.323  0.00  0.00     0.041 A 
ATOM      2  C6  ZIN A   1      16.761  -6.892   8.429  0.00  0.00     0.018 A 
ATOM      3  C7  ZIN A   1      17.009  -5.563   8.618  0.00  0.00     0.016 A 
ATOM      4  C8  ZIN A   1      17.803  -4.866   7.708  0.00  0.00     0.009 A 
ATOM      5  C9  ZIN A   1      18.354  -5.522   6.594  0.00  0.00     0.047 A 
ATOM      6  C10 ZIN A   1      18.104  -6.871   6.409  0.00  0.00     0.048 A 
ATOM      7  N11 ZIN A   1      19.092  -4.596   5.865  0.00  0.00    -0.322 N 
ATOM      8  C12 ZIN A   1      19.048  -3.386   6.446  0.00  0.00     0.259 A 
ATOM      9  O13 ZIN A   1      19.601  -2.382   6.031  0.00  0.00    -0.267 OA
ATOM     10  C14 ZIN A   1      18.253  -3.464   7.619  0.00  0.00     0.072 A 
ATOM     11  C15 ZIN A   1      17.958  -2.430   8.504  0.00  0.00     0.059 C 
ATOM     12  H47 ZIN A   1      19.574  -4.799   5.048  0.00  0.00     0.169 HD
ENDROOT
BRANCH  11  13
ATOM     13  N16 ZIN A   1      17.315  -2.699   9.682  0.00  0.00    -0.355 N 
ATOM     14  H48 ZIN A   1      16.513  -3.246   9.683  0.00  0.00     0.166 HD
BRANCH  13  15
ATOM     15  C17 ZIN A   1      17.814  -2.187  10.884  0.00  0.00     0.032 A 
ATOM     16  C34 ZIN A   1      17.166  -1.131  11.512  0.00  0.00     0.031 A 
ATOM     17  C33 ZIN A   1      17.656  -0.628  12.700  0.00  0.00     0.032 A 
ATOM     18  C20 ZIN A   1      18.803  -1.172  13.263  0.00  0.00     0.036 A 
ATOM     19  C19 ZIN A   1      19.454  -2.225  12.633  0.00  0.00     0.032 A 
ATOM     20  C18 ZIN A   1      18.961  -2.731  11.447  0.00  0.00     0.031 A 
BRANCH  18  21
ATOM     21  N21 ZIN A   1      19.303  -0.659  14.467  0.00  0.00    -0.321 N 
ATOM     22  C22 ZIN A   1      20.398   0.314  14.449  0.00  0.00     0.159 C 
ATOM     23  C23 ZIN A   1      18.776  -1.060  15.640  0.00  0.00     0.252 C 
ATOM     24  O24 ZIN A   1      17.931  -1.930  15.660  0.00  0.00    -0.271 OA
BRANCH  23  25
ATOM     25  C25 ZIN A   1      19.238  -0.428  16.928  0.00  0.00     0.375 C 
BRANCH  25  26
ATOM     26  N26 ZIN A   1      18.404   0.745  17.224  0.00  0.00     0.100 N 
ATOM     27  C32 ZIN A   1      17.905   0.701  18.605  0.00  0.00     0.303 C 
ATOM     28  C31 ZIN A   1      16.978   1.894  18.849  0.00  0.00     0.302 C 
ATOM     29  N29 ZIN A   1      17.715   3.141  18.598  0.00  0.00     0.087 N 
ATOM     30  C28 ZIN A   1      18.214   3.186  17.216  0.00  0.00     0.302 C 
ATOM     31  C30 ZIN A   1      16.881   4.314  18.893  0.00  0.00     0.310 C 
ATOM     32  C27 ZIN A   1      19.140   1.992  16.973  0.00  0.00     0.303 C 
ENDBRANCH  25  26
ENDBRANCH  23  25
ENDBRANCH  18  21
ENDBRANCH  13  15
ENDBRANCH  11  13
BRANCH  11  33
ATOM     33  C35 ZIN A   1      18.339  -1.046   8.172  0.00  0.00    -0.008 A 
ATOM     34  C40 ZIN A   1      19.497  -0.485   8.719  0.00  0.00     0.014 A 
ATOM     35  C39 ZIN A   1      19.850   0.809   8.398  0.00  0.00     0.001 A 
ATOM     36  C38 ZIN A   1      19.056   1.556   7.546  0.00  0.00     0.000 A 
ATOM     37  C37 ZIN A   1      17.905   1.009   7.005  0.00  0.00     0.001 A 
ATOM     38  C36 ZIN A   1      17.543  -0.285   7.311  0.00  0.00     0.014 A 
ENDBRANCH  11  33
BRANCH   1  39
ATOM     39  C3  ZIN A   1      17.031  -8.994   7.127  0.00  0.00     0.293 C 
ATOM     40  O4  ZIN A   1      17.908  -9.811   7.326  0.00  0.00    -0.259 OA
BRANCH  39  41
ATOM     41  O2  ZIN A   1      15.810  -9.401   6.725  0.00  0.00    -0.323 OA
ATOM     42  C1  ZIN A   1      14.877  -8.370   6.307  0.00  0.00     0.213 C 
ENDBRANCH  39  41
ENDBRANCH   1  39
TORSDOF 8
ENDMDL
MODEL 7
REMARK VINA RESULT:      -7.8      3.208      5.691
REMARK  8 active torsions:
REMARK  status: ('A' for Active; 'I' for Inactive)
REMARK    1  A    between atoms: O2_2  and  C3_3 
REMARK    2  A    between atoms: C3_3  and  C5_5 
REMARK    3  A    between atoms: C15_15  and  N16_16 
REMARK    4  A    between atoms: C15_15  and  C35_35 
REMARK    5  A    between atoms: N16_16  and  C17_17 
REMARK    6  A    between atoms: C20_20  and  N21_21 
REMARK       I    between atoms: N21_21  and  C23_23 
REMARK    7  A    between atoms: C23_23  and  C25_25 
REMARK    8  A    between atoms: C25_25  and  N26_26 
ROOT
ATOM      1  C5  ZIN A   1      18.705  -1.701   6.277  0.00  0.00     0.041 A 
ATOM      2  C6  ZIN A   1      19.091  -0.425   6.705  0.00  0.00     0.018 A 
ATOM      3  C7  ZIN A   1      19.031  -0.098   8.029  0.00  0.00     0.016 A 
ATOM      4  C8  ZIN A   1      18.585  -1.035   8.959  0.00  0.00     0.009 A 
ATOM      5  C9  ZIN A   1      18.194  -2.320   8.545  0.00  0.00     0.047 A 
ATOM      6  C10 ZIN A   1      18.251  -2.646   7.201  0.00  0.00     0.048 A 
ATOM      7  N11 ZIN A   1      17.799  -3.038   9.668  0.00  0.00    -0.322 N 
ATOM      8  C12 ZIN A   1      17.913  -2.290  10.778  0.00  0.00     0.259 A 
ATOM      9  O13 ZIN A   1      17.639  -2.655  11.908  0.00  0.00    -0.267 OA
ATOM     10  C14 ZIN A   1      18.404  -1.006  10.423  0.00  0.00     0.072 A 
ATOM     11  C15 ZIN A   1      18.663   0.061  11.279  0.00  0.00     0.059 C 
ATOM     12  H47 ZIN A   1      17.483  -3.954   9.651  0.00  0.00     0.169 HD
ENDROOT
BRANCH  11  13
ATOM     13  N16 ZIN A   1      18.975   1.291  10.767  0.00  0.00    -0.355 N 
ATOM     14  H48 ZIN A   1      19.342   1.364   9.871  0.00  0.00     0.166 HD
BRANCH  13  15
ATOM     15  C17 ZIN A   1      18.765   2.442  11.532  0.00  0.00     0.032 A 
ATOM     16  C34 ZIN A   1      19.800   2.967  12.297  0.00  0.00     0.031 A 
ATOM     17  C33 ZIN A   1      19.593   4.105  13.049  0.00  0.00     0.032 A 
ATOM     18  C20 ZIN A   1      18.348   4.720  13.050  0.00  0.00     0.036 A 
ATOM     19  C19 ZIN A   1      17.312   4.192  12.291  0.00  0.00     0.032 A 
ATOM     20  C18 ZIN A   1      17.520   3.056  11.535  0.00  0.00     0.031 A 
BRANCH  18  21
ATOM     21  N21 ZIN A   1      18.138   5.872  13.818  0.00  0.00    -0.321 N 
ATOM     22  C22 ZIN A   1      19.238   6.443  14.598  0.00  0.00     0.159 C 
ATOM     23  C23 ZIN A   1      16.924   6.456  13.837  0.00  0.00     0.252 C 
ATOM     24  O24 ZIN A   1      15.991   5.936  13.262  0.00  0.00    -0.271 OA
BRANCH  23  25
ATOM     25  C25 ZIN A   1      16.724   7.756  14.573  0.00  0.00     0.375 C 
BRANCH  25  26
ATOM     26  N26 ZIN A   1      16.055   7.496  15.855  0.00  0.00     0.100 N 
ATOM     27  C32 ZIN A   1      16.782   8.126  16.966  0.00  0.00     0.303 C 
ATOM     28  C31 ZIN A   1      16.101   7.766  18.288  0.00  0.00     0.302 C 
ATOM     29  N29 ZIN A   1      14.703   8.217  18.253  0.00  0.00     0.087 N 
ATOM     30  C28 ZIN A   1      13.975   7.586  17.143  0.00  0.00     0.302 C 
ATOM     31  C30 ZIN A   1      14.034   7.956  19.536  0.00  0.00     0.310 C 
ATOM     32  C27 ZIN A   1      14.657   7.947  15.822  0.00  0.00     0.303 C 
ENDBRANCH  25  26
ENDBRANCH  23  25
ENDBRANCH  18  21
ENDBRANCH  13  15
ENDBRANCH  11  13
BRANCH  11  33
ATOM     33  C35 ZIN A   1      18.600  -0.135  12.739  0.00  0.00    -0.008 A 
ATOM     34  C40 ZIN A   1      17.447   0.221  13.447  0.00  0.00     0.014 A 
ATOM     35  C39 ZIN A   1      17.394   0.029  14.811  0.00  0.00     0.001 A 
ATOM     36  C38 ZIN A   1      18.480  -0.504  15.482  0.00  0.00     0.000 A 
ATOM     37  C37 ZIN A   1      19.626  -0.855  14.789  0.00  0.00     0.001 A 
ATOM     38  C36 ZIN A   1      19.692  -0.674  13.424  0.00  0.00     0.014 A 
ENDBRANCH  11  33
BRANCH   1  39
ATOM     39  C3  ZIN A   1      18.772  -2.047   4.846  0.00  0.00     0.293 C 
ATOM     40  O4  ZIN A   1      19.728  -1.700   4.181  0.00  0.00    -0.259 OA
BRANCH  39  41
ATOM     41  O2  ZIN A   1      17.773  -2.748   4.274  0.00  0.00    -0.323 OA
ATOM     42  C1  ZIN A   1      18.126  -4.010   3.651  0.00  0.00     0.213 C 
ENDBRANCH  39  41
ENDBRANCH   1  39
TORSDOF 8
ENDMDL
MODEL 8
REMARK VINA RESULT:      -7.8      3.166      6.936
REMARK  8 active torsions:
REMARK  status: ('A' for Active; 'I' for Inactive)
REMARK    1  A    between atoms: O2_2  and  C3_3 
REMARK    2  A    between atoms: C3_3  and  C5_5 
REMARK    3  A    between atoms: C15_15  and  N16_16 
REMARK    4  A    between atoms: C15_15  and  C35_35 
REMARK    5  A    between atoms: N16_16  and  C17_17 
REMARK    6  A    between atoms: C20_20  and  N21_21 
REMARK       I    between atoms: N21_21  and  C23_23 
REMARK    7  A    between atoms: C23_23  and  C25_25 
REMARK    8  A    between atoms: C25_25  and  N26_26 
ROOT
ATOM      1  C5  ZIN A   1      17.933   3.487  10.508  0.00  0.00     0.041 A 
ATOM      2  C6  ZIN A   1      17.356   2.671  11.489  0.00  0.00     0.018 A 
ATOM      3  C7  ZIN A   1      17.474   1.314  11.409  0.00  0.00     0.016 A 
ATOM      4  C8  ZIN A   1      18.172   0.736  10.349  0.00  0.00     0.009 A 
ATOM      5  C9  ZIN A   1      18.756   1.542   9.357  0.00  0.00     0.047 A 
ATOM      6  C10 ZIN A   1      18.628   2.918   9.439  0.00  0.00     0.048 A 
ATOM      7  N11 ZIN A   1      19.380   0.711   8.433  0.00  0.00    -0.322 N 
ATOM      8  C12 ZIN A   1      19.231  -0.580   8.773  0.00  0.00     0.259 A 
ATOM      9  O13 ZIN A   1      19.672  -1.531   8.152  0.00  0.00    -0.267 OA
ATOM     10  C14 ZIN A   1      18.478  -0.658   9.975  0.00  0.00     0.072 A 
ATOM     11  C15 ZIN A   1      18.106  -1.812  10.659  0.00  0.00     0.059 C 
ATOM     12  H47 ZIN A   1      19.858   1.023   7.649  0.00  0.00     0.169 HD
ENDROOT
BRANCH  11  13
ATOM     13  N16 ZIN A   1      17.237  -1.732  11.714  0.00  0.00    -0.355 N 
ATOM     14  H48 ZIN A   1      16.323  -2.043  11.613  0.00  0.00     0.166 HD
BRANCH  13  15
ATOM     15  C17 ZIN A   1      17.666  -1.204  12.935  0.00  0.00     0.032 A 
ATOM     16  C34 ZIN A   1      16.876  -0.280  13.609  0.00  0.00     0.031 A 
ATOM     17  C33 ZIN A   1      17.298   0.238  14.816  0.00  0.00     0.032 A 
ATOM     18  C20 ZIN A   1      18.516  -0.156  15.354  0.00  0.00     0.036 A 
ATOM     19  C19 ZIN A   1      19.308  -1.075  14.678  0.00  0.00     0.032 A 
ATOM     20  C18 ZIN A   1      18.885  -1.597  13.472  0.00  0.00     0.031 A 
BRANCH  18  21
ATOM     21  N21 ZIN A   1      18.946   0.374  16.577  0.00  0.00    -0.321 N 
ATOM     22  C22 ZIN A   1      19.239  -0.521  17.699  0.00  0.00     0.159 C 
ATOM     23  C23 ZIN A   1      19.090   1.705  16.721  0.00  0.00     0.252 C 
ATOM     24  O24 ZIN A   1      18.764   2.452  15.822  0.00  0.00    -0.271 OA
BRANCH  23  25
ATOM     25  C25 ZIN A   1      19.656   2.268  17.999  0.00  0.00     0.375 C 
BRANCH  25  26
ATOM     26  N26 ZIN A   1      18.693   3.207  18.591  0.00  0.00     0.100 N 
ATOM     27  C32 ZIN A   1      18.457   4.351  17.700  0.00  0.00     0.303 C 
ATOM     28  C31 ZIN A   1      17.514   5.342  18.385  0.00  0.00     0.302 C 
ATOM     29  N29 ZIN A   1      16.252   4.664  18.715  0.00  0.00     0.087 N 
ATOM     30  C28 ZIN A   1      16.488   3.521  19.607  0.00  0.00     0.302 C 
ATOM     31  C30 ZIN A   1      15.290   5.604  19.307  0.00  0.00     0.310 C 
ATOM     32  C27 ZIN A   1      17.431   2.530  18.921  0.00  0.00     0.303 C 
ENDBRANCH  25  26
ENDBRANCH  23  25
ENDBRANCH  18  21
ENDBRANCH  13  15
ENDBRANCH  11  13
BRANCH  11  33
ATOM     33  C35 ZIN A   1      18.648  -3.119  10.248  0.00  0.00    -0.008 A 
ATOM     34  C40 ZIN A   1      18.012  -3.860   9.247  0.00  0.00     0.014 A 
ATOM     35  C39 ZIN A   1      18.529  -5.079   8.863  0.00  0.00     0.001 A 
ATOM     36  C38 ZIN A   1      19.668  -5.576   9.473  0.00  0.00     0.000 A 
ATOM     37  C37 ZIN A   1      20.301  -4.850  10.467  0.00  0.00     0.001 A 
ATOM     38  C36 ZIN A   1      19.799  -3.626  10.858  0.00  0.00     0.014 A 
ENDBRANCH  11  33
BRANCH   1  39
ATOM     39  C3  ZIN A   1      17.800   4.952  10.601  0.00  0.00     0.293 C 
ATOM     40  O4  ZIN A   1      17.594   5.608   9.598  0.00  0.00    -0.259 OA
BRANCH  39  41
ATOM     41  O2  ZIN A   1      17.907   5.564  11.797  0.00  0.00    -0.323 OA
ATOM     42  C1  ZIN A   1      16.670   5.880  12.488  0.00  0.00     0.213 C 
ENDBRANCH  39  41
ENDBRANCH   1  39
TORSDOF 8
ENDMDL
MODEL 9
REMARK VINA RESULT:      -7.6      4.175      6.476
REMARK  8 active torsions:
REMARK  status: ('A' for Active; 'I' for Inactive)
REMARK    1  A    between atoms: O2_2  and  C3_3 
REMARK    2  A    between atoms: C3_3  and  C5_5 
REMARK    3  A    between atoms: C15_15  and  N16_16 
REMARK    4  A    between atoms: C15_15  and  C35_35 
REMARK    5  A    between atoms: N16_16  and  C17_17 
REMARK    6  A    between atoms: C20_20  and  N21_21 
REMARK       I    between atoms: N21_21  and  C23_23 
REMARK    7  A    between atoms: C23_23  and  C25_25 
REMARK    8  A    between atoms: C25_25  and  N26_26 
ROOT
ATOM      1  C5  ZIN A   1      18.233  -0.889  14.736  0.00  0.00     0.041 A 
ATOM      2  C6  ZIN A   1      17.501   0.204  14.258  0.00  0.00     0.018 A 
ATOM      3  C7  ZIN A   1      17.543   0.531  12.932  0.00  0.00     0.016 A 
ATOM      4  C8  ZIN A   1      18.315  -0.226  12.052  0.00  0.00     0.009 A 
ATOM      5  C9  ZIN A   1      19.056  -1.326  12.519  0.00  0.00     0.047 A 
ATOM      6  C10 ZIN A   1      19.015  -1.649  13.864  0.00  0.00     0.048 A 
ATOM      7  N11 ZIN A   1      19.724  -1.889  11.438  0.00  0.00    -0.322 N 
ATOM      8  C12 ZIN A   1      19.458  -1.216  10.307  0.00  0.00     0.259 A 
ATOM      9  O13 ZIN A   1      19.903  -1.482   9.204  0.00  0.00    -0.267 OA
ATOM     10  C14 ZIN A   1      18.573  -0.146  10.602  0.00  0.00     0.072 A 
ATOM     11  C15 ZIN A   1      18.054   0.786   9.707  0.00  0.00     0.059 C 
ATOM     12  H47 ZIN A   1      20.306  -2.663  11.495  0.00  0.00     0.169 HD
ENDROOT
BRANCH  11  13
ATOM     13  N16 ZIN A   1      17.345   1.861  10.172  0.00  0.00    -0.355 N 
ATOM     14  H48 ZIN A   1      16.452   2.037   9.834  0.00  0.00     0.166 HD
BRANCH  13  15
ATOM     15  C17 ZIN A   1      17.907   2.705  11.135  0.00  0.00     0.032 A 
ATOM     16  C34 ZIN A   1      19.287   2.791  11.265  0.00  0.00     0.031 A 
ATOM     17  C33 ZIN A   1      19.840   3.628  12.213  0.00  0.00     0.032 A 
ATOM     18  C20 ZIN A   1      19.017   4.377  13.043  0.00  0.00     0.036 A 
ATOM     19  C19 ZIN A   1      17.637   4.287  12.917  0.00  0.00     0.032 A 
ATOM     20  C18 ZIN A   1      17.083   3.454  11.966  0.00  0.00     0.031 A 
BRANCH  18  21
ATOM     21  N21 ZIN A   1      19.579   5.223  14.008  0.00  0.00    -0.321 N 
ATOM     22  C22 ZIN A   1      20.256   6.455  13.595  0.00  0.00     0.159 C 
ATOM     23  C23 ZIN A   1      19.496   4.904  15.314  0.00  0.00     0.252 C 
ATOM     24  O24 ZIN A   1      19.014   3.843  15.650  0.00  0.00    -0.271 OA
BRANCH  23  25
ATOM     25  C25 ZIN A   1      20.002   5.865  16.358  0.00  0.00     0.375 C 
BRANCH  25  26
ATOM     26  N26 ZIN A   1      18.866   6.417  17.109  0.00  0.00     0.100 N 
ATOM     27  C32 ZIN A   1      18.026   7.262  16.249  0.00  0.00     0.303 C 
ATOM     28  C31 ZIN A   1      16.904   7.880  17.085  0.00  0.00     0.302 C 
ATOM     29  N29 ZIN A   1      16.110   6.808  17.702  0.00  0.00     0.087 N 
ATOM     30  C28 ZIN A   1      16.950   5.963  18.564  0.00  0.00     0.302 C 
ATOM     31  C30 ZIN A   1      14.975   7.360  18.454  0.00  0.00     0.310 C 
ATOM     32  C27 ZIN A   1      18.072   5.345  17.727  0.00  0.00     0.303 C 
ENDBRANCH  25  26
ENDBRANCH  23  25
ENDBRANCH  18  21
ENDBRANCH  13  15
ENDBRANCH  11  13
BRANCH  11  33
ATOM     33  C35 ZIN A   1      18.269   0.615   8.259  0.00  0.00    -0.008 A 
ATOM     34  C40 ZIN A   1      19.252   1.361   7.602  0.00  0.00     0.014 A 
ATOM     35  C39 ZIN A   1      19.451   1.191   6.248  0.00  0.00     0.001 A 
ATOM     36  C38 ZIN A   1      18.673   0.294   5.537  0.00  0.00     0.000 A 
ATOM     37  C37 ZIN A   1      17.694  -0.444   6.180  0.00  0.00     0.001 A 
ATOM     38  C36 ZIN A   1      17.488  -0.290   7.534  0.00  0.00     0.014 A 
ENDBRANCH  11  33
BRANCH   1  39
ATOM     39  C3  ZIN A   1      18.184  -1.234  16.168  0.00  0.00     0.293 C 
ATOM     40  O4  ZIN A   1      17.145  -1.627  16.663  0.00  0.00    -0.259 OA
BRANCH  39  41
ATOM     41  O2  ZIN A   1      19.290  -1.115  16.929  0.00  0.00    -0.323 OA
ATOM     42  C1  ZIN A   1      19.252  -0.132  17.997  0.00  0.00     0.213 C 
ENDBRANCH  39  41
ENDBRANCH   1  39
TORSDOF 8
ENDMDL
