MODEL 1
REMARK VINA RESULT:      -6.7      0.000      0.000
REMARK  5 active torsions:
REMARK  status: ('A' for Active; 'I' for Inactive)
REMARK    1  A    between atoms: N1_1  and  C2_2 
REMARK    2  A    between atoms: N6_6  and  C7_7 
REMARK    3  A    between atoms: C10_9  and  C12_10 
REMARK    4  A    between atoms: C12_10  and  O13_11 
REMARK    5  A    between atoms: C14_12  and  O16_13 
ROOT
ATOM      1  C2  <0> d   1      19.272   1.477  12.266  0.00  0.00     0.157 A 
ATOM      2  C3  <0> d   1      19.247   0.635  11.141  0.00  0.00     0.149 A 
ATOM      3  N4  <0> d   1      19.819  -0.552  10.827  0.00  0.00    -0.236 NA
ATOM      4  C5  <0> d   1      19.458  -0.904   9.628  0.00  0.00     0.214 A 
ATOM      5  N6  <0> d   1      18.629   0.039   9.096  0.00  0.00    -0.293 N 
ATOM      6  C20 <0> d   1      18.475   1.028  10.034  0.00  0.00     0.169 A 
ATOM      7  N21 <0> d   1      17.803   2.173  10.089  0.00  0.00    -0.198 NA
ATOM      8  C22 <0> d   1      17.856   2.933  11.165  0.00  0.00     0.227 A 
ATOM      9 Cl23 <0> d   1      16.959   4.418  11.185  0.00  0.00    -0.041 Cl
ATOM     10  N24 <0> d   1      18.563   2.601  12.232  0.00  0.00    -0.199 NA
ENDROOT
BRANCH   5  11
ATOM     11  C7  <0> d   1      18.013   0.002   7.767  0.00  0.00     0.267 C 
ATOM     12  C17 <0> d   1      18.799   0.910   6.801  0.00  0.00     0.250 C 
ATOM     13  C14 <0> d   1      19.247  -0.048   5.666  0.00  0.00     0.187 C 
ATOM     14  F19 <0> d   1      19.912   1.464   7.442  0.00  0.00    -0.242 F 
ATOM     15  C10 <0> d   1      18.241  -1.219   5.813  0.00  0.00     0.179 C 
ATOM     16  O9  <0> d   1      18.066  -1.334   7.241  0.00  0.00    -0.353 OA
BRANCH  13  17
ATOM     17  O16 <0> d   1      19.116   0.579   4.388  0.00  0.00    -0.390 OA
ATOM     18  H31 <0> d   1      19.734   0.249   3.723  0.00  0.00     0.210 HD
ENDBRANCH  13  17
BRANCH  15  19
ATOM     19  C12 <0> d   1      18.824  -2.510   5.235  0.00  0.00     0.198 C 
BRANCH  19  20
ATOM     20  O13 <0> d   1      19.544  -2.213   4.036  0.00  0.00    -0.398 OA
ATOM     21  H30 <0> d   1      19.222  -2.687   3.257  0.00  0.00     0.209 HD
ENDBRANCH  19  20
ENDBRANCH  15  19
ENDBRANCH   5  11
BRANCH   1  22
ATOM     22  N1  <0> d   1      20.014   1.141  13.385  0.00  0.00    -0.382 N 
ATOM     23  H25 <0> d   1      19.688   0.461  13.996  0.00  0.00     0.157 HD
ATOM     24  H26 <0> d   1      20.860   1.582  13.555  0.00  0.00     0.157 HD
ENDBRANCH   1  22
TORSDOF 5
ENDMDL
MODEL 2
REMARK VINA RESULT:      -6.6      5.762      8.431
REMARK  5 active torsions:
REMARK  status: ('A' for Active; 'I' for Inactive)
REMARK    1  A    between atoms: N1_1  and  C2_2 
REMARK    2  A    between atoms: N6_6  and  C7_7 
REMARK    3  A    between atoms: C10_9  and  C12_10 
REMARK    4  A    between atoms: C12_10  and  O13_11 
REMARK    5  A    between atoms: C14_12  and  O16_13 
ROOT
ATOM      1  C2  <0> d   1      19.555  -1.231  10.617  0.00  0.00     0.157 A 
ATOM      2  C3  <0> d   1      19.513  -0.423  11.767  0.00  0.00     0.149 A 
ATOM      3  N4  <0> d   1      20.149   0.706  12.161  0.00  0.00    -0.236 NA
ATOM      4  C5  <0> d   1      19.731   1.048  13.345  0.00  0.00     0.214 A 
ATOM      5  N6  <0> d   1      18.799   0.155  13.785  0.00  0.00    -0.293 N 
ATOM      6  C20 <0> d   1      18.639  -0.790  12.804  0.00  0.00     0.169 A 
ATOM      7  N21 <0> d   1      17.890  -1.879  12.663  0.00  0.00    -0.198 NA
ATOM      8  C22 <0> d   1      17.962  -2.607  11.567  0.00  0.00     0.227 A 
ATOM      9 Cl23 <0> d   1      16.961  -4.018  11.433  0.00  0.00    -0.041 Cl
ATOM     10  N24 <0> d   1      18.764  -2.298  10.563  0.00  0.00    -0.199 NA
ENDROOT
BRANCH   5  11
ATOM     11  C7  <0> d   1      18.097   0.198  15.070  0.00  0.00     0.267 C 
ATOM     12  C17 <0> d   1      18.731  -0.809  16.048  0.00  0.00     0.250 C 
ATOM     13  C14 <0> d   1      19.178   0.064  17.250  0.00  0.00     0.187 C 
ATOM     14  F19 <0> d   1      19.835  -1.436  15.461  0.00  0.00    -0.242 F 
ATOM     15  C10 <0> d   1      18.289   1.323  17.085  0.00  0.00     0.179 C 
ATOM     16  O9  <0> d   1      18.226   1.505  15.655  0.00  0.00    -0.353 OA
BRANCH  13  17
ATOM     17  O16 <0> d   1      18.904  -0.595  18.488  0.00  0.00    -0.390 OA
ATOM     18  H31 <0> d   1      17.961  -0.677  18.690  0.00  0.00     0.210 HD
ENDBRANCH  13  17
BRANCH  15  19
ATOM     19  C12 <0> d   1      18.938   2.536  17.754  0.00  0.00     0.198 C 
BRANCH  19  20
ATOM     20  O13 <0> d   1      19.613   2.120  18.944  0.00  0.00    -0.398 OA
ATOM     21  H30 <0> d   1      19.792   2.838  19.566  0.00  0.00     0.209 HD
ENDBRANCH  19  20
ENDBRANCH  15  19
ENDBRANCH   5  11
BRANCH   1  22
ATOM     22  N1  <0> d   1      20.396  -0.918   9.563  0.00  0.00    -0.382 N 
ATOM     23  H25 <0> d   1      21.349  -1.085   9.638  0.00  0.00     0.157 HD
ATOM     24  H26 <0> d   1      20.032  -0.538   8.749  0.00  0.00     0.157 HD
ENDBRANCH   1  22
TORSDOF 5
ENDMDL
MODEL 3
REMARK VINA RESULT:      -6.6      3.975      6.577
REMARK  5 active torsions:
REMARK  status: ('A' for Active; 'I' for Inactive)
REMARK    1  A    between atoms: N1_1  and  C2_2 
REMARK    2  A    between atoms: N6_6  and  C7_7 
REMARK    3  A    between atoms: C10_9  and  C12_10 
REMARK    4  A    between atoms: C12_10  and  O13_11 
REMARK    5  A    between atoms: C14_12  and  O16_13 
ROOT
ATOM      1  C2  <0> d   1      19.334  -0.594   5.591  0.00  0.00     0.157 A 
ATOM      2  C3  <0> d   1      19.096   0.002   6.841  0.00  0.00     0.149 A 
ATOM      3  N4  <0> d   1      18.875   1.269   7.265  0.00  0.00    -0.236 NA
ATOM      4  C5  <0> d   1      18.709   1.272   8.556  0.00  0.00     0.214 A 
ATOM      5  N6  <0> d   1      18.813   0.002   9.041  0.00  0.00    -0.293 N 
ATOM      6  C20 <0> d   1      19.058  -0.827   7.976  0.00  0.00     0.169 A 
ATOM      7  N21 <0> d   1      19.248  -2.133   7.828  0.00  0.00    -0.198 NA
ATOM      8  C22 <0> d   1      19.469  -2.650   6.636  0.00  0.00     0.227 A 
ATOM      9 Cl23 <0> d   1      19.711  -4.363   6.498  0.00  0.00    -0.041 Cl
ATOM     10  N24 <0> d   1      19.507  -1.911   5.540  0.00  0.00    -0.199 NA
ENDROOT
BRANCH   5  11
ATOM     11  C7  <0> d   1      18.686  -0.403  10.444  0.00  0.00     0.267 C 
ATOM     12  C17 <0> d   1      20.085  -0.582  11.066  0.00  0.00     0.250 C 
ATOM     13  C14 <0> d   1      20.095   0.411  12.257  0.00  0.00     0.187 C 
ATOM     14  F19 <0> d   1      21.081  -0.247  10.142  0.00  0.00    -0.242 F 
ATOM     15  C10 <0> d   1      18.581   0.625  12.515  0.00  0.00     0.179 C 
ATOM     16  O9  <0> d   1      18.011   0.622  11.190  0.00  0.00    -0.353 OA
BRANCH  13  17
ATOM     17  O16 <0> d   1      20.729  -0.170  13.399  0.00  0.00    -0.390 OA
ATOM     18  H31 <0> d   1      21.474   0.344  13.739  0.00  0.00     0.210 HD
ENDBRANCH  13  17
BRANCH  15  19
ATOM     19  C12 <0> d   1      18.333   1.967  13.206  0.00  0.00     0.198 C 
BRANCH  19  20
ATOM     20  O13 <0> d   1      19.565   2.684  13.311  0.00  0.00    -0.398 OA
ATOM     21  H30 <0> d   1      20.292   2.166  13.683  0.00  0.00     0.209 HD
ENDBRANCH  19  20
ENDBRANCH  15  19
ENDBRANCH   5  11
BRANCH   1  22
ATOM     22  N1  <0> d   1      19.381   0.171   4.439  0.00  0.00    -0.382 N 
ATOM     23  H25 <0> d   1      19.641   1.105   4.489  0.00  0.00     0.157 HD
ATOM     24  H26 <0> d   1      19.159  -0.226   3.584  0.00  0.00     0.157 HD
ENDBRANCH   1  22
TORSDOF 5
ENDMDL
MODEL 4
REMARK VINA RESULT:      -6.6      4.100      5.592
REMARK  5 active torsions:
REMARK  status: ('A' for Active; 'I' for Inactive)
REMARK    1  A    between atoms: N1_1  and  C2_2 
REMARK    2  A    between atoms: N6_6  and  C7_7 
REMARK    3  A    between atoms: C10_9  and  C12_10 
REMARK    4  A    between atoms: C12_10  and  O13_11 
REMARK    5  A    between atoms: C14_12  and  O16_13 
ROOT
ATOM      1  C2  <0> d   1      19.116   2.957  16.468  0.00  0.00     0.157 A 
ATOM      2  C3  <0> d   1      18.828   3.637  15.273  0.00  0.00     0.149 A 
ATOM      3  N4  <0> d   1      18.689   4.939  14.928  0.00  0.00    -0.236 NA
ATOM      4  C5  <0> d   1      18.417   5.025  13.658  0.00  0.00     0.214 A 
ATOM      5  N6  <0> d   1      18.364   3.778  13.109  0.00  0.00    -0.293 N 
ATOM      6  C20 <0> d   1      18.622   2.876  14.109  0.00  0.00     0.169 A 
ATOM      7  N21 <0> d   1      18.705   1.552  14.180  0.00  0.00    -0.198 NA
ATOM      8  C22 <0> d   1      18.977   0.955  15.324  0.00  0.00     0.227 A 
ATOM      9 Cl23 <0> d   1      19.075  -0.777  15.361  0.00  0.00    -0.041 Cl
ATOM     10  N24 <0> d   1      19.185   1.630  16.442  0.00  0.00    -0.199 NA
ENDROOT
BRANCH   5  11
ATOM     11  C7  <0> d   1      18.084   3.460  11.706  0.00  0.00     0.267 C 
ATOM     12  C17 <0> d   1      19.396   3.115  10.975  0.00  0.00     0.250 C 
ATOM     13  C14 <0> d   1      19.162   1.676  10.444  0.00  0.00     0.187 C 
ATOM     14  F19 <0> d   1      20.476   3.139  11.864  0.00  0.00    -0.242 F 
ATOM     15  C10 <0> d   1      17.615   1.578  10.442  0.00  0.00     0.179 C 
ATOM     16  O9  <0> d   1      17.231   2.306  11.627  0.00  0.00    -0.353 OA
BRANCH  13  17
ATOM     17  O16 <0> d   1      19.683   1.532   9.120  0.00  0.00    -0.390 OA
ATOM     18  H31 <0> d   1      19.949   0.628   8.899  0.00  0.00     0.210 HD
ENDBRANCH  13  17
BRANCH  15  19
ATOM     19  C12 <0> d   1      17.165   0.119  10.537  0.00  0.00     0.198 C 
BRANCH  19  20
ATOM     20  O13 <0> d   1      16.102   0.008  11.486  0.00  0.00    -0.398 OA
ATOM     21  H30 <0> d   1      16.232  -0.688  12.143  0.00  0.00     0.209 HD
ENDBRANCH  19  20
ENDBRANCH  15  19
ENDBRANCH   5  11
BRANCH   1  22
ATOM     22  N1  <0> d   1      19.330   3.654  17.645  0.00  0.00    -0.382 N 
ATOM     23  H25 <0> d   1      18.596   4.130  18.065  0.00  0.00     0.157 HD
ATOM     24  H26 <0> d   1      20.209   3.660  18.052  0.00  0.00     0.157 HD
ENDBRANCH   1  22
TORSDOF 5
ENDMDL
MODEL 5
REMARK VINA RESULT:      -6.6      3.860      6.111
REMARK  5 active torsions:
REMARK  status: ('A' for Active; 'I' for Inactive)
REMARK    1  A    between atoms: N1_1  and  C2_2 
REMARK    2  A    between atoms: N6_6  and  C7_7 
REMARK    3  A    between atoms: C10_9  and  C12_10 
REMARK    4  A    between atoms: C12_10  and  O13_11 
REMARK    5  A    between atoms: C14_12  and  O16_13 
ROOT
ATOM      1  C2  <0> d   1      19.256  -4.547   7.212  0.00  0.00     0.157 A 
ATOM      2  C3  <0> d   1      19.275  -3.164   6.964  0.00  0.00     0.149 A 
ATOM      3  N4  <0> d   1      19.333  -2.397   5.850  0.00  0.00    -0.236 NA
ATOM      4  C5  <0> d   1      19.323  -1.140   6.187  0.00  0.00     0.214 A 
ATOM      5  N6  <0> d   1      19.260  -1.023   7.544  0.00  0.00    -0.293 N 
ATOM      6  C20 <0> d   1      19.227  -2.291   8.065  0.00  0.00     0.169 A 
ATOM      7  N21 <0> d   1      19.166  -2.801   9.291  0.00  0.00    -0.198 NA
ATOM      8  C22 <0> d   1      19.150  -4.106   9.477  0.00  0.00     0.227 A 
ATOM      9 Cl23 <0> d   1      19.069  -4.719  11.098  0.00  0.00    -0.041 Cl
ATOM     10  N24 <0> d   1      19.188  -4.964   8.472  0.00  0.00    -0.199 NA
ENDROOT
BRANCH   5  11
ATOM     11  C7  <0> d   1      19.230   0.228   8.306  0.00  0.00     0.267 C 
ATOM     12  C17 <0> d   1      17.813   0.473   8.857  0.00  0.00     0.250 C 
ATOM     13  C14 <0> d   1      18.015   0.556  10.392  0.00  0.00     0.187 C 
ATOM     14  F19 <0> d   1      16.967  -0.594   8.532  0.00  0.00    -0.242 F 
ATOM     15  C10 <0> d   1      19.523   0.897  10.503  0.00  0.00     0.179 C 
ATOM     16  O9  <0> d   1      20.120   0.137   9.431  0.00  0.00    -0.353 OA
BRANCH  13  17
ATOM     17  O16 <0> d   1      17.215   1.598  10.956  0.00  0.00    -0.390 OA
ATOM     18  H31 <0> d   1      16.370   1.293  11.316  0.00  0.00     0.210 HD
ENDBRANCH  13  17
BRANCH  15  19
ATOM     19  C12 <0> d   1      20.082   0.452  11.856  0.00  0.00     0.198 C 
BRANCH  19  20
ATOM     20  O13 <0> d   1      21.497   0.274  11.752  0.00  0.00    -0.398 OA
ATOM     21  H30 <0> d   1      21.989   1.097  11.627  0.00  0.00     0.209 HD
ENDBRANCH  19  20
ENDBRANCH  15  19
ENDBRANCH   5  11
BRANCH   1  22
ATOM     22  N1  <0> d   1      19.300  -5.454   6.167  0.00  0.00    -0.382 N 
ATOM     23  H25 <0> d   1      18.812  -5.274   5.348  0.00  0.00     0.157 HD
ATOM     24  H26 <0> d   1      19.823  -6.265   6.252  0.00  0.00     0.157 HD
ENDBRANCH   1  22
TORSDOF 5
ENDMDL
MODEL 6
REMARK VINA RESULT:      -6.5      4.212      5.428
REMARK  5 active torsions:
REMARK  status: ('A' for Active; 'I' for Inactive)
REMARK    1  A    between atoms: N1_1  and  C2_2 
REMARK    2  A    between atoms: N6_6  and  C7_7 
REMARK    3  A    between atoms: C10_9  and  C12_10 
REMARK    4  A    between atoms: C12_10  and  O13_11 
REMARK    5  A    between atoms: C14_12  and  O16_13 
ROOT
ATOM      1  C2  <0> d   1      19.036   0.857  17.550  0.00  0.00     0.157 A 
ATOM      2  C3  <0> d   1      18.848   0.181  16.332  0.00  0.00     0.149 A 
ATOM      3  N4  <0> d   1      18.533  -1.090  15.988  0.00  0.00    -0.236 NA
ATOM      4  C5  <0> d   1      18.483  -1.189  14.692  0.00  0.00     0.214 A 
ATOM      5  N6  <0> d   1      18.765   0.018  14.123  0.00  0.00    -0.293 N 
ATOM      6  C20 <0> d   1      19.001   0.908  15.139  0.00  0.00     0.169 A 
ATOM      7  N21 <0> d   1      19.316   2.197  15.204  0.00  0.00    -0.198 NA
ATOM      8  C22 <0> d   1      19.483   2.791  16.369  0.00  0.00     0.227 A 
ATOM      9 Cl23 <0> d   1      19.892   4.477  16.397  0.00  0.00    -0.041 Cl
ATOM     10  N24 <0> d   1      19.344   2.150  17.517  0.00  0.00    -0.199 NA
ENDROOT
BRANCH   5  11
ATOM     11  C7  <0> d   1      18.808   0.311  12.687  0.00  0.00     0.267 C 
ATOM     12  C17 <0> d   1      20.272   0.409  12.216  0.00  0.00     0.250 C 
ATOM     13  C14 <0> d   1      20.386  -0.678  11.115  0.00  0.00     0.187 C 
ATOM     14  F19 <0> d   1      21.148   0.130  13.271  0.00  0.00    -0.242 F 
ATOM     15  C10 <0> d   1      18.905  -0.880  10.704  0.00  0.00     0.179 C 
ATOM     16  O9  <0> d   1      18.190  -0.758  11.951  0.00  0.00    -0.353 OA
BRANCH  13  17
ATOM     17  O16 <0> d   1      21.160  -0.204  10.011  0.00  0.00    -0.390 OA
ATOM     18  H31 <0> d   1      20.843   0.629   9.636  0.00  0.00     0.210 HD
ENDBRANCH  13  17
BRANCH  15  19
ATOM     19  C12 <0> d   1      18.696  -2.268  10.096  0.00  0.00     0.198 C 
BRANCH  19  20
ATOM     20  O13 <0> d   1      19.854  -3.072  10.334  0.00  0.00    -0.398 OA
ATOM     21  H30 <0> d   1      20.303  -2.878  11.168  0.00  0.00     0.209 HD
ENDBRANCH  19  20
ENDBRANCH  15  19
ENDBRANCH   5  11
BRANCH   1  22
ATOM     22  N1  <0> d   1      18.898   0.193  18.757  0.00  0.00    -0.382 N 
ATOM     23  H25 <0> d   1      18.018   0.077  19.148  0.00  0.00     0.157 HD
ATOM     24  H26 <0> d   1      19.680  -0.160  19.207  0.00  0.00     0.157 HD
ENDBRANCH   1  22
TORSDOF 5
ENDMDL
MODEL 7
REMARK VINA RESULT:      -6.4      3.534      4.386
REMARK  5 active torsions:
REMARK  status: ('A' for Active; 'I' for Inactive)
REMARK    1  A    between atoms: N1_1  and  C2_2 
REMARK    2  A    between atoms: N6_6  and  C7_7 
REMARK    3  A    between atoms: C10_9  and  C12_10 
REMARK    4  A    between atoms: C12_10  and  O13_11 
REMARK    5  A    between atoms: C14_12  and  O16_13 
ROOT
ATOM      1  C2  <0> d   1      17.790   3.531  14.008  0.00  0.00     0.157 A 
ATOM      2  C3  <0> d   1      17.798   2.148  13.756  0.00  0.00     0.149 A 
ATOM      3  N4  <0> d   1      17.963   1.043  14.521  0.00  0.00    -0.236 NA
ATOM      4  C5  <0> d   1      17.877  -0.019  13.772  0.00  0.00     0.214 A 
ATOM      5  N6  <0> d   1      17.651   0.343  12.477  0.00  0.00    -0.293 N 
ATOM      6  C20 <0> d   1      17.596   1.713  12.435  0.00  0.00     0.169 A 
ATOM      7  N21 <0> d   1      17.407   2.616  11.479  0.00  0.00    -0.198 NA
ATOM      8  C22 <0> d   1      17.408   3.903  11.761  0.00  0.00     0.227 A 
ATOM      9 Cl23 <0> d   1      17.155   5.041  10.474  0.00  0.00    -0.041 Cl
ATOM     10  N24 <0> d   1      17.588   4.360  12.989  0.00  0.00    -0.199 NA
ENDROOT
BRANCH   5  11
ATOM     11  C7  <0> d   1      17.496  -0.566  11.338  0.00  0.00     0.267 C 
ATOM     12  C17 <0> d   1      18.864  -0.812  10.674  0.00  0.00     0.250 C 
ATOM     13  C14 <0> d   1      19.053  -2.349  10.762  0.00  0.00     0.187 C 
ATOM     14  F19 <0> d   1      19.879  -0.154  11.378  0.00  0.00    -0.242 F 
ATOM     15  C10 <0> d   1      17.596  -2.846  10.946  0.00  0.00     0.179 C 
ATOM     16  O9  <0> d   1      17.002  -1.837  11.790  0.00  0.00    -0.353 OA
BRANCH  13  17
ATOM     17  O16 <0> d   1      19.617  -2.863   9.552  0.00  0.00    -0.390 OA
ATOM     18  H31 <0> d   1      20.100  -3.693   9.665  0.00  0.00     0.210 HD
ENDBRANCH  13  17
BRANCH  15  19
ATOM     19  C12 <0> d   1      17.571  -4.210  11.637  0.00  0.00     0.198 C 
BRANCH  19  20
ATOM     20  O13 <0> d   1      18.839  -4.850  11.473  0.00  0.00    -0.398 OA
ATOM     21  H30 <0> d   1      19.557  -4.247  11.238  0.00  0.00     0.209 HD
ENDBRANCH  19  20
ENDBRANCH  15  19
ENDBRANCH   5  11
BRANCH   1  22
ATOM     22  N1  <0> d   1      17.984   4.018  15.289  0.00  0.00    -0.382 N 
ATOM     23  H25 <0> d   1      17.219   4.238  15.844  0.00  0.00     0.157 HD
ATOM     24  H26 <0> d   1      18.882   4.135  15.632  0.00  0.00     0.157 HD
ENDBRANCH   1  22
TORSDOF 5
ENDMDL
MODEL 8
REMARK VINA RESULT:      -6.4      4.511      7.049
REMARK  5 active torsions:
REMARK  status: ('A' for Active; 'I' for Inactive)
REMARK    1  A    between atoms: N1_1  and  C2_2 
REMARK    2  A    between atoms: N6_6  and  C7_7 
REMARK    3  A    between atoms: C10_9  and  C12_10 
REMARK    4  A    between atoms: C12_10  and  O13_11 
REMARK    5  A    between atoms: C14_12  and  O16_13 
ROOT
ATOM      1  C2  <0> d   1      18.147  -2.276   8.465  0.00  0.00     0.157 A 
ATOM      2  C3  <0> d   1      18.263  -2.287   9.865  0.00  0.00     0.149 A 
ATOM      3  N4  <0> d   1      18.059  -3.215  10.830  0.00  0.00    -0.236 NA
ATOM      4  C5  <0> d   1      18.320  -2.694  11.994  0.00  0.00     0.214 A 
ATOM      5  N6  <0> d   1      18.710  -1.396  11.846  0.00  0.00    -0.293 N 
ATOM      6  C20 <0> d   1      18.684  -1.109  10.506  0.00  0.00     0.169 A 
ATOM      7  N21 <0> d   1      18.954  -0.035   9.770  0.00  0.00    -0.198 NA
ATOM      8  C22 <0> d   1      18.831  -0.070   8.459  0.00  0.00     0.227 A 
ATOM      9 Cl23 <0> d   1      19.197   1.360   7.546  0.00  0.00    -0.041 Cl
ATOM     10  N24 <0> d   1      18.445  -1.157   7.813  0.00  0.00    -0.199 NA
ENDROOT
BRANCH   5  11
ATOM     11  C7  <0> d   1      19.087  -0.476  12.923  0.00  0.00     0.267 C 
ATOM     12  C17 <0> d   1      17.882   0.405  13.305  0.00  0.00     0.250 C 
ATOM     13  C14 <0> d   1      17.664   0.109  14.813  0.00  0.00     0.187 C 
ATOM     14  F19 <0> d   1      16.752   0.040  12.567  0.00  0.00    -0.242 F 
ATOM     15  C10 <0> d   1      19.047  -0.448  15.238  0.00  0.00     0.179 C 
ATOM     16  O9  <0> d   1      19.464  -1.221  14.093  0.00  0.00    -0.353 OA
BRANCH  13  17
ATOM     17  O16 <0> d   1      17.356   1.308  15.528  0.00  0.00    -0.390 OA
ATOM     18  H31 <0> d   1      16.571   1.769  15.203  0.00  0.00     0.210 HD
ENDBRANCH  13  17
BRANCH  15  19
ATOM     19  C12 <0> d   1      18.915  -1.342  16.472  0.00  0.00     0.198 C 
BRANCH  19  20
ATOM     20  O13 <0> d   1      18.250  -0.623  17.513  0.00  0.00    -0.398 OA
ATOM     21  H30 <0> d   1      18.308  -1.044  18.381  0.00  0.00     0.209 HD
ENDBRANCH  19  20
ENDBRANCH  15  19
ENDBRANCH   5  11
BRANCH   1  22
ATOM     22  N1  <0> d   1      17.738  -3.407   7.780  0.00  0.00    -0.382 N 
ATOM     23  H25 <0> d   1      18.036  -4.284   8.070  0.00  0.00     0.157 HD
ATOM     24  H26 <0> d   1      17.150  -3.324   7.014  0.00  0.00     0.157 HD
ENDBRANCH   1  22
TORSDOF 5
ENDMDL
MODEL 9
REMARK VINA RESULT:      -6.2      3.110      4.418
REMARK  5 active torsions:
REMARK  status: ('A' for Active; 'I' for Inactive)
REMARK    1  A    between atoms: N1_1  and  C2_2 
REMARK    2  A    between atoms: N6_6  and  C7_7 
REMARK    3  A    between atoms: C10_9  and  C12_10 
REMARK    4  A    between atoms: C12_10  and  O13_11 
REMARK    5  A    between atoms: C14_12  and  O16_13 
ROOT
ATOM      1  C2  <0> d   1      19.627   2.507  11.562  0.00  0.00     0.157 A 
ATOM      2  C3  <0> d   1      19.617   1.287  12.260  0.00  0.00     0.149 A 
ATOM      3  N4  <0> d   1      19.766   0.932  13.558  0.00  0.00    -0.236 NA
ATOM      4  C5  <0> d   1      19.667  -0.360  13.669  0.00  0.00     0.214 A 
ATOM      5  N6  <0> d   1      19.448  -0.916  12.443  0.00  0.00    -0.293 N 
ATOM      6  C20 <0> d   1      19.410   0.105  11.529  0.00  0.00     0.169 A 
ATOM      7  N21 <0> d   1      19.234   0.182  10.214  0.00  0.00    -0.198 NA
ATOM      8  C22 <0> d   1      19.252   1.348   9.599  0.00  0.00     0.227 A 
ATOM      9 Cl23 <0> d   1      19.016   1.392   7.881  0.00  0.00    -0.041 Cl
ATOM     10  N24 <0> d   1      19.437   2.486  10.247  0.00  0.00    -0.199 NA
ENDROOT
BRANCH   5  11
ATOM     11  C7  <0> d   1      19.282  -2.344  12.155  0.00  0.00     0.267 C 
ATOM     12  C17 <0> d   1      17.783  -2.690  12.074  0.00  0.00     0.250 C 
ATOM     13  C14 <0> d   1      17.609  -3.271  10.646  0.00  0.00     0.187 C 
ATOM     14  F19 <0> d   1      17.002  -1.541  12.233  0.00  0.00    -0.242 F 
ATOM     15  C10 <0> d   1      19.057  -3.695  10.289  0.00  0.00     0.179 C 
ATOM     16  O9  <0> d   1      19.866  -2.657  10.880  0.00  0.00    -0.353 OA
BRANCH  13  17
ATOM     17  O16 <0> d   1      16.736  -4.403  10.659  0.00  0.00    -0.390 OA
ATOM     18  H31 <0> d   1      16.918  -5.049   9.963  0.00  0.00     0.210 HD
ENDBRANCH  13  17
BRANCH  15  19
ATOM     19  C12 <0> d   1      19.252  -3.732   8.772  0.00  0.00     0.198 C 
BRANCH  19  20
ATOM     20  O13 <0> d   1      19.627  -2.433   8.308  0.00  0.00    -0.398 OA
ATOM     21  H30 <0> d   1      19.019  -2.058   7.656  0.00  0.00     0.209 HD
ENDBRANCH  19  20
ENDBRANCH  15  19
ENDBRANCH   5  11
BRANCH   1  22
ATOM     22  N1  <0> d   1      19.825   3.703  12.229  0.00  0.00    -0.382 N 
ATOM     23  H25 <0> d   1      20.629   3.836  12.757  0.00  0.00     0.157 HD
ATOM     24  H26 <0> d   1      19.165   4.409  12.165  0.00  0.00     0.157 HD
ENDBRANCH   1  22
TORSDOF 5
ENDMDL
