MODEL 1
REMARK VINA RESULT:      -7.9      0.000      0.000
REMARK  6 active torsions:
REMARK  status: ('A' for Active; 'I' for Inactive)
REMARK    1  A    between atoms: C6_6  and  O8_7 
REMARK    2  A    between atoms: O8_7  and  C9_8 
REMARK    3  A    between atoms: C9_8  and  C11_10 
REMARK    4  A    between atoms: C11_10  and  O12_11 
REMARK    5  A    between atoms: C11_10  and  C13_12 
REMARK    6  A    between atoms: C11_10  and  C19_18 
ROOT
ATOM      1  C11 ZIN A   1      19.213   2.101  10.950  0.00  0.00     0.176 C 
ENDROOT
BRANCH   1   2
ATOM      2  C9  ZIN A   1      19.575   1.016  11.932  0.00  0.00     0.299 C 
ATOM      3  O10 ZIN A   1      20.696   0.568  11.951  0.00  0.00    -0.261 OA
BRANCH   2   4
ATOM      4  O8  ZIN A   1      18.650   0.549  12.787  0.00  0.00    -0.312 OA
BRANCH   4   5
ATOM      5  C6  ZIN A   1      19.105   0.190  14.117  0.00  0.00     0.159 C 
ATOM      6  C5  ZIN A   1      19.111   1.426  15.055  0.00  0.00     0.062 C 
ATOM      7  C4  ZIN A   1      18.936   0.801  16.455  0.00  0.00     0.239 C 
ATOM      8  N2  ZIN A   1      18.318  -0.525  16.268  0.00  0.00    -0.072 N 
ATOM      9  C1  ZIN A   1      19.220  -1.567  16.778  0.00  0.00     0.272 C 
ATOM     10  C24 ZIN A   1      18.082  -0.735  14.824  0.00  0.00     0.268 C 
ATOM     11  C3  ZIN A   1      17.040  -0.578  16.990  0.00  0.00     0.272 C 
ENDBRANCH   4   5
ENDBRANCH   2   4
ENDBRANCH   1   2
BRANCH   1  12
ATOM     12  O12 ZIN A   1      20.349   2.936  10.723  0.00  0.00    -0.374 OA
ATOM     13  H35 ZIN A   1      20.405   3.695  11.320  0.00  0.00     0.211 HD
ENDBRANCH   1  12
BRANCH   1  14
ATOM     14  C13 ZIN A   1      18.781   1.475   9.648  0.00  0.00    -0.014 A 
ATOM     15  C18 ZIN A   1      17.759   0.546   9.633  0.00  0.00     0.011 A 
ATOM     16  C17 ZIN A   1      17.361  -0.024   8.438  0.00  0.00     0.001 A 
ATOM     17  C16 ZIN A   1      17.991   0.328   7.260  0.00  0.00     0.000 A 
ATOM     18  C15 ZIN A   1      19.017   1.254   7.276  0.00  0.00     0.001 A 
ATOM     19  C14 ZIN A   1      19.413   1.828   8.470  0.00  0.00     0.011 A 
ENDBRANCH   1  14
BRANCH   1  20
ATOM     20  C19 ZIN A   1      18.067   2.941  11.517  0.00  0.00     0.035 C 
ATOM     21  C23 ZIN A   1      17.439   3.815  10.412  0.00  0.00     0.008 C 
ATOM     22  C22 ZIN A   1      17.086   5.163  11.066  0.00  0.00     0.001 C 
ATOM     23  C21 ZIN A   1      17.511   5.060  12.544  0.00  0.00     0.001 C 
ATOM     24  C20 ZIN A   1      18.604   3.962  12.551  0.00  0.00     0.008 C 
ENDBRANCH   1  20
TORSDOF 6
ENDMDL
MODEL 2
REMARK VINA RESULT:      -7.6      2.202      3.847
REMARK  6 active torsions:
REMARK  status: ('A' for Active; 'I' for Inactive)
REMARK    1  A    between atoms: C6_6  and  O8_7 
REMARK    2  A    between atoms: O8_7  and  C9_8 
REMARK    3  A    between atoms: C9_8  and  C11_10 
REMARK    4  A    between atoms: C11_10  and  O12_11 
REMARK    5  A    between atoms: C11_10  and  C13_12 
REMARK    6  A    between atoms: C11_10  and  C19_18 
ROOT
ATOM      1  C11 ZIN A   1      19.275  -0.069  10.989  0.00  0.00     0.176 C 
ENDROOT
BRANCH   1   2
ATOM      2  C9  ZIN A   1      18.739   0.736  12.146  0.00  0.00     0.299 C 
ATOM      3  O10 ZIN A   1      17.754   1.420  12.001  0.00  0.00    -0.261 OA
BRANCH   2   4
ATOM      4  O8  ZIN A   1      19.356   0.691  13.337  0.00  0.00    -0.312 OA
BRANCH   4   5
ATOM      5  C6  ZIN A   1      18.626   0.083  14.435  0.00  0.00     0.159 C 
ATOM      6  C5  ZIN A   1      19.277  -1.259  14.860  0.00  0.00     0.062 C 
ATOM      7  C4  ZIN A   1      18.864  -1.393  16.341  0.00  0.00     0.239 C 
ATOM      8  N2  ZIN A   1      18.547  -0.039  16.829  0.00  0.00    -0.072 N 
ATOM      9  C1  ZIN A   1      17.142   0.015  17.259  0.00  0.00     0.272 C 
ATOM     10  C24 ZIN A   1      18.768   0.923  15.730  0.00  0.00     0.268 C 
ATOM     11  C3  ZIN A   1      19.424   0.294  17.961  0.00  0.00     0.272 C 
ENDBRANCH   4   5
ENDBRANCH   2   4
ENDBRANCH   1   2
BRANCH   1  12
ATOM     12  O12 ZIN A   1      20.688   0.119  10.893  0.00  0.00    -0.374 OA
ATOM     13  H35 ZIN A   1      20.997   0.329  10.001  0.00  0.00     0.211 HD
ENDBRANCH   1  12
BRANCH   1  14
ATOM     14  C13 ZIN A   1      18.975  -1.529  11.212  0.00  0.00    -0.014 A 
ATOM     15  C18 ZIN A   1      17.666  -1.957  11.326  0.00  0.00     0.011 A 
ATOM     16  C17 ZIN A   1      17.393  -3.297  11.526  0.00  0.00     0.001 A 
ATOM     17  C16 ZIN A   1      18.428  -4.208  11.622  0.00  0.00     0.000 A 
ATOM     18  C15 ZIN A   1      19.738  -3.779  11.513  0.00  0.00     0.001 A 
ATOM     19  C14 ZIN A   1      20.012  -2.439  11.308  0.00  0.00     0.011 A 
ENDBRANCH   1  14
BRANCH   1  20
ATOM     20  C19 ZIN A   1      18.608   0.396   9.693  0.00  0.00     0.035 C 
ATOM     21  C23 ZIN A   1      18.811  -0.648   8.576  0.00  0.00     0.008 C 
ATOM     22  C22 ZIN A   1      19.034   0.140   7.273  0.00  0.00     0.001 C 
ATOM     23  C21 ZIN A   1      18.958   1.634   7.643  0.00  0.00     0.001 C 
ATOM     24  C20 ZIN A   1      19.305   1.670   9.152  0.00  0.00     0.008 C 
ENDBRANCH   1  20
TORSDOF 6
ENDMDL
MODEL 3
REMARK VINA RESULT:      -7.5      2.390      4.574
REMARK  6 active torsions:
REMARK  status: ('A' for Active; 'I' for Inactive)
REMARK    1  A    between atoms: C6_6  and  O8_7 
REMARK    2  A    between atoms: O8_7  and  C9_8 
REMARK    3  A    between atoms: C9_8  and  C11_10 
REMARK    4  A    between atoms: C11_10  and  O12_11 
REMARK    5  A    between atoms: C11_10  and  C13_12 
REMARK    6  A    between atoms: C11_10  and  C19_18 
ROOT
ATOM      1  C11 ZIN A   1      17.715   1.044  11.273  0.00  0.00     0.176 C 
ENDROOT
BRANCH   1   2
ATOM      2  C9  ZIN A   1      17.784   2.493  11.680  0.00  0.00     0.299 C 
ATOM      3  O10 ZIN A   1      16.909   3.257  11.347  0.00  0.00    -0.261 OA
BRANCH   2   4
ATOM      4  O8  ZIN A   1      18.819   2.937  12.412  0.00  0.00    -0.312 OA
BRANCH   4   5
ATOM      5  C6  ZIN A   1      18.518   3.883  13.471  0.00  0.00     0.159 C 
ATOM      6  C5  ZIN A   1      18.709   3.233  14.867  0.00  0.00     0.062 C 
ATOM      7  C4  ZIN A   1      19.024   4.442  15.773  0.00  0.00     0.239 C 
ATOM      8  N2  ZIN A   1      19.531   5.519  14.903  0.00  0.00    -0.072 N 
ATOM      9  C1  ZIN A   1      18.642   6.685  14.992  0.00  0.00     0.272 C 
ATOM     10  C24 ZIN A   1      19.566   5.024  13.511  0.00  0.00     0.268 C 
ATOM     11  C3  ZIN A   1      20.887   5.896  15.328  0.00  0.00     0.272 C 
ENDBRANCH   4   5
ENDBRANCH   2   4
ENDBRANCH   1   2
BRANCH   1  12
ATOM     12  O12 ZIN A   1      16.400   0.542  11.519  0.00  0.00    -0.374 OA
ATOM     13  H35 ZIN A   1      15.703   1.016  11.046  0.00  0.00     0.211 HD
ENDBRANCH   1  12
BRANCH   1  14
ATOM     14  C13 ZIN A   1      18.035   0.918   9.806  0.00  0.00    -0.014 A 
ATOM     15  C18 ZIN A   1      19.071   1.650   9.259  0.00  0.00     0.011 A 
ATOM     16  C17 ZIN A   1      19.367   1.531   7.914  0.00  0.00     0.001 A 
ATOM     17  C16 ZIN A   1      18.620   0.687   7.113  0.00  0.00     0.000 A 
ATOM     18  C15 ZIN A   1      17.580  -0.041   7.659  0.00  0.00     0.001 A 
ATOM     19  C14 ZIN A   1      17.287   0.074   9.006  0.00  0.00     0.011 A 
ENDBRANCH   1  14
BRANCH   1  20
ATOM     20  C19 ZIN A   1      18.730   0.237  12.087  0.00  0.00     0.035 C 
ATOM     21  C23 ZIN A   1      19.049  -1.097  11.383  0.00  0.00     0.008 C 
ATOM     22  C22 ZIN A   1      19.200  -2.154  12.491  0.00  0.00     0.001 C 
ATOM     23  C21 ZIN A   1      18.967  -1.425  13.830  0.00  0.00     0.001 C 
ATOM     24  C20 ZIN A   1      18.119  -0.187  13.446  0.00  0.00     0.008 C 
ENDBRANCH   1  20
TORSDOF 6
ENDMDL
MODEL 4
REMARK VINA RESULT:      -7.4      2.547      6.376
REMARK  6 active torsions:
REMARK  status: ('A' for Active; 'I' for Inactive)
REMARK    1  A    between atoms: C6_6  and  O8_7 
REMARK    2  A    between atoms: O8_7  and  C9_8 
REMARK    3  A    between atoms: C9_8  and  C11_10 
REMARK    4  A    between atoms: C11_10  and  O12_11 
REMARK    5  A    between atoms: C11_10  and  C13_12 
REMARK    6  A    between atoms: C11_10  and  C19_18 
ROOT
ATOM      1  C11 ZIN A   1      19.459   0.254  12.146  0.00  0.00     0.176 C 
ENDROOT
BRANCH   1   2
ATOM      2  C9  ZIN A   1      19.132  -0.599  10.947  0.00  0.00     0.299 C 
ATOM      3  O10 ZIN A   1      18.323  -1.491  11.042  0.00  0.00    -0.261 OA
BRANCH   2   4
ATOM      4  O8  ZIN A   1      19.740  -0.367   9.772  0.00  0.00    -0.312 OA
BRANCH   4   5
ATOM      5  C6  ZIN A   1      18.899   0.063   8.669  0.00  0.00     0.159 C 
ATOM      6  C5  ZIN A   1      19.407   1.401   8.072  0.00  0.00     0.062 C 
ATOM      7  C4  ZIN A   1      18.901   1.346   6.615  0.00  0.00     0.239 C 
ATOM      8  N2  ZIN A   1      18.675  -0.073   6.285  0.00  0.00    -0.072 N 
ATOM      9  C1  ZIN A   1      17.258  -0.283   5.955  0.00  0.00     0.272 C 
ATOM     10  C24 ZIN A   1      19.039  -0.894   7.458  0.00  0.00     0.268 C 
ATOM     11  C3  ZIN A   1      19.512  -0.451   5.138  0.00  0.00     0.272 C 
ENDBRANCH   4   5
ENDBRANCH   2   4
ENDBRANCH   1   2
BRANCH   1  12
ATOM     12  O12 ZIN A   1      20.860   0.183  12.413  0.00  0.00    -0.374 OA
ATOM     13  H35 ZIN A   1      21.292  -0.600  12.045  0.00  0.00     0.211 HD
ENDBRANCH   1  12
BRANCH   1  14
ATOM     14  C13 ZIN A   1      19.073   1.684  11.865  0.00  0.00    -0.014 A 
ATOM     15  C18 ZIN A   1      20.016   2.688  11.967  0.00  0.00     0.011 A 
ATOM     16  C17 ZIN A   1      19.662   3.998  11.705  0.00  0.00     0.001 A 
ATOM     17  C16 ZIN A   1      18.362   4.306  11.351  0.00  0.00     0.000 A 
ATOM     18  C15 ZIN A   1      17.416   3.302  11.254  0.00  0.00     0.001 A 
ATOM     19  C14 ZIN A   1      17.771   1.991  11.512  0.00  0.00     0.011 A 
ENDBRANCH   1  14
BRANCH   1  20
ATOM     20  C19 ZIN A   1      18.681  -0.255  13.361  0.00  0.00     0.035 C 
ATOM     21  C23 ZIN A   1      18.572   0.848  14.434  0.00  0.00     0.008 C 
ATOM     22  C22 ZIN A   1      18.709   0.149  15.798  0.00  0.00     0.001 C 
ATOM     23  C21 ZIN A   1      18.895  -1.354  15.507  0.00  0.00     0.001 C 
ATOM     24  C20 ZIN A   1      19.460  -1.394  14.065  0.00  0.00     0.008 C 
ENDBRANCH   1  20
TORSDOF 6
ENDMDL
MODEL 5
REMARK VINA RESULT:      -7.4      2.351      3.193
REMARK  6 active torsions:
REMARK  status: ('A' for Active; 'I' for Inactive)
REMARK    1  A    between atoms: C6_6  and  O8_7 
REMARK    2  A    between atoms: O8_7  and  C9_8 
REMARK    3  A    between atoms: C9_8  and  C11_10 
REMARK    4  A    between atoms: C11_10  and  O12_11 
REMARK    5  A    between atoms: C11_10  and  C13_12 
REMARK    6  A    between atoms: C11_10  and  C19_18 
ROOT
ATOM      1  C11 ZIN A   1      19.110   1.967  10.875  0.00  0.00     0.176 C 
ENDROOT
BRANCH   1   2
ATOM      2  C9  ZIN A   1      19.539   0.861  11.804  0.00  0.00     0.299 C 
ATOM      3  O10 ZIN A   1      20.713   0.659  12.003  0.00  0.00    -0.261 OA
BRANCH   2   4
ATOM      4  O8  ZIN A   1      18.615   0.100  12.412  0.00  0.00    -0.312 OA
BRANCH   4   5
ATOM      5  C6  ZIN A   1      18.806  -1.338  12.356  0.00  0.00     0.159 C 
ATOM      6  C5  ZIN A   1      17.451  -2.073  12.180  0.00  0.00     0.062 C 
ATOM      7  C4  ZIN A   1      17.856  -3.388  11.483  0.00  0.00     0.239 C 
ATOM      8  N2  ZIN A   1      19.155  -3.152  10.825  0.00  0.00    -0.072 N 
ATOM      9  C1  ZIN A   1      20.166  -4.058  11.387  0.00  0.00     0.272 C 
ATOM     10  C24 ZIN A   1      19.555  -1.750  11.063  0.00  0.00     0.268 C 
ATOM     11  C3  ZIN A   1      19.025  -3.390   9.381  0.00  0.00     0.272 C 
ENDBRANCH   4   5
ENDBRANCH   2   4
ENDBRANCH   1   2
BRANCH   1  12
ATOM     12  O12 ZIN A   1      20.192   2.883  10.694  0.00  0.00    -0.374 OA
ATOM     13  H35 ZIN A   1      19.988   3.621  10.104  0.00  0.00     0.211 HD
ENDBRANCH   1  12
BRANCH   1  14
ATOM     14  C13 ZIN A   1      18.720   1.381   9.543  0.00  0.00    -0.014 A 
ATOM     15  C18 ZIN A   1      17.655   0.505   9.458  0.00  0.00     0.011 A 
ATOM     16  C17 ZIN A   1      17.295  -0.030   8.235  0.00  0.00     0.001 A 
ATOM     17  C16 ZIN A   1      18.006   0.304   7.098  0.00  0.00     0.000 A 
ATOM     18  C15 ZIN A   1      19.076   1.177   7.183  0.00  0.00     0.001 A 
ATOM     19  C14 ZIN A   1      19.433   1.715   8.406  0.00  0.00     0.011 A 
ENDBRANCH   1  14
BRANCH   1  20
ATOM     20  C19 ZIN A   1      17.913   2.705  11.478  0.00  0.00     0.035 C 
ATOM     21  C23 ZIN A   1      17.446   3.837  10.539  0.00  0.00     0.008 C 
ATOM     22  C22 ZIN A   1      17.032   5.012  11.442  0.00  0.00     0.001 C 
ATOM     23  C21 ZIN A   1      17.260   4.554  12.896  0.00  0.00     0.001 C 
ATOM     24  C20 ZIN A   1      18.326   3.437  12.779  0.00  0.00     0.008 C 
ENDBRANCH   1  20
TORSDOF 6
ENDMDL
MODEL 6
REMARK VINA RESULT:      -7.4      3.240      5.470
REMARK  6 active torsions:
REMARK  status: ('A' for Active; 'I' for Inactive)
REMARK    1  A    between atoms: C6_6  and  O8_7 
REMARK    2  A    between atoms: O8_7  and  C9_8 
REMARK    3  A    between atoms: C9_8  and  C11_10 
REMARK    4  A    between atoms: C11_10  and  O12_11 
REMARK    5  A    between atoms: C11_10  and  C13_12 
REMARK    6  A    between atoms: C11_10  and  C19_18 
ROOT
ATOM      1  C11 ZIN A   1      19.597   0.301  12.539  0.00  0.00     0.176 C 
ENDROOT
BRANCH   1   2
ATOM      2  C9  ZIN A   1      19.833  -0.659  11.402  0.00  0.00     0.299 C 
ATOM      3  O10 ZIN A   1      20.909  -0.695  10.854  0.00  0.00    -0.261 OA
BRANCH   2   4
ATOM      4  O8  ZIN A   1      18.847  -1.476  10.997  0.00  0.00    -0.312 OA
BRANCH   4   5
ATOM      5  C6  ZIN A   1      19.177  -2.881  10.845  0.00  0.00     0.159 C 
ATOM      6  C5  ZIN A   1      18.231  -3.770  11.694  0.00  0.00     0.062 C 
ATOM      7  C4  ZIN A   1      18.242  -5.114  10.936  0.00  0.00     0.239 C 
ATOM      8  N2  ZIN A   1      18.648  -4.829   9.548  0.00  0.00    -0.072 N 
ATOM      9  C1  ZIN A   1      19.894  -5.545   9.240  0.00  0.00     0.272 C 
ATOM     10  C24 ZIN A   1      18.864  -3.374   9.409  0.00  0.00     0.268 C 
ATOM     11  C3  ZIN A   1      17.588  -5.262   8.627  0.00  0.00     0.272 C 
ENDBRANCH   4   5
ENDBRANCH   2   4
ENDBRANCH   1   2
BRANCH   1  12
ATOM     12  O12 ZIN A   1      20.818   0.504  13.252  0.00  0.00    -0.374 OA
ATOM     13  H35 ZIN A   1      21.333  -0.302  13.388  0.00  0.00     0.211 HD
ENDBRANCH   1  12
BRANCH   1  14
ATOM     14  C13 ZIN A   1      19.110   1.618  11.991  0.00  0.00    -0.014 A 
ATOM     15  C18 ZIN A   1      18.021   1.653  11.141  0.00  0.00     0.011 A 
ATOM     16  C17 ZIN A   1      17.572   2.862  10.643  0.00  0.00     0.001 A 
ATOM     17  C16 ZIN A   1      18.219   4.034  10.986  0.00  0.00     0.000 A 
ATOM     18  C15 ZIN A   1      19.312   3.999  11.831  0.00  0.00     0.001 A 
ATOM     19  C14 ZIN A   1      19.758   2.791  12.334  0.00  0.00     0.011 A 
ENDBRANCH   1  14
BRANCH   1  20
ATOM     20  C19 ZIN A   1      18.543  -0.278  13.485  0.00  0.00     0.035 C 
ATOM     21  C23 ZIN A   1      18.006   0.815  14.431  0.00  0.00     0.008 C 
ATOM     22  C22 ZIN A   1      17.794   0.146  15.801  0.00  0.00     0.001 C 
ATOM     23  C21 ZIN A   1      18.209  -1.330  15.639  0.00  0.00     0.001 C 
ATOM     24  C20 ZIN A   1      19.183  -1.322  14.435  0.00  0.00     0.008 C 
ENDBRANCH   1  20
TORSDOF 6
ENDMDL
MODEL 7
REMARK VINA RESULT:      -7.2      2.712      4.799
REMARK  6 active torsions:
REMARK  status: ('A' for Active; 'I' for Inactive)
REMARK    1  A    between atoms: C6_6  and  O8_7 
REMARK    2  A    between atoms: O8_7  and  C9_8 
REMARK    3  A    between atoms: C9_8  and  C11_10 
REMARK    4  A    between atoms: C11_10  and  O12_11 
REMARK    5  A    between atoms: C11_10  and  C13_12 
REMARK    6  A    between atoms: C11_10  and  C19_18 
ROOT
ATOM      1  C11 ZIN A   1      19.802  -0.411  10.621  0.00  0.00     0.176 C 
ENDROOT
BRANCH   1   2
ATOM      2  C9  ZIN A   1      19.788   0.503  11.819  0.00  0.00     0.299 C 
ATOM      3  O10 ZIN A   1      20.663   0.424  12.649  0.00  0.00    -0.261 OA
BRANCH   2   4
ATOM      4  O8  ZIN A   1      18.804   1.405  11.965  0.00  0.00    -0.312 OA
BRANCH   4   5
ATOM      5  C6  ZIN A   1      19.077   2.545  12.822  0.00  0.00     0.159 C 
ATOM      6  C5  ZIN A   1      19.678   3.720  12.008  0.00  0.00     0.062 C 
ATOM      7  C4  ZIN A   1      19.272   4.959  12.834  0.00  0.00     0.239 C 
ATOM      8  N2  ZIN A   1      18.106   4.575  13.651  0.00  0.00    -0.072 N 
ATOM      9  C1  ZIN A   1      18.436   4.710  15.077  0.00  0.00     0.272 C 
ATOM     10  C24 ZIN A   1      17.761   3.170  13.350  0.00  0.00     0.268 C 
ATOM     11  C3  ZIN A   1      16.968   5.445  13.322  0.00  0.00     0.272 C 
ENDBRANCH   4   5
ENDBRANCH   2   4
ENDBRANCH   1   2
BRANCH   1  12
ATOM     12  O12 ZIN A   1      21.142  -0.558  10.149  0.00  0.00    -0.374 OA
ATOM     13  H35 ZIN A   1      21.758   0.100  10.501  0.00  0.00     0.211 HD
ENDBRANCH   1  12
BRANCH   1  14
ATOM     14  C13 ZIN A   1      19.255  -1.760  11.011  0.00  0.00    -0.014 A 
ATOM     15  C18 ZIN A   1      20.106  -2.841  11.136  0.00  0.00     0.011 A 
ATOM     16  C17 ZIN A   1      19.604  -4.077  11.499  0.00  0.00     0.001 A 
ATOM     17  C16 ZIN A   1      18.250  -4.234  11.727  0.00  0.00     0.000 A 
ATOM     18  C15 ZIN A   1      17.398  -3.153  11.597  0.00  0.00     0.001 A 
ATOM     19  C14 ZIN A   1      17.900  -1.916  11.238  0.00  0.00     0.011 A 
ENDBRANCH   1  14
BRANCH   1  20
ATOM     20  C19 ZIN A   1      18.934   0.190   9.512  0.00  0.00     0.035 C 
ATOM     21  C23 ZIN A   1      18.883  -0.755   8.294  0.00  0.00     0.008 C 
ATOM     22  C22 ZIN A   1      18.903   0.141   7.043  0.00  0.00     0.001 C 
ATOM     23  C21 ZIN A   1      18.965   1.597   7.544  0.00  0.00     0.001 C 
ATOM     24  C20 ZIN A   1      19.580   1.486   8.961  0.00  0.00     0.008 C 
ENDBRANCH   1  20
TORSDOF 6
ENDMDL
MODEL 8
REMARK VINA RESULT:      -7.2      2.893      3.811
REMARK  6 active torsions:
REMARK  status: ('A' for Active; 'I' for Inactive)
REMARK    1  A    between atoms: C6_6  and  O8_7 
REMARK    2  A    between atoms: O8_7  and  C9_8 
REMARK    3  A    between atoms: C9_8  and  C11_10 
REMARK    4  A    between atoms: C11_10  and  O12_11 
REMARK    5  A    between atoms: C11_10  and  C13_12 
REMARK    6  A    between atoms: C11_10  and  C19_18 
ROOT
ATOM      1  C11 ZIN A   1      18.118   1.162  10.941  0.00  0.00     0.176 C 
ENDROOT
BRANCH   1   2
ATOM      2  C9  ZIN A   1      17.393   0.025  11.615  0.00  0.00     0.299 C 
ATOM      3  O10 ZIN A   1      16.185   0.011  11.643  0.00  0.00    -0.261 OA
BRANCH   2   4
ATOM      4  O8  ZIN A   1      18.089  -0.971  12.185  0.00  0.00    -0.312 OA
BRANCH   4   5
ATOM      5  C6  ZIN A   1      18.447  -2.094  11.337  0.00  0.00     0.159 C 
ATOM      6  C5  ZIN A   1      19.675  -2.851  11.907  0.00  0.00     0.062 C 
ATOM      7  C4  ZIN A   1      19.491  -4.279  11.351  0.00  0.00     0.239 C 
ATOM      8  N2  ZIN A   1      18.062  -4.441  11.026  0.00  0.00    -0.072 N 
ATOM      9  C1  ZIN A   1      17.908  -4.709   9.590  0.00  0.00     0.272 C 
ATOM     10  C24 ZIN A   1      17.354  -3.192  11.378  0.00  0.00     0.268 C 
ATOM     11  C3  ZIN A   1      17.505  -5.559  11.801  0.00  0.00     0.272 C 
ENDBRANCH   4   5
ENDBRANCH   2   4
ENDBRANCH   1   2
BRANCH   1  12
ATOM     12  O12 ZIN A   1      19.439   1.266  11.475  0.00  0.00    -0.374 OA
ATOM     13  H35 ZIN A   1      19.703   0.515  12.022  0.00  0.00     0.211 HD
ENDBRANCH   1  12
BRANCH   1  14
ATOM     14  C13 ZIN A   1      18.193   0.900   9.459  0.00  0.00    -0.014 A 
ATOM     15  C18 ZIN A   1      19.222   1.442   8.713  0.00  0.00     0.011 A 
ATOM     16  C17 ZIN A   1      19.293   1.198   7.354  0.00  0.00     0.001 A 
ATOM     17  C16 ZIN A   1      18.329   0.420   6.740  0.00  0.00     0.000 A 
ATOM     18  C15 ZIN A   1      17.297  -0.117   7.485  0.00  0.00     0.001 A 
ATOM     19  C14 ZIN A   1      17.228   0.123   8.845  0.00  0.00     0.011 A 
ENDBRANCH   1  14
BRANCH   1  20
ATOM     20  C19 ZIN A   1      17.362   2.468  11.191  0.00  0.00     0.035 C 
ATOM     21  C23 ZIN A   1      17.814   3.554  10.193  0.00  0.00     0.008 C 
ATOM     22  C22 ZIN A   1      17.843   4.882  10.971  0.00  0.00     0.001 C 
ATOM     23  C21 ZIN A   1      17.406   4.557  12.413  0.00  0.00     0.001 C 
ATOM     24  C20 ZIN A   1      17.730   3.051  12.579  0.00  0.00     0.008 C 
ENDBRANCH   1  20
TORSDOF 6
ENDMDL
MODEL 9
REMARK VINA RESULT:      -7.1      3.442      7.607
REMARK  6 active torsions:
REMARK  status: ('A' for Active; 'I' for Inactive)
REMARK    1  A    between atoms: C6_6  and  O8_7 
REMARK    2  A    between atoms: O8_7  and  C9_8 
REMARK    3  A    between atoms: C9_8  and  C11_10 
REMARK    4  A    between atoms: C11_10  and  O12_11 
REMARK    5  A    between atoms: C11_10  and  C13_12 
REMARK    6  A    between atoms: C11_10  and  C19_18 
ROOT
ATOM      1  C11 ZIN A   1      19.566  -1.441  11.613  0.00  0.00     0.176 C 
ENDROOT
BRANCH   1   2
ATOM      2  C9  ZIN A   1      18.849  -0.573  10.611  0.00  0.00     0.299 C 
ATOM      3  O10 ZIN A   1      17.689  -0.283  10.782  0.00  0.00    -0.261 OA
BRANCH   2   4
ATOM      4  O8  ZIN A   1      19.501  -0.121   9.527  0.00  0.00    -0.312 OA
BRANCH   4   5
ATOM      5  C6  ZIN A   1      18.701   0.168   8.351  0.00  0.00     0.159 C 
ATOM      6  C5  ZIN A   1      19.181   1.470   7.657  0.00  0.00     0.062 C 
ATOM      7  C4  ZIN A   1      18.753   1.261   6.189  0.00  0.00     0.239 C 
ATOM      8  N2  ZIN A   1      18.604  -0.191   5.981  0.00  0.00    -0.072 N 
ATOM      9  C1  ZIN A   1      17.217  -0.497   5.605  0.00  0.00     0.272 C 
ATOM     10  C24 ZIN A   1      18.943  -0.886   7.241  0.00  0.00     0.268 C 
ATOM     11  C3  ZIN A   1      19.515  -0.631   4.914  0.00  0.00     0.272 C 
ENDBRANCH   4   5
ENDBRANCH   2   4
ENDBRANCH   1   2
BRANCH   1  12
ATOM     12  O12 ZIN A   1      20.967  -1.433  11.334  0.00  0.00    -0.374 OA
ATOM     13  H35 ZIN A   1      21.259  -0.677  10.807  0.00  0.00     0.211 HD
ENDBRANCH   1  12
BRANCH   1  14
ATOM     14  C13 ZIN A   1      19.327  -0.907  13.001  0.00  0.00    -0.014 A 
ATOM     15  C18 ZIN A   1      19.754   0.363  13.337  0.00  0.00     0.011 A 
ATOM     16  C17 ZIN A   1      19.530   0.853  14.610  0.00  0.00     0.001 A 
ATOM     17  C16 ZIN A   1      18.888   0.070  15.550  0.00  0.00     0.000 A 
ATOM     18  C15 ZIN A   1      18.465  -1.203  15.216  0.00  0.00     0.001 A 
ATOM     19  C14 ZIN A   1      18.685  -1.693  13.942  0.00  0.00     0.011 A 
ENDBRANCH   1  14
BRANCH   1  20
ATOM     20  C19 ZIN A   1      19.035  -2.873  11.518  0.00  0.00     0.035 C 
ATOM     21  C23 ZIN A   1      20.203  -3.879  11.457  0.00  0.00     0.008 C 
ATOM     22  C22 ZIN A   1      19.776  -4.989  10.479  0.00  0.00     0.001 C 
ATOM     23  C21 ZIN A   1      18.365  -4.618   9.981  0.00  0.00     0.001 C 
ATOM     24  C20 ZIN A   1      18.281  -3.084  10.181  0.00  0.00     0.008 C 
ENDBRANCH   1  20
TORSDOF 6
ENDMDL
