MODEL 1
REMARK VINA RESULT:      -7.1      0.000      0.000
REMARK  4 active torsions:
REMARK  status: ('A' for Active; 'I' for Inactive)
REMARK    1  A    between atoms: C2_2  and  C4_4 
REMARK    2  A    between atoms: C4_4  and  O5_5 
REMARK    3  A    between atoms: C22_20  and  C24_21 
REMARK    4  A    between atoms: C27_24  and  N28_25 
ROOT
ATOM      1  C4  ZIN A   1      18.223   2.724  11.330  0.00  0.00     0.125 C 
ATOM      2  C6  ZIN A   1      19.524   2.902  10.510  0.00  0.00     0.047 C 
ATOM      3  C7  ZIN A   1      20.289   1.555  10.601  0.00  0.00     0.009 C 
ATOM      4  C8  ZIN A   1      19.174   0.544  10.905  0.00  0.00     0.005 C 
ATOM      5  C10 ZIN A   1      19.645  -0.747  11.562  0.00  0.00     0.021 C 
ATOM      6  C12 ZIN A   1      20.497  -1.535  10.582  0.00  0.00     0.014 C 
ATOM      7  C13 ZIN A   1      20.685  -2.981  11.041  0.00  0.00     0.040 C 
ATOM      8  C14 ZIN A   1      19.318  -3.599  11.194  0.00  0.00    -0.048 C 
ATOM      9  C15 ZIN A   1      19.057  -4.854  10.765  0.00  0.00     0.057 C 
ATOM     10  C16 ZIN A   1      17.755  -5.378  10.832  0.00  0.00     0.150 C 
ATOM     11  O17 ZIN A   1      17.571  -6.552  10.585  0.00  0.00    -0.293 OA
ATOM     12  C18 ZIN A   1      16.585  -4.507  11.203  0.00  0.00     0.087 C 
ATOM     13  C19 ZIN A   1      17.005  -3.501  12.280  0.00  0.00     0.047 C 
ATOM     14  C20 ZIN A   1      18.268  -2.805  11.829  0.00  0.00    -0.048 C 
ATOM     15  C21 ZIN A   1      18.420  -1.502  12.011  0.00  0.00    -0.060 C 
ATOM     16  C22 ZIN A   1      17.317  -0.765  12.744  0.00  0.00     0.049 C 
ATOM     17  C33 ZIN A   1      17.017   0.582  12.070  0.00  0.00     0.026 C 
ATOM     18  C34 ZIN A   1      18.310   1.322  11.931  0.00  0.00    -0.001 C 
ATOM     19  C35 ZIN A   1      19.030   1.369  13.280  0.00  0.00     0.019 C 
ENDROOT
BRANCH  16  20
ATOM     20  C24 ZIN A   1      17.745  -0.521  14.169  0.00  0.00    -0.050 A 
ATOM     21  C32 ZIN A   1      18.757  -1.282  14.724  0.00  0.00     0.010 A 
ATOM     22  C31 ZIN A   1      19.155  -1.057  16.028  0.00  0.00     0.030 A 
ATOM     23  C27 ZIN A   1      18.531  -0.073  16.783  0.00  0.00     0.029 A 
ATOM     24  C26 ZIN A   1      17.511   0.687  16.223  0.00  0.00     0.030 A 
ATOM     25  C25 ZIN A   1      17.121   0.460  14.918  0.00  0.00     0.010 A 
BRANCH  23  26
ATOM     26  N28 ZIN A   1      18.928   0.154  18.103  0.00  0.00    -0.390 N 
ATOM     27  C29 ZIN A   1      18.887  -0.938  19.078  0.00  0.00     0.149 C 
ATOM     28  C30 ZIN A   1      19.385   1.484  18.512  0.00  0.00     0.149 C 
ENDBRANCH  23  26
ENDBRANCH  16  20
BRANCH   1  29
ATOM     29  C2  ZIN A   1      18.151   3.757  12.425  0.00  0.00     0.158 C 
ATOM     30  C1  ZIN A   1      19.330   4.657  12.692  0.00  0.00     0.094 C 
ATOM     31  O3  ZIN A   1      17.148   3.862  13.090  0.00  0.00    -0.295 OA
ENDBRANCH   1  29
BRANCH   1  32
ATOM     32  O5  ZIN A   1      17.081   2.827  10.478  0.00  0.00    -0.381 OA
ATOM     33  H39 ZIN A   1      16.275   3.106  10.933  0.00  0.00     0.211 HD
ENDBRANCH   1  32
TORSDOF 4
ENDMDL
MODEL 2
REMARK VINA RESULT:      -6.7      4.502      7.739
REMARK  4 active torsions:
REMARK  status: ('A' for Active; 'I' for Inactive)
REMARK    1  A    between atoms: C2_2  and  C4_4 
REMARK    2  A    between atoms: C4_4  and  O5_5 
REMARK    3  A    between atoms: C22_20  and  C24_21 
REMARK    4  A    between atoms: C27_24  and  N28_25 
ROOT
ATOM      1  C4  ZIN A   1      18.801  -1.163   5.814  0.00  0.00     0.125 C 
ATOM      2  C6  ZIN A   1      17.870   0.068   5.696  0.00  0.00     0.047 C 
ATOM      3  C7  ZIN A   1      17.100   0.165   7.040  0.00  0.00     0.009 C 
ATOM      4  C8  ZIN A   1      18.021  -0.570   8.022  0.00  0.00     0.005 C 
ATOM      5  C10 ZIN A   1      17.330  -1.102   9.271  0.00  0.00     0.021 C 
ATOM      6  C12 ZIN A   1      16.859   0.063  10.126  0.00  0.00     0.014 C 
ATOM      7  C13 ZIN A   1      16.499  -0.391  11.540  0.00  0.00     0.040 C 
ATOM      8  C14 ZIN A   1      17.716  -1.049  12.139  0.00  0.00    -0.048 C 
ATOM      9  C15 ZIN A   1      18.089  -0.817  13.417  0.00  0.00     0.057 C 
ATOM     10  C16 ZIN A   1      19.277  -1.366  13.927  0.00  0.00     0.150 C 
ATOM     11  O17 ZIN A   1      19.516  -1.273  15.115  0.00  0.00    -0.293 OA
ATOM     12  C18 ZIN A   1      20.260  -2.067  13.028  0.00  0.00     0.087 C 
ATOM     13  C19 ZIN A   1      19.508  -2.865  11.958  0.00  0.00     0.047 C 
ATOM     14  C20 ZIN A   1      18.493  -1.960  11.299  0.00  0.00    -0.048 C 
ATOM     15  C21 ZIN A   1      18.309  -1.996   9.988  0.00  0.00    -0.060 C 
ATOM     16  C22 ZIN A   1      19.100  -3.019   9.199  0.00  0.00     0.049 C 
ATOM     17  C33 ZIN A   1      19.638  -2.409   7.896  0.00  0.00     0.026 C 
ATOM     18  C34 ZIN A   1      18.487  -1.783   7.174  0.00  0.00    -0.001 C 
ATOM     19  C35 ZIN A   1      17.343  -2.790   7.045  0.00  0.00     0.019 C 
ENDROOT
BRANCH  16  20
ATOM     20  C24 ZIN A   1      18.206  -4.187   8.867  0.00  0.00    -0.050 A 
ATOM     21  C32 ZIN A   1      16.984  -4.322   9.498  0.00  0.00     0.010 A 
ATOM     22  C31 ZIN A   1      16.161  -5.388   9.192  0.00  0.00     0.030 A 
ATOM     23  C27 ZIN A   1      16.566  -6.330   8.256  0.00  0.00     0.029 A 
ATOM     24  C26 ZIN A   1      17.798  -6.195   7.626  0.00  0.00     0.030 A 
ATOM     25  C25 ZIN A   1      18.614  -5.124   7.934  0.00  0.00     0.010 A 
BRANCH  23  26
ATOM     26  N28 ZIN A   1      15.739  -7.413   7.947  0.00  0.00    -0.390 N 
ATOM     27  C29 ZIN A   1      14.299  -7.209   7.775  0.00  0.00     0.149 C 
ATOM     28  C30 ZIN A   1      16.313  -8.752   7.793  0.00  0.00     0.149 C 
ENDBRANCH  23  26
ENDBRANCH  16  20
BRANCH   1  29
ATOM     29  C2  ZIN A   1      18.505  -2.149   4.712  0.00  0.00     0.158 C 
ATOM     30  C1  ZIN A   1      17.178  -2.104   3.998  0.00  0.00     0.094 C 
ATOM     31  O3  ZIN A   1      19.330  -2.974   4.402  0.00  0.00    -0.295 OA
ENDBRANCH   1  29
BRANCH   1  32
ATOM     32  O5  ZIN A   1      20.171  -0.758   5.759  0.00  0.00    -0.381 OA
ATOM     33  H39 ZIN A   1      20.711  -1.102   6.483  0.00  0.00     0.211 HD
ENDBRANCH   1  32
TORSDOF 4
ENDMDL
MODEL 3
REMARK VINA RESULT:      -6.4      3.102      5.734
REMARK  4 active torsions:
REMARK  status: ('A' for Active; 'I' for Inactive)
REMARK    1  A    between atoms: C2_2  and  C4_4 
REMARK    2  A    between atoms: C4_4  and  O5_5 
REMARK    3  A    between atoms: C22_20  and  C24_21 
REMARK    4  A    between atoms: C27_24  and  N28_25 
ROOT
ATOM      1  C4  ZIN A   1      19.370  -0.346  14.704  0.00  0.00     0.125 C 
ATOM      2  C6  ZIN A   1      18.405  -1.556  14.747  0.00  0.00     0.047 C 
ATOM      3  C7  ZIN A   1      17.505  -1.445  13.487  0.00  0.00     0.009 C 
ATOM      4  C8  ZIN A   1      18.358  -0.606  12.525  0.00  0.00     0.005 C 
ATOM      5  C10 ZIN A   1      17.572   0.112  11.436  0.00  0.00     0.021 C 
ATOM      6  C12 ZIN A   1      16.974  -0.910  10.483  0.00  0.00     0.014 C 
ATOM      7  C13 ZIN A   1      16.499  -0.255   9.186  0.00  0.00     0.040 C 
ATOM      8  C14 ZIN A   1      17.679   0.446   8.563  0.00  0.00    -0.048 C 
ATOM      9  C15 ZIN A   1      17.918   0.383   7.234  0.00  0.00     0.057 C 
ATOM     10  C16 ZIN A   1      19.073   0.965   6.685  0.00  0.00     0.150 C 
ATOM     11  O17 ZIN A   1      19.193   1.030   5.478  0.00  0.00    -0.293 OA
ATOM     12  C18 ZIN A   1      20.165   1.507   7.568  0.00  0.00     0.087 C 
ATOM     13  C19 ZIN A   1      19.553   2.169   8.806  0.00  0.00     0.047 C 
ATOM     14  C20 ZIN A   1      18.569   1.210   9.435  0.00  0.00    -0.048 C 
ATOM     15  C21 ZIN A   1      18.514   1.069  10.751  0.00  0.00    -0.060 C 
ATOM     16  C22 ZIN A   1      19.418   1.952  11.587  0.00  0.00     0.049 C 
ATOM     17  C33 ZIN A   1      20.054   1.152  12.735  0.00  0.00     0.026 C 
ATOM     18  C34 ZIN A   1      18.952   0.464  13.478  0.00  0.00    -0.001 C 
ATOM     19  C35 ZIN A   1      17.868   1.474  13.856  0.00  0.00     0.019 C 
ENDROOT
BRANCH  16  20
ATOM     20  C24 ZIN A   1      18.609   3.086  12.163  0.00  0.00    -0.050 A 
ATOM     21  C32 ZIN A   1      17.424   3.464  11.559  0.00  0.00     0.010 A 
ATOM     22  C31 ZIN A   1      16.678   4.499  12.087  0.00  0.00     0.030 A 
ATOM     23  C27 ZIN A   1      17.125   5.168  13.219  0.00  0.00     0.029 A 
ATOM     24  C26 ZIN A   1      18.319   4.790  13.821  0.00  0.00     0.030 A 
ATOM     25  C25 ZIN A   1      19.058   3.750  13.290  0.00  0.00     0.010 A 
BRANCH  23  26
ATOM     26  N28 ZIN A   1      16.375   6.220  13.753  0.00  0.00    -0.390 N 
ATOM     27  C29 ZIN A   1      14.970   6.012  14.108  0.00  0.00     0.149 C 
ATOM     28  C30 ZIN A   1      16.997   7.530  13.959  0.00  0.00     0.149 C 
ENDBRANCH  23  26
ENDBRANCH  16  20
BRANCH   1  29
ATOM     29  C2  ZIN A   1      19.221   0.485  15.952  0.00  0.00     0.158 C 
ATOM     30  C1  ZIN A   1      18.478  -0.068  17.141  0.00  0.00     0.094 C 
ATOM     31  O3  ZIN A   1      19.696   1.594  16.000  0.00  0.00    -0.295 OA
ENDBRANCH   1  29
BRANCH   1  32
ATOM     32  O5  ZIN A   1      20.720  -0.793  14.565  0.00  0.00    -0.381 OA
ATOM     33  H39 ZIN A   1      21.333  -0.391  15.195  0.00  0.00     0.211 HD
ENDBRANCH   1  32
TORSDOF 4
ENDMDL
MODEL 4
REMARK VINA RESULT:      -6.2      3.279      6.452
REMARK  4 active torsions:
REMARK  status: ('A' for Active; 'I' for Inactive)
REMARK    1  A    between atoms: C2_2  and  C4_4 
REMARK    2  A    between atoms: C4_4  and  O5_5 
REMARK    3  A    between atoms: C22_20  and  C24_21 
REMARK    4  A    between atoms: C27_24  and  N28_25 
ROOT
ATOM      1  C4  ZIN A   1      19.309   0.629   8.297  0.00  0.00     0.125 C 
ATOM      2  C6  ZIN A   1      18.342   1.838   8.319  0.00  0.00     0.047 C 
ATOM      3  C7  ZIN A   1      17.468   1.678   9.592  0.00  0.00     0.009 C 
ATOM      4  C8  ZIN A   1      18.341   0.805  10.504  0.00  0.00     0.005 C 
ATOM      5  C10 ZIN A   1      17.579   0.045  11.581  0.00  0.00     0.021 C 
ATOM      6  C12 ZIN A   1      16.999   1.029  12.584  0.00  0.00     0.014 C 
ATOM      7  C13 ZIN A   1      16.551   0.324  13.864  0.00  0.00     0.040 C 
ATOM      8  C14 ZIN A   1      17.744  -0.397  14.437  0.00  0.00    -0.048 C 
ATOM      9  C15 ZIN A   1      18.010  -0.384  15.762  0.00  0.00     0.057 C 
ATOM     10  C16 ZIN A   1      19.177  -0.984  16.265  0.00  0.00     0.150 C 
ATOM     11  O17 ZIN A   1      19.321  -1.094  17.466  0.00  0.00    -0.293 OA
ATOM     12  C18 ZIN A   1      20.252  -1.490  15.340  0.00  0.00     0.087 C 
ATOM     13  C19 ZIN A   1      19.615  -2.106  14.091  0.00  0.00     0.047 C 
ATOM     14  C20 ZIN A   1      18.618  -1.126  13.518  0.00  0.00    -0.048 C 
ATOM     15  C21 ZIN A   1      18.535  -0.936  12.210  0.00  0.00    -0.060 C 
ATOM     16  C22 ZIN A   1      19.424  -1.785  11.323  0.00  0.00     0.049 C 
ATOM     17  C33 ZIN A   1      20.034  -0.941  10.194  0.00  0.00     0.026 C 
ATOM     18  C34 ZIN A   1      18.918  -0.228   9.500  0.00  0.00    -0.001 C 
ATOM     19  C35 ZIN A   1      17.827  -1.225   9.105  0.00  0.00     0.019 C 
ENDROOT
BRANCH  16  20
ATOM     20  C24 ZIN A   1      18.604  -2.898  10.722  0.00  0.00    -0.050 A 
ATOM     21  C32 ZIN A   1      19.047  -3.541   9.580  0.00  0.00     0.010 A 
ATOM     22  C31 ZIN A   1      18.301  -4.565   9.031  0.00  0.00     0.030 A 
ATOM     23  C27 ZIN A   1      17.101  -4.943   9.619  0.00  0.00     0.029 A 
ATOM     24  C26 ZIN A   1      16.657  -4.291  10.763  0.00  0.00     0.030 A 
ATOM     25  C25 ZIN A   1      17.410  -3.271  11.311  0.00  0.00     0.010 A 
BRANCH  23  26
ATOM     26  N28 ZIN A   1      16.342  -5.975   9.063  0.00  0.00    -0.390 N 
ATOM     27  C29 ZIN A   1      14.922  -5.765   8.772  0.00  0.00     0.149 C 
ATOM     28  C30 ZIN A   1      16.967  -7.267   8.769  0.00  0.00     0.149 C 
ENDBRANCH  23  26
ENDBRANCH  16  20
BRANCH   1  29
ATOM     29  C2  ZIN A   1      19.136  -0.154   7.021  0.00  0.00     0.158 C 
ATOM     30  C1  ZIN A   1      18.322   0.418   5.890  0.00  0.00     0.094 C 
ATOM     31  O3  ZIN A   1      19.649  -1.242   6.906  0.00  0.00    -0.295 OA
ENDBRANCH   1  29
BRANCH   1  32
ATOM     32  O5  ZIN A   1      20.661   1.073   8.425  0.00  0.00    -0.381 OA
ATOM     33  H39 ZIN A   1      21.234   0.454   8.898  0.00  0.00     0.211 HD
ENDBRANCH   1  32
TORSDOF 4
ENDMDL
MODEL 5
REMARK VINA RESULT:      -5.7      4.812      8.523
REMARK  4 active torsions:
REMARK  status: ('A' for Active; 'I' for Inactive)
REMARK    1  A    between atoms: C2_2  and  C4_4 
REMARK    2  A    between atoms: C4_4  and  O5_5 
REMARK    3  A    between atoms: C22_20  and  C24_21 
REMARK    4  A    between atoms: C27_24  and  N28_25 
ROOT
ATOM      1  C4  ZIN A   1      18.705  -4.643  11.218  0.00  0.00     0.125 C 
ATOM      2  C6  ZIN A   1      17.412  -4.651  12.070  0.00  0.00     0.047 C 
ATOM      3  C7  ZIN A   1      16.234  -4.844  11.079  0.00  0.00     0.009 C 
ATOM      4  C8  ZIN A   1      16.900  -5.529   9.877  0.00  0.00     0.005 C 
ATOM      5  C10 ZIN A   1      16.151  -5.377   8.560  0.00  0.00     0.021 C 
ATOM      6  C12 ZIN A   1      14.834  -6.131   8.634  0.00  0.00     0.014 C 
ATOM      7  C13 ZIN A   1      14.221  -6.324   7.247  0.00  0.00     0.040 C 
ATOM      8  C14 ZIN A   1      15.224  -7.064   6.399  0.00  0.00    -0.048 C 
ATOM      9  C15 ZIN A   1      14.850  -8.067   5.574  0.00  0.00     0.057 C 
ATOM     10  C16 ZIN A   1      15.811  -8.805   4.861  0.00  0.00     0.150 C 
ATOM     11  O17 ZIN A   1      15.448  -9.596   4.014  0.00  0.00    -0.293 OA
ATOM     12  C18 ZIN A   1      17.281  -8.632   5.131  0.00  0.00     0.087 C 
ATOM     13  C19 ZIN A   1      17.587  -7.160   5.425  0.00  0.00     0.047 C 
ATOM     14  C20 ZIN A   1      16.629  -6.665   6.483  0.00  0.00    -0.048 C 
ATOM     15  C21 ZIN A   1      17.053  -5.883   7.463  0.00  0.00    -0.060 C 
ATOM     16  C22 ZIN A   1      18.507  -5.455   7.437  0.00  0.00     0.049 C 
ATOM     17  C33 ZIN A   1      19.123  -5.522   8.842  0.00  0.00     0.026 C 
ATOM     18  C34 ZIN A   1      18.237  -4.750   9.767  0.00  0.00    -0.001 C 
ATOM     19  C35 ZIN A   1      17.973  -3.356   9.194  0.00  0.00     0.019 C 
ENDROOT
BRANCH  16  20
ATOM     20  C24 ZIN A   1      18.598  -4.041   6.923  0.00  0.00    -0.050 A 
ATOM     21  C32 ZIN A   1      17.669  -3.577   6.010  0.00  0.00     0.010 A 
ATOM     22  C31 ZIN A   1      17.747  -2.280   5.542  0.00  0.00     0.030 A 
ATOM     23  C27 ZIN A   1      18.766  -1.445   5.981  0.00  0.00     0.029 A 
ATOM     24  C26 ZIN A   1      19.702  -1.915   6.895  0.00  0.00     0.030 A 
ATOM     25  C25 ZIN A   1      19.615  -3.212   7.362  0.00  0.00     0.010 A 
BRANCH  23  26
ATOM     26  N28 ZIN A   1      18.851  -0.134   5.506  0.00  0.00    -0.390 N 
ATOM     27  C29 ZIN A   1      18.804   0.128   4.066  0.00  0.00     0.149 C 
ATOM     28  C30 ZIN A   1      18.986   0.979   6.449  0.00  0.00     0.149 C 
ENDBRANCH  23  26
ENDBRANCH  16  20
BRANCH   1  29
ATOM     29  C2  ZIN A   1      19.460  -3.356  11.428  0.00  0.00     0.158 C 
ATOM     30  C1  ZIN A   1      18.779  -2.180  12.079  0.00  0.00     0.094 C 
ATOM     31  O3  ZIN A   1      20.612  -3.267  11.074  0.00  0.00    -0.295 OA
ENDBRANCH   1  29
BRANCH   1  32
ATOM     32  O5  ZIN A   1      19.529  -5.761  11.554  0.00  0.00    -0.381 OA
ATOM     33  H39 ZIN A   1      19.206  -6.275  12.307  0.00  0.00     0.211 HD
ENDBRANCH   1  32
TORSDOF 4
ENDMDL
MODEL 6
REMARK VINA RESULT:      -5.7      2.735      6.747
REMARK  4 active torsions:
REMARK  status: ('A' for Active; 'I' for Inactive)
REMARK    1  A    between atoms: C2_2  and  C4_4 
REMARK    2  A    between atoms: C4_4  and  O5_5 
REMARK    3  A    between atoms: C22_20  and  C24_21 
REMARK    4  A    between atoms: C27_24  and  N28_25 
ROOT
ATOM      1  C4  ZIN A   1      19.444   1.030   9.768  0.00  0.00     0.125 C 
ATOM      2  C6  ZIN A   1      18.273   1.328   8.800  0.00  0.00     0.047 C 
ATOM      3  C7  ZIN A   1      17.279   2.230   9.578  0.00  0.00     0.009 C 
ATOM      4  C8  ZIN A   1      18.166   2.883  10.647  0.00  0.00     0.005 C 
ATOM      5  C10 ZIN A   1      17.420   3.397  11.870  0.00  0.00     0.021 C 
ATOM      6  C12 ZIN A   1      16.533   4.565  11.471  0.00  0.00     0.014 C 
ATOM      7  C13 ZIN A   1      16.053   5.346  12.694  0.00  0.00     0.040 C 
ATOM      8  C14 ZIN A   1      17.271   5.820  13.447  0.00  0.00    -0.048 C 
ATOM      9  C15 ZIN A   1      17.344   7.067  13.960  0.00  0.00     0.057 C 
ATOM     10  C16 ZIN A   1      18.523   7.520  14.577  0.00  0.00     0.150 C 
ATOM     11  O17 ZIN A   1      18.519   8.584  15.164  0.00  0.00    -0.293 OA
ATOM     12  C18 ZIN A   1      19.790   6.710  14.523  0.00  0.00     0.087 C 
ATOM     13  C19 ZIN A   1      19.459   5.218  14.626  0.00  0.00     0.047 C 
ATOM     14  C20 ZIN A   1      18.384   4.886  13.618  0.00  0.00    -0.048 C 
ATOM     15  C21 ZIN A   1      18.448   3.771  12.907  0.00  0.00    -0.060 C 
ATOM     16  C22 ZIN A   1      19.593   2.822  13.198  0.00  0.00     0.049 C 
ATOM     17  C33 ZIN A   1      20.184   2.263  11.895  0.00  0.00     0.026 C 
ATOM     18  C34 ZIN A   1      19.059   1.694  11.089  0.00  0.00    -0.001 C 
ATOM     19  C35 ZIN A   1      18.241   0.728  11.947  0.00  0.00     0.019 C 
ENDROOT
BRANCH  16  20
ATOM     20  C24 ZIN A   1      19.088   1.680  14.043  0.00  0.00    -0.050 A 
ATOM     21  C32 ZIN A   1      17.885   1.797  14.714  0.00  0.00     0.010 A 
ATOM     22  C31 ZIN A   1      17.418   0.750  15.484  0.00  0.00     0.030 A 
ATOM     23  C27 ZIN A   1      18.163  -0.417  15.592  0.00  0.00     0.029 A 
ATOM     24  C26 ZIN A   1      19.374  -0.530  14.921  0.00  0.00     0.030 A 
ATOM     25  C25 ZIN A   1      19.833   0.519  14.148  0.00  0.00     0.010 A 
BRANCH  23  26
ATOM     26  N28 ZIN A   1      17.696  -1.476  16.375  0.00  0.00    -0.390 N 
ATOM     27  C29 ZIN A   1      16.480  -1.315  17.175  0.00  0.00     0.149 C 
ATOM     28  C30 ZIN A   1      18.422  -2.748  16.393  0.00  0.00     0.149 C 
ENDBRANCH  23  26
ENDBRANCH  16  20
BRANCH   1  29
ATOM     29  C2  ZIN A   1      19.599  -0.457   9.959  0.00  0.00     0.158 C 
ATOM     30  C1  ZIN A   1      18.644  -1.407   9.282  0.00  0.00     0.094 C 
ATOM     31  O3  ZIN A   1      20.487  -0.888  10.654  0.00  0.00    -0.295 OA
ENDBRANCH   1  29
BRANCH   1  32
ATOM     32  O5  ZIN A   1      20.658   1.593   9.267  0.00  0.00    -0.381 OA
ATOM     33  H39 ZIN A   1      21.302   0.936   8.970  0.00  0.00     0.211 HD
ENDBRANCH   1  32
TORSDOF 4
ENDMDL
MODEL 7
REMARK VINA RESULT:      -5.6      6.070      9.846
REMARK  4 active torsions:
REMARK  status: ('A' for Active; 'I' for Inactive)
REMARK    1  A    between atoms: C2_2  and  C4_4 
REMARK    2  A    between atoms: C4_4  and  O5_5 
REMARK    3  A    between atoms: C22_20  and  C24_21 
REMARK    4  A    between atoms: C27_24  and  N28_25 
ROOT
ATOM      1  C4  ZIN A   1      18.464  -6.032   9.278  0.00  0.00     0.125 C 
ATOM      2  C6  ZIN A   1      17.184  -6.244  10.123  0.00  0.00     0.047 C 
ATOM      3  C7  ZIN A   1      15.984  -6.054   9.157  0.00  0.00     0.009 C 
ATOM      4  C8  ZIN A   1      16.595  -6.358   7.782  0.00  0.00     0.005 C 
ATOM      5  C10 ZIN A   1      15.840  -5.760   6.602  0.00  0.00     0.021 C 
ATOM      6  C12 ZIN A   1      14.482  -6.431   6.475  0.00  0.00     0.014 C 
ATOM      7  C13 ZIN A   1      13.842  -6.146   5.116  0.00  0.00     0.040 C 
ATOM      8  C14 ZIN A   1      14.790  -6.630   4.049  0.00  0.00    -0.048 C 
ATOM      9  C15 ZIN A   1      14.349  -7.301   2.962  0.00  0.00     0.057 C 
ATOM     10  C16 ZIN A   1      15.257  -7.824   2.025  0.00  0.00     0.150 C 
ATOM     11  O17 ZIN A   1      14.839  -8.287   0.983  0.00  0.00    -0.293 OA
ATOM     12  C18 ZIN A   1      16.738  -7.819   2.291  0.00  0.00     0.087 C 
ATOM     13  C19 ZIN A   1      17.132  -6.533   3.024  0.00  0.00     0.047 C 
ATOM     14  C20 ZIN A   1      16.217  -6.349   4.212  0.00  0.00    -0.048 C 
ATOM     15  C21 ZIN A   1      16.698  -5.939   5.375  0.00  0.00    -0.060 C 
ATOM     16  C22 ZIN A   1      18.173  -5.598   5.441  0.00  0.00     0.049 C 
ATOM     17  C33 ZIN A   1      18.801  -6.137   6.735  0.00  0.00     0.026 C 
ATOM     18  C34 ZIN A   1      17.972  -5.652   7.883  0.00  0.00    -0.001 C 
ATOM     19  C35 ZIN A   1      17.782  -4.137   7.784  0.00  0.00     0.019 C 
ENDROOT
BRANCH  16  20
ATOM     20  C24 ZIN A   1      18.338  -4.101   5.396  0.00  0.00    -0.050 A 
ATOM     21  C32 ZIN A   1      17.384  -3.320   4.771  0.00  0.00     0.010 A 
ATOM     22  C31 ZIN A   1      17.531  -1.947   4.732  0.00  0.00     0.030 A 
ATOM     23  C27 ZIN A   1      18.643  -1.352   5.314  0.00  0.00     0.029 A 
ATOM     24  C26 ZIN A   1      19.603  -2.140   5.936  0.00  0.00     0.030 A 
ATOM     25  C25 ZIN A   1      19.448  -3.512   5.975  0.00  0.00     0.010 A 
BRANCH  23  26
ATOM     26  N28 ZIN A   1      18.797   0.036   5.272  0.00  0.00    -0.390 N 
ATOM     27  C29 ZIN A   1      18.877   0.726   3.983  0.00  0.00     0.149 C 
ATOM     28  C30 ZIN A   1      18.877   0.801   6.519  0.00  0.00     0.149 C 
ENDBRANCH  23  26
ENDBRANCH  16  20
BRANCH   1  29
ATOM     29  C2  ZIN A   1      19.295  -4.917   9.859  0.00  0.00     0.158 C 
ATOM     30  C1  ZIN A   1      18.760  -4.098  11.006  0.00  0.00     0.094 C 
ATOM     31  O3  ZIN A   1      20.389  -4.679   9.406  0.00  0.00    -0.295 OA
ENDBRANCH   1  29
BRANCH   1  32
ATOM     32  O5  ZIN A   1      19.227  -7.239   9.221  0.00  0.00    -0.381 OA
ATOM     33  H39 ZIN A   1      20.099  -7.134   8.818  0.00  0.00     0.211 HD
ENDBRANCH   1  32
TORSDOF 4
ENDMDL
MODEL 8
REMARK VINA RESULT:      -5.1      3.540      6.292
REMARK  4 active torsions:
REMARK  status: ('A' for Active; 'I' for Inactive)
REMARK    1  A    between atoms: C2_2  and  C4_4 
REMARK    2  A    between atoms: C4_4  and  O5_5 
REMARK    3  A    between atoms: C22_20  and  C24_21 
REMARK    4  A    between atoms: C27_24  and  N28_25 
ROOT
ATOM      1  C4  ZIN A   1      18.742   0.741  17.450  0.00  0.00     0.125 C 
ATOM      2  C6  ZIN A   1      17.826  -0.507  17.438  0.00  0.00     0.047 C 
ATOM      3  C7  ZIN A   1      17.092  -0.499  16.071  0.00  0.00     0.009 C 
ATOM      4  C8  ZIN A   1      18.029   0.327  15.179  0.00  0.00     0.005 C 
ATOM      5  C10 ZIN A   1      17.363   0.954  13.961  0.00  0.00     0.021 C 
ATOM      6  C12 ZIN A   1      16.931  -0.140  12.999  0.00  0.00     0.014 C 
ATOM      7  C13 ZIN A   1      16.601   0.428  11.618  0.00  0.00     0.040 C 
ATOM      8  C14 ZIN A   1      17.825   1.147  11.110  0.00  0.00    -0.048 C 
ATOM      9  C15 ZIN A   1      18.234   1.028   9.828  0.00  0.00     0.057 C 
ATOM     10  C16 ZIN A   1      19.428   1.633   9.398  0.00  0.00     0.150 C 
ATOM     11  O17 ZIN A   1      19.699   1.642   8.214  0.00  0.00    -0.293 OA
ATOM     12  C18 ZIN A   1      20.377   2.266  10.380  0.00  0.00     0.087 C 
ATOM     13  C19 ZIN A   1      19.586   2.962  11.492  0.00  0.00     0.047 C 
ATOM     14  C20 ZIN A   1      18.567   1.993  12.045  0.00  0.00    -0.048 C 
ATOM     15  C21 ZIN A   1      18.348   1.916  13.348  0.00  0.00    -0.060 C 
ATOM     16  C22 ZIN A   1      19.104   2.879  14.242  0.00  0.00     0.049 C 
ATOM     17  C33 ZIN A   1      19.617   2.167  15.503  0.00  0.00     0.026 C 
ATOM     18  C34 ZIN A   1      18.456   1.469  16.138  0.00  0.00    -0.001 C 
ATOM     19  C35 ZIN A   1      17.295   2.449  16.320  0.00  0.00     0.019 C 
ENDROOT
BRANCH  16  20
ATOM     20  C24 ZIN A   1      18.186   4.004  14.647  0.00  0.00    -0.050 A 
ATOM     21  C32 ZIN A   1      17.097   4.323  13.858  0.00  0.00     0.010 A 
ATOM     22  C31 ZIN A   1      16.251   5.350  14.229  0.00  0.00     0.030 A 
ATOM     23  C27 ZIN A   1      16.502   6.069  15.391  0.00  0.00     0.029 A 
ATOM     24  C26 ZIN A   1      17.601   5.750  16.179  0.00  0.00     0.030 A 
ATOM     25  C25 ZIN A   1      18.440   4.718  15.804  0.00  0.00     0.010 A 
BRANCH  23  26
ATOM     26  N28 ZIN A   1      15.651   7.112  15.767  0.00  0.00    -0.390 N 
ATOM     27  C29 ZIN A   1      15.864   8.459  15.233  0.00  0.00     0.149 C 
ATOM     28  C30 ZIN A   1      14.546   6.857  16.693  0.00  0.00     0.149 C 
ENDBRANCH  23  26
ENDBRANCH  16  20
BRANCH   1  29
ATOM     29  C2  ZIN A   1      18.404   1.626  18.622  0.00  0.00     0.158 C 
ATOM     30  C1  ZIN A   1      19.248   2.839  18.919  0.00  0.00     0.094 C 
ATOM     31  O3  ZIN A   1      17.456   1.363  19.323  0.00  0.00    -0.295 OA
ENDBRANCH   1  29
BRANCH   1  32
ATOM     32  O5  ZIN A   1      20.115   0.348  17.508  0.00  0.00    -0.381 OA
ATOM     33  H39 ZIN A   1      20.383  -0.250  16.796  0.00  0.00     0.211 HD
ENDBRANCH   1  32
TORSDOF 4
ENDMDL
MODEL 9
REMARK VINA RESULT:      -5.1      7.767     12.004
REMARK  4 active torsions:
REMARK  status: ('A' for Active; 'I' for Inactive)
REMARK    1  A    between atoms: C2_2  and  C4_4 
REMARK    2  A    between atoms: C4_4  and  O5_5 
REMARK    3  A    between atoms: C22_20  and  C24_21 
REMARK    4  A    between atoms: C27_24  and  N28_25 
ROOT
ATOM      1  C4  ZIN A   1      17.443  -8.771   2.357  0.00  0.00     0.125 C 
ATOM      2  C6  ZIN A   1      17.108  -8.139   0.984  0.00  0.00     0.047 C 
ATOM      3  C7  ZIN A   1      16.677  -6.676   1.267  0.00  0.00     0.009 C 
ATOM      4  C8  ZIN A   1      17.351  -6.370   2.612  0.00  0.00     0.005 C 
ATOM      5  C10 ZIN A   1      16.712  -5.236   3.403  0.00  0.00     0.021 C 
ATOM      6  C12 ZIN A   1      16.917  -3.923   2.666  0.00  0.00     0.014 C 
ATOM      7  C13 ZIN A   1      16.633  -2.724   3.570  0.00  0.00     0.040 C 
ATOM      8  C14 ZIN A   1      17.542  -2.824   4.769  0.00  0.00    -0.048 C 
ATOM      9  C15 ZIN A   1      18.178  -1.740   5.266  0.00  0.00     0.057 C 
ATOM     10  C16 ZIN A   1      19.092  -1.870   6.326  0.00  0.00     0.150 C 
ATOM     11  O17 ZIN A   1      19.536  -0.871   6.856  0.00  0.00    -0.293 OA
ATOM     12  C18 ZIN A   1      19.531  -3.224   6.813  0.00  0.00     0.087 C 
ATOM     13  C19 ZIN A   1      18.353  -4.201   6.765  0.00  0.00     0.047 C 
ATOM     14  C20 ZIN A   1      17.719  -4.133   5.396  0.00  0.00    -0.048 C 
ATOM     15  C21 ZIN A   1      17.328  -5.238   4.779  0.00  0.00    -0.060 C 
ATOM     16  C22 ZIN A   1      17.478  -6.547   5.527  0.00  0.00     0.049 C 
ATOM     17  C33 ZIN A   1      18.005  -7.651   4.597  0.00  0.00     0.026 C 
ATOM     18  C34 ZIN A   1      17.122  -7.692   3.390  0.00  0.00    -0.001 C 
ATOM     19  C35 ZIN A   1      15.657  -7.790   3.819  0.00  0.00     0.019 C 
ENDROOT
BRANCH  16  20
ATOM     20  C24 ZIN A   1      16.137  -6.961   6.077  0.00  0.00    -0.050 A 
ATOM     21  C32 ZIN A   1      15.069  -6.084   6.023  0.00  0.00     0.010 A 
ATOM     22  C31 ZIN A   1      13.838  -6.462   6.522  0.00  0.00     0.030 A 
ATOM     23  C27 ZIN A   1      13.675  -7.721   7.085  0.00  0.00     0.029 A 
ATOM     24  C26 ZIN A   1      14.752  -8.598   7.142  0.00  0.00     0.030 A 
ATOM     25  C25 ZIN A   1      15.979  -8.215   6.638  0.00  0.00     0.010 A 
BRANCH  23  26
ATOM     26  N28 ZIN A   1      12.433  -8.105   7.595  0.00  0.00    -0.390 N 
ATOM     27  C29 ZIN A   1      11.811  -9.354   7.148  0.00  0.00     0.149 C 
ATOM     28  C30 ZIN A   1      11.752  -7.259   8.578  0.00  0.00     0.149 C 
ENDBRANCH  23  26
ENDBRANCH  16  20
BRANCH   1  29
ATOM     29  C2  ZIN A   1      16.587  -9.989   2.594  0.00  0.00     0.158 C 
ATOM     30  C1  ZIN A   1      15.562 -10.401   1.569  0.00  0.00     0.094 C 
ATOM     31  O3  ZIN A   1      16.723 -10.635   3.605  0.00  0.00    -0.295 OA
ENDBRANCH   1  29
BRANCH   1  32
ATOM     32  O5  ZIN A   1      18.827  -9.119   2.419  0.00  0.00    -0.381 OA
ATOM     33  H39 ZIN A   1      19.046  -9.943   1.964  0.00  0.00     0.211 HD
ENDBRANCH   1  32
TORSDOF 4
ENDMDL
