MODEL 1
REMARK VINA RESULT:      -8.2      0.000      0.000
REMARK  9 active torsions:
REMARK  status: ('A' for Active; 'I' for Inactive)
REMARK    1  A    between atoms: O2_2  and  C3_3 
REMARK    2  A    between atoms: C8_8  and  O9_9 
REMARK    3  A    between atoms: C14_13  and  O16_14 
REMARK    4  A    between atoms: O16_14  and  C17_15 
REMARK    5  A    between atoms: C17_15  and  C19_17 
REMARK    6  A    between atoms: C19_17  and  N21_18 
REMARK    7  A    between atoms: C19_17  and  C22_19 
REMARK    8  A    between atoms: C25_22  and  C27_23 
REMARK    9  A    between atoms: C27_23  and  C28_24 
ROOT
ATOM      1  C3  ZIN A   1      19.144  -2.024   6.818  0.00  0.00     0.102 A 
ATOM      2  C4  ZIN A   1      19.396  -0.664   6.813  0.00  0.00     0.047 A 
ATOM      3  C5  ZIN A   1      18.995   0.127   7.881  0.00  0.00    -0.045 A 
ATOM      4  C6  ZIN A   1      18.345  -0.445   8.953  0.00  0.00    -0.018 A 
ATOM      5  C7  ZIN A   1      18.086  -1.808   8.962  0.00  0.00     0.049 A 
ATOM      6  C8  ZIN A   1      18.478  -2.600   7.897  0.00  0.00     0.102 A 
ATOM      7  C11 ZIN A   1      17.908   0.380  10.140  0.00  0.00     0.224 C 
ATOM      8  C13 ZIN A   1      18.948   0.220  11.252  0.00  0.00     0.071 C 
ATOM      9  C14 ZIN A   1      18.553   1.083  12.453  0.00  0.00     0.140 C 
ATOM     10  C25 ZIN A   1      18.432   2.540  11.998  0.00  0.00     0.041 C 
ATOM     11  C31 ZIN A   1      17.398   2.625  10.874  0.00  0.00     0.243 C 
ATOM     12  N32 ZIN A   1      17.800   1.785   9.747  0.00  0.00    -0.062 N 
ATOM     13  H33 ZIN A   1      17.103   1.861   9.021  0.00  0.00     0.280 HD
ATOM     14  C34 ZIN A   1      19.092   2.223   9.205  0.00  0.00     0.240 C 
ATOM     15  C35 ZIN A   1      19.286   1.606   7.826  0.00  0.00     0.067 C 
ENDROOT
BRANCH   9  16
ATOM     16  O16 ZIN A   1      19.568   0.974  13.485  0.00  0.00    -0.314 OA
BRANCH  16  17
ATOM     17  C17 ZIN A   1      19.357   0.074  14.456  0.00  0.00     0.292 C 
ATOM     18  O18 ZIN A   1      19.635  -1.087  14.275  0.00  0.00    -0.263 OA
BRANCH  17  19
ATOM     19  C19 ZIN A   1      18.772   0.511  15.775  0.00  0.00     0.320 C 
BRANCH  19  20
ATOM     20  N21 ZIN A   1      17.394   0.978  15.569  0.00  0.00     0.092 N 
ATOM     21  H46 ZIN A   1      16.899   0.372  14.932  0.00  0.00     0.313 HD
ATOM     22  H47 ZIN A   1      16.904   1.059  16.446  0.00  0.00     0.313 HD
ENDBRANCH  19  20
BRANCH  19  23
ATOM     23  C22 ZIN A   1      18.770  -0.668  16.749  0.00  0.00     0.020 C 
ATOM     24  C23 ZIN A   1      19.251  -0.197  18.123  0.00  0.00     0.012 C 
ATOM     25  C24 ZIN A   1      17.350  -1.227  16.870  0.00  0.00     0.012 C 
ENDBRANCH  19  23
ENDBRANCH  17  19
ENDBRANCH  16  17
ENDBRANCH   9  16
BRANCH  10  26
ATOM     26  C27 ZIN A   1      17.984   3.409  13.176  0.00  0.00     0.012 C 
BRANCH  26  27
ATOM     27  C28 ZIN A   1      18.838   4.677  13.227  0.00  0.00    -0.022 C 
ATOM     28  C29 ZIN A   1      19.317   4.912  14.662  0.00  0.00     0.009 C 
ATOM     29  C30 ZIN A   1      20.049   4.515  12.306  0.00  0.00     0.009 C 
ENDBRANCH  26  27
ENDBRANCH  10  26
BRANCH   6  30
ATOM     30  O9  ZIN A   1      18.222  -3.935   7.909  0.00  0.00    -0.353 OA
ATOM     31  C10 ZIN A   1      17.400  -4.429   8.967  0.00  0.00     0.210 C 
ENDBRANCH   6  30
BRANCH   1  32
ATOM     32  O2  ZIN A   1      19.540  -2.795   5.771  0.00  0.00    -0.353 OA
ATOM     33  C1  ZIN A   1      18.854  -2.607   4.532  0.00  0.00     0.210 C 
ENDBRANCH   1  32
TORSDOF 9
ENDMDL
MODEL 2
REMARK VINA RESULT:      -8.0      2.735      7.658
REMARK  9 active torsions:
REMARK  status: ('A' for Active; 'I' for Inactive)
REMARK    1  A    between atoms: O2_2  and  C3_3 
REMARK    2  A    between atoms: C8_8  and  O9_9 
REMARK    3  A    between atoms: C14_13  and  O16_14 
REMARK    4  A    between atoms: O16_14  and  C17_15 
REMARK    5  A    between atoms: C17_15  and  C19_17 
REMARK    6  A    between atoms: C19_17  and  N21_18 
REMARK    7  A    between atoms: C19_17  and  C22_19 
REMARK    8  A    between atoms: C25_22  and  C27_23 
REMARK    9  A    between atoms: C27_23  and  C28_24 
ROOT
ATOM      1  C3  ZIN A   1      17.259   5.321  14.818  0.00  0.00     0.102 A 
ATOM      2  C4  ZIN A   1      16.988   5.594  13.490  0.00  0.00     0.047 A 
ATOM      3  C5  ZIN A   1      17.474   4.763  12.490  0.00  0.00    -0.045 A 
ATOM      4  C6  ZIN A   1      18.229   3.658  12.823  0.00  0.00    -0.018 A 
ATOM      5  C7  ZIN A   1      18.507   3.381  14.153  0.00  0.00     0.049 A 
ATOM      6  C8  ZIN A   1      18.030   4.211  15.153  0.00  0.00     0.102 A 
ATOM      7  C11 ZIN A   1      18.761   2.722  11.764  0.00  0.00     0.224 C 
ATOM      8  C13 ZIN A   1      17.830   1.509  11.675  0.00  0.00     0.071 C 
ATOM      9  C14 ZIN A   1      18.322   0.564  10.577  0.00  0.00     0.140 C 
ATOM     10  C25 ZIN A   1      18.379   1.329   9.252  0.00  0.00     0.041 C 
ATOM     11  C31 ZIN A   1      19.304   2.537   9.417  0.00  0.00     0.243 C 
ATOM     12  N32 ZIN A   1      18.813   3.415  10.477  0.00  0.00    -0.062 N 
ATOM     13  H33 ZIN A   1      19.439   4.202  10.563  0.00  0.00     0.280 HD
ATOM     14  C34 ZIN A   1      17.469   3.915  10.158  0.00  0.00     0.240 C 
ATOM     15  C35 ZIN A   1      17.159   5.106  11.056  0.00  0.00     0.067 C 
ENDROOT
BRANCH   9  16
ATOM     16  O16 ZIN A   1      17.407  -0.557  10.455  0.00  0.00    -0.314 OA
BRANCH  16  17
ATOM     17  C17 ZIN A   1      17.770  -1.707  11.042  0.00  0.00     0.292 C 
ATOM     18  O18 ZIN A   1      17.047  -2.222  11.861  0.00  0.00    -0.263 OA
BRANCH  17  19
ATOM     19  C19 ZIN A   1      19.081  -2.358  10.680  0.00  0.00     0.320 C 
BRANCH  19  20
ATOM     20  N21 ZIN A   1      19.834  -2.656  11.906  0.00  0.00     0.092 N 
ATOM     21  H46 ZIN A   1      19.365  -3.361  12.455  0.00  0.00     0.313 HD
ATOM     22  H47 ZIN A   1      20.780  -2.934  11.691  0.00  0.00     0.313 HD
ENDBRANCH  19  20
BRANCH  19  23
ATOM     23  C22 ZIN A   1      18.813  -3.657   9.917  0.00  0.00     0.020 C 
ATOM     24  C23 ZIN A   1      18.947  -3.402   8.414  0.00  0.00     0.012 C 
ATOM     25  C24 ZIN A   1      19.827  -4.719  10.347  0.00  0.00     0.012 C 
ENDBRANCH  19  23
ENDBRANCH  17  19
ENDBRANCH  16  17
ENDBRANCH   9  16
BRANCH  10  26
ATOM     26  C27 ZIN A   1      18.921   0.413   8.153  0.00  0.00     0.012 C 
BRANCH  26  27
ATOM     27  C28 ZIN A   1      18.259   0.768   6.820  0.00  0.00    -0.022 C 
ATOM     28  C29 ZIN A   1      19.255   0.539   5.680  0.00  0.00     0.009 C 
ATOM     29  C30 ZIN A   1      17.030  -0.117   6.609  0.00  0.00     0.009 C 
ENDBRANCH  26  27
ENDBRANCH  10  26
BRANCH   6  30
ATOM     30  O9  ZIN A   1      18.305   3.936  16.456  0.00  0.00    -0.353 OA
ATOM     31  C10 ZIN A   1      19.243   2.891  16.715  0.00  0.00     0.210 C 
ENDBRANCH   6  30
BRANCH   1  32
ATOM     32  O2  ZIN A   1      16.780   6.137  15.794  0.00  0.00    -0.353 OA
ATOM     33  C1  ZIN A   1      15.360   6.206  15.942  0.00  0.00     0.210 C 
ENDBRANCH   1  32
TORSDOF 9
ENDMDL
MODEL 3
REMARK VINA RESULT:      -7.8      2.394      8.655
REMARK  9 active torsions:
REMARK  status: ('A' for Active; 'I' for Inactive)
REMARK    1  A    between atoms: O2_2  and  C3_3 
REMARK    2  A    between atoms: C8_8  and  O9_9 
REMARK    3  A    between atoms: C14_13  and  O16_14 
REMARK    4  A    between atoms: O16_14  and  C17_15 
REMARK    5  A    between atoms: C17_15  and  C19_17 
REMARK    6  A    between atoms: C19_17  and  N21_18 
REMARK    7  A    between atoms: C19_17  and  C22_19 
REMARK    8  A    between atoms: C25_22  and  C27_23 
REMARK    9  A    between atoms: C27_23  and  C28_24 
ROOT
ATOM      1  C3  ZIN A   1      18.837   2.487  15.069  0.00  0.00     0.102 A 
ATOM      2  C4  ZIN A   1      19.272   1.183  15.213  0.00  0.00     0.047 A 
ATOM      3  C5  ZIN A   1      18.943   0.225  14.264  0.00  0.00    -0.045 A 
ATOM      4  C6  ZIN A   1      18.179   0.576  13.172  0.00  0.00    -0.018 A 
ATOM      5  C7  ZIN A   1      17.736   1.881  13.024  0.00  0.00     0.049 A 
ATOM      6  C8  ZIN A   1      18.057   2.839  13.971  0.00  0.00     0.102 A 
ATOM      7  C11 ZIN A   1      17.813  -0.434  12.110  0.00  0.00     0.224 C 
ATOM      8  C13 ZIN A   1      18.779  -0.272  10.932  0.00  0.00     0.071 C 
ATOM      9  C14 ZIN A   1      18.459  -1.316   9.859  0.00  0.00     0.140 C 
ATOM     10  C25 ZIN A   1      18.556  -2.712  10.480  0.00  0.00     0.041 C 
ATOM     11  C31 ZIN A   1      17.588  -2.798  11.661  0.00  0.00     0.243 C 
ATOM     12  N32 ZIN A   1      17.914  -1.785  12.664  0.00  0.00    -0.062 N 
ATOM     13  H33 ZIN A   1      17.263  -1.865  13.429  0.00  0.00     0.280 HD
ATOM     14  C34 ZIN A   1      19.274  -1.982  13.179  0.00  0.00     0.240 C 
ATOM     15  C35 ZIN A   1      19.435  -1.186  14.468  0.00  0.00     0.067 C 
ENDROOT
BRANCH   9  16
ATOM     16  O16 ZIN A   1      19.409  -1.198   8.768  0.00  0.00    -0.314 OA
BRANCH  16  17
ATOM     17  C17 ZIN A   1      19.018  -0.499   7.691  0.00  0.00     0.292 C 
ATOM     18  O18 ZIN A   1      19.260   0.682   7.617  0.00  0.00    -0.263 OA
BRANCH  17  19
ATOM     19  C19 ZIN A   1      18.277  -1.187   6.574  0.00  0.00     0.320 C 
BRANCH  19  20
ATOM     20  N21 ZIN A   1      17.019  -0.475   6.309  0.00  0.00     0.092 N 
ATOM     21  H46 ZIN A   1      16.658  -0.055   7.153  0.00  0.00     0.313 HD
ATOM     22  H47 ZIN A   1      17.139   0.215   5.584  0.00  0.00     0.313 HD
ENDBRANCH  19  20
BRANCH  19  23
ATOM     23  C22 ZIN A   1      19.140  -1.184   5.311  0.00  0.00     0.020 C 
ATOM     24  C23 ZIN A   1      19.037  -2.545   4.619  0.00  0.00     0.012 C 
ATOM     25  C24 ZIN A   1      18.647  -0.091   4.360  0.00  0.00     0.012 C 
ENDBRANCH  19  23
ENDBRANCH  17  19
ENDBRANCH  16  17
ENDBRANCH   9  16
BRANCH  10  26
ATOM     26  C27 ZIN A   1      18.186  -3.765   9.433  0.00  0.00     0.012 C 
BRANCH  26  27
ATOM     27  C28 ZIN A   1      18.604  -5.149   9.933  0.00  0.00    -0.022 C 
ATOM     28  C29 ZIN A   1      17.418  -6.110   9.825  0.00  0.00     0.009 C 
ATOM     29  C30 ZIN A   1      19.762  -5.671   9.081  0.00  0.00     0.009 C 
ENDBRANCH  26  27
ENDBRANCH  10  26
BRANCH   6  30
ATOM     30  O9  ZIN A   1      17.620   4.118  13.823  0.00  0.00    -0.353 OA
ATOM     31  C10 ZIN A   1      17.237   4.525  12.508  0.00  0.00     0.210 C 
ENDBRANCH   6  30
BRANCH   1  32
ATOM     32  O2  ZIN A   1      19.164   3.422  16.000  0.00  0.00    -0.353 OA
ATOM     33  C1  ZIN A   1      19.057   3.037  17.372  0.00  0.00     0.210 C 
ENDBRANCH   1  32
TORSDOF 9
ENDMDL
MODEL 4
REMARK VINA RESULT:      -7.8      2.217      7.358
REMARK  9 active torsions:
REMARK  status: ('A' for Active; 'I' for Inactive)
REMARK    1  A    between atoms: O2_2  and  C3_3 
REMARK    2  A    between atoms: C8_8  and  O9_9 
REMARK    3  A    between atoms: C14_13  and  O16_14 
REMARK    4  A    between atoms: O16_14  and  C17_15 
REMARK    5  A    between atoms: C17_15  and  C19_17 
REMARK    6  A    between atoms: C19_17  and  N21_18 
REMARK    7  A    between atoms: C19_17  and  C22_19 
REMARK    8  A    between atoms: C25_22  and  C27_23 
REMARK    9  A    between atoms: C27_23  and  C28_24 
ROOT
ATOM      1  C3  ZIN A   1      18.358   3.550  14.316  0.00  0.00     0.102 A 
ATOM      2  C4  ZIN A   1      18.204   3.928  12.995  0.00  0.00     0.047 A 
ATOM      3  C5  ZIN A   1      18.539   3.053  11.972  0.00  0.00    -0.045 A 
ATOM      4  C6  ZIN A   1      19.026   1.799  12.273  0.00  0.00    -0.018 A 
ATOM      5  C7  ZIN A   1      19.187   1.416  13.595  0.00  0.00     0.049 A 
ATOM      6  C8  ZIN A   1      18.860   2.287  14.620  0.00  0.00     0.102 A 
ATOM      7  C11 ZIN A   1      19.387   0.813  11.187  0.00  0.00     0.224 C 
ATOM      8  C13 ZIN A   1      18.221  -0.165  11.013  0.00  0.00     0.071 C 
ATOM      9  C14 ZIN A   1      18.541  -1.150   9.886  0.00  0.00     0.140 C 
ATOM     10  C25 ZIN A   1      18.813  -0.362   8.601  0.00  0.00     0.041 C 
ATOM     11  C31 ZIN A   1      19.967   0.611   8.850  0.00  0.00     0.243 C 
ATOM     12  N32 ZIN A   1      19.635   1.531   9.936  0.00  0.00    -0.062 N 
ATOM     13  H33 ZIN A   1      20.411   2.160  10.078  0.00  0.00     0.280 HD
ATOM     14  C34 ZIN A   1      18.443   2.321   9.602  0.00  0.00     0.240 C 
ATOM     15  C35 ZIN A   1      18.361   3.514  10.547  0.00  0.00     0.067 C 
ENDROOT
BRANCH   9  16
ATOM     16  O16 ZIN A   1      17.414  -2.041   9.684  0.00  0.00    -0.314 OA
BRANCH  16  17
ATOM     17  C17 ZIN A   1      17.419  -3.196  10.368  0.00  0.00     0.292 C 
ATOM     18  O18 ZIN A   1      17.076  -3.214  11.525  0.00  0.00    -0.263 OA
BRANCH  17  19
ATOM     19  C19 ZIN A   1      17.853  -4.471   9.690  0.00  0.00     0.320 C 
BRANCH  19  20
ATOM     20  N21 ZIN A   1      17.298  -4.516   8.330  0.00  0.00     0.092 N 
ATOM     21  H46 ZIN A   1      18.025  -4.398   7.640  0.00  0.00     0.313 HD
ATOM     22  H47 ZIN A   1      16.787  -5.371   8.176  0.00  0.00     0.313 HD
ENDBRANCH  19  20
BRANCH  19  23
ATOM     23  C22 ZIN A   1      19.380  -4.517   9.619  0.00  0.00     0.020 C 
ATOM     24  C23 ZIN A   1      19.960  -4.435  11.033  0.00  0.00     0.012 C 
ATOM     25  C24 ZIN A   1      19.821  -5.828   8.963  0.00  0.00     0.012 C 
ENDBRANCH  19  23
ENDBRANCH  17  19
ENDBRANCH  16  17
ENDBRANCH   9  16
BRANCH  10  26
ATOM     26  C27 ZIN A   1      19.188  -1.329   7.476  0.00  0.00     0.012 C 
BRANCH  26  27
ATOM     27  C28 ZIN A   1      18.370  -0.999   6.226  0.00  0.00    -0.022 C 
ATOM     28  C29 ZIN A   1      17.222  -0.058   6.601  0.00  0.00     0.009 C 
ATOM     29  C30 ZIN A   1      19.269  -0.318   5.193  0.00  0.00     0.009 C 
ENDBRANCH  26  27
ENDBRANCH  10  26
BRANCH   6  30
ATOM     30  O9  ZIN A   1      19.020   1.908  15.915  0.00  0.00    -0.353 OA
ATOM     31  C10 ZIN A   1      18.834   0.524  16.214  0.00  0.00     0.210 C 
ENDBRANCH   6  30
BRANCH   1  32
ATOM     32  O2  ZIN A   1      18.027   4.410  15.315  0.00  0.00    -0.353 OA
ATOM     33  C1  ZIN A   1      18.890   5.531  15.518  0.00  0.00     0.210 C 
ENDBRANCH   1  32
TORSDOF 9
ENDMDL
MODEL 5
REMARK VINA RESULT:      -7.5      2.462      8.374
REMARK  9 active torsions:
REMARK  status: ('A' for Active; 'I' for Inactive)
REMARK    1  A    between atoms: O2_2  and  C3_3 
REMARK    2  A    between atoms: C8_8  and  O9_9 
REMARK    3  A    between atoms: C14_13  and  O16_14 
REMARK    4  A    between atoms: O16_14  and  C17_15 
REMARK    5  A    between atoms: C17_15  and  C19_17 
REMARK    6  A    between atoms: C19_17  and  N21_18 
REMARK    7  A    between atoms: C19_17  and  C22_19 
REMARK    8  A    between atoms: C25_22  and  C27_23 
REMARK    9  A    between atoms: C27_23  and  C28_24 
ROOT
ATOM      1  C3  ZIN A   1      18.440   2.884  13.046  0.00  0.00     0.102 A 
ATOM      2  C4  ZIN A   1      18.984   1.692  13.488  0.00  0.00     0.047 A 
ATOM      3  C5  ZIN A   1      18.734   0.511  12.804  0.00  0.00    -0.045 A 
ATOM      4  C6  ZIN A   1      17.942   0.526  11.676  0.00  0.00    -0.018 A 
ATOM      5  C7  ZIN A   1      17.390   1.717  11.230  0.00  0.00     0.049 A 
ATOM      6  C8  ZIN A   1      17.632   2.897  11.913  0.00  0.00     0.102 A 
ATOM      7  C11 ZIN A   1      17.660  -0.736  10.895  0.00  0.00     0.224 C 
ATOM      8  C13 ZIN A   1      18.606  -0.784   9.692  0.00  0.00     0.071 C 
ATOM      9  C14 ZIN A   1      18.373  -2.077   8.907  0.00  0.00     0.140 C 
ATOM     10  C25 ZIN A   1      18.588  -3.270   9.841  0.00  0.00     0.041 C 
ATOM     11  C31 ZIN A   1      17.633  -3.149  11.030  0.00  0.00     0.243 C 
ATOM     12  N32 ZIN A   1      17.875  -1.902  11.753  0.00  0.00    -0.062 N 
ATOM     13  H33 ZIN A   1      17.234  -1.848  12.530  0.00  0.00     0.280 HD
ATOM     14  C34 ZIN A   1      19.248  -1.858  12.271  0.00  0.00     0.240 C 
ATOM     15  C35 ZIN A   1      19.343  -0.766  13.329  0.00  0.00     0.067 C 
ENDROOT
BRANCH   9  16
ATOM     16  O16 ZIN A   1      19.308  -2.148   7.798  0.00  0.00    -0.314 OA
BRANCH  16  17
ATOM     17  C17 ZIN A   1      18.795  -2.069   6.561  0.00  0.00     0.292 C 
ATOM     18  O18 ZIN A   1      17.957  -2.862   6.203  0.00  0.00    -0.263 OA
BRANCH  17  19
ATOM     19  C19 ZIN A   1      19.262  -0.990   5.619  0.00  0.00     0.320 C 
BRANCH  19  20
ATOM     20  N21 ZIN A   1      19.173  -1.476   4.235  0.00  0.00     0.092 N 
ATOM     21  H46 ZIN A   1      20.089  -1.543   3.816  0.00  0.00     0.313 HD
ATOM     22  H47 ZIN A   1      18.690  -2.360   4.192  0.00  0.00     0.313 HD
ENDBRANCH  19  20
BRANCH  19  23
ATOM     23  C22 ZIN A   1      18.379   0.249   5.781  0.00  0.00     0.020 C 
ATOM     24  C23 ZIN A   1      16.998  -0.172   6.287  0.00  0.00     0.012 C 
ATOM     25  C24 ZIN A   1      19.022   1.204   6.790  0.00  0.00     0.012 C 
ENDBRANCH  19  23
ENDBRANCH  17  19
ENDBRANCH  16  17
ENDBRANCH   9  16
BRANCH  10  26
ATOM     26  C27 ZIN A   1      18.306  -4.570   9.085  0.00  0.00     0.012 C 
BRANCH  26  27
ATOM     27  C28 ZIN A   1      17.005  -5.188   9.601  0.00  0.00    -0.022 C 
ATOM     28  C29 ZIN A   1      16.073  -5.473   8.421  0.00  0.00     0.009 C 
ATOM     29  C30 ZIN A   1      17.316  -6.496  10.332  0.00  0.00     0.009 C 
ENDBRANCH  26  27
ENDBRANCH  10  26
BRANCH   6  30
ATOM     30  O9  ZIN A   1      17.089   4.063  11.473  0.00  0.00    -0.353 OA
ATOM     31  C10 ZIN A   1      17.598   4.596  10.250  0.00  0.00     0.210 C 
ENDBRANCH   6  30
BRANCH   1  32
ATOM     32  O2  ZIN A   1      18.689   4.038  13.720  0.00  0.00    -0.353 OA
ATOM     33  C1  ZIN A   1      18.654   3.977  15.147  0.00  0.00     0.210 C 
ENDBRANCH   1  32
TORSDOF 9
ENDMDL
MODEL 6
REMARK VINA RESULT:      -7.4      2.155      7.693
REMARK  9 active torsions:
REMARK  status: ('A' for Active; 'I' for Inactive)
REMARK    1  A    between atoms: O2_2  and  C3_3 
REMARK    2  A    between atoms: C8_8  and  O9_9 
REMARK    3  A    between atoms: C14_13  and  O16_14 
REMARK    4  A    between atoms: O16_14  and  C17_15 
REMARK    5  A    between atoms: C17_15  and  C19_17 
REMARK    6  A    between atoms: C19_17  and  N21_18 
REMARK    7  A    between atoms: C19_17  and  C22_19 
REMARK    8  A    between atoms: C25_22  and  C27_23 
REMARK    9  A    between atoms: C27_23  and  C28_24 
ROOT
ATOM      1  C3  ZIN A   1      18.568   1.247  15.377  0.00  0.00     0.102 A 
ATOM      2  C4  ZIN A   1      18.504   2.023  14.234  0.00  0.00     0.047 A 
ATOM      3  C5  ZIN A   1      18.840   1.483  13.001  0.00  0.00    -0.045 A 
ATOM      4  C6  ZIN A   1      19.237   0.166  12.913  0.00  0.00    -0.018 A 
ATOM      5  C7  ZIN A   1      19.306  -0.616  14.056  0.00  0.00     0.049 A 
ATOM      6  C8  ZIN A   1      18.978  -0.080  15.289  0.00  0.00     0.102 A 
ATOM      7  C11 ZIN A   1      19.594  -0.462  11.587  0.00  0.00     0.224 C 
ATOM      8  C13 ZIN A   1      18.384  -1.253  11.082  0.00  0.00     0.071 C 
ATOM      9  C14 ZIN A   1      18.704  -1.864   9.715  0.00  0.00     0.140 C 
ATOM     10  C25 ZIN A   1      19.087  -0.741   8.747  0.00  0.00     0.041 C 
ATOM     11  C31 ZIN A   1      20.282   0.023   9.321  0.00  0.00     0.243 C 
ATOM     12  N32 ZIN A   1      19.948   0.586  10.628  0.00  0.00    -0.062 N 
ATOM     13  H33 ZIN A   1      20.751   1.084  10.982  0.00  0.00     0.280 HD
ATOM     14  C34 ZIN A   1      18.824   1.524  10.519  0.00  0.00     0.240 C 
ATOM     15  C35 ZIN A   1      18.762   2.371  11.784  0.00  0.00     0.067 C 
ENDROOT
BRANCH   9  16
ATOM     16  O16 ZIN A   1      17.538  -2.567   9.212  0.00  0.00    -0.314 OA
BRANCH  16  17
ATOM     17  C17 ZIN A   1      17.487  -3.891   9.421  0.00  0.00     0.292 C 
ATOM     18  O18 ZIN A   1      17.053  -4.322  10.463  0.00  0.00    -0.263 OA
BRANCH  17  19
ATOM     19  C19 ZIN A   1      17.971  -4.842   8.356  0.00  0.00     0.320 C 
BRANCH  19  20
ATOM     20  N21 ZIN A   1      17.523  -4.369   7.038  0.00  0.00     0.092 N 
ATOM     21  H46 ZIN A   1      18.278  -3.922   6.540  0.00  0.00     0.313 HD
ATOM     22  H47 ZIN A   1      17.130  -5.124   6.498  0.00  0.00     0.313 HD
ENDBRANCH  19  20
BRANCH  19  23
ATOM     23  C22 ZIN A   1      19.499  -4.904   8.383  0.00  0.00     0.020 C 
ATOM     24  C23 ZIN A   1      19.946  -6.122   9.195  0.00  0.00     0.012 C 
ATOM     25  C24 ZIN A   1      20.030  -5.023   6.953  0.00  0.00     0.012 C 
ENDBRANCH  19  23
ENDBRANCH  17  19
ENDBRANCH  16  17
ENDBRANCH   9  16
BRANCH  10  26
ATOM     26  C27 ZIN A   1      19.462  -1.339   7.390  0.00  0.00     0.012 C 
BRANCH  26  27
ATOM     27  C28 ZIN A   1      18.540  -0.771   6.309  0.00  0.00    -0.022 C 
ATOM     28  C29 ZIN A   1      18.387   0.739   6.512  0.00  0.00     0.009 C 
ATOM     29  C30 ZIN A   1      19.144  -1.041   4.930  0.00  0.00     0.009 C 
ENDBRANCH  26  27
ENDBRANCH  10  26
BRANCH   6  30
ATOM     30  O9  ZIN A   1      19.049  -0.850  16.408  0.00  0.00    -0.353 OA
ATOM     31  C10 ZIN A   1      17.957  -1.738  16.655  0.00  0.00     0.210 C 
ENDBRANCH   6  30
BRANCH   1  32
ATOM     32  O2  ZIN A   1      18.236   1.780  16.583  0.00  0.00    -0.353 OA
ATOM     33  C1  ZIN A   1      19.206   2.622  17.208  0.00  0.00     0.210 C 
ENDBRANCH   1  32
TORSDOF 9
ENDMDL
MODEL 7
REMARK VINA RESULT:      -7.2      1.510      2.125
REMARK  9 active torsions:
REMARK  status: ('A' for Active; 'I' for Inactive)
REMARK    1  A    between atoms: O2_2  and  C3_3 
REMARK    2  A    between atoms: C8_8  and  O9_9 
REMARK    3  A    between atoms: C14_13  and  O16_14 
REMARK    4  A    between atoms: O16_14  and  C17_15 
REMARK    5  A    between atoms: C17_15  and  C19_17 
REMARK    6  A    between atoms: C19_17  and  N21_18 
REMARK    7  A    between atoms: C19_17  and  C22_19 
REMARK    8  A    between atoms: C25_22  and  C27_23 
REMARK    9  A    between atoms: C27_23  and  C28_24 
ROOT
ATOM      1  C3  ZIN A   1      18.706  -3.821   8.660  0.00  0.00     0.102 A 
ATOM      2  C4  ZIN A   1      19.131  -2.577   8.231  0.00  0.00     0.047 A 
ATOM      3  C5  ZIN A   1      18.811  -1.438   8.957  0.00  0.00    -0.045 A 
ATOM      4  C6  ZIN A   1      18.067  -1.547  10.112  0.00  0.00    -0.018 A 
ATOM      5  C7  ZIN A   1      17.634  -2.792  10.545  0.00  0.00     0.049 A 
ATOM      6  C8  ZIN A   1      17.946  -3.929   9.821  0.00  0.00     0.102 A 
ATOM      7  C11 ZIN A   1      17.712  -0.333  10.937  0.00  0.00     0.224 C 
ATOM      8  C13 ZIN A   1      18.697  -0.236  12.106  0.00  0.00     0.071 C 
ATOM      9  C14 ZIN A   1      18.388   1.014  12.935  0.00  0.00     0.140 C 
ATOM     10  C25 ZIN A   1      18.467   2.244  12.027  0.00  0.00     0.041 C 
ATOM     11  C31 ZIN A   1      17.480   2.071  10.871  0.00  0.00     0.243 C 
ATOM     12  N32 ZIN A   1      17.796   0.867  10.104  0.00  0.00    -0.062 N 
ATOM     13  H33 ZIN A   1      17.132   0.779   9.350  0.00  0.00     0.280 HD
ATOM     14  C34 ZIN A   1      19.147   0.952   9.535  0.00  0.00     0.240 C 
ATOM     15  C35 ZIN A   1      19.291  -0.103   8.445  0.00  0.00     0.067 C 
ENDROOT
BRANCH   9  16
ATOM     16  O16 ZIN A   1      19.356   1.136  14.010  0.00  0.00    -0.314 OA
BRANCH  16  17
ATOM     17  C17 ZIN A   1      18.998   0.657  15.211  0.00  0.00     0.292 C 
ATOM     18  O18 ZIN A   1      19.272  -0.479  15.515  0.00  0.00    -0.263 OA
BRANCH  17  19
ATOM     19  C19 ZIN A   1      18.254   1.538  16.181  0.00  0.00     0.320 C 
BRANCH  19  20
ATOM     20  N21 ZIN A   1      17.355   0.713  17.001  0.00  0.00     0.092 N 
ATOM     21  H46 ZIN A   1      17.239   1.112  17.921  0.00  0.00     0.313 HD
ATOM     22  H47 ZIN A   1      16.464   0.587  16.546  0.00  0.00     0.313 HD
ENDBRANCH  19  20
BRANCH  19  23
ATOM     23  C22 ZIN A   1      19.254   2.258  17.088  0.00  0.00     0.020 C 
ATOM     24  C23 ZIN A   1      18.961   3.760  17.079  0.00  0.00     0.012 C 
ATOM     25  C24 ZIN A   1      19.125   1.722  18.516  0.00  0.00     0.012 C 
ENDBRANCH  19  23
ENDBRANCH  17  19
ENDBRANCH  16  17
ENDBRANCH   9  16
BRANCH  10  26
ATOM     26  C27 ZIN A   1      18.108   3.496  12.828  0.00  0.00     0.012 C 
BRANCH  26  27
ATOM     27  C28 ZIN A   1      19.114   4.607  12.517  0.00  0.00    -0.022 C 
ATOM     28  C29 ZIN A   1      19.410   5.398  13.794  0.00  0.00     0.009 C 
ATOM     29  C30 ZIN A   1      20.409   3.988  11.989  0.00  0.00     0.009 C 
ENDBRANCH  26  27
ENDBRANCH  10  26
BRANCH   6  30
ATOM     30  O9  ZIN A   1      17.519  -5.148  10.248  0.00  0.00    -0.353 OA
ATOM     31  C10 ZIN A   1      17.230  -5.283  11.640  0.00  0.00     0.210 C 
ENDBRANCH   6  30
BRANCH   1  32
ATOM     32  O2  ZIN A   1      19.023  -4.934   7.946  0.00  0.00    -0.353 OA
ATOM     33  C1  ZIN A   1      20.309  -5.510   8.182  0.00  0.00     0.210 C 
ENDBRANCH   1  32
TORSDOF 9
ENDMDL
MODEL 8
REMARK VINA RESULT:      -6.9      3.179      9.143
REMARK  9 active torsions:
REMARK  status: ('A' for Active; 'I' for Inactive)
REMARK    1  A    between atoms: O2_2  and  C3_3 
REMARK    2  A    between atoms: C8_8  and  O9_9 
REMARK    3  A    between atoms: C14_13  and  O16_14 
REMARK    4  A    between atoms: O16_14  and  C17_15 
REMARK    5  A    between atoms: C17_15  and  C19_17 
REMARK    6  A    between atoms: C19_17  and  N21_18 
REMARK    7  A    between atoms: C19_17  and  C22_19 
REMARK    8  A    between atoms: C25_22  and  C27_23 
REMARK    9  A    between atoms: C27_23  and  C28_24 
ROOT
ATOM      1  C3  ZIN A   1      17.917   6.916  16.573  0.00  0.00     0.102 A 
ATOM      2  C4  ZIN A   1      18.498   5.726  16.971  0.00  0.00     0.047 A 
ATOM      3  C5  ZIN A   1      18.370   4.587  16.189  0.00  0.00    -0.045 A 
ATOM      4  C6  ZIN A   1      17.662   4.642  15.007  0.00  0.00    -0.018 A 
ATOM      5  C7  ZIN A   1      17.074   5.832  14.605  0.00  0.00     0.049 A 
ATOM      6  C8  ZIN A   1      17.194   6.969  15.385  0.00  0.00     0.102 A 
ATOM      7  C11 ZIN A   1      17.514   3.429  14.121  0.00  0.00     0.224 C 
ATOM      8  C13 ZIN A   1      18.546   3.522  12.993  0.00  0.00     0.071 C 
ATOM      9  C14 ZIN A   1      18.448   2.280  12.104  0.00  0.00     0.140 C 
ATOM     10  C25 ZIN A   1      18.667   1.034  12.966  0.00  0.00     0.041 C 
ATOM     11  C31 ZIN A   1      17.622   1.015  14.084  0.00  0.00     0.243 C 
ATOM     12  N32 ZIN A   1      17.735   2.216  14.909  0.00  0.00    -0.062 N 
ATOM     13  H33 ZIN A   1      17.038   2.177  15.637  0.00  0.00     0.280 HD
ATOM     14  C34 ZIN A   1      19.062   2.296  15.533  0.00  0.00     0.240 C 
ATOM     15  C35 ZIN A   1      19.015   3.311  16.668  0.00  0.00     0.067 C 
ENDROOT
BRANCH   9  16
ATOM     16  O16 ZIN A   1      19.464   2.343  11.068  0.00  0.00    -0.314 OA
BRANCH  16  17
ATOM     17  C17 ZIN A   1      19.041   2.539   9.810  0.00  0.00     0.292 C 
ATOM     18  O18 ZIN A   1      18.263   3.431   9.566  0.00  0.00    -0.263 OA
BRANCH  17  19
ATOM     19  C19 ZIN A   1      19.536   1.647   8.701  0.00  0.00     0.320 C 
BRANCH  19  20
ATOM     20  N21 ZIN A   1      20.288   0.523   9.276  0.00  0.00     0.092 N 
ATOM     21  H46 ZIN A   1      19.906  -0.360   8.970  0.00  0.00     0.313 HD
ATOM     22  H47 ZIN A   1      21.268   0.590   9.051  0.00  0.00     0.313 HD
ENDBRANCH  19  20
BRANCH  19  23
ATOM     23  C22 ZIN A   1      18.344   1.110   7.906  0.00  0.00     0.020 C 
ATOM     24  C23 ZIN A   1      18.769   0.857   6.458  0.00  0.00     0.012 C 
ATOM     25  C24 ZIN A   1      17.862  -0.200   8.533  0.00  0.00     0.012 C 
ENDBRANCH  19  23
ENDBRANCH  17  19
ENDBRANCH  16  17
ENDBRANCH   9  16
BRANCH  10  26
ATOM     26  C27 ZIN A   1      18.519  -0.219  12.102  0.00  0.00     0.012 C 
BRANCH  26  27
ATOM     27  C28 ZIN A   1      19.618  -1.221  12.463  0.00  0.00    -0.022 C 
ATOM     28  C29 ZIN A   1      19.270  -1.902  13.789  0.00  0.00     0.009 C 
ATOM     29  C30 ZIN A   1      19.729  -2.276  11.361  0.00  0.00     0.009 C 
ENDBRANCH  26  27
ENDBRANCH  10  26
BRANCH   6  30
ATOM     30  O9  ZIN A   1      16.615   8.133  14.988  0.00  0.00    -0.353 OA
ATOM     31  C10 ZIN A   1      15.256   8.347  15.372  0.00  0.00     0.210 C 
ENDBRANCH   6  30
BRANCH   1  32
ATOM     32  O2  ZIN A   1      18.047   8.029  17.343  0.00  0.00    -0.353 OA
ATOM     33  C1  ZIN A   1      17.243   8.100  18.522  0.00  0.00     0.210 C 
ENDBRANCH   1  32
TORSDOF 9
ENDMDL
MODEL 9
REMARK VINA RESULT:      -6.6      1.623      2.316
REMARK  9 active torsions:
REMARK  status: ('A' for Active; 'I' for Inactive)
REMARK    1  A    between atoms: O2_2  and  C3_3 
REMARK    2  A    between atoms: C8_8  and  O9_9 
REMARK    3  A    between atoms: C14_13  and  O16_14 
REMARK    4  A    between atoms: O16_14  and  C17_15 
REMARK    5  A    between atoms: C17_15  and  C19_17 
REMARK    6  A    between atoms: C19_17  and  N21_18 
REMARK    7  A    between atoms: C19_17  and  C22_19 
REMARK    8  A    between atoms: C25_22  and  C27_23 
REMARK    9  A    between atoms: C27_23  and  C28_24 
ROOT
ATOM      1  C3  ZIN A   1      18.185  -4.360   8.363  0.00  0.00     0.102 A 
ATOM      2  C4  ZIN A   1      18.746  -3.273   7.717  0.00  0.00     0.047 A 
ATOM      3  C5  ZIN A   1      18.649  -2.003   8.268  0.00  0.00    -0.045 A 
ATOM      4  C6  ZIN A   1      17.991  -1.823   9.466  0.00  0.00    -0.018 A 
ATOM      5  C7  ZIN A   1      17.423  -2.908  10.116  0.00  0.00     0.049 A 
ATOM      6  C8  ZIN A   1      17.512  -4.176   9.567  0.00  0.00     0.102 A 
ATOM      7  C11 ZIN A   1      17.878  -0.459  10.105  0.00  0.00     0.224 C 
ATOM      8  C13 ZIN A   1      18.957  -0.338  11.185  0.00  0.00     0.071 C 
ATOM      9  C14 ZIN A   1      18.894   1.054  11.819  0.00  0.00     0.140 C 
ATOM     10  C25 ZIN A   1      19.074   2.107  10.722  0.00  0.00     0.041 C 
ATOM     11  C31 ZIN A   1      17.984   1.915   9.666  0.00  0.00     0.243 C 
ATOM     12  N32 ZIN A   1      18.064   0.576   9.086  0.00  0.00    -0.062 N 
ATOM     13  H33 ZIN A   1      17.337   0.477   8.395  0.00  0.00     0.280 HD
ATOM     14  C34 ZIN A   1      19.364   0.367   8.436  0.00  0.00     0.240 C 
ATOM     15  C35 ZIN A   1      19.271  -0.849   7.523  0.00  0.00     0.067 C 
ENDROOT
BRANCH   9  16
ATOM     16  O16 ZIN A   1      19.952   1.187  12.804  0.00  0.00    -0.314 OA
BRANCH  16  17
ATOM     17  C17 ZIN A   1      19.774   0.564  13.979  0.00  0.00     0.292 C 
ATOM     18  O18 ZIN A   1      20.015  -0.615  14.080  0.00  0.00    -0.263 OA
BRANCH  17  19
ATOM     19  C19 ZIN A   1      19.274   1.336  15.173  0.00  0.00     0.320 C 
BRANCH  19  20
ATOM     20  N21 ZIN A   1      19.262   2.772  14.858  0.00  0.00     0.092 N 
ATOM     21  H46 ZIN A   1      18.327   3.146  14.915  0.00  0.00     0.313 HD
ATOM     22  H47 ZIN A   1      19.892   3.280  15.459  0.00  0.00     0.313 HD
ENDBRANCH  19  20
BRANCH  19  23
ATOM     23  C22 ZIN A   1      17.856   0.878  15.520  0.00  0.00     0.020 C 
ATOM     24  C23 ZIN A   1      17.373  -0.126  14.471  0.00  0.00     0.012 C 
ATOM     25  C24 ZIN A   1      17.858   0.215  16.899  0.00  0.00     0.012 C 
ENDBRANCH  19  23
ENDBRANCH  17  19
ENDBRANCH  16  17
ENDBRANCH   9  16
BRANCH  10  26
ATOM     26  C27 ZIN A   1      18.960   3.506  11.331  0.00  0.00     0.012 C 
BRANCH  26  27
ATOM     27  C28 ZIN A   1      17.502   3.966  11.283  0.00  0.00    -0.022 C 
ATOM     28  C29 ZIN A   1      17.054   4.388  12.684  0.00  0.00     0.009 C 
ATOM     29  C30 ZIN A   1      17.374   5.154  10.328  0.00  0.00     0.009 C 
ENDBRANCH  26  27
ENDBRANCH  10  26
BRANCH   6  30
ATOM     30  O9  ZIN A   1      16.952  -5.237  10.208  0.00  0.00    -0.353 OA
ATOM     31  C10 ZIN A   1      17.030  -5.249  11.634  0.00  0.00     0.210 C 
ENDBRANCH   6  30
BRANCH   1  32
ATOM     32  O2  ZIN A   1      18.284  -5.602   7.820  0.00  0.00    -0.353 OA
ATOM     33  C1  ZIN A   1      19.030  -5.722   6.607  0.00  0.00     0.210 C 
ENDBRANCH   1  32
TORSDOF 9
ENDMDL
