MODEL 1
REMARK VINA RESULT:      -7.3      0.000      0.000
REMARK  13 active torsions:
REMARK  status: ('A' for Active; 'I' for Inactive)
REMARK    1  A    between atoms: O2_2  and  C3_3 
REMARK    2  A    between atoms: C3_3  and  C5_5 
REMARK    3  A    between atoms: C5_5  and  C6_6 
REMARK    4  A    between atoms: C6_6  and  O7_7 
REMARK    5  A    between atoms: C6_6  and  C8_8 
REMARK    6  A    between atoms: C6_6  and  C15_15 
REMARK    7  A    between atoms: C8_8  and  C9_9 
REMARK    8  A    between atoms: C9_9  and  C10_10 
REMARK    9  A    between atoms: C10_10  and  C11_11 
REMARK   10  A    between atoms: C11_11  and  O14_14 
REMARK   11  A    between atoms: C15_15  and  O17_17 
REMARK   12  A    between atoms: O17_17  and  C18_18 
REMARK   13  A    between atoms: C20_19  and  O21_20 
ROOT
ATOM      1  C18 ZIN A   1      17.974   1.160  13.012  0.00  0.00     0.199 C 
ATOM      2  C20 ZIN A   1      17.656   2.235  14.039  0.00  0.00     0.074 C 
ATOM      3  C23 ZIN A   1      17.627   1.717  15.250  0.00  0.00     0.048 C 
ATOM      4  C24 ZIN A   1      17.923   0.216  15.182  0.00  0.00     0.158 C 
ATOM      5  C25 ZIN A   1      17.019  -0.493  16.208  0.00  0.00     0.046 C 
ATOM      6  C26 ZIN A   1      17.845  -0.467  17.517  0.00  0.00     0.030 C 
ATOM      7  C27 ZIN A   1      19.163   0.247  17.140  0.00  0.00     0.236 C 
ATOM      8  N28 ZIN A   1      19.288   0.023  15.665  0.00  0.00    -0.058 N 
ATOM      9  H29 ZIN A   1      19.907   0.707  15.256  0.00  0.00     0.281 HD
ATOM     10  C30 ZIN A   1      19.807  -1.305  15.466  0.00  0.00     0.241 C 
ATOM     11  C31 ZIN A   1      20.350  -1.601  14.107  0.00  0.00     0.067 C 
ATOM     12  C32 ZIN A   1      19.294  -1.937  13.100  0.00  0.00    -0.047 A 
ATOM     13  C33 ZIN A   1      19.679  -2.920  12.173  0.00  0.00     0.047 A 
ATOM     14  C34 ZIN A   1      18.749  -3.375  11.260  0.00  0.00     0.105 A 
ATOM     15  C35 ZIN A   1      17.441  -2.868  11.274  0.00  0.00     0.105 A 
ATOM     16  C36 ZIN A   1      17.082  -1.879  12.165  0.00  0.00     0.048 A 
ATOM     17  C37 ZIN A   1      18.049  -1.373  13.058  0.00  0.00    -0.039 A 
ATOM     18  C38 ZIN A   1      17.610  -0.142  13.765  0.00  0.00     0.095 C 
ATOM     19  O40 ZIN A   1      16.721  -3.502  10.319  0.00  0.00    -0.323 OA
ATOM     20  C41 ZIN A   1      17.695  -4.099   9.438  0.00  0.00     0.352 C 
ATOM     21  O42 ZIN A   1      18.853  -4.296  10.275  0.00  0.00    -0.323 OA
ENDROOT
BRANCH   1  22
ATOM     22  O17 ZIN A   1      19.383   1.178  12.664  0.00  0.00    -0.306 OA
BRANCH  22  23
ATOM     23  C15 ZIN A   1      19.742   1.932  11.613  0.00  0.00     0.294 C 
ATOM     24  O16 ZIN A   1      20.418   2.920  11.782  0.00  0.00    -0.262 OA
BRANCH  23  25
ATOM     25  C6  ZIN A   1      19.302   1.549  10.224  0.00  0.00     0.154 C 
BRANCH  25  26
ATOM     26  C5  ZIN A   1      17.825   1.902  10.042  0.00  0.00     0.159 C 
BRANCH  26  27
ATOM     27  C3  ZIN A   1      17.661   3.401  10.056  0.00  0.00     0.261 C 
ATOM     28  O4  ZIN A   1      18.225   4.078   9.228  0.00  0.00    -0.265 OA
BRANCH  27  29
ATOM     29  O2  ZIN A   1      16.891   3.984  10.988  0.00  0.00    -0.326 OA
ATOM     30  C1  ZIN A   1      16.846   5.435  10.992  0.00  0.00     0.213 C 
ENDBRANCH  27  29
ENDBRANCH  26  27
ENDBRANCH  25  26
BRANCH  25  31
ATOM     31  O7  ZIN A   1      20.085   2.261   9.263  0.00  0.00    -0.379 OA
ATOM     32  H48 ZIN A   1      19.827   2.096   8.346  0.00  0.00     0.211 HD
ENDBRANCH  25  31
BRANCH  25  33
ATOM     33  C8  ZIN A   1      19.495   0.044  10.024  0.00  0.00     0.049 C 
BRANCH  33  34
ATOM     34  C9  ZIN A   1      18.524  -0.456   8.953  0.00  0.00     0.006 C 
BRANCH  34  35
ATOM     35  C10 ZIN A   1      19.289  -0.725   7.656  0.00  0.00     0.037 C 
BRANCH  35  36
ATOM     36  C11 ZIN A   1      18.674   0.097   6.521  0.00  0.00     0.051 C 
ATOM     37  C12 ZIN A   1      19.230  -0.388   5.181  0.00  0.00     0.045 C 
ATOM     38  C13 ZIN A   1      17.154  -0.075   6.534  0.00  0.00     0.045 C 
BRANCH  36  39
ATOM     39  O14 ZIN A   1      18.997   1.477   6.701  0.00  0.00    -0.391 OA
ATOM     40  H61 ZIN A   1      19.689   1.636   7.360  0.00  0.00     0.210 HD
ENDBRANCH  36  39
ENDBRANCH  35  36
ENDBRANCH  34  35
ENDBRANCH  33  34
ENDBRANCH  25  33
ENDBRANCH  23  25
ENDBRANCH  22  23
ENDBRANCH   1  22
BRANCH   2  41
ATOM     41  O21 ZIN A   1      17.436   3.542  13.748  0.00  0.00    -0.358 OA
ATOM     42  C22 ZIN A   1      17.928   4.505  14.683  0.00  0.00     0.209 C 
ENDBRANCH   2  41
TORSDOF 13
ENDMDL
MODEL 2
REMARK VINA RESULT:      -7.3      1.587      3.186
REMARK  13 active torsions:
REMARK  status: ('A' for Active; 'I' for Inactive)
REMARK    1  A    between atoms: O2_2  and  C3_3 
REMARK    2  A    between atoms: C3_3  and  C5_5 
REMARK    3  A    between atoms: C5_5  and  C6_6 
REMARK    4  A    between atoms: C6_6  and  O7_7 
REMARK    5  A    between atoms: C6_6  and  C8_8 
REMARK    6  A    between atoms: C6_6  and  C15_15 
REMARK    7  A    between atoms: C8_8  and  C9_9 
REMARK    8  A    between atoms: C9_9  and  C10_10 
REMARK    9  A    between atoms: C10_10  and  C11_11 
REMARK   10  A    between atoms: C11_11  and  O14_14 
REMARK   11  A    between atoms: C15_15  and  O17_17 
REMARK   12  A    between atoms: O17_17  and  C18_18 
REMARK   13  A    between atoms: C20_19  and  O21_20 
ROOT
ATOM      1  C18 ZIN A   1      17.652   1.159  11.576  0.00  0.00     0.199 C 
ATOM      2  C20 ZIN A   1      17.315   2.523  12.158  0.00  0.00     0.074 C 
ATOM      3  C23 ZIN A   1      17.495   2.520  13.463  0.00  0.00     0.048 C 
ATOM      4  C24 ZIN A   1      17.977   1.141  13.921  0.00  0.00     0.158 C 
ATOM      5  C25 ZIN A   1      17.301   0.823  15.267  0.00  0.00     0.046 C 
ATOM      6  C26 ZIN A   1      18.261   1.423  16.321  0.00  0.00     0.030 C 
ATOM      7  C27 ZIN A   1      19.420   2.033  15.500  0.00  0.00     0.236 C 
ATOM      8  N28 ZIN A   1      19.403   1.259  14.218  0.00  0.00    -0.058 N 
ATOM      9  H29 ZIN A   1      19.873   1.774  13.489  0.00  0.00     0.281 HD
ATOM     10  C30 ZIN A   1      20.067   0.004  14.455  0.00  0.00     0.241 C 
ATOM     11  C31 ZIN A   1      20.484  -0.758  13.240  0.00  0.00     0.067 C 
ATOM     12  C32 ZIN A   1      19.373  -1.543  12.614  0.00  0.00    -0.047 A 
ATOM     13  C33 ZIN A   1      19.776  -2.777  12.077  0.00  0.00     0.047 A 
ATOM     14  C34 ZIN A   1      18.815  -3.624  11.563  0.00  0.00     0.105 A 
ATOM     15  C35 ZIN A   1      17.461  -3.256  11.591  0.00  0.00     0.105 A 
ATOM     16  C36 ZIN A   1      17.079  -2.028  12.088  0.00  0.00     0.048 A 
ATOM     17  C37 ZIN A   1      18.067  -1.138  12.560  0.00  0.00    -0.039 A 
ATOM     18  C38 ZIN A   1      17.554   0.233  12.811  0.00  0.00     0.095 C 
ATOM     19  O40 ZIN A   1      16.727  -4.267  11.072  0.00  0.00    -0.323 OA
ATOM     20  C41 ZIN A   1      17.663  -5.084  10.339  0.00  0.00     0.352 C 
ATOM     21  O42 ZIN A   1      18.926  -4.846  10.994  0.00  0.00    -0.323 OA
ENDROOT
BRANCH   1  22
ATOM     22  O17 ZIN A   1      18.996   1.149  11.029  0.00  0.00    -0.306 OA
BRANCH  22  23
ATOM     23  C15 ZIN A   1      19.136   1.518   9.746  0.00  0.00     0.294 C 
ATOM     24  O16 ZIN A   1      19.436   2.658   9.475  0.00  0.00    -0.262 OA
BRANCH  23  25
ATOM     25  C6  ZIN A   1      18.918   0.515   8.644  0.00  0.00     0.154 C 
BRANCH  25  26
ATOM     26  C5  ZIN A   1      19.544  -0.823   9.043  0.00  0.00     0.159 C 
BRANCH  26  27
ATOM     27  C3  ZIN A   1      18.911  -1.933   8.242  0.00  0.00     0.261 C 
ATOM     28  O4  ZIN A   1      17.770  -2.263   8.464  0.00  0.00    -0.265 OA
BRANCH  27  29
ATOM     29  O2  ZIN A   1      19.615  -2.554   7.283  0.00  0.00    -0.326 OA
ATOM     30  C1  ZIN A   1      19.622  -4.006   7.306  0.00  0.00     0.213 C 
ENDBRANCH  27  29
ENDBRANCH  26  27
ENDBRANCH  25  26
BRANCH  25  31
ATOM     31  O7  ZIN A   1      17.516   0.339   8.428  0.00  0.00    -0.379 OA
ATOM     32  H48 ZIN A   1      16.963   0.983   8.892  0.00  0.00     0.211 HD
ENDBRANCH  25  31
BRANCH  25  33
ATOM     33  C8  ZIN A   1      19.572   1.020   7.356  0.00  0.00     0.049 C 
BRANCH  33  34
ATOM     34  C9  ZIN A   1      18.570   0.925   6.204  0.00  0.00     0.006 C 
BRANCH  34  35
ATOM     35  C10 ZIN A   1      19.231   0.234   5.010  0.00  0.00     0.037 C 
BRANCH  35  36
ATOM     36  C11 ZIN A   1      18.253  -0.771   4.396  0.00  0.00     0.051 C 
ATOM     37  C12 ZIN A   1      18.951  -2.121   4.221  0.00  0.00     0.045 C 
ATOM     38  C13 ZIN A   1      17.046  -0.937   5.322  0.00  0.00     0.045 C 
BRANCH  36  39
ATOM     39  O14 ZIN A   1      17.814  -0.293   3.124  0.00  0.00    -0.391 OA
ATOM     40  H61 ZIN A   1      17.167  -0.868   2.689  0.00  0.00     0.210 HD
ENDBRANCH  36  39
ENDBRANCH  35  36
ENDBRANCH  34  35
ENDBRANCH  33  34
ENDBRANCH  25  33
ENDBRANCH  23  25
ENDBRANCH  22  23
ENDBRANCH   1  22
BRANCH   2  41
ATOM     41  O21 ZIN A   1      16.891   3.590  11.435  0.00  0.00    -0.358 OA
ATOM     42  C22 ZIN A   1      16.961   4.870  12.068  0.00  0.00     0.209 C 
ENDBRANCH   2  41
TORSDOF 13
ENDMDL
MODEL 3
REMARK VINA RESULT:      -7.2      2.317      5.765
REMARK  13 active torsions:
REMARK  status: ('A' for Active; 'I' for Inactive)
REMARK    1  A    between atoms: O2_2  and  C3_3 
REMARK    2  A    between atoms: C3_3  and  C5_5 
REMARK    3  A    between atoms: C5_5  and  C6_6 
REMARK    4  A    between atoms: C6_6  and  O7_7 
REMARK    5  A    between atoms: C6_6  and  C8_8 
REMARK    6  A    between atoms: C6_6  and  C15_15 
REMARK    7  A    between atoms: C8_8  and  C9_9 
REMARK    8  A    between atoms: C9_9  and  C10_10 
REMARK    9  A    between atoms: C10_10  and  C11_11 
REMARK   10  A    between atoms: C11_11  and  O14_14 
REMARK   11  A    between atoms: C15_15  and  O17_17 
REMARK   12  A    between atoms: O17_17  and  C18_18 
REMARK   13  A    between atoms: C20_19  and  O21_20 
ROOT
ATOM      1  C18 ZIN A   1      17.846   3.408  13.210  0.00  0.00     0.199 C 
ATOM      2  C20 ZIN A   1      17.118   4.308  12.224  0.00  0.00     0.074 C 
ATOM      3  C23 ZIN A   1      16.670   5.387  12.834  0.00  0.00     0.048 C 
ATOM      4  C24 ZIN A   1      17.045   5.341  14.318  0.00  0.00     0.158 C 
ATOM      5  C25 ZIN A   1      15.864   5.911  15.124  0.00  0.00     0.046 C 
ATOM      6  C26 ZIN A   1      16.146   7.432  15.179  0.00  0.00     0.030 C 
ATOM      7  C27 ZIN A   1      17.472   7.617  14.408  0.00  0.00     0.236 C 
ATOM      8  N28 ZIN A   1      18.144   6.283  14.515  0.00  0.00    -0.058 N 
ATOM      9  H29 ZIN A   1      18.834   6.177  13.786  0.00  0.00     0.281 HD
ATOM     10  C30 ZIN A   1      18.766   6.210  15.811  0.00  0.00     0.241 C 
ATOM     11  C31 ZIN A   1      19.786   5.134  15.989  0.00  0.00     0.067 C 
ATOM     12  C32 ZIN A   1      19.195   3.787  16.272  0.00  0.00    -0.047 A 
ATOM     13  C33 ZIN A   1      19.944   3.011  17.171  0.00  0.00     0.047 A 
ATOM     14  C34 ZIN A   1      19.441   1.791  17.577  0.00  0.00     0.105 A 
ATOM     15  C35 ZIN A   1      18.196   1.349  17.104  0.00  0.00     0.105 A 
ATOM     16  C36 ZIN A   1      17.484   2.103  16.195  0.00  0.00     0.048 A 
ATOM     17  C37 ZIN A   1      18.026   3.321  15.736  0.00  0.00    -0.039 A 
ATOM     18  C38 ZIN A   1      17.296   3.890  14.573  0.00  0.00     0.095 C 
ATOM     19  O40 ZIN A   1      17.912   0.158  17.680  0.00  0.00    -0.323 OA
ATOM     20  C41 ZIN A   1      19.171  -0.334  18.184  0.00  0.00     0.352 C 
ATOM     21  O42 ZIN A   1      19.947   0.860  18.417  0.00  0.00    -0.323 OA
ENDROOT
BRANCH   1  22
ATOM     22  O17 ZIN A   1      19.281   3.610  13.131  0.00  0.00    -0.306 OA
BRANCH  22  23
ATOM     23  C15 ZIN A   1      19.931   2.990  12.135  0.00  0.00     0.294 C 
ATOM     24  O16 ZIN A   1      20.669   3.618  11.412  0.00  0.00    -0.262 OA
BRANCH  23  25
ATOM     25  C6  ZIN A   1      19.740   1.512  11.915  0.00  0.00     0.154 C 
BRANCH  25  26
ATOM     26  C5  ZIN A   1      18.648   1.290  10.866  0.00  0.00     0.159 C 
BRANCH  26  27
ATOM     27  C3  ZIN A   1      19.278   1.183   9.500  0.00  0.00     0.261 C 
ATOM     28  O4  ZIN A   1      19.344   2.157   8.788  0.00  0.00    -0.265 OA
BRANCH  27  29
ATOM     29  O2  ZIN A   1      19.763   0.006   9.075  0.00  0.00    -0.326 OA
ATOM     30  C1  ZIN A   1      19.189  -0.544   7.860  0.00  0.00     0.213 C 
ENDBRANCH  27  29
ENDBRANCH  26  27
ENDBRANCH  25  26
BRANCH  25  31
ATOM     31  O7  ZIN A   1      20.966   0.936  11.456  0.00  0.00    -0.379 OA
ATOM     32  H48 ZIN A   1      20.851   0.132  10.932  0.00  0.00     0.211 HD
ENDBRANCH  25  31
BRANCH  25  33
ATOM     33  C8  ZIN A   1      19.327   0.849  13.230  0.00  0.00     0.049 C 
BRANCH  33  34
ATOM     34  C9  ZIN A   1      18.434  -0.358  12.934  0.00  0.00     0.006 C 
BRANCH  34  35
ATOM     35  C10 ZIN A   1      19.238  -1.645  13.121  0.00  0.00     0.037 C 
BRANCH  35  36
ATOM     36  C11 ZIN A   1      19.372  -2.362  11.776  0.00  0.00     0.051 C 
ATOM     37  C12 ZIN A   1      19.640  -3.849  12.015  0.00  0.00     0.045 C 
ATOM     38  C13 ZIN A   1      18.076  -2.199  10.980  0.00  0.00     0.045 C 
BRANCH  36  39
ATOM     39  O14 ZIN A   1      20.457  -1.795  11.039  0.00  0.00    -0.391 OA
ATOM     40  H61 ZIN A   1      20.882  -1.045  11.479  0.00  0.00     0.210 HD
ENDBRANCH  36  39
ENDBRANCH  35  36
ENDBRANCH  34  35
ENDBRANCH  33  34
ENDBRANCH  25  33
ENDBRANCH  23  25
ENDBRANCH  22  23
ENDBRANCH   1  22
BRANCH   2  41
ATOM     41  O21 ZIN A   1      16.955   4.039  10.904  0.00  0.00    -0.358 OA
ATOM     42  C22 ZIN A   1      17.567   4.939   9.979  0.00  0.00     0.209 C 
ENDBRANCH   2  41
TORSDOF 13
ENDMDL
MODEL 4
REMARK VINA RESULT:      -7.1      2.768      7.134
REMARK  13 active torsions:
REMARK  status: ('A' for Active; 'I' for Inactive)
REMARK    1  A    between atoms: O2_2  and  C3_3 
REMARK    2  A    between atoms: C3_3  and  C5_5 
REMARK    3  A    between atoms: C5_5  and  C6_6 
REMARK    4  A    between atoms: C6_6  and  O7_7 
REMARK    5  A    between atoms: C6_6  and  C8_8 
REMARK    6  A    between atoms: C6_6  and  C15_15 
REMARK    7  A    between atoms: C8_8  and  C9_9 
REMARK    8  A    between atoms: C9_9  and  C10_10 
REMARK    9  A    between atoms: C10_10  and  C11_11 
REMARK   10  A    between atoms: C11_11  and  O14_14 
REMARK   11  A    between atoms: C15_15  and  O17_17 
REMARK   12  A    between atoms: O17_17  and  C18_18 
REMARK   13  A    between atoms: C20_19  and  O21_20 
ROOT
ATOM      1  C18 ZIN A   1      17.680  -3.775   9.511  0.00  0.00     0.199 C 
ATOM      2  C20 ZIN A   1      16.922  -4.790  10.353  0.00  0.00     0.074 C 
ATOM      3  C23 ZIN A   1      16.524  -5.799   9.605  0.00  0.00     0.048 C 
ATOM      4  C24 ZIN A   1      16.969  -5.582   8.156  0.00  0.00     0.158 C 
ATOM      5  C25 ZIN A   1      15.839  -6.074   7.234  0.00  0.00     0.046 C 
ATOM      6  C26 ZIN A   1      16.152  -7.575   7.024  0.00  0.00     0.030 C 
ATOM      7  C27 ZIN A   1      17.443  -7.828   7.836  0.00  0.00     0.236 C 
ATOM      8  N28 ZIN A   1      18.094  -6.482   7.911  0.00  0.00    -0.058 N 
ATOM      9  H29 ZIN A   1      18.746  -6.449   8.680  0.00  0.00     0.281 HD
ATOM     10  C30 ZIN A   1      18.776  -6.256   6.664  0.00  0.00     0.241 C 
ATOM     11  C31 ZIN A   1      19.783  -5.153   6.657  0.00  0.00     0.067 C 
ATOM     12  C32 ZIN A   1      19.181  -3.792   6.497  0.00  0.00    -0.047 A 
ATOM     13  C33 ZIN A   1      19.958  -2.909   5.728  0.00  0.00     0.047 A 
ATOM     14  C34 ZIN A   1      19.453  -1.659   5.435  0.00  0.00     0.105 A 
ATOM     15  C35 ZIN A   1      18.178  -1.289   5.892  0.00  0.00     0.105 A 
ATOM     16  C36 ZIN A   1      17.437  -2.149   6.675  0.00  0.00     0.048 A 
ATOM     17  C37 ZIN A   1      17.980  -3.404   7.022  0.00  0.00    -0.039 A 
ATOM     18  C38 ZIN A   1      17.205  -4.108   8.077  0.00  0.00     0.095 C 
ATOM     19  O40 ZIN A   1      17.900  -0.045   5.438  0.00  0.00    -0.323 OA
ATOM     20  C41 ZIN A   1      19.173   0.517   5.055  0.00  0.00     0.352 C 
ATOM     21  O42 ZIN A   1      19.981  -0.633   4.730  0.00  0.00    -0.323 OA
ENDROOT
BRANCH   1  22
ATOM     22  O17 ZIN A   1      19.113  -3.966   9.638  0.00  0.00    -0.306 OA
BRANCH  22  23
ATOM     23  C15 ZIN A   1      19.715  -3.389  10.689  0.00  0.00     0.294 C 
ATOM     24  O16 ZIN A   1      20.219  -4.075  11.548  0.00  0.00    -0.262 OA
BRANCH  23  25
ATOM     25  C6  ZIN A   1      19.761  -1.887  10.801  0.00  0.00     0.154 C 
BRANCH  25  26
ATOM     26  C5  ZIN A   1      18.723  -1.421  11.824  0.00  0.00     0.159 C 
BRANCH  26  27
ATOM     27  C3  ZIN A   1      19.422  -0.981  13.085  0.00  0.00     0.261 C 
ATOM     28  O4  ZIN A   1      19.584  -1.765  13.990  0.00  0.00    -0.265 OA
BRANCH  27  29
ATOM     29  O2  ZIN A   1      19.865   0.280  13.202  0.00  0.00    -0.326 OA
ATOM     30  C1  ZIN A   1      19.378   1.048  14.334  0.00  0.00     0.213 C 
ENDBRANCH  27  29
ENDBRANCH  26  27
ENDBRANCH  25  26
BRANCH  25  31
ATOM     31  O7  ZIN A   1      21.065  -1.481  11.226  0.00  0.00    -0.379 OA
ATOM     32  H48 ZIN A   1      21.695  -1.364  10.503  0.00  0.00     0.211 HD
ENDBRANCH  25  31
BRANCH  25  33
ATOM     33  C8  ZIN A   1      19.452  -1.264   9.439  0.00  0.00     0.049 C 
BRANCH  33  34
ATOM     34  C9  ZIN A   1      18.391  -0.174   9.606  0.00  0.00     0.006 C 
BRANCH  34  35
ATOM     35  C10 ZIN A   1      18.963   1.168   9.148  0.00  0.00     0.037 C 
BRANCH  35  36
ATOM     36  C11 ZIN A   1      18.730   2.219  10.236  0.00  0.00     0.051 C 
ATOM     37  C12 ZIN A   1      18.399   3.563   9.584  0.00  0.00     0.045 C 
ATOM     38  C13 ZIN A   1      17.564   1.783  11.125  0.00  0.00     0.045 C 
BRANCH  36  39
ATOM     39  O14 ZIN A   1      19.910   2.353  11.030  0.00  0.00    -0.391 OA
ATOM     40  H61 ZIN A   1      19.795   2.085  11.953  0.00  0.00     0.210 HD
ENDBRANCH  36  39
ENDBRANCH  35  36
ENDBRANCH  34  35
ENDBRANCH  33  34
ENDBRANCH  25  33
ENDBRANCH  23  25
ENDBRANCH  22  23
ENDBRANCH   1  22
BRANCH   2  41
ATOM     41  O21 ZIN A   1      16.691  -4.672  11.685  0.00  0.00    -0.358 OA
ATOM     42  C22 ZIN A   1      17.307  -5.640  12.537  0.00  0.00     0.209 C 
ENDBRANCH   2  41
TORSDOF 13
ENDMDL
MODEL 5
REMARK VINA RESULT:      -7.1      1.903      3.507
REMARK  13 active torsions:
REMARK  status: ('A' for Active; 'I' for Inactive)
REMARK    1  A    between atoms: O2_2  and  C3_3 
REMARK    2  A    between atoms: C3_3  and  C5_5 
REMARK    3  A    between atoms: C5_5  and  C6_6 
REMARK    4  A    between atoms: C6_6  and  O7_7 
REMARK    5  A    between atoms: C6_6  and  C8_8 
REMARK    6  A    between atoms: C6_6  and  C15_15 
REMARK    7  A    between atoms: C8_8  and  C9_9 
REMARK    8  A    between atoms: C9_9  and  C10_10 
REMARK    9  A    between atoms: C10_10  and  C11_11 
REMARK   10  A    between atoms: C11_11  and  O14_14 
REMARK   11  A    between atoms: C15_15  and  O17_17 
REMARK   12  A    between atoms: O17_17  and  C18_18 
REMARK   13  A    between atoms: C20_19  and  O21_20 
ROOT
ATOM      1  C18 ZIN A   1      17.650   0.499  11.019  0.00  0.00     0.199 C 
ATOM      2  C20 ZIN A   1      17.387   1.929  11.465  0.00  0.00     0.074 C 
ATOM      3  C23 ZIN A   1      17.576   2.045  12.764  0.00  0.00     0.048 C 
ATOM      4  C24 ZIN A   1      17.992   0.694  13.354  0.00  0.00     0.158 C 
ATOM      5  C25 ZIN A   1      17.311   0.545  14.726  0.00  0.00     0.046 C 
ATOM      6  C26 ZIN A   1      18.308   1.196  15.714  0.00  0.00     0.030 C 
ATOM      7  C27 ZIN A   1      19.490   1.662  14.834  0.00  0.00     0.236 C 
ATOM      8  N28 ZIN A   1      19.424   0.769  13.634  0.00  0.00    -0.058 N 
ATOM      9  H29 ZIN A   1      19.914   1.186  12.857  0.00  0.00     0.281 HD
ATOM     10  C30 ZIN A   1      20.027  -0.489  13.992  0.00  0.00     0.241 C 
ATOM     11  C31 ZIN A   1      20.395  -1.386  12.857  0.00  0.00     0.067 C 
ATOM     12  C32 ZIN A   1      19.242  -2.171  12.314  0.00  0.00    -0.047 A 
ATOM     13  C33 ZIN A   1      19.578  -3.471  11.900  0.00  0.00     0.047 A 
ATOM     14  C34 ZIN A   1      18.573  -4.315  11.473  0.00  0.00     0.105 A 
ATOM     15  C35 ZIN A   1      17.239  -3.878  11.469  0.00  0.00     0.105 A 
ATOM     16  C36 ZIN A   1      16.923  -2.589  11.844  0.00  0.00     0.048 A 
ATOM     17  C37 ZIN A   1      17.958  -1.709  12.224  0.00  0.00    -0.039 A 
ATOM     18  C38 ZIN A   1      17.515  -0.295  12.340  0.00  0.00     0.095 C 
ATOM     19  O40 ZIN A   1      16.451  -4.896  11.054  0.00  0.00    -0.323 OA
ATOM     20  C41 ZIN A   1      17.340  -5.828  10.402  0.00  0.00     0.352 C 
ATOM     21  O42 ZIN A   1      18.618  -5.591  11.028  0.00  0.00    -0.323 OA
ENDROOT
BRANCH   1  22
ATOM     22  O17 ZIN A   1      18.988   0.368  10.472  0.00  0.00    -0.306 OA
BRANCH  22  23
ATOM     23  C15 ZIN A   1      19.152   0.679   9.177  0.00  0.00     0.294 C 
ATOM     24  O16 ZIN A   1      19.496   1.795   8.863  0.00  0.00    -0.262 OA
BRANCH  23  25
ATOM     25  C6  ZIN A   1      18.905  -0.360   8.114  0.00  0.00     0.154 C 
BRANCH  25  26
ATOM     26  C5  ZIN A   1      18.097   0.261   6.973  0.00  0.00     0.159 C 
BRANCH  26  27
ATOM     27  C3  ZIN A   1      18.856   0.108   5.679  0.00  0.00     0.261 C 
ATOM     28  O4  ZIN A   1      19.578   0.997   5.294  0.00  0.00    -0.265 OA
BRANCH  27  29
ATOM     29  O2  ZIN A   1      18.729  -1.015   4.955  0.00  0.00    -0.326 OA
ATOM     30  C1  ZIN A   1      17.385  -1.397   4.560  0.00  0.00     0.213 C 
ENDBRANCH  27  29
ENDBRANCH  26  27
ENDBRANCH  25  26
BRANCH  25  31
ATOM     31  O7  ZIN A   1      20.157  -0.832   7.610  0.00  0.00    -0.379 OA
ATOM     32  H48 ZIN A   1      20.075  -1.529   6.945  0.00  0.00     0.211 HD
ENDBRANCH  25  31
BRANCH  25  33
ATOM     33  C8  ZIN A   1      18.124  -1.530   8.715  0.00  0.00     0.049 C 
BRANCH  33  34
ATOM     34  C9  ZIN A   1      18.889  -2.832   8.472  0.00  0.00     0.006 C 
BRANCH  34  35
ATOM     35  C10 ZIN A   1      18.115  -3.700   7.478  0.00  0.00     0.037 C 
BRANCH  35  36
ATOM     36  C11 ZIN A   1      19.091  -4.325   6.479  0.00  0.00     0.051 C 
ATOM     37  C12 ZIN A   1      19.888  -5.433   7.171  0.00  0.00     0.045 C 
ATOM     38  C13 ZIN A   1      18.309  -4.918   5.305  0.00  0.00     0.045 C 
BRANCH  36  39
ATOM     39  O14 ZIN A   1      19.987  -3.323   5.997  0.00  0.00    -0.391 OA
ATOM     40  H61 ZIN A   1      20.918  -3.588   6.011  0.00  0.00     0.210 HD
ENDBRANCH  36  39
ENDBRANCH  35  36
ENDBRANCH  34  35
ENDBRANCH  33  34
ENDBRANCH  25  33
ENDBRANCH  23  25
ENDBRANCH  22  23
ENDBRANCH   1  22
BRANCH   2  41
ATOM     41  O21 ZIN A   1      17.011   2.940  10.642  0.00  0.00    -0.358 OA
ATOM     42  C22 ZIN A   1      17.736   4.167  10.752  0.00  0.00     0.209 C 
ENDBRANCH   2  41
TORSDOF 13
ENDMDL
MODEL 6
REMARK VINA RESULT:      -7.0      3.054      6.987
REMARK  13 active torsions:
REMARK  status: ('A' for Active; 'I' for Inactive)
REMARK    1  A    between atoms: O2_2  and  C3_3 
REMARK    2  A    between atoms: C3_3  and  C5_5 
REMARK    3  A    between atoms: C5_5  and  C6_6 
REMARK    4  A    between atoms: C6_6  and  O7_7 
REMARK    5  A    between atoms: C6_6  and  C8_8 
REMARK    6  A    between atoms: C6_6  and  C15_15 
REMARK    7  A    between atoms: C8_8  and  C9_9 
REMARK    8  A    between atoms: C9_9  and  C10_10 
REMARK    9  A    between atoms: C10_10  and  C11_11 
REMARK   10  A    between atoms: C11_11  and  O14_14 
REMARK   11  A    between atoms: C15_15  and  O17_17 
REMARK   12  A    between atoms: O17_17  and  C18_18 
REMARK   13  A    between atoms: C20_19  and  O21_20 
ROOT
ATOM      1  C18 ZIN A   1      18.010   0.649  14.660  0.00  0.00     0.199 C 
ATOM      2  C20 ZIN A   1      17.890  -0.718  15.316  0.00  0.00     0.074 C 
ATOM      3  C23 ZIN A   1      18.147  -1.670  14.442  0.00  0.00     0.048 C 
ATOM      4  C24 ZIN A   1      18.472  -1.052  13.079  0.00  0.00     0.158 C 
ATOM      5  C25 ZIN A   1      17.842  -1.942  11.991  0.00  0.00     0.046 C 
ATOM      6  C26 ZIN A   1      18.935  -2.995  11.689  0.00  0.00     0.030 C 
ATOM      7  C27 ZIN A   1      20.112  -2.624  12.620  0.00  0.00     0.236 C 
ATOM      8  N28 ZIN A   1      19.916  -1.164  12.888  0.00  0.00    -0.058 N 
ATOM      9  H29 ZIN A   1      20.405  -0.891  13.728  0.00  0.00     0.281 HD
ATOM     10  C30 ZIN A   1      20.424  -0.438  11.753  0.00  0.00     0.241 C 
ATOM     11  C31 ZIN A   1      20.663   1.021  11.961  0.00  0.00     0.067 C 
ATOM     12  C32 ZIN A   1      19.423   1.854  11.851  0.00  0.00    -0.047 A 
ATOM     13  C33 ZIN A   1      19.628   3.110  11.258  0.00  0.00     0.047 A 
ATOM     14  C34 ZIN A   1      18.536   3.920  11.020  0.00  0.00     0.105 A 
ATOM     15  C35 ZIN A   1      17.246   3.481  11.355  0.00  0.00     0.105 A 
ATOM     16  C36 ZIN A   1      17.058   2.261  11.968  0.00  0.00     0.048 A 
ATOM     17  C37 ZIN A   1      18.181   1.459  12.265  0.00  0.00    -0.039 A 
ATOM     18  C38 ZIN A   1      17.867   0.313  13.157  0.00  0.00     0.095 C 
ATOM     19  O40 ZIN A   1      16.356   4.430  10.983  0.00  0.00    -0.323 OA
ATOM     20  C41 ZIN A   1      17.131   5.633  10.802  0.00  0.00     0.352 C 
ATOM     21  O42 ZIN A   1      18.452   5.154  10.473  0.00  0.00    -0.323 OA
ENDROOT
BRANCH   1  22
ATOM     22  O17 ZIN A   1      19.305   1.242  14.935  0.00  0.00    -0.306 OA
BRANCH  22  23
ATOM     23  C15 ZIN A   1      19.445   1.889  16.103  0.00  0.00     0.294 C 
ATOM     24  O16 ZIN A   1      19.783   1.282  17.093  0.00  0.00    -0.262 OA
BRANCH  23  25
ATOM     25  C6  ZIN A   1      19.178   3.369  16.181  0.00  0.00     0.154 C 
BRANCH  25  26
ATOM     26  C5  ZIN A   1      17.846   3.610  16.895  0.00  0.00     0.159 C 
BRANCH  26  27
ATOM     27  C3  ZIN A   1      18.105   4.210  18.253  0.00  0.00     0.261 C 
ATOM     28  O4  ZIN A   1      18.481   3.507  19.162  0.00  0.00    -0.265 OA
BRANCH  27  29
ATOM     29  O2  ZIN A   1      17.918   5.523  18.454  0.00  0.00    -0.326 OA
ATOM     30  C1  ZIN A   1      17.305   5.918  19.710  0.00  0.00     0.213 C 
ENDBRANCH  27  29
ENDBRANCH  26  27
ENDBRANCH  25  26
BRANCH  25  31
ATOM     31  O7  ZIN A   1      20.231   4.005  16.910  0.00  0.00    -0.379 OA
ATOM     32  H48 ZIN A   1      21.101   3.923  16.497  0.00  0.00     0.211 HD
ENDBRANCH  25  31
BRANCH  25  33
ATOM     33  C8  ZIN A   1      19.113   3.952  14.768  0.00  0.00     0.049 C 
BRANCH  33  34
ATOM     34  C9  ZIN A   1      17.870   4.835  14.638  0.00  0.00     0.006 C 
BRANCH  34  35
ATOM     35  C10 ZIN A   1      18.291   6.254  14.254  0.00  0.00     0.037 C 
BRANCH  35  36
ATOM     36  C11 ZIN A   1      17.717   7.248  15.266  0.00  0.00     0.051 C 
ATOM     37  C12 ZIN A   1      17.601   8.628  14.616  0.00  0.00     0.045 C 
ATOM     38  C13 ZIN A   1      16.331   6.777  15.712  0.00  0.00     0.045 C 
BRANCH  36  39
ATOM     39  O14 ZIN A   1      18.580   7.326  16.401  0.00  0.00    -0.391 OA
ATOM     40  H61 ZIN A   1      18.186   7.770  17.165  0.00  0.00     0.210 HD
ENDBRANCH  36  39
ENDBRANCH  35  36
ENDBRANCH  34  35
ENDBRANCH  33  34
ENDBRANCH  25  33
ENDBRANCH  23  25
ENDBRANCH  22  23
ENDBRANCH   1  22
BRANCH   2  41
ATOM     41  O21 ZIN A   1      17.565  -0.926  16.617  0.00  0.00    -0.358 OA
ATOM     42  C22 ZIN A   1      16.552  -0.086  17.175  0.00  0.00     0.209 C 
ENDBRANCH   2  41
TORSDOF 13
ENDMDL
MODEL 7
REMARK VINA RESULT:      -6.9      2.449      5.795
REMARK  13 active torsions:
REMARK  status: ('A' for Active; 'I' for Inactive)
REMARK    1  A    between atoms: O2_2  and  C3_3 
REMARK    2  A    between atoms: C3_3  and  C5_5 
REMARK    3  A    between atoms: C5_5  and  C6_6 
REMARK    4  A    between atoms: C6_6  and  O7_7 
REMARK    5  A    between atoms: C6_6  and  C8_8 
REMARK    6  A    between atoms: C6_6  and  C15_15 
REMARK    7  A    between atoms: C8_8  and  C9_9 
REMARK    8  A    between atoms: C9_9  and  C10_10 
REMARK    9  A    between atoms: C10_10  and  C11_11 
REMARK   10  A    between atoms: C11_11  and  O14_14 
REMARK   11  A    between atoms: C15_15  and  O17_17 
REMARK   12  A    between atoms: O17_17  and  C18_18 
REMARK   13  A    between atoms: C20_19  and  O21_20 
ROOT
ATOM      1  C18 ZIN A   1      17.670   3.719  13.431  0.00  0.00     0.199 C 
ATOM      2  C20 ZIN A   1      16.967   4.694  12.499  0.00  0.00     0.074 C 
ATOM      3  C23 ZIN A   1      16.729   5.831  13.122  0.00  0.00     0.048 C 
ATOM      4  C24 ZIN A   1      17.247   5.756  14.561  0.00  0.00     0.158 C 
ATOM      5  C25 ZIN A   1      16.240   6.488  15.467  0.00  0.00     0.046 C 
ATOM      6  C26 ZIN A   1      16.722   7.959  15.451  0.00  0.00     0.030 C 
ATOM      7  C27 ZIN A   1      17.973   7.957  14.544  0.00  0.00     0.236 C 
ATOM      8  N28 ZIN A   1      18.473   6.547  14.619  0.00  0.00    -0.058 N 
ATOM      9  H29 ZIN A   1      19.064   6.341  13.828  0.00  0.00     0.281 HD
ATOM     10  C30 ZIN A   1      19.212   6.410  15.847  0.00  0.00     0.241 C 
ATOM     11  C31 ZIN A   1      20.096   5.212  15.951  0.00  0.00     0.067 C 
ATOM     12  C32 ZIN A   1      19.368   3.959  16.329  0.00  0.00    -0.047 A 
ATOM     13  C33 ZIN A   1      20.100   3.103  17.168  0.00  0.00     0.047 A 
ATOM     14  C34 ZIN A   1      19.488   1.966  17.657  0.00  0.00     0.105 A 
ATOM     15  C35 ZIN A   1      18.153   1.686  17.325  0.00  0.00     0.105 A 
ATOM     16  C36 ZIN A   1      17.454   2.514  16.472  0.00  0.00     0.048 A 
ATOM     17  C37 ZIN A   1      18.100   3.644  15.927  0.00  0.00    -0.039 A 
ATOM     18  C38 ZIN A   1      17.332   4.288  14.829  0.00  0.00     0.095 C 
ATOM     19  O40 ZIN A   1      17.779   0.551  17.959  0.00  0.00    -0.323 OA
ATOM     20  C41 ZIN A   1      19.009  -0.096  18.346  0.00  0.00     0.352 C 
ATOM     21  O42 ZIN A   1      19.954   0.989  18.466  0.00  0.00    -0.323 OA
ENDROOT
BRANCH   1  22
ATOM     22  O17 ZIN A   1      19.103   3.729  13.202  0.00  0.00    -0.306 OA
BRANCH  22  23
ATOM     23  C15 ZIN A   1      19.577   2.898  12.261  0.00  0.00     0.294 C 
ATOM     24  O16 ZIN A   1      20.181   3.341  11.312  0.00  0.00    -0.262 OA
BRANCH  23  25
ATOM     25  C6  ZIN A   1      19.354   1.413  12.385  0.00  0.00     0.154 C 
BRANCH  25  26
ATOM     26  C5  ZIN A   1      19.566   0.986  13.839  0.00  0.00     0.159 C 
BRANCH  26  27
ATOM     27  C3  ZIN A   1      18.782  -0.272  14.113  0.00  0.00     0.261 C 
ATOM     28  O4  ZIN A   1      17.633  -0.201  14.479  0.00  0.00    -0.265 OA
BRANCH  27  29
ATOM     29  O2  ZIN A   1      19.360  -1.472  13.949  0.00  0.00    -0.326 OA
ATOM     30  C1  ZIN A   1      18.706  -2.402  13.046  0.00  0.00     0.213 C 
ENDBRANCH  27  29
ENDBRANCH  26  27
ENDBRANCH  25  26
BRANCH  25  31
ATOM     31  O7  ZIN A   1      18.019   1.095  11.984  0.00  0.00    -0.379 OA
ATOM     32  H48 ZIN A   1      17.553   1.826  11.557  0.00  0.00     0.211 HD
ENDBRANCH  25  31
BRANCH  25  33
ATOM     33  C8  ZIN A   1      20.346   0.671  11.487  0.00  0.00     0.049 C 
BRANCH  33  34
ATOM     34  C9  ZIN A   1      19.578  -0.185  10.478  0.00  0.00     0.006 C 
BRANCH  34  35
ATOM     35  C10 ZIN A   1      19.916   0.274   9.058  0.00  0.00     0.037 C 
BRANCH  35  36
ATOM     36  C11 ZIN A   1      18.692   0.948   8.435  0.00  0.00     0.051 C 
ATOM     37  C12 ZIN A   1      18.947   1.193   6.946  0.00  0.00     0.045 C 
ATOM     38  C13 ZIN A   1      17.472   0.040   8.600  0.00  0.00     0.045 C 
BRANCH  36  39
ATOM     39  O14 ZIN A   1      18.449   2.195   9.088  0.00  0.00    -0.391 OA
ATOM     40  H61 ZIN A   1      18.442   2.138  10.055  0.00  0.00     0.210 HD
ENDBRANCH  36  39
ENDBRANCH  35  36
ENDBRANCH  34  35
ENDBRANCH  33  34
ENDBRANCH  25  33
ENDBRANCH  23  25
ENDBRANCH  22  23
ENDBRANCH   1  22
BRANCH   2  41
ATOM     41  O21 ZIN A   1      16.633   4.430  11.211  0.00  0.00    -0.358 OA
ATOM     42  C22 ZIN A   1      17.327   5.164  10.199  0.00  0.00     0.209 C 
ENDBRANCH   2  41
TORSDOF 13
ENDMDL
MODEL 8
REMARK VINA RESULT:      -6.8      3.631      9.185
REMARK  13 active torsions:
REMARK  status: ('A' for Active; 'I' for Inactive)
REMARK    1  A    between atoms: O2_2  and  C3_3 
REMARK    2  A    between atoms: C3_3  and  C5_5 
REMARK    3  A    between atoms: C5_5  and  C6_6 
REMARK    4  A    between atoms: C6_6  and  O7_7 
REMARK    5  A    between atoms: C6_6  and  C8_8 
REMARK    6  A    between atoms: C6_6  and  C15_15 
REMARK    7  A    between atoms: C8_8  and  C9_9 
REMARK    8  A    between atoms: C9_9  and  C10_10 
REMARK    9  A    between atoms: C10_10  and  C11_11 
REMARK   10  A    between atoms: C11_11  and  O14_14 
REMARK   11  A    between atoms: C15_15  and  O17_17 
REMARK   12  A    between atoms: O17_17  and  C18_18 
REMARK   13  A    between atoms: C20_19  and  O21_20 
ROOT
ATOM      1  C18 ZIN A   1      17.768   2.744  14.636  0.00  0.00     0.199 C 
ATOM      2  C20 ZIN A   1      17.646   1.476  13.805  0.00  0.00     0.074 C 
ATOM      3  C23 ZIN A   1      17.805   1.750  12.526  0.00  0.00     0.048 C 
ATOM      4  C24 ZIN A   1      18.054   3.249  12.340  0.00  0.00     0.158 C 
ATOM      5  C25 ZIN A   1      17.317   3.699  11.066  0.00  0.00     0.046 C 
ATOM      6  C26 ZIN A   1      18.346   3.466   9.934  0.00  0.00     0.030 C 
ATOM      7  C27 ZIN A   1      19.599   2.908  10.647  0.00  0.00     0.236 C 
ATOM      8  N28 ZIN A   1      19.476   3.417  12.049  0.00  0.00    -0.058 N 
ATOM      9  H29 ZIN A   1      20.033   2.857  12.678  0.00  0.00     0.281 HD
ATOM     10  C30 ZIN A   1      19.928   4.784  12.060  0.00  0.00     0.241 C 
ATOM     11  C31 ZIN A   1      20.234   5.363  13.401  0.00  0.00     0.067 C 
ATOM     12  C32 ZIN A   1      19.021   5.831  14.144  0.00  0.00    -0.047 A 
ATOM     13  C33 ZIN A   1      19.229   6.992  14.907  0.00  0.00     0.047 A 
ATOM     14  C34 ZIN A   1      18.154   7.565  15.554  0.00  0.00     0.105 A 
ATOM     15  C35 ZIN A   1      16.875   6.997  15.436  0.00  0.00     0.105 A 
ATOM     16  C36 ZIN A   1      16.687   5.838  14.714  0.00  0.00     0.048 A 
ATOM     17  C37 ZIN A   1      17.798   5.221  14.101  0.00  0.00    -0.039 A 
ATOM     18  C38 ZIN A   1      17.507   3.856  13.592  0.00  0.00     0.095 C 
ATOM     19  O40 ZIN A   1      15.996   7.765  16.121  0.00  0.00    -0.323 OA
ATOM     20  C41 ZIN A   1      16.800   8.570  17.009  0.00  0.00     0.352 C 
ATOM     21  O42 ZIN A   1      18.076   8.662  16.341  0.00  0.00    -0.323 OA
ENDROOT
BRANCH   1  22
ATOM     22  O17 ZIN A   1      19.101   2.867  15.197  0.00  0.00    -0.306 OA
BRANCH  22  23
ATOM     23  C15 ZIN A   1      19.192   3.019  16.527  0.00  0.00     0.294 C 
ATOM     24  O16 ZIN A   1      19.419   4.110  16.996  0.00  0.00    -0.262 OA
BRANCH  23  25
ATOM     25  C6  ZIN A   1      19.011   1.832  17.437  0.00  0.00     0.154 C 
BRANCH  25  26
ATOM     26  C5  ZIN A   1      19.435   0.559  16.702  0.00  0.00     0.159 C 
BRANCH  26  27
ATOM     27  C3  ZIN A   1      19.052  -0.647  17.523  0.00  0.00     0.261 C 
ATOM     28  O4  ZIN A   1      19.389  -0.720  18.681  0.00  0.00    -0.265 OA
BRANCH  27  29
ATOM     29  O2  ZIN A   1      18.338  -1.638  16.967  0.00  0.00    -0.326 OA
ATOM     30  C1  ZIN A   1      16.893  -1.499  16.986  0.00  0.00     0.213 C 
ENDBRANCH  27  29
ENDBRANCH  26  27
ENDBRANCH  25  26
BRANCH  25  31
ATOM     31  O7  ZIN A   1      19.818   1.999  18.605  0.00  0.00    -0.379 OA
ATOM     32  H48 ZIN A   1      20.747   2.192  18.417  0.00  0.00     0.211 HD
ENDBRANCH  25  31
BRANCH  25  33
ATOM     33  C8  ZIN A   1      17.541   1.719  17.845  0.00  0.00     0.049 C 
BRANCH  33  34
ATOM     34  C9  ZIN A   1      17.386   2.129  19.311  0.00  0.00     0.006 C 
BRANCH  34  35
ATOM     35  C10 ZIN A   1      16.475   3.354  19.404  0.00  0.00     0.037 C 
BRANCH  35  36
ATOM     36  C11 ZIN A   1      17.285   4.557  19.892  0.00  0.00     0.051 C 
ATOM     37  C12 ZIN A   1      17.188   5.687  18.865  0.00  0.00     0.045 C 
ATOM     38  C13 ZIN A   1      16.727   5.038  21.232  0.00  0.00     0.045 C 
BRANCH  36  39
ATOM     39  O14 ZIN A   1      18.652   4.177  20.055  0.00  0.00    -0.391 OA
ATOM     40  H61 ZIN A   1      18.776   3.361  20.561  0.00  0.00     0.210 HD
ENDBRANCH  36  39
ENDBRANCH  35  36
ENDBRANCH  34  35
ENDBRANCH  33  34
ENDBRANCH  25  33
ENDBRANCH  23  25
ENDBRANCH  22  23
ENDBRANCH   1  22
BRANCH   2  41
ATOM     41  O21 ZIN A   1      17.408   0.240  14.311  0.00  0.00    -0.358 OA
ATOM     42  C22 ZIN A   1      18.033  -0.862  13.649  0.00  0.00     0.209 C 
ENDBRANCH   2  41
TORSDOF 13
ENDMDL
MODEL 9
REMARK VINA RESULT:      -6.7      2.453      7.600
REMARK  13 active torsions:
REMARK  status: ('A' for Active; 'I' for Inactive)
REMARK    1  A    between atoms: O2_2  and  C3_3 
REMARK    2  A    between atoms: C3_3  and  C5_5 
REMARK    3  A    between atoms: C5_5  and  C6_6 
REMARK    4  A    between atoms: C6_6  and  O7_7 
REMARK    5  A    between atoms: C6_6  and  C8_8 
REMARK    6  A    between atoms: C6_6  and  C15_15 
REMARK    7  A    between atoms: C8_8  and  C9_9 
REMARK    8  A    between atoms: C9_9  and  C10_10 
REMARK    9  A    between atoms: C10_10  and  C11_11 
REMARK   10  A    between atoms: C11_11  and  O14_14 
REMARK   11  A    between atoms: C15_15  and  O17_17 
REMARK   12  A    between atoms: O17_17  and  C18_18 
REMARK   13  A    between atoms: C20_19  and  O21_20 
ROOT
ATOM      1  C18 ZIN A   1      17.648  -0.720  11.506  0.00  0.00     0.199 C 
ATOM      2  C20 ZIN A   1      17.351  -2.076  10.887  0.00  0.00     0.074 C 
ATOM      3  C23 ZIN A   1      17.488  -2.021   9.577  0.00  0.00     0.048 C 
ATOM      4  C24 ZIN A   1      17.896  -0.607   9.155  0.00  0.00     0.158 C 
ATOM      5  C25 ZIN A   1      17.163  -0.273   7.842  0.00  0.00     0.046 C 
ATOM      6  C26 ZIN A   1      18.114  -0.795   6.738  0.00  0.00     0.030 C 
ATOM      7  C27 ZIN A   1      19.324  -1.381   7.501  0.00  0.00     0.236 C 
ATOM      8  N28 ZIN A   1      19.315  -0.653   8.809  0.00  0.00    -0.058 N 
ATOM      9  H29 ZIN A   1      19.831  -1.172   9.505  0.00  0.00     0.281 HD
ATOM     10  C30 ZIN A   1      19.918   0.637   8.596  0.00  0.00     0.241 C 
ATOM     11  C31 ZIN A   1      20.340   1.375   9.824  0.00  0.00     0.067 C 
ATOM     12  C32 ZIN A   1      19.218   2.088  10.512  0.00  0.00    -0.047 A 
ATOM     13  C33 ZIN A   1      19.585   3.320  11.079  0.00  0.00     0.047 A 
ATOM     14  C34 ZIN A   1      18.607   4.106  11.653  0.00  0.00     0.105 A 
ATOM     15  C35 ZIN A   1      17.269   3.681  11.654  0.00  0.00     0.105 A 
ATOM     16  C36 ZIN A   1      16.924   2.455  11.125  0.00  0.00     0.048 A 
ATOM     17  C37 ZIN A   1      17.933   1.626  10.591  0.00  0.00    -0.039 A 
ATOM     18  C38 ZIN A   1      17.471   0.243  10.308  0.00  0.00     0.095 C 
ATOM     19  O40 ZIN A   1      16.510   4.641  12.230  0.00  0.00    -0.323 OA
ATOM     20  C41 ZIN A   1      17.434   5.472  12.963  0.00  0.00     0.352 C 
ATOM     21  O42 ZIN A   1      18.684   5.312  12.261  0.00  0.00    -0.323 OA
ENDROOT
BRANCH   1  22
ATOM     22  O17 ZIN A   1      19.008  -0.670  12.012  0.00  0.00    -0.306 OA
BRANCH  22  23
ATOM     23  C15 ZIN A   1      19.226  -1.193  13.228  0.00  0.00     0.294 C 
ATOM     24  O16 ZIN A   1      19.601  -2.338  13.334  0.00  0.00    -0.262 OA
BRANCH  23  25
ATOM     25  C6  ZIN A   1      19.004  -0.357  14.461  0.00  0.00     0.154 C 
BRANCH  25  26
ATOM     26  C5  ZIN A   1      17.548  -0.491  14.911  0.00  0.00     0.159 C 
BRANCH  26  27
ATOM     27  C3  ZIN A   1      17.506  -0.874  16.369  0.00  0.00     0.261 C 
ATOM     28  O4  ZIN A   1      17.563  -2.037  16.690  0.00  0.00    -0.265 OA
BRANCH  27  29
ATOM     29  O2  ZIN A   1      17.405   0.078  17.310  0.00  0.00    -0.326 OA
ATOM     30  C1  ZIN A   1      18.292  -0.030  18.455  0.00  0.00     0.213 C 
ENDBRANCH  27  29
ENDBRANCH  26  27
ENDBRANCH  25  26
BRANCH  25  31
ATOM     31  O7  ZIN A   1      19.869  -0.807  15.505  0.00  0.00    -0.379 OA
ATOM     32  H48 ZIN A   1      20.653  -1.277  15.191  0.00  0.00     0.211 HD
ENDBRANCH  25  31
BRANCH  25  33
ATOM     33  C8  ZIN A   1      19.306   1.109  14.145  0.00  0.00     0.049 C 
BRANCH  33  34
ATOM     34  C9  ZIN A   1      19.406   1.902  15.449  0.00  0.00     0.006 C 
BRANCH  34  35
ATOM     35  C10 ZIN A   1      19.273   3.396  15.149  0.00  0.00     0.037 C 
BRANCH  35  36
ATOM     36  C11 ZIN A   1      19.620   4.201  16.404  0.00  0.00     0.051 C 
ATOM     37  C12 ZIN A   1      18.985   5.590  16.310  0.00  0.00     0.045 C 
ATOM     38  C13 ZIN A   1      19.080   3.477  17.639  0.00  0.00     0.045 C 
BRANCH  36  39
ATOM     39  O14 ZIN A   1      21.038   4.331  16.511  0.00  0.00    -0.391 OA
ATOM     40  H61 ZIN A   1      21.533   3.648  16.035  0.00  0.00     0.210 HD
ENDBRANCH  36  39
ENDBRANCH  35  36
ENDBRANCH  34  35
ENDBRANCH  33  34
ENDBRANCH  25  33
ENDBRANCH  23  25
ENDBRANCH  22  23
ENDBRANCH   1  22
BRANCH   2  41
ATOM     41  O21 ZIN A   1      16.996  -3.185  11.584  0.00  0.00    -0.358 OA
ATOM     42  C22 ZIN A   1      17.548  -4.429  11.147  0.00  0.00     0.209 C 
ENDBRANCH   2  41
TORSDOF 13
ENDMDL
