MODEL 1
REMARK VINA RESULT:      -7.4      0.000      0.000
REMARK  10 active torsions:
REMARK  status: ('A' for Active; 'I' for Inactive)
REMARK    1  A    between atoms: O2_2  and  C3_3 
REMARK    2  A    between atoms: C5_5  and  C6_6 
REMARK       I    between atoms: C6_6  and  N8_8 
REMARK    3  A    between atoms: N8_8  and  C9_9 
REMARK    4  A    between atoms: C9_9  and  C10_10 
REMARK    5  A    between atoms: C13_13  and  O14_14 
REMARK    6  A    between atoms: O14_14  and  C15_15 
REMARK    7  A    between atoms: C15_15  and  C16_16 
REMARK    8  A    between atoms: C16_16  and  N17_17 
REMARK    9  A    between atoms: C24_24  and  O25_25 
REMARK   10  A    between atoms: C27_27  and  O28_28 
ROOT
ATOM      1  C6  <0> d   1      19.253  -1.741   5.821  0.00  0.00     0.252 C 
ATOM      2  O7  <0> d   1      19.747  -1.225   4.838  0.00  0.00    -0.268 OA
ATOM      3  N8  <0> d   1      18.913  -0.982   6.882  0.00  0.00    -0.353 N 
ATOM      4  H34 <0> d   1      18.519  -1.394   7.667  0.00  0.00     0.163 HD
ENDROOT
BRANCH   3   5
ATOM      5  C9  <0> d   1      19.140   0.465   6.850  0.00  0.00     0.161 C 
BRANCH   5   6
ATOM      6  C10 <0> d   1      18.655   1.077   8.138  0.00  0.00    -0.040 A 
ATOM      7  C22 <0> d   1      19.095   2.333   8.515  0.00  0.00     0.011 A 
ATOM      8  C21 <0> d   1      18.647   2.899   9.693  0.00  0.00     0.037 A 
ATOM      9  C13 <0> d   1      17.763   2.200  10.505  0.00  0.00     0.068 A 
ATOM     10  C12 <0> d   1      17.327   0.939  10.126  0.00  0.00     0.037 A 
ATOM     11  C11 <0> d   1      17.773   0.380   8.945  0.00  0.00     0.011 A 
BRANCH   9  12
ATOM     12  O14 <0> d   1      17.325   2.753  11.666  0.00  0.00    -0.350 OA
BRANCH  12  13
ATOM     13  C15 <0> d   1      17.955   2.316  12.871  0.00  0.00     0.203 C 
BRANCH  13  14
ATOM     14  C16 <0> d   1      17.974   3.464  13.883  0.00  0.00     0.260 C 
BRANCH  14  15
ATOM     15  N17 <0> d   1      17.916   2.918  15.245  0.00  0.00    -0.077 N 
ATOM     16  H18 <0> d   1      16.960   2.919  15.567  0.00  0.00     0.279 HD
ATOM     17  C19 <0> d   1      18.429   1.540  15.242  0.00  0.00     0.269 C 
ATOM     18  C20 <0> d   1      18.737   3.744  16.140  0.00  0.00     0.269 C 
ENDBRANCH  14  15
ENDBRANCH  13  14
ENDBRANCH  12  13
ENDBRANCH   9  12
ENDBRANCH   5   6
ENDBRANCH   3   5
BRANCH   1  19
ATOM     19  C5  <0> d   1      19.025  -3.199   5.853  0.00  0.00     0.037 A 
ATOM     20  C4  <0> d   1      19.727  -3.996   6.761  0.00  0.00     0.057 A 
ATOM     21  C3  <0> d   1      19.512  -5.362   6.789  0.00  0.00     0.105 A 
ATOM     22  C27 <0> d   1      18.603  -5.944   5.910  0.00  0.00     0.135 A 
ATOM     23  C24 <0> d   1      17.899  -5.150   5.008  0.00  0.00     0.105 A 
ATOM     24  C23 <0> d   1      18.109  -3.784   4.976  0.00  0.00     0.057 A 
BRANCH  21  25
ATOM     25  O2  <0> d   1      20.194  -6.138   7.673  0.00  0.00    -0.353 OA
ATOM     26  C1  <0> d   1      20.096  -5.788   9.055  0.00  0.00     0.210 C 
ENDBRANCH  21  25
BRANCH  22  27
ATOM     27  O28 <0> d   1      18.394  -7.286   5.939  0.00  0.00    -0.351 OA
ATOM     28  C29 <0> d   1      17.386  -7.766   6.832  0.00  0.00     0.210 C 
ENDBRANCH  22  27
BRANCH  23  29
ATOM     29  O25 <0> d   1      17.007  -5.721   4.154  0.00  0.00    -0.353 OA
ATOM     30  C26 <0> d   1      15.950  -4.889   3.668  0.00  0.00     0.210 C 
ENDBRANCH  23  29
ENDBRANCH   1  19
TORSDOF 10
ENDMDL
MODEL 2
REMARK VINA RESULT:      -7.4      1.268      2.912
REMARK  10 active torsions:
REMARK  status: ('A' for Active; 'I' for Inactive)
REMARK    1  A    between atoms: O2_2  and  C3_3 
REMARK    2  A    between atoms: C5_5  and  C6_6 
REMARK       I    between atoms: C6_6  and  N8_8 
REMARK    3  A    between atoms: N8_8  and  C9_9 
REMARK    4  A    between atoms: C9_9  and  C10_10 
REMARK    5  A    between atoms: C13_13  and  O14_14 
REMARK    6  A    between atoms: O14_14  and  C15_15 
REMARK    7  A    between atoms: C15_15  and  C16_16 
REMARK    8  A    between atoms: C16_16  and  N17_17 
REMARK    9  A    between atoms: C24_24  and  O25_25 
REMARK   10  A    between atoms: C27_27  and  O28_28 
ROOT
ATOM      1  C6  <0> d   1      19.180  -1.786   5.555  0.00  0.00     0.252 C 
ATOM      2  O7  <0> d   1      19.875  -1.274   4.700  0.00  0.00    -0.268 OA
ATOM      3  N8  <0> d   1      18.695  -1.038   6.566  0.00  0.00    -0.353 N 
ATOM      4  H34 <0> d   1      18.141  -1.447   7.250  0.00  0.00     0.163 HD
ENDROOT
BRANCH   3   5
ATOM      5  C9  <0> d   1      19.005   0.393   6.633  0.00  0.00     0.161 C 
BRANCH   5   6
ATOM      6  C10 <0> d   1      18.583   0.935   7.973  0.00  0.00    -0.040 A 
ATOM      7  C22 <0> d   1      17.769   0.181   8.799  0.00  0.00     0.011 A 
ATOM      8  C21 <0> d   1      17.385   0.675  10.031  0.00  0.00     0.037 A 
ATOM      9  C13 <0> d   1      17.809   1.934  10.435  0.00  0.00     0.068 A 
ATOM     10  C12 <0> d   1      18.621   2.690   9.602  0.00  0.00     0.037 A 
ATOM     11  C11 <0> d   1      19.006   2.189   8.374  0.00  0.00     0.011 A 
BRANCH   9  12
ATOM     12  O14 <0> d   1      17.429   2.423  11.644  0.00  0.00    -0.350 OA
BRANCH  12  13
ATOM     13  C15 <0> d   1      17.777   1.652  12.795  0.00  0.00     0.203 C 
BRANCH  13  14
ATOM     14  C16 <0> d   1      19.169   2.062  13.282  0.00  0.00     0.260 C 
BRANCH  14  15
ATOM     15  N17 <0> d   1      20.010   0.867  13.425  0.00  0.00    -0.077 N 
ATOM     16  H18 <0> d   1      20.681   1.014  14.164  0.00  0.00     0.279 HD
ATOM     17  C19 <0> d   1      19.164  -0.290  13.755  0.00  0.00     0.269 C 
ATOM     18  C20 <0> d   1      20.718   0.612  12.164  0.00  0.00     0.269 C 
ENDBRANCH  14  15
ENDBRANCH  13  14
ENDBRANCH  12  13
ENDBRANCH   9  12
ENDBRANCH   5   6
ENDBRANCH   3   5
BRANCH   1  19
ATOM     19  C5  <0> d   1      18.869  -3.227   5.489  0.00  0.00     0.037 A 
ATOM     20  C4  <0> d   1      18.097  -3.729   4.437  0.00  0.00     0.057 A 
ATOM     21  C3  <0> d   1      17.806  -5.079   4.378  0.00  0.00     0.105 A 
ATOM     22  C27 <0> d   1      18.275  -5.938   5.367  0.00  0.00     0.135 A 
ATOM     23  C24 <0> d   1      19.049  -5.442   6.413  0.00  0.00     0.105 A 
ATOM     24  C23 <0> d   1      19.343  -4.093   6.477  0.00  0.00     0.057 A 
BRANCH  21  25
ATOM     25  O2  <0> d   1      17.055  -5.567   3.354  0.00  0.00    -0.353 OA
ATOM     26  C1  <0> d   1      17.709  -5.739   2.095  0.00  0.00     0.210 C 
ENDBRANCH  21  25
BRANCH  22  27
ATOM     27  O28 <0> d   1      17.987  -7.265   5.307  0.00  0.00    -0.351 OA
ATOM     28  C29 <0> d   1      16.768  -7.692   5.917  0.00  0.00     0.210 C 
ENDBRANCH  22  27
BRANCH  23  29
ATOM     29  O25 <0> d   1      19.511  -6.285   7.376  0.00  0.00    -0.353 OA
ATOM     30  C26 <0> d   1      18.885  -6.210   8.659  0.00  0.00     0.210 C 
ENDBRANCH  23  29
ENDBRANCH   1  19
TORSDOF 10
ENDMDL
MODEL 3
REMARK VINA RESULT:      -7.2      2.676      9.849
REMARK  10 active torsions:
REMARK  status: ('A' for Active; 'I' for Inactive)
REMARK    1  A    between atoms: O2_2  and  C3_3 
REMARK    2  A    between atoms: C5_5  and  C6_6 
REMARK       I    between atoms: C6_6  and  N8_8 
REMARK    3  A    between atoms: N8_8  and  C9_9 
REMARK    4  A    between atoms: C9_9  and  C10_10 
REMARK    5  A    between atoms: C13_13  and  O14_14 
REMARK    6  A    between atoms: O14_14  and  C15_15 
REMARK    7  A    between atoms: C15_15  and  C16_16 
REMARK    8  A    between atoms: C16_16  and  N17_17 
REMARK    9  A    between atoms: C24_24  and  O25_25 
REMARK   10  A    between atoms: C27_27  and  O28_28 
ROOT
ATOM      1  C6  <0> d   1      18.079   3.166  12.246  0.00  0.00     0.252 C 
ATOM      2  O7  <0> d   1      17.048   3.773  12.036  0.00  0.00    -0.268 OA
ATOM      3  N8  <0> d   1      18.846   2.761  11.214  0.00  0.00    -0.353 N 
ATOM      4  H34 <0> d   1      19.669   2.275  11.382  0.00  0.00     0.163 HD
ENDROOT
BRANCH   3   5
ATOM      5  C9  <0> d   1      18.436   3.053   9.838  0.00  0.00     0.161 C 
BRANCH   5   6
ATOM      6  C10 <0> d   1      18.406   1.776   9.041  0.00  0.00    -0.040 A 
ATOM      7  C22 <0> d   1      19.085   1.696   7.838  0.00  0.00     0.011 A 
ATOM      8  C21 <0> d   1      19.063   0.523   7.108  0.00  0.00     0.037 A 
ATOM      9  C13 <0> d   1      18.350  -0.572   7.577  0.00  0.00     0.068 A 
ATOM     10  C12 <0> d   1      17.666  -0.487   8.781  0.00  0.00     0.037 A 
ATOM     11  C11 <0> d   1      17.696   0.686   9.510  0.00  0.00     0.011 A 
BRANCH   9  12
ATOM     12  O14 <0> d   1      18.324  -1.725   6.858  0.00  0.00    -0.350 OA
BRANCH  12  13
ATOM     13  C15 <0> d   1      19.435  -2.609   7.008  0.00  0.00     0.203 C 
BRANCH  13  14
ATOM     14  C16 <0> d   1      18.961  -3.924   7.631  0.00  0.00     0.260 C 
BRANCH  14  15
ATOM     15  N17 <0> d   1      19.765  -4.219   8.824  0.00  0.00    -0.077 N 
ATOM     16  H18 <0> d   1      20.675  -3.793   8.730  0.00  0.00     0.279 HD
ATOM     17  C19 <0> d   1      19.092  -3.679  10.014  0.00  0.00     0.269 C 
ATOM     18  C20 <0> d   1      19.917  -5.673   8.965  0.00  0.00     0.269 C 
ENDBRANCH  14  15
ENDBRANCH  13  14
ENDBRANCH  12  13
ENDBRANCH   9  12
ENDBRANCH   5   6
ENDBRANCH   3   5
BRANCH   1  19
ATOM     19  C5  <0> d   1      18.493   2.870  13.632  0.00  0.00     0.037 A 
ATOM     20  C4  <0> d   1      18.677   1.546  14.040  0.00  0.00     0.057 A 
ATOM     21  C3  <0> d   1      19.064   1.272  15.338  0.00  0.00     0.105 A 
ATOM     22  C27 <0> d   1      19.262   2.312  16.242  0.00  0.00     0.135 A 
ATOM     23  C24 <0> d   1      19.083   3.632  15.837  0.00  0.00     0.105 A 
ATOM     24  C23 <0> d   1      18.698   3.912  14.539  0.00  0.00     0.057 A 
BRANCH  21  25
ATOM     25  O2  <0> d   1      19.245  -0.016  15.735  0.00  0.00    -0.353 OA
ATOM     26  C1  <0> d   1      19.177  -1.023  14.723  0.00  0.00     0.210 C 
ENDBRANCH  21  25
BRANCH  22  27
ATOM     27  O28 <0> d   1      19.641   2.040  17.518  0.00  0.00    -0.351 OA
ATOM     28  C29 <0> d   1      18.600   1.794  18.465  0.00  0.00     0.210 C 
ENDBRANCH  22  27
BRANCH  23  29
ATOM     29  O25 <0> d   1      19.283   4.647  16.720  0.00  0.00    -0.353 OA
ATOM     30  C26 <0> d   1      19.658   5.915  16.178  0.00  0.00     0.210 C 
ENDBRANCH  23  29
ENDBRANCH   1  19
TORSDOF 10
ENDMDL
MODEL 4
REMARK VINA RESULT:      -7.2      1.939      2.697
REMARK  10 active torsions:
REMARK  status: ('A' for Active; 'I' for Inactive)
REMARK    1  A    between atoms: O2_2  and  C3_3 
REMARK    2  A    between atoms: C5_5  and  C6_6 
REMARK       I    between atoms: C6_6  and  N8_8 
REMARK    3  A    between atoms: N8_8  and  C9_9 
REMARK    4  A    between atoms: C9_9  and  C10_10 
REMARK    5  A    between atoms: C13_13  and  O14_14 
REMARK    6  A    between atoms: O14_14  and  C15_15 
REMARK    7  A    between atoms: C15_15  and  C16_16 
REMARK    8  A    between atoms: C16_16  and  N17_17 
REMARK    9  A    between atoms: C24_24  and  O25_25 
REMARK   10  A    between atoms: C27_27  and  O28_28 
ROOT
ATOM      1  C6  <0> d   1      18.646  -1.732   4.973  0.00  0.00     0.252 C 
ATOM      2  O7  <0> d   1      19.662  -1.428   4.380  0.00  0.00    -0.268 OA
ATOM      3  N8  <0> d   1      18.111  -0.884   5.872  0.00  0.00    -0.353 N 
ATOM      4  H34 <0> d   1      17.300  -1.127   6.347  0.00  0.00     0.163 HD
ENDROOT
BRANCH   3   5
ATOM      5  C9  <0> d   1      18.752   0.407   6.134  0.00  0.00     0.161 C 
BRANCH   5   6
ATOM      6  C10 <0> d   1      18.557   0.781   7.580  0.00  0.00    -0.040 A 
ATOM      7  C22 <0> d   1      17.657   0.078   8.360  0.00  0.00     0.011 A 
ATOM      8  C21 <0> d   1      17.480   0.415   9.688  0.00  0.00     0.037 A 
ATOM      9  C13 <0> d   1      18.199   1.469  10.236  0.00  0.00     0.068 A 
ATOM     10  C12 <0> d   1      19.097   2.176   9.450  0.00  0.00     0.037 A 
ATOM     11  C11 <0> d   1      19.274   1.831   8.125  0.00  0.00     0.011 A 
BRANCH   9  12
ATOM     12  O14 <0> d   1      18.023   1.806  11.541  0.00  0.00    -0.350 OA
BRANCH  12  13
ATOM     13  C15 <0> d   1      18.162   0.761  12.505  0.00  0.00     0.203 C 
BRANCH  13  14
ATOM     14  C16 <0> d   1      19.642   0.583  12.854  0.00  0.00     0.260 C 
BRANCH  14  15
ATOM     15  N17 <0> d   1      19.903  -0.827  13.174  0.00  0.00    -0.077 N 
ATOM     16  H18 <0> d   1      20.894  -1.007  13.117  0.00  0.00     0.279 HD
ATOM     17  C19 <0> d   1      19.430  -1.116  14.535  0.00  0.00     0.269 C 
ATOM     18  C20 <0> d   1      19.194  -1.685  12.216  0.00  0.00     0.269 C 
ENDBRANCH  14  15
ENDBRANCH  13  14
ENDBRANCH  12  13
ENDBRANCH   9  12
ENDBRANCH   5   6
ENDBRANCH   3   5
BRANCH   1  19
ATOM     19  C5  <0> d   1      18.000  -3.033   4.710  0.00  0.00     0.037 A 
ATOM     20  C4  <0> d   1      18.515  -4.199   5.284  0.00  0.00     0.057 A 
ATOM     21  C3  <0> d   1      17.907  -5.416   5.036  0.00  0.00     0.105 A 
ATOM     22  C27 <0> d   1      16.788  -5.482   4.210  0.00  0.00     0.135 A 
ATOM     23  C24 <0> d   1      16.271  -4.321   3.642  0.00  0.00     0.105 A 
ATOM     24  C23 <0> d   1      16.873  -3.102   3.887  0.00  0.00     0.057 A 
BRANCH  21  25
ATOM     25  O2  <0> d   1      18.407  -6.551   5.594  0.00  0.00    -0.353 OA
ATOM     26  C1  <0> d   1      18.043  -6.822   6.949  0.00  0.00     0.210 C 
ENDBRANCH  21  25
BRANCH  22  27
ATOM     27  O28 <0> d   1      16.194  -6.680   3.967  0.00  0.00    -0.351 OA
ATOM     28  C29 <0> d   1      16.692  -7.438   2.863  0.00  0.00     0.210 C 
ENDBRANCH  22  27
BRANCH  23  29
ATOM     29  O25 <0> d   1      15.173  -4.388   2.840  0.00  0.00    -0.353 OA
ATOM     30  C26 <0> d   1      15.394  -4.306   1.430  0.00  0.00     0.210 C 
ENDBRANCH  23  29
ENDBRANCH   1  19
TORSDOF 10
ENDMDL
MODEL 5
REMARK VINA RESULT:      -7.1      2.803      9.906
REMARK  10 active torsions:
REMARK  status: ('A' for Active; 'I' for Inactive)
REMARK    1  A    between atoms: O2_2  and  C3_3 
REMARK    2  A    between atoms: C5_5  and  C6_6 
REMARK       I    between atoms: C6_6  and  N8_8 
REMARK    3  A    between atoms: N8_8  and  C9_9 
REMARK    4  A    between atoms: C9_9  and  C10_10 
REMARK    5  A    between atoms: C13_13  and  O14_14 
REMARK    6  A    between atoms: O14_14  and  C15_15 
REMARK    7  A    between atoms: C15_15  and  C16_16 
REMARK    8  A    between atoms: C16_16  and  N17_17 
REMARK    9  A    between atoms: C24_24  and  O25_25 
REMARK   10  A    between atoms: C27_27  and  O28_28 
ROOT
ATOM      1  C6  <0> d   1      18.270   2.999  12.073  0.00  0.00     0.252 C 
ATOM      2  O7  <0> d   1      17.133   3.294  11.765  0.00  0.00    -0.268 OA
ATOM      3  N8  <0> d   1      19.180   2.729  11.116  0.00  0.00    -0.353 N 
ATOM      4  H34 <0> d   1      20.088   2.493  11.362  0.00  0.00     0.163 HD
ENDROOT
BRANCH   3   5
ATOM      5  C9  <0> d   1      18.797   2.792   9.703  0.00  0.00     0.161 C 
BRANCH   5   6
ATOM      6  C10 <0> d   1      18.985   1.438   9.071  0.00  0.00    -0.040 A 
ATOM      7  C22 <0> d   1      19.437   0.376   9.834  0.00  0.00     0.011 A 
ATOM      8  C21 <0> d   1      19.605  -0.868   9.258  0.00  0.00     0.037 A 
ATOM      9  C13 <0> d   1      19.330  -1.050   7.909  0.00  0.00     0.068 A 
ATOM     10  C12 <0> d   1      18.881   0.018   7.145  0.00  0.00     0.037 A 
ATOM     11  C11 <0> d   1      18.710   1.258   7.728  0.00  0.00     0.011 A 
BRANCH   9  12
ATOM     12  O14 <0> d   1      19.500  -2.272   7.340  0.00  0.00    -0.350 OA
BRANCH  12  13
ATOM     13  C15 <0> d   1      18.546  -3.281   7.673  0.00  0.00     0.203 C 
BRANCH  13  14
ATOM     14  C16 <0> d   1      19.269  -4.489   8.275  0.00  0.00     0.260 C 
BRANCH  14  15
ATOM     15  N17 <0> d   1      18.746  -4.752   9.622  0.00  0.00    -0.077 N 
ATOM     16  H18 <0> d   1      18.519  -5.731   9.709  0.00  0.00     0.279 HD
ATOM     17  C19 <0> d   1      19.763  -4.394  10.621  0.00  0.00     0.269 C 
ATOM     18  C20 <0> d   1      17.537  -3.947   9.843  0.00  0.00     0.269 C 
ENDBRANCH  14  15
ENDBRANCH  13  14
ENDBRANCH  12  13
ENDBRANCH   9  12
ENDBRANCH   5   6
ENDBRANCH   3   5
BRANCH   1  19
ATOM     19  C5  <0> d   1      18.656   2.935  13.496  0.00  0.00     0.037 A 
ATOM     20  C4  <0> d   1      19.029   4.100  14.173  0.00  0.00     0.057 A 
ATOM     21  C3  <0> d   1      19.391   4.037  15.506  0.00  0.00     0.105 A 
ATOM     22  C27 <0> d   1      19.390   2.815  16.173  0.00  0.00     0.135 A 
ATOM     23  C24 <0> d   1      19.015   1.654  15.501  0.00  0.00     0.105 A 
ATOM     24  C23 <0> d   1      18.652   1.711  14.169  0.00  0.00     0.057 A 
BRANCH  21  25
ATOM     25  O2  <0> d   1      19.753   5.170  16.165  0.00  0.00    -0.353 OA
ATOM     26  C1  <0> d   1      20.864   5.900  15.640  0.00  0.00     0.210 C 
ENDBRANCH  21  25
BRANCH  22  27
ATOM     27  O28 <0> d   1      19.747   2.756  17.483  0.00  0.00    -0.351 OA
ATOM     28  C29 <0> d   1      18.712   2.965  18.446  0.00  0.00     0.210 C 
ENDBRANCH  22  27
BRANCH  23  29
ATOM     29  O25 <0> d   1      19.010   0.462  16.157  0.00  0.00    -0.353 OA
ATOM     30  C26 <0> d   1      18.653  -0.695  15.397  0.00  0.00     0.210 C 
ENDBRANCH  23  29
ENDBRANCH   1  19
TORSDOF 10
ENDMDL
MODEL 6
REMARK VINA RESULT:      -7.1      2.548      5.338
REMARK  10 active torsions:
REMARK  status: ('A' for Active; 'I' for Inactive)
REMARK    1  A    between atoms: O2_2  and  C3_3 
REMARK    2  A    between atoms: C5_5  and  C6_6 
REMARK       I    between atoms: C6_6  and  N8_8 
REMARK    3  A    between atoms: N8_8  and  C9_9 
REMARK    4  A    between atoms: C9_9  and  C10_10 
REMARK    5  A    between atoms: C13_13  and  O14_14 
REMARK    6  A    between atoms: O14_14  and  C15_15 
REMARK    7  A    between atoms: C15_15  and  C16_16 
REMARK    8  A    between atoms: C16_16  and  N17_17 
REMARK    9  A    between atoms: C24_24  and  O25_25 
REMARK   10  A    between atoms: C27_27  and  O28_28 
ROOT
ATOM      1  C6  <0> d   1      18.586  -2.556  10.285  0.00  0.00     0.252 C 
ATOM      2  O7  <0> d   1      18.140  -3.678  10.417  0.00  0.00    -0.268 OA
ATOM      3  N8  <0> d   1      18.859  -1.807  11.371  0.00  0.00    -0.353 N 
ATOM      4  H34 <0> d   1      19.215  -0.910  11.266  0.00  0.00     0.163 HD
ENDROOT
BRANCH   3   5
ATOM      5  C9  <0> d   1      18.619  -2.346  12.712  0.00  0.00     0.161 C 
BRANCH   5   6
ATOM      6  C10 <0> d   1      18.503  -1.211  13.696  0.00  0.00    -0.040 A 
ATOM      7  C22 <0> d   1      18.748  -1.433  15.039  0.00  0.00     0.011 A 
ATOM      8  C21 <0> d   1      18.647  -0.392  15.942  0.00  0.00     0.037 A 
ATOM      9  C13 <0> d   1      18.289   0.875  15.502  0.00  0.00     0.068 A 
ATOM     10  C12 <0> d   1      18.039   1.093  14.155  0.00  0.00     0.037 A 
ATOM     11  C11 <0> d   1      18.146   0.051  13.256  0.00  0.00     0.011 A 
BRANCH   9  12
ATOM     12  O14 <0> d   1      18.185   1.899  16.390  0.00  0.00    -0.350 OA
BRANCH  12  13
ATOM     13  C15 <0> d   1      19.398   2.540  16.785  0.00  0.00     0.203 C 
BRANCH  13  14
ATOM     14  C16 <0> d   1      19.252   4.055  16.620  0.00  0.00     0.260 C 
BRANCH  14  15
ATOM     15  N17 <0> d   1      19.971   4.488  15.415  0.00  0.00    -0.077 N 
ATOM     16  H18 <0> d   1      20.592   3.753  15.111  0.00  0.00     0.279 HD
ATOM     17  C19 <0> d   1      19.004   4.783  14.348  0.00  0.00     0.269 C 
ATOM     18  C20 <0> d   1      20.751   5.695  15.716  0.00  0.00     0.269 C 
ENDBRANCH  14  15
ENDBRANCH  13  14
ENDBRANCH  12  13
ENDBRANCH   9  12
ENDBRANCH   5   6
ENDBRANCH   3   5
BRANCH   1  19
ATOM     19  C5  <0> d   1      18.828  -2.012   8.934  0.00  0.00     0.037 A 
ATOM     20  C4  <0> d   1      19.124  -2.875   7.875  0.00  0.00     0.057 A 
ATOM     21  C3  <0> d   1      19.350  -2.363   6.611  0.00  0.00     0.105 A 
ATOM     22  C27 <0> d   1      19.290  -0.989   6.393  0.00  0.00     0.135 A 
ATOM     23  C24 <0> d   1      18.991  -0.128   7.446  0.00  0.00     0.105 A 
ATOM     24  C23 <0> d   1      18.763  -0.634   8.711  0.00  0.00     0.057 A 
BRANCH  21  25
ATOM     25  O2  <0> d   1      19.638  -3.202   5.580  0.00  0.00    -0.353 OA
ATOM     26  C1  <0> d   1      18.593  -4.073   5.142  0.00  0.00     0.210 C 
ENDBRANCH  21  25
BRANCH  22  27
ATOM     27  O28 <0> d   1      19.514  -0.488   5.150  0.00  0.00    -0.351 OA
ATOM     28  C29 <0> d   1      18.379  -0.348   4.293  0.00  0.00     0.210 C 
ENDBRANCH  22  27
BRANCH  23  29
ATOM     29  O25 <0> d   1      18.927   1.214   7.229  0.00  0.00    -0.353 OA
ATOM     30  C26 <0> d   1      19.215   2.065   8.340  0.00  0.00     0.210 C 
ENDBRANCH  23  29
ENDBRANCH   1  19
TORSDOF 10
ENDMDL
MODEL 7
REMARK VINA RESULT:      -7.0      2.574     10.206
REMARK  10 active torsions:
REMARK  status: ('A' for Active; 'I' for Inactive)
REMARK    1  A    between atoms: O2_2  and  C3_3 
REMARK    2  A    between atoms: C5_5  and  C6_6 
REMARK       I    between atoms: C6_6  and  N8_8 
REMARK    3  A    between atoms: N8_8  and  C9_9 
REMARK    4  A    between atoms: C9_9  and  C10_10 
REMARK    5  A    between atoms: C13_13  and  O14_14 
REMARK    6  A    between atoms: O14_14  and  C15_15 
REMARK    7  A    between atoms: C15_15  and  C16_16 
REMARK    8  A    between atoms: C16_16  and  N17_17 
REMARK    9  A    between atoms: C24_24  and  O25_25 
REMARK   10  A    between atoms: C27_27  and  O28_28 
ROOT
ATOM      1  C6  <0> d   1      18.100   3.033  12.086  0.00  0.00     0.252 C 
ATOM      2  O7  <0> d   1      17.047   3.603  11.880  0.00  0.00    -0.268 OA
ATOM      3  N8  <0> d   1      18.900   2.700  11.054  0.00  0.00    -0.353 N 
ATOM      4  H34 <0> d   1      19.741   2.244  11.219  0.00  0.00     0.163 HD
ENDROOT
BRANCH   3   5
ATOM      5  C9  <0> d   1      18.501   3.026   9.683  0.00  0.00     0.161 C 
BRANCH   5   6
ATOM      6  C10 <0> d   1      18.450   1.764   8.861  0.00  0.00    -0.040 A 
ATOM      7  C22 <0> d   1      19.092   1.711   7.637  0.00  0.00     0.011 A 
ATOM      8  C21 <0> d   1      19.051   0.553   6.885  0.00  0.00     0.037 A 
ATOM      9  C13 <0> d   1      18.356  -0.554   7.354  0.00  0.00     0.068 A 
ATOM     10  C12 <0> d   1      17.710  -0.496   8.580  0.00  0.00     0.037 A 
ATOM     11  C11 <0> d   1      17.758   0.663   9.331  0.00  0.00     0.011 A 
BRANCH   9  12
ATOM     12  O14 <0> d   1      18.311  -1.692   6.613  0.00  0.00    -0.350 OA
BRANCH  12  13
ATOM     13  C15 <0> d   1      18.201  -1.541   5.197  0.00  0.00     0.203 C 
BRANCH  13  14
ATOM     14  C16 <0> d   1      18.315  -2.912   4.526  0.00  0.00     0.260 C 
BRANCH  14  15
ATOM     15  N17 <0> d   1      17.071  -3.665   4.736  0.00  0.00    -0.077 N 
ATOM     16  H18 <0> d   1      16.504  -3.192   5.424  0.00  0.00     0.279 HD
ATOM     17  C19 <0> d   1      16.333  -3.752   3.468  0.00  0.00     0.269 C 
ATOM     18  C20 <0> d   1      17.391  -5.017   5.210  0.00  0.00     0.269 C 
ENDBRANCH  14  15
ENDBRANCH  13  14
ENDBRANCH  12  13
ENDBRANCH   9  12
ENDBRANCH   5   6
ENDBRANCH   3   5
BRANCH   1  19
ATOM     19  C5  <0> d   1      18.503   2.703  13.468  0.00  0.00     0.037 A 
ATOM     20  C4  <0> d   1      18.521   1.372  13.893  0.00  0.00     0.057 A 
ATOM     21  C3  <0> d   1      18.898   1.066  15.187  0.00  0.00     0.105 A 
ATOM     22  C27 <0> d   1      19.253   2.083  16.070  0.00  0.00     0.135 A 
ATOM     23  C24 <0> d   1      19.240   3.410  15.647  0.00  0.00     0.105 A 
ATOM     24  C23 <0> d   1      18.865   3.721  14.354  0.00  0.00     0.057 A 
BRANCH  21  25
ATOM     25  O2  <0> d   1      18.916  -0.229  15.601  0.00  0.00    -0.353 OA
ATOM     26  C1  <0> d   1      19.338  -1.208  14.650  0.00  0.00     0.210 C 
ENDBRANCH  21  25
BRANCH  22  27
ATOM     27  O28 <0> d   1      19.622   1.780  17.342  0.00  0.00    -0.351 OA
ATOM     28  C29 <0> d   1      18.581   1.703  18.318  0.00  0.00     0.210 C 
ENDBRANCH  22  27
BRANCH  23  29
ATOM     29  O25 <0> d   1      19.593   4.401  16.510  0.00  0.00    -0.353 OA
ATOM     30  C26 <0> d   1      20.386   5.467  15.983  0.00  0.00     0.210 C 
ENDBRANCH  23  29
ENDBRANCH   1  19
TORSDOF 10
ENDMDL
MODEL 8
REMARK VINA RESULT:      -7.0      2.534     10.211
REMARK  10 active torsions:
REMARK  status: ('A' for Active; 'I' for Inactive)
REMARK    1  A    between atoms: O2_2  and  C3_3 
REMARK    2  A    between atoms: C5_5  and  C6_6 
REMARK       I    between atoms: C6_6  and  N8_8 
REMARK    3  A    between atoms: N8_8  and  C9_9 
REMARK    4  A    between atoms: C9_9  and  C10_10 
REMARK    5  A    between atoms: C13_13  and  O14_14 
REMARK    6  A    between atoms: O14_14  and  C15_15 
REMARK    7  A    between atoms: C15_15  and  C16_16 
REMARK    8  A    between atoms: C16_16  and  N17_17 
REMARK    9  A    between atoms: C24_24  and  O25_25 
REMARK   10  A    between atoms: C27_27  and  O28_28 
ROOT
ATOM      1  C6  <0> d   1      18.243   2.921  12.026  0.00  0.00     0.252 C 
ATOM      2  O7  <0> d   1      17.136   3.326  11.730  0.00  0.00    -0.268 OA
ATOM      3  N8  <0> d   1      19.160   2.701  11.064  0.00  0.00    -0.353 N 
ATOM      4  H34 <0> d   1      20.044   2.377  11.301  0.00  0.00     0.163 HD
ENDROOT
BRANCH   3   5
ATOM      5  C9  <0> d   1      18.823   2.950   9.660  0.00  0.00     0.161 C 
BRANCH   5   6
ATOM      6  C10 <0> d   1      18.954   1.670   8.877  0.00  0.00    -0.040 A 
ATOM      7  C22 <0> d   1      19.169   0.475   9.539  0.00  0.00     0.011 A 
ATOM      8  C21 <0> d   1      19.284  -0.702   8.824  0.00  0.00     0.037 A 
ATOM      9  C13 <0> d   1      19.195  -0.682   7.439  0.00  0.00     0.068 A 
ATOM     10  C12 <0> d   1      18.984   0.520   6.777  0.00  0.00     0.037 A 
ATOM     11  C11 <0> d   1      18.864   1.692   7.498  0.00  0.00     0.011 A 
BRANCH   9  12
ATOM     12  O14 <0> d   1      19.312  -1.837   6.733  0.00  0.00    -0.350 OA
BRANCH  12  13
ATOM     13  C15 <0> d   1      19.143  -1.753   5.317  0.00  0.00     0.203 C 
BRANCH  13  14
ATOM     14  C16 <0> d   1      18.899  -3.153   4.749  0.00  0.00     0.260 C 
BRANCH  14  15
ATOM     15  N17 <0> d   1      17.499  -3.536   4.973  0.00  0.00    -0.077 N 
ATOM     16  H18 <0> d   1      17.117  -2.987   5.729  0.00  0.00     0.279 HD
ATOM     17  C19 <0> d   1      16.723  -3.290   3.749  0.00  0.00     0.269 C 
ATOM     18  C20 <0> d   1      17.430  -4.962   5.318  0.00  0.00     0.269 C 
ENDBRANCH  14  15
ENDBRANCH  13  14
ENDBRANCH  12  13
ENDBRANCH   9  12
ENDBRANCH   5   6
ENDBRANCH   3   5
BRANCH   1  19
ATOM     19  C5  <0> d   1      18.582   2.670  13.441  0.00  0.00     0.037 A 
ATOM     20  C4  <0> d   1      18.787   3.743  14.313  0.00  0.00     0.057 A 
ATOM     21  C3  <0> d   1      19.105   3.504  15.637  0.00  0.00     0.105 A 
ATOM     22  C27 <0> d   1      19.229   2.198  16.100  0.00  0.00     0.135 A 
ATOM     23  C24 <0> d   1      19.021   1.127  15.234  0.00  0.00     0.105 A 
ATOM     24  C23 <0> d   1      18.702   1.360  13.910  0.00  0.00     0.057 A 
BRANCH  21  25
ATOM     25  O2  <0> d   1      19.304   4.548  16.486  0.00  0.00    -0.353 OA
ATOM     26  C1  <0> d   1      18.153   5.310  16.857  0.00  0.00     0.210 C 
ENDBRANCH  21  25
BRANCH  22  27
ATOM     27  O28 <0> d   1      19.543   1.966  17.402  0.00  0.00    -0.351 OA
ATOM     28  C29 <0> d   1      18.462   1.661  18.285  0.00  0.00     0.210 C 
ENDBRANCH  22  27
BRANCH  23  29
ATOM     29  O25 <0> d   1      19.137  -0.149  15.692  0.00  0.00    -0.353 OA
ATOM     30  C26 <0> d   1      18.390  -1.155  15.004  0.00  0.00     0.210 C 
ENDBRANCH  23  29
ENDBRANCH   1  19
TORSDOF 10
ENDMDL
MODEL 9
REMARK VINA RESULT:      -6.8      2.706      5.351
REMARK  10 active torsions:
REMARK  status: ('A' for Active; 'I' for Inactive)
REMARK    1  A    between atoms: O2_2  and  C3_3 
REMARK    2  A    between atoms: C5_5  and  C6_6 
REMARK       I    between atoms: C6_6  and  N8_8 
REMARK    3  A    between atoms: N8_8  and  C9_9 
REMARK    4  A    between atoms: C9_9  and  C10_10 
REMARK    5  A    between atoms: C13_13  and  O14_14 
REMARK    6  A    between atoms: O14_14  and  C15_15 
REMARK    7  A    between atoms: C15_15  and  C16_16 
REMARK    8  A    between atoms: C16_16  and  N17_17 
REMARK    9  A    between atoms: C24_24  and  O25_25 
REMARK   10  A    between atoms: C27_27  and  O28_28 
ROOT
ATOM      1  C6  <0> d   1      18.317  -2.355  10.592  0.00  0.00     0.252 C 
ATOM      2  O7  <0> d   1      17.312  -3.004  10.805  0.00  0.00    -0.268 OA
ATOM      3  N8  <0> d   1      19.117  -1.997  11.615  0.00  0.00    -0.353 N 
ATOM      4  H34 <0> d   1      19.919  -1.477  11.445  0.00  0.00     0.163 HD
ENDROOT
BRANCH   3   5
ATOM      5  C9  <0> d   1      18.777  -2.391  12.985  0.00  0.00     0.161 C 
BRANCH   5   6
ATOM      6  C10 <0> d   1      18.868  -1.191  13.890  0.00  0.00    -0.040 A 
ATOM      7  C22 <0> d   1      18.651  -1.332  15.249  0.00  0.00     0.011 A 
ATOM      8  C21 <0> d   1      18.739  -0.234  16.082  0.00  0.00     0.037 A 
ATOM      9  C13 <0> d   1      19.035   1.015  15.552  0.00  0.00     0.068 A 
ATOM     10  C12 <0> d   1      19.247   1.155  14.188  0.00  0.00     0.037 A 
ATOM     11  C11 <0> d   1      19.163   0.052  13.361  0.00  0.00     0.011 A 
BRANCH   9  12
ATOM     12  O14 <0> d   1      19.117   2.098  16.369  0.00  0.00    -0.350 OA
BRANCH  12  13
ATOM     13  C15 <0> d   1      18.994   3.383  15.758  0.00  0.00     0.203 C 
BRANCH  13  14
ATOM     14  C16 <0> d   1      20.013   4.343  16.378  0.00  0.00     0.260 C 
BRANCH  14  15
ATOM     15  N17 <0> d   1      19.758   5.706  15.894  0.00  0.00    -0.077 N 
ATOM     16  H18 <0> d   1      20.598   6.258  15.985  0.00  0.00     0.279 HD
ATOM     17  C19 <0> d   1      19.356   5.656  14.481  0.00  0.00     0.269 C 
ATOM     18  C20 <0> d   1      18.683   6.315  16.688  0.00  0.00     0.269 C 
ENDBRANCH  14  15
ENDBRANCH  13  14
ENDBRANCH  12  13
ENDBRANCH   9  12
ENDBRANCH   5   6
ENDBRANCH   3   5
BRANCH   1  19
ATOM     19  C5  <0> d   1      18.660  -1.956   9.213  0.00  0.00     0.037 A 
ATOM     20  C4  <0> d   1      18.564  -0.616   8.827  0.00  0.00     0.057 A 
ATOM     21  C3  <0> d   1      18.886  -0.246   7.535  0.00  0.00     0.105 A 
ATOM     22  C27 <0> d   1      19.298  -1.207   6.615  0.00  0.00     0.135 A 
ATOM     23  C24 <0> d   1      19.398  -2.542   6.999  0.00  0.00     0.105 A 
ATOM     24  C23 <0> d   1      19.079  -2.917   8.290  0.00  0.00     0.057 A 
BRANCH  21  25
ATOM     25  O2  <0> d   1      18.793   1.057   7.159  0.00  0.00    -0.353 OA
ATOM     26  C1  <0> d   1      19.035   2.042   8.166  0.00  0.00     0.210 C 
ENDBRANCH  21  25
BRANCH  22  27
ATOM     27  O28 <0> d   1      19.612  -0.841   5.345  0.00  0.00    -0.351 OA
ATOM     28  C29 <0> d   1      18.535  -0.752   4.410  0.00  0.00     0.210 C 
ENDBRANCH  22  27
BRANCH  23  29
ATOM     29  O25 <0> d   1      19.807  -3.478   6.100  0.00  0.00    -0.353 OA
ATOM     30  C26 <0> d   1      19.628  -4.848   6.463  0.00  0.00     0.210 C 
ENDBRANCH  23  29
ENDBRANCH   1  19
TORSDOF 10
ENDMDL
