MODEL 1
REMARK VINA RESULT:      -6.9      0.000      0.000
REMARK  10 active torsions:
REMARK  status: ('A' for Active; 'I' for Inactive)
REMARK    1  A    between atoms: C2_2  and  N3_3 
REMARK    2  A    between atoms: N3_3  and  C5_5 
REMARK    3  A    between atoms: N3_3  and  C8_8 
REMARK    4  A    between atoms: C5_5  and  C6_6 
REMARK    5  A    between atoms: C6_6  and  O7_7 
REMARK    6  A    between atoms: C8_8  and  C9_9 
REMARK    7  A    between atoms: C9_9  and  C10_10 
REMARK    8  A    between atoms: C10_10  and  C11_11 
REMARK    9  A    between atoms: C11_11  and  N14_13 
REMARK   10  A    between atoms: N14_13  and  C15_14 
ROOT
ATOM      1  C11 ZIN A   1      18.381   4.534  11.862  0.00  0.00     0.077 C 
ATOM      2  C13 ZIN A   1      17.375   5.025  10.819  0.00  0.00     0.032 C 
ENDROOT
BRANCH   1   3
ATOM      3  C10 ZIN A   1      19.206   3.388  11.274  0.00  0.00     0.026 C 
BRANCH   3   4
ATOM      4  C9  ZIN A   1      18.532   2.877   9.999  0.00  0.00     0.030 C 
BRANCH   4   5
ATOM      5  C8  ZIN A   1      18.557   1.347   9.987  0.00  0.00     0.235 C 
BRANCH   5   6
ATOM      6  N3  ZIN A   1      19.368   0.880   8.854  0.00  0.00    -0.069 N 
ATOM      7  H4  ZIN A   1      20.046   1.587   8.611  0.00  0.00     0.279 HD
BRANCH   6   8
ATOM      8  C2  ZIN A   1      18.495   0.624   7.701  0.00  0.00     0.230 C 
ATOM      9  C1  ZIN A   1      17.281  -0.191   8.150  0.00  0.00     0.034 C 
ENDBRANCH   6   8
BRANCH   6  10
ATOM     10  C5  ZIN A   1      20.064  -0.358   9.227  0.00  0.00     0.260 C 
BRANCH  10  11
ATOM     11  C6  ZIN A   1      20.331  -0.359  10.733  0.00  0.00     0.192 C 
BRANCH  11  12
ATOM     12  O7  ZIN A   1      21.711  -0.643  10.972  0.00  0.00    -0.399 OA
ATOM     13  H35 ZIN A   1      21.989  -0.501  11.888  0.00  0.00     0.209 HD
ENDBRANCH  11  12
ENDBRANCH  10  11
ENDBRANCH   6  10
ENDBRANCH   5   6
ENDBRANCH   4   5
ENDBRANCH   3   4
ENDBRANCH   1   3
BRANCH   1  14
ATOM     14  N14 ZIN A   1      17.662   4.060  13.048  0.00  0.00    -0.385 N 
ATOM     15  H45 ZIN A   1      16.701   3.935  13.014  0.00  0.00     0.160 HD
BRANCH  14  16
ATOM     16  C15 ZIN A   1      18.356   3.790  14.217  0.00  0.00     0.042 A 
ATOM     17  C25 ZIN A   1      19.036   4.792  14.892  0.00  0.00     0.049 A 
ATOM     18  C24 ZIN A   1      19.718   4.491  16.062  0.00  0.00     0.119 A 
ATOM     19  N23 ZIN A   1      19.750   3.273  16.553  0.00  0.00    -0.260 NA
ATOM     20  C22 ZIN A   1      19.121   2.257  15.951  0.00  0.00     0.070 A 
ATOM     21  C16 ZIN A   1      18.399   2.483  14.756  0.00  0.00     0.019 A 
ATOM     22  C21 ZIN A   1      19.165   0.960  16.489  0.00  0.00     0.056 A 
ATOM     23  C17 ZIN A   1      17.741   1.414  14.128  0.00  0.00     0.018 A 
ATOM     24  C18 ZIN A   1      17.806   0.169  14.677  0.00  0.00     0.025 A 
ATOM     25  C19 ZIN A   1      18.516  -0.057  15.855  0.00  0.00     0.036 A 
ATOM     26 Cl20 ZIN A   1      18.575  -1.657  16.525  0.00  0.00    -0.084 Cl
ENDBRANCH  14  16
ENDBRANCH   1  14
TORSDOF 10
ENDMDL
MODEL 2
REMARK VINA RESULT:      -6.8      4.119      8.409
REMARK  10 active torsions:
REMARK  status: ('A' for Active; 'I' for Inactive)
REMARK    1  A    between atoms: C2_2  and  N3_3 
REMARK    2  A    between atoms: N3_3  and  C5_5 
REMARK    3  A    between atoms: N3_3  and  C8_8 
REMARK    4  A    between atoms: C5_5  and  C6_6 
REMARK    5  A    between atoms: C6_6  and  O7_7 
REMARK    6  A    between atoms: C8_8  and  C9_9 
REMARK    7  A    between atoms: C9_9  and  C10_10 
REMARK    8  A    between atoms: C10_10  and  C11_11 
REMARK    9  A    between atoms: C11_11  and  N14_13 
REMARK   10  A    between atoms: N14_13  and  C15_14 
ROOT
ATOM      1  C11 ZIN A   1      18.483  -4.852  11.021  0.00  0.00     0.077 C 
ATOM      2  C13 ZIN A   1      17.410  -5.266  12.030  0.00  0.00     0.032 C 
ENDROOT
BRANCH   1   3
ATOM      3  C10 ZIN A   1      19.351  -3.747  11.627  0.00  0.00     0.026 C 
BRANCH   3   4
ATOM      4  C9  ZIN A   1      18.463  -2.572  12.044  0.00  0.00     0.030 C 
BRANCH   4   5
ATOM      5  C8  ZIN A   1      19.098  -1.850  13.234  0.00  0.00     0.235 C 
BRANCH   5   6
ATOM      6  N3  ZIN A   1      19.967  -0.771  12.745  0.00  0.00    -0.069 N 
ATOM      7  H4  ZIN A   1      20.888  -1.138  12.562  0.00  0.00     0.279 HD
BRANCH   6   8
ATOM      8  C2  ZIN A   1      20.055   0.285  13.763  0.00  0.00     0.230 C 
ATOM      9  C1  ZIN A   1      18.700   0.440  14.456  0.00  0.00     0.034 C 
ENDBRANCH   6   8
BRANCH   6  10
ATOM     10  C5  ZIN A   1      19.406  -0.214  11.508  0.00  0.00     0.260 C 
BRANCH  10  11
ATOM     11  C6  ZIN A   1      20.457  -0.276  10.398  0.00  0.00     0.192 C 
BRANCH  11  12
ATOM     12  O7  ZIN A   1      21.720  -0.643  10.958  0.00  0.00    -0.399 OA
ATOM     13  H35 ZIN A   1      22.047  -1.504  10.663  0.00  0.00     0.209 HD
ENDBRANCH  11  12
ENDBRANCH  10  11
ENDBRANCH   6  10
ENDBRANCH   5   6
ENDBRANCH   4   5
ENDBRANCH   3   4
ENDBRANCH   1   3
BRANCH   1  14
ATOM     14  N14 ZIN A   1      17.841  -4.355   9.802  0.00  0.00    -0.385 N 
ATOM     15  H45 ZIN A   1      16.883  -4.201   9.786  0.00  0.00     0.160 HD
BRANCH  14  16
ATOM     16  C15 ZIN A   1      18.602  -4.105   8.670  0.00  0.00     0.042 A 
ATOM     17  C25 ZIN A   1      19.421  -5.085   8.130  0.00  0.00     0.049 A 
ATOM     18  C24 ZIN A   1      20.168  -4.806   6.994  0.00  0.00     0.119 A 
ATOM     19  N23 ZIN A   1      20.132  -3.629   6.412  0.00  0.00    -0.260 NA
ATOM     20  C22 ZIN A   1      19.368  -2.636   6.883  0.00  0.00     0.070 A 
ATOM     21  C16 ZIN A   1      18.573  -2.842   8.035  0.00  0.00     0.019 A 
ATOM     22  C21 ZIN A   1      19.341  -1.382   6.248  0.00  0.00     0.056 A 
ATOM     23  C17 ZIN A   1      17.774  -1.798   8.524  0.00  0.00     0.018 A 
ATOM     24  C18 ZIN A   1      17.773  -0.595   7.885  0.00  0.00     0.025 A 
ATOM     25  C19 ZIN A   1      18.554  -0.389   6.749  0.00  0.00     0.036 A 
ATOM     26 Cl20 ZIN A   1      18.526   1.158   5.961  0.00  0.00    -0.084 Cl
ENDBRANCH  14  16
ENDBRANCH   1  14
TORSDOF 10
ENDMDL
MODEL 3
REMARK VINA RESULT:      -6.7      4.050      6.389
REMARK  10 active torsions:
REMARK  status: ('A' for Active; 'I' for Inactive)
REMARK    1  A    between atoms: C2_2  and  N3_3 
REMARK    2  A    between atoms: N3_3  and  C5_5 
REMARK    3  A    between atoms: N3_3  and  C8_8 
REMARK    4  A    between atoms: C5_5  and  C6_6 
REMARK    5  A    between atoms: C6_6  and  O7_7 
REMARK    6  A    between atoms: C8_8  and  C9_9 
REMARK    7  A    between atoms: C9_9  and  C10_10 
REMARK    8  A    between atoms: C10_10  and  C11_11 
REMARK    9  A    between atoms: C11_11  and  N14_13 
REMARK   10  A    between atoms: N14_13  and  C15_14 
ROOT
ATOM      1  C11 ZIN A   1      19.017  -1.209  13.073  0.00  0.00     0.077 C 
ATOM      2  C13 ZIN A   1      19.587  -1.425  14.477  0.00  0.00     0.032 C 
ENDROOT
BRANCH   1   3
ATOM      3  C10 ZIN A   1      18.585  -2.554  12.486  0.00  0.00     0.026 C 
BRANCH   3   4
ATOM      4  C9  ZIN A   1      19.801  -3.262  11.884  0.00  0.00     0.030 C 
BRANCH   4   5
ATOM      5  C8  ZIN A   1      19.343  -4.521  11.144  0.00  0.00     0.235 C 
BRANCH   5   6
ATOM      6  N3  ZIN A   1      18.552  -4.136   9.967  0.00  0.00    -0.069 N 
ATOM      7  H4  ZIN A   1      18.330  -3.154  10.017  0.00  0.00     0.279 HD
BRANCH   6   8
ATOM      8  C2  ZIN A   1      17.308  -4.917   9.938  0.00  0.00     0.230 C 
ATOM      9  C1  ZIN A   1      17.269  -5.860  11.142  0.00  0.00     0.034 C 
ENDBRANCH   6   8
BRANCH   6  10
ATOM     10  C5  ZIN A   1      19.326  -4.402   8.748  0.00  0.00     0.260 C 
BRANCH  10  11
ATOM     11  C6  ZIN A   1      20.205  -5.637   8.961  0.00  0.00     0.192 C 
BRANCH  11  12
ATOM     12  O7  ZIN A   1      21.222  -5.677   7.960  0.00  0.00    -0.399 OA
ATOM     13  H35 ZIN A   1      21.693  -6.520   7.910  0.00  0.00     0.209 HD
ENDBRANCH  11  12
ENDBRANCH  10  11
ENDBRANCH   6  10
ENDBRANCH   5   6
ENDBRANCH   4   5
ENDBRANCH   3   4
ENDBRANCH   1   3
BRANCH   1  14
ATOM     14  N14 ZIN A   1      20.045  -0.610  12.217  0.00  0.00    -0.385 N 
ATOM     15  H45 ZIN A   1      20.913  -1.034  12.133  0.00  0.00     0.160 HD
BRANCH  14  16
ATOM     16  C15 ZIN A   1      19.775   0.562  11.527  0.00  0.00     0.042 A 
ATOM     17  C25 ZIN A   1      19.738   1.784  12.181  0.00  0.00     0.049 A 
ATOM     18  C24 ZIN A   1      19.469   2.940  11.463  0.00  0.00     0.119 A 
ATOM     19  N23 ZIN A   1      19.238   2.915  10.170  0.00  0.00    -0.260 NA
ATOM     20  C22 ZIN A   1      19.253   1.771   9.476  0.00  0.00     0.070 A 
ATOM     21  C16 ZIN A   1      19.524   0.549  10.135  0.00  0.00     0.019 A 
ATOM     22  C21 ZIN A   1      19.003   1.762   8.093  0.00  0.00     0.056 A 
ATOM     23  C17 ZIN A   1      19.538  -0.648   9.403  0.00  0.00     0.018 A 
ATOM     24  C18 ZIN A   1      19.290  -0.620   8.064  0.00  0.00     0.025 A 
ATOM     25  C19 ZIN A   1      19.024   0.582   7.411  0.00  0.00     0.036 A 
ATOM     26 Cl20 ZIN A   1      18.714   0.578   5.703  0.00  0.00    -0.084 Cl
ENDBRANCH  14  16
ENDBRANCH   1  14
TORSDOF 10
ENDMDL
MODEL 4
REMARK VINA RESULT:      -6.7      2.426      5.388
REMARK  10 active torsions:
REMARK  status: ('A' for Active; 'I' for Inactive)
REMARK    1  A    between atoms: C2_2  and  N3_3 
REMARK    2  A    between atoms: N3_3  and  C5_5 
REMARK    3  A    between atoms: N3_3  and  C8_8 
REMARK    4  A    between atoms: C5_5  and  C6_6 
REMARK    5  A    between atoms: C6_6  and  O7_7 
REMARK    6  A    between atoms: C8_8  and  C9_9 
REMARK    7  A    between atoms: C9_9  and  C10_10 
REMARK    8  A    between atoms: C10_10  and  C11_11 
REMARK    9  A    between atoms: C11_11  and  N14_13 
REMARK   10  A    between atoms: N14_13  and  C15_14 
ROOT
ATOM      1  C11 ZIN A   1      18.974   1.813  10.200  0.00  0.00     0.077 C 
ATOM      2  C13 ZIN A   1      19.279   1.813   8.701  0.00  0.00     0.032 C 
ENDROOT
BRANCH   1   3
ATOM      3  C10 ZIN A   1      18.883   3.257  10.701  0.00  0.00     0.026 C 
BRANCH   3   4
ATOM      4  C9  ZIN A   1      20.001   3.516  11.714  0.00  0.00     0.030 C 
BRANCH   4   5
ATOM      5  C8  ZIN A   1      19.752   4.853  12.417  0.00  0.00     0.235 C 
BRANCH   5   6
ATOM      6  N3  ZIN A   1      19.697   4.638  13.869  0.00  0.00    -0.069 N 
ATOM      7  H4  ZIN A   1      20.287   3.859  14.117  0.00  0.00     0.279 HD
BRANCH   6   8
ATOM      8  C2  ZIN A   1      18.312   4.349  14.267  0.00  0.00     0.230 C 
ATOM      9  C1  ZIN A   1      17.380   5.410  13.680  0.00  0.00     0.034 C 
ENDBRANCH   6   8
BRANCH   6  10
ATOM     10  C5  ZIN A   1      20.163   5.847  14.561  0.00  0.00     0.260 C 
BRANCH  10  11
ATOM     11  C6  ZIN A   1      20.301   5.557  16.056  0.00  0.00     0.192 C 
BRANCH  11  12
ATOM     12  O7  ZIN A   1      21.206   4.469  16.249  0.00  0.00    -0.399 OA
ATOM     13  H35 ZIN A   1      22.101   4.739  16.498  0.00  0.00     0.209 HD
ENDBRANCH  11  12
ENDBRANCH  10  11
ENDBRANCH   6  10
ENDBRANCH   5   6
ENDBRANCH   4   5
ENDBRANCH   3   4
ENDBRANCH   1   3
BRANCH   1  14
ATOM     14  N14 ZIN A   1      20.045   1.115  10.916  0.00  0.00    -0.385 N 
ATOM     15  H45 ZIN A   1      20.925   1.519  10.986  0.00  0.00     0.160 HD
BRANCH  14  16
ATOM     16  C15 ZIN A   1      19.802  -0.122  11.492  0.00  0.00     0.042 A 
ATOM     17  C25 ZIN A   1      19.837  -1.283  10.735  0.00  0.00     0.049 A 
ATOM     18  C24 ZIN A   1      19.592  -2.506  11.341  0.00  0.00     0.119 A 
ATOM     19  N23 ZIN A   1      19.317  -2.603  12.621  0.00  0.00    -0.260 NA
ATOM     20  C22 ZIN A   1      19.261  -1.524  13.411  0.00  0.00     0.070 A 
ATOM     21  C16 ZIN A   1      19.503  -0.240  12.870  0.00  0.00     0.019 A 
ATOM     22  C21 ZIN A   1      18.964  -1.645  14.779  0.00  0.00     0.056 A 
ATOM     23  C17 ZIN A   1      19.443   0.888  13.702  0.00  0.00     0.018 A 
ATOM     24  C18 ZIN A   1      19.152   0.734  15.023  0.00  0.00     0.025 A 
ATOM     25  C19 ZIN A   1      18.914  -0.530  15.561  0.00  0.00     0.036 A 
ATOM     26 Cl20 ZIN A   1      18.546  -0.687  17.250  0.00  0.00    -0.084 Cl
ENDBRANCH  14  16
ENDBRANCH   1  14
TORSDOF 10
ENDMDL
MODEL 5
REMARK VINA RESULT:      -6.7      3.073      6.972
REMARK  10 active torsions:
REMARK  status: ('A' for Active; 'I' for Inactive)
REMARK    1  A    between atoms: C2_2  and  N3_3 
REMARK    2  A    between atoms: N3_3  and  C5_5 
REMARK    3  A    between atoms: N3_3  and  C8_8 
REMARK    4  A    between atoms: C5_5  and  C6_6 
REMARK    5  A    between atoms: C6_6  and  O7_7 
REMARK    6  A    between atoms: C8_8  and  C9_9 
REMARK    7  A    between atoms: C9_9  and  C10_10 
REMARK    8  A    between atoms: C10_10  and  C11_11 
REMARK    9  A    between atoms: C11_11  and  N14_13 
REMARK   10  A    between atoms: N14_13  and  C15_14 
ROOT
ATOM      1  C11 ZIN A   1      19.494  -1.365  13.575  0.00  0.00     0.077 C 
ATOM      2  C13 ZIN A   1      18.184  -1.575  12.813  0.00  0.00     0.032 C 
ENDROOT
BRANCH   1   3
ATOM      3  C10 ZIN A   1      19.188  -1.098  15.050  0.00  0.00     0.026 C 
BRANCH   3   4
ATOM      4  C9  ZIN A   1      17.768  -0.542  15.183  0.00  0.00     0.030 C 
BRANCH   4   5
ATOM      5  C8  ZIN A   1      17.740   0.532  16.272  0.00  0.00     0.235 C 
BRANCH   5   6
ATOM      6  N3  ZIN A   1      19.101   1.038  16.494  0.00  0.00    -0.069 N 
ATOM      7  H4  ZIN A   1      19.768   0.397  16.093  0.00  0.00     0.279 HD
BRANCH   6   8
ATOM      8  C2  ZIN A   1      19.348   1.162  17.937  0.00  0.00     0.230 C 
ATOM      9  C1  ZIN A   1      18.614   0.043  18.678  0.00  0.00     0.034 C 
ENDBRANCH   6   8
BRANCH   6  10
ATOM     10  C5  ZIN A   1      19.245   2.355  15.858  0.00  0.00     0.260 C 
BRANCH  10  11
ATOM     11  C6  ZIN A   1      19.624   3.392  16.916  0.00  0.00     0.192 C 
BRANCH  11  12
ATOM     12  O7  ZIN A   1      20.784   4.108  16.488  0.00  0.00    -0.399 OA
ATOM     13  H35 ZIN A   1      20.820   4.266  15.535  0.00  0.00     0.209 HD
ENDBRANCH  11  12
ENDBRANCH  10  11
ENDBRANCH   6  10
ENDBRANCH   5   6
ENDBRANCH   4   5
ENDBRANCH   3   4
ENDBRANCH   1   3
BRANCH   1  14
ATOM     14  N14 ZIN A   1      20.209  -0.218  13.010  0.00  0.00    -0.385 N 
ATOM     15  H45 ZIN A   1      20.827   0.287  13.561  0.00  0.00     0.160 HD
BRANCH  14  16
ATOM     16  C15 ZIN A   1      20.002   0.145  11.688  0.00  0.00     0.042 A 
ATOM     17  C25 ZIN A   1      20.426  -0.668  10.648  0.00  0.00     0.049 A 
ATOM     18  C24 ZIN A   1      20.201  -0.278   9.336  0.00  0.00     0.119 A 
ATOM     19  N23 ZIN A   1      19.599   0.851   9.041  0.00  0.00    -0.260 NA
ATOM     20  C22 ZIN A   1      19.168   1.687   9.994  0.00  0.00     0.070 A 
ATOM     21  C16 ZIN A   1      19.356   1.359  11.357  0.00  0.00     0.019 A 
ATOM     22  C21 ZIN A   1      18.527   2.892   9.661  0.00  0.00     0.056 A 
ATOM     23  C17 ZIN A   1      18.903   2.239  12.352  0.00  0.00     0.018 A 
ATOM     24  C18 ZIN A   1      18.286   3.399  11.995  0.00  0.00     0.025 A 
ATOM     25  C19 ZIN A   1      18.098   3.724  10.652  0.00  0.00     0.036 A 
ATOM     26 Cl20 ZIN A   1      17.307   5.212  10.234  0.00  0.00    -0.084 Cl
ENDBRANCH  14  16
ENDBRANCH   1  14
TORSDOF 10
ENDMDL
MODEL 6
REMARK VINA RESULT:      -6.6      3.402      6.981
REMARK  10 active torsions:
REMARK  status: ('A' for Active; 'I' for Inactive)
REMARK    1  A    between atoms: C2_2  and  N3_3 
REMARK    2  A    between atoms: N3_3  and  C5_5 
REMARK    3  A    between atoms: N3_3  and  C8_8 
REMARK    4  A    between atoms: C5_5  and  C6_6 
REMARK    5  A    between atoms: C6_6  and  O7_7 
REMARK    6  A    between atoms: C8_8  and  C9_9 
REMARK    7  A    between atoms: C9_9  and  C10_10 
REMARK    8  A    between atoms: C10_10  and  C11_11 
REMARK    9  A    between atoms: C11_11  and  N14_13 
REMARK   10  A    between atoms: N14_13  and  C15_14 
ROOT
ATOM      1  C11 ZIN A   1      18.521   3.714  11.715  0.00  0.00     0.077 C 
ATOM      2  C13 ZIN A   1      17.703   4.844  11.085  0.00  0.00     0.032 C 
ENDROOT
BRANCH   1   3
ATOM      3  C10 ZIN A   1      19.678   4.310  12.520  0.00  0.00     0.026 C 
BRANCH   3   4
ATOM      4  C9  ZIN A   1      19.186   4.684  13.920  0.00  0.00     0.030 C 
BRANCH   4   5
ATOM      5  C8  ZIN A   1      18.510   3.470  14.563  0.00  0.00     0.235 C 
BRANCH   5   6
ATOM      6  N3  ZIN A   1      19.489   2.744  15.384  0.00  0.00    -0.069 N 
ATOM      7  H4  ZIN A   1      20.397   2.797  14.950  0.00  0.00     0.279 HD
BRANCH   6   8
ATOM      8  C2  ZIN A   1      19.082   1.337  15.498  0.00  0.00     0.230 C 
ATOM      9  C1  ZIN A   1      17.815   1.103  14.675  0.00  0.00     0.034 C 
ENDBRANCH   6   8
BRANCH   6  10
ATOM     10  C5  ZIN A   1      19.549   3.347  16.722  0.00  0.00     0.260 C 
BRANCH  10  11
ATOM     11  C6  ZIN A   1      18.856   2.426  17.727  0.00  0.00     0.192 C 
BRANCH  11  12
ATOM     12  O7  ZIN A   1      19.643   2.339  18.916  0.00  0.00    -0.399 OA
ATOM     13  H35 ZIN A   1      19.144   2.483  19.731  0.00  0.00     0.209 HD
ENDBRANCH  11  12
ENDBRANCH  10  11
ENDBRANCH   6  10
ENDBRANCH   5   6
ENDBRANCH   4   5
ENDBRANCH   3   4
ENDBRANCH   1   3
BRANCH   1  14
ATOM     14  N14 ZIN A   1      19.054   2.851  10.658  0.00  0.00    -0.385 N 
ATOM     15  H45 ZIN A   1      19.894   3.074  10.228  0.00  0.00     0.160 HD
BRANCH  14  16
ATOM     16  C15 ZIN A   1      18.358   1.715  10.274  0.00  0.00     0.042 A 
ATOM     17  C25 ZIN A   1      17.627   0.979  11.195  0.00  0.00     0.049 A 
ATOM     18  C24 ZIN A   1      16.938  -0.151  10.779  0.00  0.00     0.119 A 
ATOM     19  N23 ZIN A   1      16.961  -0.557   9.530  0.00  0.00    -0.260 NA
ATOM     20  C22 ZIN A   1      17.650   0.101   8.590  0.00  0.00     0.070 A 
ATOM     21  C16 ZIN A   1      18.375   1.267   8.933  0.00  0.00     0.019 A 
ATOM     22  C21 ZIN A   1      17.664  -0.347   7.258  0.00  0.00     0.056 A 
ATOM     23  C17 ZIN A   1      19.095   1.953   7.944  0.00  0.00     0.018 A 
ATOM     24  C18 ZIN A   1      19.089   1.490   6.663  0.00  0.00     0.025 A 
ATOM     25  C19 ZIN A   1      18.375   0.343   6.322  0.00  0.00     0.036 A 
ATOM     26 Cl20 ZIN A   1      18.389  -0.217   4.679  0.00  0.00    -0.084 Cl
ENDBRANCH  14  16
ENDBRANCH   1  14
TORSDOF 10
ENDMDL
MODEL 7
REMARK VINA RESULT:      -6.5      2.670      6.332
REMARK  10 active torsions:
REMARK  status: ('A' for Active; 'I' for Inactive)
REMARK    1  A    between atoms: C2_2  and  N3_3 
REMARK    2  A    between atoms: N3_3  and  C5_5 
REMARK    3  A    between atoms: N3_3  and  C8_8 
REMARK    4  A    between atoms: C5_5  and  C6_6 
REMARK    5  A    between atoms: C6_6  and  O7_7 
REMARK    6  A    between atoms: C8_8  and  C9_9 
REMARK    7  A    between atoms: C9_9  and  C10_10 
REMARK    8  A    between atoms: C10_10  and  C11_11 
REMARK    9  A    between atoms: C11_11  and  N14_13 
REMARK   10  A    between atoms: N14_13  and  C15_14 
ROOT
ATOM      1  C11 ZIN A   1      18.478   3.024  11.333  0.00  0.00     0.077 C 
ATOM      2  C13 ZIN A   1      17.957   4.335  10.742  0.00  0.00     0.032 C 
ENDROOT
BRANCH   1   3
ATOM      3  C10 ZIN A   1      18.962   3.267  12.764  0.00  0.00     0.026 C 
BRANCH   3   4
ATOM      4  C9  ZIN A   1      18.235   2.315  13.716  0.00  0.00     0.030 C 
BRANCH   4   5
ATOM      5  C8  ZIN A   1      18.865   2.405  15.108  0.00  0.00     0.235 C 
BRANCH   5   6
ATOM      6  N3  ZIN A   1      18.859   1.076  15.734  0.00  0.00    -0.069 N 
ATOM      7  H4  ZIN A   1      19.803   0.728  15.795  0.00  0.00     0.279 HD
BRANCH   6   8
ATOM      8  C2  ZIN A   1      18.049   0.157  14.923  0.00  0.00     0.230 C 
ATOM      9  C1  ZIN A   1      18.505  -1.281  15.173  0.00  0.00     0.034 C 
ENDBRANCH   6   8
BRANCH   6  10
ATOM     10  C5  ZIN A   1      18.285   1.173  17.083  0.00  0.00     0.260 C 
BRANCH  10  11
ATOM     11  C6  ZIN A   1      19.361   0.843  18.119  0.00  0.00     0.192 C 
BRANCH  11  12
ATOM     12  O7  ZIN A   1      19.653   2.008  18.892  0.00  0.00    -0.399 OA
ATOM     13  H35 ZIN A   1      18.948   2.671  18.887  0.00  0.00     0.209 HD
ENDBRANCH  11  12
ENDBRANCH  10  11
ENDBRANCH   6  10
ENDBRANCH   5   6
ENDBRANCH   4   5
ENDBRANCH   3   4
ENDBRANCH   1   3
BRANCH   1  14
ATOM     14  N14 ZIN A   1      19.592   2.530  10.519  0.00  0.00    -0.385 N 
ATOM     15  H45 ZIN A   1      20.479   2.904  10.633  0.00  0.00     0.160 HD
BRANCH  14  16
ATOM     16  C15 ZIN A   1      19.376   1.528   9.584  0.00  0.00     0.042 A 
ATOM     17  C25 ZIN A   1      19.149   1.832   8.251  0.00  0.00     0.049 A 
ATOM     18  C24 ZIN A   1      18.940   0.807   7.339  0.00  0.00     0.119 A 
ATOM     19  N23 ZIN A   1      18.942  -0.455   7.702  0.00  0.00    -0.260 NA
ATOM     20  C22 ZIN A   1      19.150  -0.820   8.973  0.00  0.00     0.070 A 
ATOM     21  C16 ZIN A   1      19.375   0.165   9.962  0.00  0.00     0.019 A 
ATOM     22  C21 ZIN A   1      19.148  -2.176   9.344  0.00  0.00     0.056 A 
ATOM     23  C17 ZIN A   1      19.592  -0.223  11.293  0.00  0.00     0.018 A 
ATOM     24  C18 ZIN A   1      19.583  -1.545  11.618  0.00  0.00     0.025 A 
ATOM     25  C19 ZIN A   1      19.362  -2.519  10.646  0.00  0.00     0.036 A 
ATOM     26 Cl20 ZIN A   1      19.358  -4.195  11.098  0.00  0.00    -0.084 Cl
ENDBRANCH  14  16
ENDBRANCH   1  14
TORSDOF 10
ENDMDL
MODEL 8
REMARK VINA RESULT:      -6.5      3.474      7.278
REMARK  10 active torsions:
REMARK  status: ('A' for Active; 'I' for Inactive)
REMARK    1  A    between atoms: C2_2  and  N3_3 
REMARK    2  A    between atoms: N3_3  and  C5_5 
REMARK    3  A    between atoms: N3_3  and  C8_8 
REMARK    4  A    between atoms: C5_5  and  C6_6 
REMARK    5  A    between atoms: C6_6  and  O7_7 
REMARK    6  A    between atoms: C8_8  and  C9_9 
REMARK    7  A    between atoms: C9_9  and  C10_10 
REMARK    8  A    between atoms: C10_10  and  C11_11 
REMARK    9  A    between atoms: C11_11  and  N14_13 
REMARK   10  A    between atoms: N14_13  and  C15_14 
ROOT
ATOM      1  C11 ZIN A   1      19.133  -1.227  12.246  0.00  0.00     0.077 C 
ATOM      2  C13 ZIN A   1      19.580  -2.622  11.804  0.00  0.00     0.032 C 
ENDROOT
BRANCH   1   3
ATOM      3  C10 ZIN A   1      18.544  -1.304  13.656  0.00  0.00     0.026 C 
BRANCH   3   4
ATOM      4  C9  ZIN A   1      18.959  -0.063  14.450  0.00  0.00     0.030 C 
BRANCH   4   5
ATOM      5  C8  ZIN A   1      17.732   0.819  14.694  0.00  0.00     0.235 C 
BRANCH   5   6
ATOM      6  N3  ZIN A   1      18.086   1.904  15.619  0.00  0.00    -0.069 N 
ATOM      7  H4  ZIN A   1      17.247   2.278  16.036  0.00  0.00     0.279 HD
BRANCH   6   8
ATOM      8  C2  ZIN A   1      18.781   2.967  14.881  0.00  0.00     0.230 C 
ATOM      9  C1  ZIN A   1      17.768   3.764  14.057  0.00  0.00     0.034 C 
ENDBRANCH   6   8
BRANCH   6  10
ATOM     10  C5  ZIN A   1      18.966   1.383  16.672  0.00  0.00     0.260 C 
BRANCH  10  11
ATOM     11  C6  ZIN A   1      18.529   1.945  18.026  0.00  0.00     0.192 C 
BRANCH  11  12
ATOM     12  O7  ZIN A   1      19.649   1.979  18.912  0.00  0.00    -0.399 OA
ATOM     13  H35 ZIN A   1      20.438   2.393  18.535  0.00  0.00     0.209 HD
ENDBRANCH  11  12
ENDBRANCH  10  11
ENDBRANCH   6  10
ENDBRANCH   5   6
ENDBRANCH   4   5
ENDBRANCH   3   4
ENDBRANCH   1   3
BRANCH   1  14
ATOM     14  N14 ZIN A   1      18.116  -0.724  11.319  0.00  0.00    -0.385 N 
ATOM     15  H45 ZIN A   1      17.254  -1.163  11.261  0.00  0.00     0.160 HD
BRANCH  14  16
ATOM     16  C15 ZIN A   1      18.388   0.380  10.525  0.00  0.00     0.042 A 
ATOM     17  C25 ZIN A   1      18.472   1.651  11.073  0.00  0.00     0.049 A 
ATOM     18  C24 ZIN A   1      18.748   2.736  10.253  0.00  0.00     0.119 A 
ATOM     19  N23 ZIN A   1      18.927   2.599   8.959  0.00  0.00    -0.260 NA
ATOM     20  C22 ZIN A   1      18.855   1.403   8.363  0.00  0.00     0.070 A 
ATOM     21  C16 ZIN A   1      18.581   0.247   9.131  0.00  0.00     0.019 A 
ATOM     22  C21 ZIN A   1      19.049   1.274   6.977  0.00  0.00     0.056 A 
ATOM     23  C17 ZIN A   1      18.507  -1.004   8.500  0.00  0.00     0.018 A 
ATOM     24  C18 ZIN A   1      18.698  -1.093   7.155  0.00  0.00     0.025 A 
ATOM     25  C19 ZIN A   1      18.969   0.044   6.395  0.00  0.00     0.036 A 
ATOM     26 Cl20 ZIN A   1      19.208  -0.107   4.683  0.00  0.00    -0.084 Cl
ENDBRANCH  14  16
ENDBRANCH   1  14
TORSDOF 10
ENDMDL
MODEL 9
REMARK VINA RESULT:      -6.4      4.441      6.781
REMARK  10 active torsions:
REMARK  status: ('A' for Active; 'I' for Inactive)
REMARK    1  A    between atoms: C2_2  and  N3_3 
REMARK    2  A    between atoms: N3_3  and  C5_5 
REMARK    3  A    between atoms: N3_3  and  C8_8 
REMARK    4  A    between atoms: C5_5  and  C6_6 
REMARK    5  A    between atoms: C6_6  and  O7_7 
REMARK    6  A    between atoms: C8_8  and  C9_9 
REMARK    7  A    between atoms: C9_9  and  C10_10 
REMARK    8  A    between atoms: C10_10  and  C11_11 
REMARK    9  A    between atoms: C11_11  and  N14_13 
REMARK   10  A    between atoms: N14_13  and  C15_14 
ROOT
ATOM      1  C11 ZIN A   1      19.228  -1.425  12.655  0.00  0.00     0.077 C 
ATOM      2  C13 ZIN A   1      19.324  -1.298  14.177  0.00  0.00     0.032 C 
ENDROOT
BRANCH   1   3
ATOM      3  C10 ZIN A   1      19.457  -2.883  12.250  0.00  0.00     0.026 C 
BRANCH   3   4
ATOM      4  C9  ZIN A   1      18.182  -3.440  11.611  0.00  0.00     0.030 C 
BRANCH   4   5
ATOM      5  C8  ZIN A   1      18.187  -4.967  11.712  0.00  0.00     0.235 C 
BRANCH   5   6
ATOM      6  N3  ZIN A   1      17.791  -5.543  10.420  0.00  0.00    -0.069 N 
ATOM      7  H4  ZIN A   1      17.957  -6.537  10.429  0.00  0.00     0.279 HD
BRANCH   6   8
ATOM      8  C2  ZIN A   1      18.583  -4.926   9.346  0.00  0.00     0.230 C 
ATOM      9  C1  ZIN A   1      19.838  -5.761   9.093  0.00  0.00     0.034 C 
ENDBRANCH   6   8
BRANCH   6  10
ATOM     10  C5  ZIN A   1      16.364  -5.286  10.185  0.00  0.00     0.260 C 
BRANCH  10  11
ATOM     11  C6  ZIN A   1      16.072  -5.366   8.686  0.00  0.00     0.192 C 
BRANCH  11  12
ATOM     12  O7  ZIN A   1      14.661  -5.452   8.479  0.00  0.00    -0.399 OA
ATOM     13  H35 ZIN A   1      14.189  -4.622   8.631  0.00  0.00     0.209 HD
ENDBRANCH  11  12
ENDBRANCH  10  11
ENDBRANCH   6  10
ENDBRANCH   5   6
ENDBRANCH   4   5
ENDBRANCH   3   4
ENDBRANCH   1   3
BRANCH   1  14
ATOM     14  N14 ZIN A   1      20.248  -0.579  12.030  0.00  0.00    -0.385 N 
ATOM     15  H45 ZIN A   1      21.184  -0.831  12.078  0.00  0.00     0.160 HD
BRANCH  14  16
ATOM     16  C15 ZIN A   1      19.876   0.582  11.369  0.00  0.00     0.042 A 
ATOM     17  C25 ZIN A   1      19.812   1.795  12.037  0.00  0.00     0.049 A 
ATOM     18  C24 ZIN A   1      19.440   2.940  11.348  0.00  0.00     0.119 A 
ATOM     19  N23 ZIN A   1      19.134   2.912  10.071  0.00  0.00    -0.260 NA
ATOM     20  C22 ZIN A   1      19.169   1.776   9.365  0.00  0.00     0.070 A 
ATOM     21  C16 ZIN A   1      19.543   0.565   9.995  0.00  0.00     0.019 A 
ATOM     22  C21 ZIN A   1      18.838   1.763   8.000  0.00  0.00     0.056 A 
ATOM     23  C17 ZIN A   1      19.578  -0.623   9.250  0.00  0.00     0.018 A 
ATOM     24  C18 ZIN A   1      19.250  -0.600   7.929  0.00  0.00     0.025 A 
ATOM     25  C19 ZIN A   1      18.881   0.591   7.305  0.00  0.00     0.036 A 
ATOM     26 Cl20 ZIN A   1      18.471   0.583   5.619  0.00  0.00    -0.084 Cl
ENDBRANCH  14  16
ENDBRANCH   1  14
TORSDOF 10
ENDMDL
