MODEL 1
REMARK VINA RESULT:      -8.0      0.000      0.000
REMARK  1 active torsions:
REMARK  status: ('A' for Active; 'I' for Inactive)
REMARK    1  A    between atoms: C8_8  and  C9_9 
ROOT
ATOM      1  C1  ZIN A   1      17.281   0.215   8.998  0.00  0.00     0.093 C 
ATOM      2  C2  ZIN A   1      18.624   0.031   9.656  0.00  0.00     0.131 A 
ATOM      3  N3  ZIN A   1      19.538  -0.846   9.332  0.00  0.00    -0.135 NA
ATOM      4  N4  ZIN A   1      20.554  -0.731  10.114  0.00  0.00    -0.133 NA
ATOM      5  C5  ZIN A   1      20.335   0.214  10.981  0.00  0.00     0.154 A 
ATOM      6  C6  ZIN A   1      21.226   0.641  12.120  0.00  0.00     0.230 C 
ATOM      7  N7  ZIN A   1      20.479   0.452  13.368  0.00  0.00    -0.280 NA
ATOM      8  C8  ZIN A   1      19.379   1.079  13.604  0.00  0.00     0.076 C 
ATOM      9  C16 ZIN A   1      18.675   2.026  12.732  0.00  0.00     0.022 A 
ATOM     10  C17 ZIN A   1      18.128   3.178  13.314  0.00  0.00     0.040 A 
ATOM     11  C18 ZIN A   1      17.430   4.086  12.547  0.00  0.00     0.035 A 
ATOM     12 Cl19 ZIN A   1      16.765   5.509  13.284  0.00  0.00    -0.084 Cl
ATOM     13  C20 ZIN A   1      17.260   3.865  11.190  0.00  0.00     0.026 A 
ATOM     14  C21 ZIN A   1      17.802   2.742  10.600  0.00  0.00     0.033 A 
ATOM     15  C22 ZIN A   1      18.523   1.826  11.358  0.00  0.00     0.055 A 
ATOM     16  N23 ZIN A   1      19.120   0.750  10.698  0.00  0.00    -0.282 N 
ENDROOT
BRANCH   8  17
ATOM     17  C9  ZIN A   1      18.749   0.813  14.918  0.00  0.00     0.015 A 
ATOM     18  C14 ZIN A   1      17.918  -0.297  15.085  0.00  0.00     0.046 A 
ATOM     19  C13 ZIN A   1      17.337  -0.542  16.314  0.00  0.00     0.025 A 
ATOM     20 Cl15 ZIN A   1      17.626  -1.373  13.754  0.00  0.00    -0.083 Cl
ATOM     21  C12 ZIN A   1      17.570   0.316  17.374  0.00  0.00     0.002 A 
ATOM     22  C11 ZIN A   1      18.388   1.420  17.213  0.00  0.00     0.001 A 
ATOM     23  C10 ZIN A   1      18.979   1.673  15.992  0.00  0.00     0.015 A 
ENDBRANCH   8  17
TORSDOF 1
ENDMDL
MODEL 2
REMARK VINA RESULT:      -7.9      3.997      6.543
REMARK  1 active torsions:
REMARK  status: ('A' for Active; 'I' for Inactive)
REMARK    1  A    between atoms: C8_8  and  C9_9 
ROOT
ATOM      1  C1  ZIN A   1      15.872  -5.418   9.224  0.00  0.00     0.093 C 
ATOM      2  C2  ZIN A   1      17.028  -5.093  10.135  0.00  0.00     0.131 A 
ATOM      3  N3  ZIN A   1      17.216  -5.547  11.346  0.00  0.00    -0.135 NA
ATOM      4  N4  ZIN A   1      18.298  -5.050  11.838  0.00  0.00    -0.133 NA
ATOM      5  C5  ZIN A   1      18.844  -4.248  10.972  0.00  0.00     0.154 A 
ATOM      6  C6  ZIN A   1      20.082  -3.406  11.152  0.00  0.00     0.230 C 
ATOM      7  N7  ZIN A   1      19.697  -2.001  10.978  0.00  0.00    -0.280 NA
ATOM      8  C8  ZIN A   1      19.202  -1.563   9.873  0.00  0.00     0.076 C 
ATOM      9  C16 ZIN A   1      18.914  -2.322   8.650  0.00  0.00     0.022 A 
ATOM     10  C17 ZIN A   1      19.233  -1.734   7.418  0.00  0.00     0.040 A 
ATOM     11  C18 ZIN A   1      18.956  -2.388   6.238  0.00  0.00     0.035 A 
ATOM     12 Cl19 ZIN A   1      19.363  -1.648   4.722  0.00  0.00    -0.084 Cl
ATOM     13  C20 ZIN A   1      18.355  -3.637   6.258  0.00  0.00     0.026 A 
ATOM     14  C21 ZIN A   1      18.045  -4.234   7.462  0.00  0.00     0.033 A 
ATOM     15  C22 ZIN A   1      18.334  -3.593   8.662  0.00  0.00     0.055 A 
ATOM     16  N23 ZIN A   1      18.077  -4.275   9.853  0.00  0.00    -0.282 N 
ENDROOT
BRANCH   8  17
ATOM     17  C9  ZIN A   1      18.887  -0.117   9.829  0.00  0.00     0.015 A 
ATOM     18  C14 ZIN A   1      17.833   0.394  10.590  0.00  0.00     0.046 A 
ATOM     19  C13 ZIN A   1      17.548   1.745  10.549  0.00  0.00     0.025 A 
ATOM     20 Cl15 ZIN A   1      16.892  -0.664  11.594  0.00  0.00    -0.083 Cl
ATOM     21  C12 ZIN A   1      18.298   2.588   9.749  0.00  0.00     0.002 A 
ATOM     22  C11 ZIN A   1      19.339   2.087   8.989  0.00  0.00     0.001 A 
ATOM     23  C10 ZIN A   1      19.638   0.740   9.025  0.00  0.00     0.015 A 
ENDBRANCH   8  17
TORSDOF 1
ENDMDL
MODEL 3
REMARK VINA RESULT:      -7.9      3.347      5.728
REMARK  1 active torsions:
REMARK  status: ('A' for Active; 'I' for Inactive)
REMARK    1  A    between atoms: C8_8  and  C9_9 
ROOT
ATOM      1  C1  ZIN A   1      20.392   3.116  11.558  0.00  0.00     0.093 C 
ATOM      2  C2  ZIN A   1      19.142   2.420  12.032  0.00  0.00     0.131 A 
ATOM      3  N3  ZIN A   1      18.574   2.550  13.202  0.00  0.00    -0.135 NA
ATOM      4  N4  ZIN A   1      17.532   1.796  13.270  0.00  0.00    -0.133 NA
ATOM      5  C5  ZIN A   1      17.392   1.141  12.155  0.00  0.00     0.154 A 
ATOM      6  C6  ZIN A   1      16.350   0.103  11.823  0.00  0.00     0.230 C 
ATOM      7  N7  ZIN A   1      17.048  -1.149  11.514  0.00  0.00    -0.280 NA
ATOM      8  C8  ZIN A   1      17.877  -1.242  10.534  0.00  0.00     0.076 C 
ATOM      9  C16 ZIN A   1      18.292  -0.189   9.600  0.00  0.00     0.022 A 
ATOM     10  C17 ZIN A   1      18.412  -0.519   8.243  0.00  0.00     0.040 A 
ATOM     11  C18 ZIN A   1      18.827   0.422   7.327  0.00  0.00     0.035 A 
ATOM     12 Cl19 ZIN A   1      18.965  -0.003   5.651  0.00  0.00    -0.084 Cl
ATOM     13  C20 ZIN A   1      19.133   1.709   7.742  0.00  0.00     0.026 A 
ATOM     14  C21 ZIN A   1      19.009   2.053   9.071  0.00  0.00     0.033 A 
ATOM     15  C22 ZIN A   1      18.575   1.118  10.005  0.00  0.00     0.055 A 
ATOM     16  N23 ZIN A   1      18.387   1.539  11.322  0.00  0.00    -0.282 N 
ENDROOT
BRANCH   8  17
ATOM     17  C9  ZIN A   1      18.486  -2.576  10.321  0.00  0.00     0.015 A 
ATOM     18  C14 ZIN A   1      19.381  -3.095  11.258  0.00  0.00     0.046 A 
ATOM     19  C13 ZIN A   1      19.941  -4.342  11.056  0.00  0.00     0.025 A 
ATOM     20 Cl15 ZIN A   1      19.780  -2.183  12.680  0.00  0.00    -0.083 Cl
ATOM     21  C12 ZIN A   1      19.624  -5.069   9.923  0.00  0.00     0.002 A 
ATOM     22  C11 ZIN A   1      18.741  -4.558   8.988  0.00  0.00     0.001 A 
ATOM     23  C10 ZIN A   1      18.171  -3.316   9.181  0.00  0.00     0.015 A 
ENDBRANCH   8  17
TORSDOF 1
ENDMDL
MODEL 4
REMARK VINA RESULT:      -7.8      6.863      9.445
REMARK  1 active torsions:
REMARK  status: ('A' for Active; 'I' for Inactive)
REMARK    1  A    between atoms: C8_8  and  C9_9 
ROOT
ATOM      1  C1  ZIN A   1      15.756  -6.406   8.474  0.00  0.00     0.093 C 
ATOM      2  C2  ZIN A   1      17.253  -6.250   8.390  0.00  0.00     0.131 A 
ATOM      3  N3  ZIN A   1      18.127  -6.624   9.288  0.00  0.00    -0.135 NA
ATOM      4  N4  ZIN A   1      19.315  -6.323   8.896  0.00  0.00    -0.133 NA
ATOM      5  C5  ZIN A   1      19.258  -5.733   7.738  0.00  0.00     0.154 A 
ATOM      6  C6  ZIN A   1      20.403  -5.156   6.943  0.00  0.00     0.230 C 
ATOM      7  N7  ZIN A   1      20.145  -3.724   6.764  0.00  0.00    -0.280 NA
ATOM      8  C8  ZIN A   1      19.106  -3.292   6.139  0.00  0.00     0.076 C 
ATOM      9  C16 ZIN A   1      18.023  -4.079   5.538  0.00  0.00     0.022 A 
ATOM     10  C17 ZIN A   1      17.536  -3.683   4.284  0.00  0.00     0.040 A 
ATOM     11  C18 ZIN A   1      16.499  -4.367   3.688  0.00  0.00     0.035 A 
ATOM     12 Cl19 ZIN A   1      15.913  -3.866   2.134  0.00  0.00    -0.084 Cl
ATOM     13  C20 ZIN A   1      15.925  -5.455   4.326  0.00  0.00     0.026 A 
ATOM     14  C21 ZIN A   1      16.400  -5.865   5.555  0.00  0.00     0.033 A 
ATOM     15  C22 ZIN A   1      17.457  -5.194   6.161  0.00  0.00     0.055 A 
ATOM     16  N23 ZIN A   1      17.954  -5.698   7.364  0.00  0.00    -0.282 N 
ENDROOT
BRANCH   8  17
ATOM     17  C9  ZIN A   1      18.990  -1.821   6.007  0.00  0.00     0.015 A 
ATOM     18  C14 ZIN A   1      18.416  -1.069   7.034  0.00  0.00     0.046 A 
ATOM     19  C13 ZIN A   1      18.316   0.303   6.908  0.00  0.00     0.025 A 
ATOM     20 Cl15 ZIN A   1      17.842  -1.854   8.471  0.00  0.00    -0.083 Cl
ATOM     21  C12 ZIN A   1      18.774   0.929   5.762  0.00  0.00     0.002 A 
ATOM     22  C11 ZIN A   1      19.339   0.189   4.739  0.00  0.00     0.001 A 
ATOM     23  C10 ZIN A   1      19.450  -1.182   4.855  0.00  0.00     0.015 A 
ENDBRANCH   8  17
TORSDOF 1
ENDMDL
MODEL 5
REMARK VINA RESULT:      -7.5      3.036      7.010
REMARK  1 active torsions:
REMARK  status: ('A' for Active; 'I' for Inactive)
REMARK    1  A    between atoms: C8_8  and  C9_9 
ROOT
ATOM      1  C1  ZIN A   1      17.382  -0.451  13.921  0.00  0.00     0.093 C 
ATOM      2  C2  ZIN A   1      18.686  -0.154  13.227  0.00  0.00     0.131 A 
ATOM      3  N3  ZIN A   1      19.518   0.814  13.512  0.00  0.00    -0.135 NA
ATOM      4  N4  ZIN A   1      20.523   0.780  12.708  0.00  0.00    -0.133 NA
ATOM      5  C5  ZIN A   1      20.377  -0.200  11.865  0.00  0.00     0.154 A 
ATOM      6  C6  ZIN A   1      21.280  -0.565  10.714  0.00  0.00     0.230 C 
ATOM      7  N7  ZIN A   1      20.491  -0.477   9.481  0.00  0.00    -0.280 NA
ATOM      8  C8  ZIN A   1      19.452  -1.211   9.284  0.00  0.00     0.076 C 
ATOM      9  C16 ZIN A   1      18.862  -2.201  10.191  0.00  0.00     0.022 A 
ATOM     10  C17 ZIN A   1      18.416  -3.414   9.645  0.00  0.00     0.040 A 
ATOM     11  C18 ZIN A   1      17.826  -4.367  10.447  0.00  0.00     0.035 A 
ATOM     12 Cl19 ZIN A   1      17.285  -5.864   9.755  0.00  0.00    -0.084 Cl
ATOM     13  C20 ZIN A   1      17.665  -4.134  11.803  0.00  0.00     0.026 A 
ATOM     14  C21 ZIN A   1      18.109  -2.951  12.357  0.00  0.00     0.033 A 
ATOM     15  C22 ZIN A   1      18.722  -1.987  11.564  0.00  0.00     0.055 A 
ATOM     16  N23 ZIN A   1      19.227  -0.845  12.187  0.00  0.00    -0.282 N 
ENDROOT
BRANCH   8  17
ATOM     17  C9  ZIN A   1      18.770  -1.036   7.980  0.00  0.00     0.015 A 
ATOM     18  C14 ZIN A   1      17.651  -0.207   7.880  0.00  0.00     0.046 A 
ATOM     19  C13 ZIN A   1      17.023  -0.045   6.661  0.00  0.00     0.025 A 
ATOM     20 Cl15 ZIN A   1      17.058   0.626   9.283  0.00  0.00    -0.083 Cl
ATOM     21  C12 ZIN A   1      17.495  -0.709   5.544  0.00  0.00     0.002 A 
ATOM     22  C11 ZIN A   1      18.600  -1.536   5.637  0.00  0.00     0.001 A 
ATOM     23  C10 ZIN A   1      19.241  -1.703   6.849  0.00  0.00     0.015 A 
ENDBRANCH   8  17
TORSDOF 1
ENDMDL
MODEL 6
REMARK VINA RESULT:      -7.4      2.616      5.011
REMARK  1 active torsions:
REMARK  status: ('A' for Active; 'I' for Inactive)
REMARK    1  A    between atoms: C8_8  and  C9_9 
ROOT
ATOM      1  C1  ZIN A   1      17.261   3.434  13.624  0.00  0.00     0.093 C 
ATOM      2  C2  ZIN A   1      18.418   3.051  12.738  0.00  0.00     0.131 A 
ATOM      3  N3  ZIN A   1      18.850   3.707  11.693  0.00  0.00    -0.135 NA
ATOM      4  N4  ZIN A   1      19.846   3.085  11.165  0.00  0.00    -0.133 NA
ATOM      5  C5  ZIN A   1      20.089   1.998  11.837  0.00  0.00     0.154 A 
ATOM      6  C6  ZIN A   1      21.121   0.941  11.533  0.00  0.00     0.230 C 
ATOM      7  N7  ZIN A   1      20.414  -0.328  11.326  0.00  0.00    -0.280 NA
ATOM      8  C8  ZIN A   1      19.703  -0.869  12.252  0.00  0.00     0.076 C 
ATOM      9  C16 ZIN A   1      19.443  -0.361  13.604  0.00  0.00     0.022 A 
ATOM     10  C17 ZIN A   1      19.470  -1.273  14.669  0.00  0.00     0.040 A 
ATOM     11  C18 ZIN A   1      19.204  -0.856  15.954  0.00  0.00     0.035 A 
ATOM     12 Cl19 ZIN A   1      19.246  -1.997  17.260  0.00  0.00    -0.084 Cl
ATOM     13  C20 ZIN A   1      18.902   0.473  16.207  0.00  0.00     0.026 A 
ATOM     14  C21 ZIN A   1      18.883   1.385  15.172  0.00  0.00     0.033 A 
ATOM     15  C22 ZIN A   1      19.167   0.982  13.871  0.00  0.00     0.055 A 
ATOM     16  N23 ZIN A   1      19.216   1.958  12.875  0.00  0.00    -0.282 N 
ENDROOT
BRANCH   8  17
ATOM     17  C9  ZIN A   1      19.070  -2.165  11.913  0.00  0.00     0.015 A 
ATOM     18  C14 ZIN A   1      17.692  -2.238  11.700  0.00  0.00     0.046 A 
ATOM     19  C13 ZIN A   1      17.110  -3.448  11.379  0.00  0.00     0.025 A 
ATOM     20 Cl15 ZIN A   1      16.716  -0.809  11.826  0.00  0.00    -0.083 Cl
ATOM     21  C12 ZIN A   1      17.888  -4.588  11.278  0.00  0.00     0.002 A 
ATOM     22  C11 ZIN A   1      19.253  -4.523  11.493  0.00  0.00     0.001 A 
ATOM     23  C10 ZIN A   1      19.848  -3.319  11.809  0.00  0.00     0.015 A 
ENDBRANCH   8  17
TORSDOF 1
ENDMDL
MODEL 7
REMARK VINA RESULT:      -7.4      2.324      4.523
REMARK  1 active torsions:
REMARK  status: ('A' for Active; 'I' for Inactive)
REMARK    1  A    between atoms: C8_8  and  C9_9 
ROOT
ATOM      1  C1  ZIN A   1      20.362  -2.808  12.024  0.00  0.00     0.093 C 
ATOM      2  C2  ZIN A   1      19.202  -2.139  11.332  0.00  0.00     0.131 A 
ATOM      3  N3  ZIN A   1      18.844  -2.294  10.085  0.00  0.00    -0.135 NA
ATOM      4  N4  ZIN A   1      17.820  -1.558   9.827  0.00  0.00    -0.133 NA
ATOM      5  C5  ZIN A   1      17.483  -0.888  10.891  0.00  0.00     0.154 A 
ATOM      6  C6  ZIN A   1      16.386   0.138  11.022  0.00  0.00     0.230 C 
ATOM      7  N7  ZIN A   1      17.006   1.406  11.424  0.00  0.00    -0.280 NA
ATOM      8  C8  ZIN A   1      17.654   1.525  12.530  0.00  0.00     0.076 C 
ATOM      9  C16 ZIN A   1      17.916   0.492  13.538  0.00  0.00     0.022 A 
ATOM     10  C17 ZIN A   1      17.798   0.844  14.891  0.00  0.00     0.040 A 
ATOM     11  C18 ZIN A   1      18.063  -0.078  15.879  0.00  0.00     0.035 A 
ATOM     12 Cl19 ZIN A   1      17.907   0.374  17.548  0.00  0.00    -0.084 Cl
ATOM     13  C20 ZIN A   1      18.451  -1.366  15.545  0.00  0.00     0.026 A 
ATOM     14  C21 ZIN A   1      18.560  -1.731  14.220  0.00  0.00     0.033 A 
ATOM     15  C22 ZIN A   1      18.281  -0.816  13.210  0.00  0.00     0.055 A 
ATOM     16  N23 ZIN A   1      18.326  -1.259  11.888  0.00  0.00    -0.282 N 
ENDROOT
BRANCH   8  17
ATOM     17  C9  ZIN A   1      18.201   2.871  12.821  0.00  0.00     0.015 A 
ATOM     18  C14 ZIN A   1      19.475   3.223  12.370  0.00  0.00     0.046 A 
ATOM     19  C13 ZIN A   1      19.976   4.480  12.641  0.00  0.00     0.025 A 
ATOM     20 Cl15 ZIN A   1      20.420   2.086  11.461  0.00  0.00    -0.083 Cl
ATOM     21  C12 ZIN A   1      19.223   5.387  13.365  0.00  0.00     0.002 A 
ATOM     22  C11 ZIN A   1      17.963   5.042  13.820  0.00  0.00     0.001 A 
ATOM     23  C10 ZIN A   1      17.447   3.790  13.552  0.00  0.00     0.015 A 
ENDBRANCH   8  17
TORSDOF 1
ENDMDL
MODEL 8
REMARK VINA RESULT:      -7.3      3.043      6.138
REMARK  1 active torsions:
REMARK  status: ('A' for Active; 'I' for Inactive)
REMARK    1  A    between atoms: C8_8  and  C9_9 
ROOT
ATOM      1  C1  ZIN A   1      17.032  -0.441  17.019  0.00  0.00     0.093 C 
ATOM      2  C2  ZIN A   1      17.797   0.843  17.215  0.00  0.00     0.131 A 
ATOM      3  N3  ZIN A   1      17.794   1.596  18.283  0.00  0.00    -0.135 NA
ATOM      4  N4  ZIN A   1      18.548   2.624  18.098  0.00  0.00    -0.133 NA
ATOM      5  C5  ZIN A   1      19.057   2.583  16.901  0.00  0.00     0.154 A 
ATOM      6  C6  ZIN A   1      19.940   3.613  16.243  0.00  0.00     0.230 C 
ATOM      7  N7  ZIN A   1      19.250   4.093  15.041  0.00  0.00    -0.280 NA
ATOM      8  C8  ZIN A   1      18.945   3.303  14.071  0.00  0.00     0.076 C 
ATOM      9  C16 ZIN A   1      19.182   1.858  13.976  0.00  0.00     0.022 A 
ATOM     10  C17 ZIN A   1      19.627   1.341  12.750  0.00  0.00     0.040 A 
ATOM     11  C18 ZIN A   1      19.835  -0.012  12.596  0.00  0.00     0.035 A 
ATOM     12 Cl19 ZIN A   1      20.392  -0.633  11.074  0.00  0.00    -0.084 Cl
ATOM     13  C20 ZIN A   1      19.603  -0.877  13.652  0.00  0.00     0.026 A 
ATOM     14  C21 ZIN A   1      19.176  -0.384  14.868  0.00  0.00     0.033 A 
ATOM     15  C22 ZIN A   1      18.978   0.982  15.044  0.00  0.00     0.055 A 
ATOM     16  N23 ZIN A   1      18.625   1.438  16.315  0.00  0.00    -0.282 N 
ENDROOT
BRANCH   8  17
ATOM     17  C9  ZIN A   1      18.277   3.930  12.907  0.00  0.00     0.015 A 
ATOM     18  C14 ZIN A   1      17.188   4.783  13.100  0.00  0.00     0.046 A 
ATOM     19  C13 ZIN A   1      16.572   5.369  12.012  0.00  0.00     0.025 A 
ATOM     20 Cl15 ZIN A   1      16.618   5.116  14.706  0.00  0.00    -0.083 Cl
ATOM     21  C12 ZIN A   1      17.026   5.104  10.733  0.00  0.00     0.002 A 
ATOM     22  C11 ZIN A   1      18.101   4.256  10.534  0.00  0.00     0.001 A 
ATOM     23  C10 ZIN A   1      18.729   3.668  11.614  0.00  0.00     0.015 A 
ENDBRANCH   8  17
TORSDOF 1
ENDMDL
MODEL 9
REMARK VINA RESULT:      -7.2      2.970      4.991
REMARK  1 active torsions:
REMARK  status: ('A' for Active; 'I' for Inactive)
REMARK    1  A    between atoms: C8_8  and  C9_9 
ROOT
ATOM      1  C1  ZIN A   1      17.144   2.939  11.780  0.00  0.00     0.093 C 
ATOM      2  C2  ZIN A   1      18.216   2.310  10.927  0.00  0.00     0.131 A 
ATOM      3  N3  ZIN A   1      18.583   2.689   9.731  0.00  0.00    -0.135 NA
ATOM      4  N4  ZIN A   1      19.515   1.916   9.292  0.00  0.00    -0.133 NA
ATOM      5  C5  ZIN A   1      19.779   1.002  10.179  0.00  0.00     0.154 A 
ATOM      6  C6  ZIN A   1      20.753  -0.143  10.057  0.00  0.00     0.230 C 
ATOM      7  N7  ZIN A   1      19.995  -1.391  10.199  0.00  0.00    -0.280 NA
ATOM      8  C8  ZIN A   1      19.344  -1.673  11.273  0.00  0.00     0.076 C 
ATOM      9  C16 ZIN A   1      19.207  -0.857  12.485  0.00  0.00     0.022 A 
ATOM     10  C17 ZIN A   1      19.291  -1.502  13.728  0.00  0.00     0.040 A 
ATOM     11  C18 ZIN A   1      19.139  -0.790  14.897  0.00  0.00     0.035 A 
ATOM     12 Cl19 ZIN A   1      19.252  -1.603  16.426  0.00  0.00    -0.084 Cl
ATOM     13  C20 ZIN A   1      18.898   0.574  14.856  0.00  0.00     0.026 A 
ATOM     14  C21 ZIN A   1      18.823   1.225  13.642  0.00  0.00     0.033 A 
ATOM     15  C22 ZIN A   1      18.992   0.522  12.453  0.00  0.00     0.055 A 
ATOM     16  N23 ZIN A   1      18.990   1.241  11.257  0.00  0.00    -0.282 N 
ENDROOT
BRANCH   8  17
ATOM     17  C9  ZIN A   1      18.649  -2.981  11.289  0.00  0.00     0.015 A 
ATOM     18  C14 ZIN A   1      19.375  -4.158  11.482  0.00  0.00     0.046 A 
ATOM     19  C13 ZIN A   1      18.721  -5.374  11.501  0.00  0.00     0.025 A 
ATOM     20 Cl15 ZIN A   1      21.095  -4.091  11.713  0.00  0.00    -0.083 Cl
ATOM     21  C12 ZIN A   1      17.351  -5.428  11.318  0.00  0.00     0.002 A 
ATOM     22  C11 ZIN A   1      16.627  -4.266  11.120  0.00  0.00     0.001 A 
ATOM     23  C10 ZIN A   1      17.268  -3.043  11.104  0.00  0.00     0.015 A 
ENDBRANCH   8  17
TORSDOF 1
ENDMDL
