MODEL 1
REMARK VINA RESULT:      -8.5      0.000      0.000
REMARK  7 active torsions:
REMARK  status: ('A' for Active; 'I' for Inactive)
REMARK    1  A    between atoms: C2_2  and  C3_3 
REMARK    2  A    between atoms: C2_2  and  C20_20 
REMARK    3  A    between atoms: C3_3  and  C4_4 
REMARK    4  A    between atoms: C4_4  and  C5_5 
REMARK    5  A    between atoms: C5_5  and  N6_6 
REMARK    6  A    between atoms: C9_9  and  O10_10 
REMARK    7  A    between atoms: C9_9  and  C11_11 
ROOT
ATOM      1  N6  <0> d   1      18.760   1.393  13.516  0.00  0.00     0.088 N 
ATOM      2  C7  <0> d   1      18.062   0.380  14.317  0.00  0.00     0.276 C 
ATOM      3  C8  <0> d   1      17.825  -0.870  13.467  0.00  0.00     0.073 C 
ATOM      4  C9  <0> d   1      19.171  -1.415  12.982  0.00  0.00     0.088 C 
ATOM      5  C18 <0> d   1      19.899  -0.324  12.191  0.00  0.00     0.073 C 
ATOM      6  C19 <0> d   1      20.076   0.910  13.079  0.00  0.00     0.276 C 
ENDROOT
BRANCH   1   7
ATOM      7  C5  <0> d   1      18.882   2.656  14.255  0.00  0.00     0.272 C 
BRANCH   7   8
ATOM      8  C4  <0> d   1      18.043   3.733  13.565  0.00  0.00     0.038 C 
BRANCH   8   9
ATOM      9  C3  <0> d   1      18.633   4.034  12.185  0.00  0.00     0.085 C 
BRANCH   9  10
ATOM     10  C2  <0> d   1      17.650   3.621  11.119  0.00  0.00     0.159 C 
ATOM     11  O1  <0> d   1      16.587   4.194  11.019  0.00  0.00    -0.292 OA
BRANCH  10  12
ATOM     12  C20 <0> d   1      17.980   2.518  10.205  0.00  0.00     0.010 A 
ATOM     13  C26 <0> d   1      17.331   1.284  10.328  0.00  0.00     0.018 A 
ATOM     14  C25 <0> d   1      17.641   0.257   9.464  0.00  0.00     0.043 A 
ATOM     15  C23 <0> d   1      18.601   0.440   8.481  0.00  0.00     0.116 A 
ATOM     16  C22 <0> d   1      19.253   1.657   8.356  0.00  0.00     0.043 A 
ATOM     17  F24 <0> d   1      18.903  -0.574   7.640  0.00  0.00    -0.206 F 
ATOM     18  C21 <0> d   1      18.948   2.695   9.210  0.00  0.00     0.018 A 
ENDBRANCH  10  12
ENDBRANCH   9  10
ENDBRANCH   8   9
ENDBRANCH   7   8
ENDBRANCH   1   7
BRANCH   4  19
ATOM     19  O10 <0> d   1      19.964  -1.799  14.107  0.00  0.00    -0.385 OA
ATOM     20  H37 <0> d   1      19.453  -2.154  14.847  0.00  0.00     0.211 HD
ENDBRANCH   4  19
BRANCH   4  21
ATOM     21  C11 <0> d   1      18.940  -2.613  12.096  0.00  0.00    -0.024 A 
ATOM     22  C17 <0> d   1      20.001  -3.426  11.744  0.00  0.00     0.012 A 
ATOM     23  C16 <0> d   1      19.789  -4.527  10.937  0.00  0.00     0.024 A 
ATOM     24  C14 <0> d   1      18.517  -4.809  10.472  0.00  0.00     0.034 A 
ATOM     25  C13 <0> d   1      17.456  -3.991  10.819  0.00  0.00     0.024 A 
ATOM     26 Cl15 <0> d   1      18.251  -6.188   9.451  0.00  0.00    -0.084 Cl
ATOM     27  C12 <0> d   1      17.668  -2.893  11.632  0.00  0.00     0.012 A 
ENDBRANCH   4  21
TORSDOF 7
ENDMDL
MODEL 2
REMARK VINA RESULT:      -8.1      1.382      2.142
REMARK  7 active torsions:
REMARK  status: ('A' for Active; 'I' for Inactive)
REMARK    1  A    between atoms: C2_2  and  C3_3 
REMARK    2  A    between atoms: C2_2  and  C20_20 
REMARK    3  A    between atoms: C3_3  and  C4_4 
REMARK    4  A    between atoms: C4_4  and  C5_5 
REMARK    5  A    between atoms: C5_5  and  N6_6 
REMARK    6  A    between atoms: C9_9  and  O10_10 
REMARK    7  A    between atoms: C9_9  and  C11_11 
ROOT
ATOM      1  N6  <0> d   1      19.463  -0.399  12.475  0.00  0.00     0.088 N 
ATOM      2  C7  <0> d   1      19.288  -1.526  13.400  0.00  0.00     0.276 C 
ATOM      3  C8  <0> d   1      18.616  -2.690  12.668  0.00  0.00     0.073 C 
ATOM      4  C9  <0> d   1      19.487  -3.110  11.482  0.00  0.00     0.088 C 
ATOM      5  C18 <0> d   1      19.693  -1.907  10.557  0.00  0.00     0.073 C 
ATOM      6  C19 <0> d   1      20.334  -0.766  11.351  0.00  0.00     0.276 C 
ENDROOT
BRANCH   1   7
ATOM      7  C5  <0> d   1      19.978   0.784  13.176  0.00  0.00     0.272 C 
BRANCH   7   8
ATOM      8  C4  <0> d   1      18.955   1.917  13.084  0.00  0.00     0.038 C 
BRANCH   8   9
ATOM      9  C3  <0> d   1      19.224   2.746  11.825  0.00  0.00     0.085 C 
BRANCH   9  10
ATOM     10  C2  <0> d   1      18.049   2.631  10.889  0.00  0.00     0.159 C 
ATOM     11  O1  <0> d   1      17.025   3.238  11.123  0.00  0.00    -0.292 OA
BRANCH  10  12
ATOM     12  C20 <0> d   1      18.142   1.778   9.696  0.00  0.00     0.010 A 
ATOM     13  C26 <0> d   1      19.051   2.090   8.677  0.00  0.00     0.018 A 
ATOM     14  C25 <0> d   1      19.136   1.283   7.565  0.00  0.00     0.043 A 
ATOM     15  C23 <0> d   1      18.317   0.170   7.446  0.00  0.00     0.116 A 
ATOM     16  C22 <0> d   1      17.410  -0.141   8.447  0.00  0.00     0.043 A 
ATOM     17  F24 <0> d   1      18.403  -0.614   6.349  0.00  0.00    -0.206 F 
ATOM     18  C21 <0> d   1      17.318   0.654   9.569  0.00  0.00     0.018 A 
ENDBRANCH  10  12
ENDBRANCH   9  10
ENDBRANCH   8   9
ENDBRANCH   7   8
ENDBRANCH   1   7
BRANCH   4  19
ATOM     19  O10 <0> d   1      20.754  -3.570  11.956  0.00  0.00    -0.385 OA
ATOM     20  H37 <0> d   1      21.041  -4.406  11.566  0.00  0.00     0.211 HD
ENDBRANCH   4  19
BRANCH   4  21
ATOM     21  C11 <0> d   1      18.802  -4.218  10.722  0.00  0.00    -0.024 A 
ATOM     22  C17 <0> d   1      19.423  -4.792   9.628  0.00  0.00     0.012 A 
ATOM     23  C16 <0> d   1      18.798  -5.812   8.936  0.00  0.00     0.024 A 
ATOM     24  C14 <0> d   1      17.546  -6.250   9.330  0.00  0.00     0.034 A 
ATOM     25  C13 <0> d   1      16.923  -5.671  10.421  0.00  0.00     0.024 A 
ATOM     26 Cl15 <0> d   1      16.757  -7.526   8.455  0.00  0.00    -0.084 Cl
ATOM     27  C12 <0> d   1      17.551  -4.655  11.117  0.00  0.00     0.012 A 
ENDBRANCH   4  21
TORSDOF 7
ENDMDL
MODEL 3
REMARK VINA RESULT:      -8.1      2.188      5.014
REMARK  7 active torsions:
REMARK  status: ('A' for Active; 'I' for Inactive)
REMARK    1  A    between atoms: C2_2  and  C3_3 
REMARK    2  A    between atoms: C2_2  and  C20_20 
REMARK    3  A    between atoms: C3_3  and  C4_4 
REMARK    4  A    between atoms: C4_4  and  C5_5 
REMARK    5  A    between atoms: C5_5  and  N6_6 
REMARK    6  A    between atoms: C9_9  and  O10_10 
REMARK    7  A    between atoms: C9_9  and  C11_11 
ROOT
ATOM      1  N6  <0> d   1      18.639   1.280  12.310  0.00  0.00     0.088 N 
ATOM      2  C7  <0> d   1      20.020   1.211  11.815  0.00  0.00     0.276 C 
ATOM      3  C8  <0> d   1      20.055   0.421  10.505  0.00  0.00     0.073 C 
ATOM      4  C9  <0> d   1      19.158   1.111   9.475  0.00  0.00     0.088 C 
ATOM      5  C18 <0> d   1      17.736   1.213  10.034  0.00  0.00     0.073 C 
ATOM      6  C19 <0> d   1      17.769   1.981  11.358  0.00  0.00     0.276 C 
ENDROOT
BRANCH   1   7
ATOM      7  C5  <0> d   1      18.586   1.912  13.635  0.00  0.00     0.272 C 
BRANCH   7   8
ATOM      8  C4  <0> d   1      18.504   0.829  14.713  0.00  0.00     0.038 C 
BRANCH   8   9
ATOM      9  C3  <0> d   1      17.829  -0.417  14.134  0.00  0.00     0.085 C 
BRANCH   9  10
ATOM     10  C2  <0> d   1      18.876  -1.455  13.821  0.00  0.00     0.159 C 
ATOM     11  O1  <0> d   1      19.813  -1.618  14.573  0.00  0.00    -0.292 OA
BRANCH  10  12
ATOM     12  C20 <0> d   1      18.764  -2.265  12.600  0.00  0.00     0.010 A 
ATOM     13  C26 <0> d   1      19.837  -3.064  12.185  0.00  0.00     0.018 A 
ATOM     14  C25 <0> d   1      19.723  -3.825  11.043  0.00  0.00     0.043 A 
ATOM     15  C23 <0> d   1      18.553  -3.793  10.298  0.00  0.00     0.116 A 
ATOM     16  C22 <0> d   1      17.489  -3.000  10.699  0.00  0.00     0.043 A 
ATOM     17  F24 <0> d   1      18.451  -4.539   9.176  0.00  0.00    -0.206 F 
ATOM     18  C21 <0> d   1      17.588  -2.238  11.843  0.00  0.00     0.018 A 
ENDBRANCH  10  12
ENDBRANCH   9  10
ENDBRANCH   8   9
ENDBRANCH   7   8
ENDBRANCH   1   7
BRANCH   4  19
ATOM     19  O10 <0> d   1      19.660   2.421   9.205  0.00  0.00    -0.385 OA
ATOM     20  H37 <0> d   1      18.974   3.097   9.125  0.00  0.00     0.211 HD
ENDBRANCH   4  19
BRANCH   4  21
ATOM     21  C11 <0> d   1      19.143   0.305   8.200  0.00  0.00    -0.024 A 
ATOM     22  C17 <0> d   1      18.925   0.934   6.989  0.00  0.00     0.012 A 
ATOM     23  C16 <0> d   1      18.918   0.197   5.820  0.00  0.00     0.024 A 
ATOM     24  C14 <0> d   1      19.115  -1.172   5.864  0.00  0.00     0.034 A 
ATOM     25  C13 <0> d   1      19.326  -1.802   7.078  0.00  0.00     0.024 A 
ATOM     26 Cl15 <0> d   1      19.097  -2.100   4.397  0.00  0.00    -0.084 Cl
ATOM     27  C12 <0> d   1      19.340  -1.062   8.246  0.00  0.00     0.012 A 
ENDBRANCH   4  21
TORSDOF 7
ENDMDL
MODEL 4
REMARK VINA RESULT:      -8.0      3.424      5.473
REMARK  7 active torsions:
REMARK  status: ('A' for Active; 'I' for Inactive)
REMARK    1  A    between atoms: C2_2  and  C3_3 
REMARK    2  A    between atoms: C2_2  and  C20_20 
REMARK    3  A    between atoms: C3_3  and  C4_4 
REMARK    4  A    between atoms: C4_4  and  C5_5 
REMARK    5  A    between atoms: C5_5  and  N6_6 
REMARK    6  A    between atoms: C9_9  and  O10_10 
REMARK    7  A    between atoms: C9_9  and  C11_11 
ROOT
ATOM      1  N6  <0> d   1      19.158  -0.703  10.870  0.00  0.00     0.088 N 
ATOM      2  C7  <0> d   1      20.354  -0.258  11.597  0.00  0.00     0.276 C 
ATOM      3  C8  <0> d   1      19.944   0.296  12.964  0.00  0.00     0.073 C 
ATOM      4  C9  <0> d   1      19.220  -0.796  13.755  0.00  0.00     0.088 C 
ATOM      5  C18 <0> d   1      18.006  -1.275  12.955  0.00  0.00     0.073 C 
ATOM      6  C19 <0> d   1      18.472  -1.784  11.588  0.00  0.00     0.276 C 
ENDROOT
BRANCH   1   7
ATOM      7  C5  <0> d   1      19.497  -1.112   9.501  0.00  0.00     0.272 C 
BRANCH   7   8
ATOM      8  C4  <0> d   1      18.758  -0.218   8.504  0.00  0.00     0.038 C 
BRANCH   8   9
ATOM      9  C3  <0> d   1      17.916   0.808   9.266  0.00  0.00     0.085 C 
BRANCH   9  10
ATOM     10  C2  <0> d   1      18.577   2.160   9.183  0.00  0.00     0.159 C 
ATOM     11  O1  <0> d   1      19.153   2.493   8.169  0.00  0.00    -0.292 OA
BRANCH  10  12
ATOM     12  C20 <0> d   1      18.529   3.072  10.335  0.00  0.00     0.010 A 
ATOM     13  C26 <0> d   1      19.655   3.234  11.151  0.00  0.00     0.018 A 
ATOM     14  C25 <0> d   1      19.605   4.095  12.225  0.00  0.00     0.043 A 
ATOM     15  C23 <0> d   1      18.439   4.792  12.505  0.00  0.00     0.116 A 
ATOM     16  C22 <0> d   1      17.318   4.633  11.705  0.00  0.00     0.043 A 
ATOM     17  F24 <0> d   1      18.396   5.631  13.563  0.00  0.00    -0.206 F 
ATOM     18  C21 <0> d   1      17.357   3.779  10.624  0.00  0.00     0.018 A 
ENDBRANCH  10  12
ENDBRANCH   9  10
ENDBRANCH   8   9
ENDBRANCH   7   8
ENDBRANCH   1   7
BRANCH   4  19
ATOM     19  O10 <0> d   1      20.107  -1.892  13.980  0.00  0.00    -0.385 OA
ATOM     20  H37 <0> d   1      19.765  -2.744  13.677  0.00  0.00     0.211 HD
ENDBRANCH   4  19
BRANCH   4  21
ATOM     21  C11 <0> d   1      18.763  -0.239  15.080  0.00  0.00    -0.024 A 
ATOM     22  C17 <0> d   1      17.959  -0.999  15.908  0.00  0.00     0.012 A 
ATOM     23  C16 <0> d   1      17.545  -0.491  17.125  0.00  0.00     0.024 A 
ATOM     24  C14 <0> d   1      17.925   0.783  17.508  0.00  0.00     0.034 A 
ATOM     25  C13 <0> d   1      18.725   1.546  16.676  0.00  0.00     0.024 A 
ATOM     26 Cl15 <0> d   1      17.399   1.424  19.034  0.00  0.00    -0.084 Cl
ATOM     27  C12 <0> d   1      19.143   1.034  15.462  0.00  0.00     0.012 A 
ENDBRANCH   4  21
TORSDOF 7
ENDMDL
MODEL 5
REMARK VINA RESULT:      -8.0      3.516      6.813
REMARK  7 active torsions:
REMARK  status: ('A' for Active; 'I' for Inactive)
REMARK    1  A    between atoms: C2_2  and  C3_3 
REMARK    2  A    between atoms: C2_2  and  C20_20 
REMARK    3  A    between atoms: C3_3  and  C4_4 
REMARK    4  A    between atoms: C4_4  and  C5_5 
REMARK    5  A    between atoms: C5_5  and  N6_6 
REMARK    6  A    between atoms: C9_9  and  O10_10 
REMARK    7  A    between atoms: C9_9  and  C11_11 
ROOT
ATOM      1  N6  <0> d   1      18.714  -1.182   9.036  0.00  0.00     0.088 N 
ATOM      2  C7  <0> d   1      17.740  -0.242   8.467  0.00  0.00     0.276 C 
ATOM      3  C8  <0> d   1      17.512   0.912   9.445  0.00  0.00     0.073 C 
ATOM      4  C9  <0> d   1      18.842   1.623   9.707  0.00  0.00     0.088 C 
ATOM      5  C18 <0> d   1      19.853   0.612  10.255  0.00  0.00     0.073 C 
ATOM      6  C19 <0> d   1      20.013  -0.534   9.252  0.00  0.00     0.276 C 
ENDROOT
BRANCH   1   7
ATOM      7  C5  <0> d   1      18.855  -2.373   8.187  0.00  0.00     0.272 C 
BRANCH   7   8
ATOM      8  C4  <0> d   1      18.176  -3.564   8.864  0.00  0.00     0.038 C 
BRANCH   8   9
ATOM      9  C3  <0> d   1      18.768  -3.762  10.262  0.00  0.00     0.085 C 
BRANCH   9  10
ATOM     10  C2  <0> d   1      17.770  -3.310  11.297  0.00  0.00     0.159 C 
ATOM     11  O1  <0> d   1      16.721  -3.903  11.429  0.00  0.00    -0.292 OA
BRANCH  10  12
ATOM     12  C20 <0> d   1      18.067  -2.144  12.143  0.00  0.00     0.010 A 
ATOM     13  C26 <0> d   1      17.156  -1.084  12.224  0.00  0.00     0.018 A 
ATOM     14  C25 <0> d   1      17.438   0.002  13.023  0.00  0.00     0.043 A 
ATOM     15  C23 <0> d   1      18.626   0.052  13.737  0.00  0.00     0.116 A 
ATOM     16  C22 <0> d   1      19.536  -0.991  13.656  0.00  0.00     0.043 A 
ATOM     17  F24 <0> d   1      18.898   1.122  14.514  0.00  0.00    -0.206 F 
ATOM     18  C21 <0> d   1      19.264  -2.087  12.865  0.00  0.00     0.018 A 
ENDBRANCH  10  12
ENDBRANCH   9  10
ENDBRANCH   8   9
ENDBRANCH   7   8
ENDBRANCH   1   7
BRANCH   4  19
ATOM     19  O10 <0> d   1      19.335   2.180   8.488  0.00  0.00    -0.385 OA
ATOM     20  H37 <0> d   1      18.660   2.618   7.953  0.00  0.00     0.211 HD
ENDBRANCH   4  19
BRANCH   4  21
ATOM     21  C11 <0> d   1      18.634   2.725  10.716  0.00  0.00    -0.024 A 
ATOM     22  C17 <0> d   1      19.646   3.053  11.598  0.00  0.00     0.012 A 
ATOM     23  C16 <0> d   1      19.458   4.067  12.518  0.00  0.00     0.024 A 
ATOM     24  C14 <0> d   1      18.253   4.745  12.563  0.00  0.00     0.034 A 
ATOM     25  C13 <0> d   1      17.238   4.412  11.684  0.00  0.00     0.024 A 
ATOM     26 Cl15 <0> d   1      18.014   6.014  13.724  0.00  0.00    -0.084 Cl
ATOM     27  C12 <0> d   1      17.429   3.402  10.760  0.00  0.00     0.012 A 
ENDBRANCH   4  21
TORSDOF 7
ENDMDL
MODEL 6
REMARK VINA RESULT:      -7.7      3.607      6.784
REMARK  7 active torsions:
REMARK  status: ('A' for Active; 'I' for Inactive)
REMARK    1  A    between atoms: C2_2  and  C3_3 
REMARK    2  A    between atoms: C2_2  and  C20_20 
REMARK    3  A    between atoms: C3_3  and  C4_4 
REMARK    4  A    between atoms: C4_4  and  C5_5 
REMARK    5  A    between atoms: C5_5  and  N6_6 
REMARK    6  A    between atoms: C9_9  and  O10_10 
REMARK    7  A    between atoms: C9_9  and  C11_11 
ROOT
ATOM      1  N6  <0> d   1      19.244  -1.511   8.882  0.00  0.00     0.088 N 
ATOM      2  C7  <0> d   1      17.826  -1.515   9.264  0.00  0.00     0.276 C 
ATOM      3  C8  <0> d   1      17.707  -1.556  10.789  0.00  0.00     0.073 C 
ATOM      4  C9  <0> d   1      18.412  -0.334  11.384  0.00  0.00     0.088 C 
ATOM      5  C18 <0> d   1      19.875  -0.327  10.932  0.00  0.00     0.073 C 
ATOM      6  C19 <0> d   1      19.931  -0.322   9.402  0.00  0.00     0.276 C 
ENDROOT
BRANCH   1   7
ATOM      7  C5  <0> d   1      19.397  -1.611   7.425  0.00  0.00     0.272 C 
BRANCH   7   8
ATOM      8  C4  <0> d   1      18.774  -2.919   6.936  0.00  0.00     0.038 C 
BRANCH   8   9
ATOM      9  C3  <0> d   1      19.851  -4.005   6.870  0.00  0.00     0.085 C 
BRANCH   9  10
ATOM     10  C2  <0> d   1      19.332  -5.266   7.511  0.00  0.00     0.159 C 
ATOM     11  O1  <0> d   1      19.343  -6.309   6.894  0.00  0.00    -0.292 OA
BRANCH  10  12
ATOM     12  C20 <0> d   1      18.807  -5.229   8.883  0.00  0.00     0.010 A 
ATOM     13  C26 <0> d   1      19.642  -4.863   9.946  0.00  0.00     0.018 A 
ATOM     14  C25 <0> d   1      19.141  -4.825  11.229  0.00  0.00     0.043 A 
ATOM     15  C23 <0> d   1      17.817  -5.159  11.470  0.00  0.00     0.116 A 
ATOM     16  C22 <0> d   1      16.986  -5.528  10.424  0.00  0.00     0.043 A 
ATOM     17  F24 <0> d   1      17.335  -5.124  12.732  0.00  0.00    -0.206 F 
ATOM     18  C21 <0> d   1      17.472  -5.564   9.135  0.00  0.00     0.018 A 
ENDBRANCH  10  12
ENDBRANCH   9  10
ENDBRANCH   8   9
ENDBRANCH   7   8
ENDBRANCH   1   7
BRANCH   4  19
ATOM     19  O10 <0> d   1      17.767   0.858  10.930  0.00  0.00    -0.385 OA
ATOM     20  H37 <0> d   1      16.914   1.029  11.351  0.00  0.00     0.211 HD
ENDBRANCH   4  19
BRANCH   4  21
ATOM     21  C11 <0> d   1      18.349  -0.398  12.889  0.00  0.00    -0.024 A 
ATOM     22  C17 <0> d   1      17.577   0.510  13.587  0.00  0.00     0.012 A 
ATOM     23  C16 <0> d   1      17.513   0.447  14.966  0.00  0.00     0.024 A 
ATOM     24  C14 <0> d   1      18.233  -0.518  15.648  0.00  0.00     0.034 A 
ATOM     25  C13 <0> d   1      19.011  -1.424  14.949  0.00  0.00     0.024 A 
ATOM     26 Cl15 <0> d   1      18.160  -0.593  17.381  0.00  0.00    -0.084 Cl
ATOM     27  C12 <0> d   1      19.068  -1.364  13.569  0.00  0.00     0.012 A 
ENDBRANCH   4  21
TORSDOF 7
ENDMDL
MODEL 7
REMARK VINA RESULT:      -7.6      2.710      4.079
REMARK  7 active torsions:
REMARK  status: ('A' for Active; 'I' for Inactive)
REMARK    1  A    between atoms: C2_2  and  C3_3 
REMARK    2  A    between atoms: C2_2  and  C20_20 
REMARK    3  A    between atoms: C3_3  and  C4_4 
REMARK    4  A    between atoms: C4_4  and  C5_5 
REMARK    5  A    between atoms: C5_5  and  N6_6 
REMARK    6  A    between atoms: C9_9  and  O10_10 
REMARK    7  A    between atoms: C9_9  and  C11_11 
ROOT
ATOM      1  N6  <0> d   1      19.136  -0.700  13.737  0.00  0.00     0.088 N 
ATOM      2  C7  <0> d   1      18.666  -1.913  13.055  0.00  0.00     0.276 C 
ATOM      3  C8  <0> d   1      18.414  -1.604  11.578  0.00  0.00     0.073 C 
ATOM      4  C9  <0> d   1      19.712  -1.106  10.937  0.00  0.00     0.088 C 
ATOM      5  C18 <0> d   1      20.205   0.129  11.695  0.00  0.00     0.073 C 
ATOM      6  C19 <0> d   1      20.406  -0.230  13.169  0.00  0.00     0.276 C 
ENDROOT
BRANCH   1   7
ATOM      7  C5  <0> d   1      19.257  -0.923  15.184  0.00  0.00     0.272 C 
BRANCH   7   8
ATOM      8  C4  <0> d   1      18.490   0.168  15.933  0.00  0.00     0.038 C 
BRANCH   8   9
ATOM      9  C3  <0> d   1      17.588   0.922  14.952  0.00  0.00     0.085 C 
BRANCH   9  10
ATOM     10  C2  <0> d   1      18.165   2.289  14.690  0.00  0.00     0.159 C 
ATOM     11  O1  <0> d   1      18.615   2.944  15.605  0.00  0.00    -0.292 OA
BRANCH  10  12
ATOM     12  C20 <0> d   1      18.178   2.831  13.323  0.00  0.00     0.010 A 
ATOM     13  C26 <0> d   1      17.499   2.163  12.296  0.00  0.00     0.018 A 
ATOM     14  C25 <0> d   1      17.510   2.679  11.019  0.00  0.00     0.043 A 
ATOM     15  C23 <0> d   1      18.200   3.851  10.747  0.00  0.00     0.116 A 
ATOM     16  C22 <0> d   1      18.880   4.514  11.757  0.00  0.00     0.043 A 
ATOM     17  F24 <0> d   1      18.210   4.349   9.491  0.00  0.00    -0.206 F 
ATOM     18  C21 <0> d   1      18.872   4.012  13.041  0.00  0.00     0.018 A 
ENDBRANCH  10  12
ENDBRANCH   9  10
ENDBRANCH   8   9
ENDBRANCH   7   8
ENDBRANCH   1   7
BRANCH   4  19
ATOM     19  O10 <0> d   1      20.702  -2.134  11.002  0.00  0.00    -0.385 OA
ATOM     20  H37 <0> d   1      21.110  -2.233  11.872  0.00  0.00     0.211 HD
ENDBRANCH   4  19
BRANCH   4  21
ATOM     21  C11 <0> d   1      19.455  -0.745   9.495  0.00  0.00    -0.024 A 
ATOM     22  C17 <0> d   1      19.190  -1.737   8.571  0.00  0.00     0.012 A 
ATOM     23  C16 <0> d   1      18.949  -1.406   7.251  0.00  0.00     0.024 A 
ATOM     24  C14 <0> d   1      18.985  -0.081   6.853  0.00  0.00     0.034 A 
ATOM     25  C13 <0> d   1      19.256   0.912   7.778  0.00  0.00     0.024 A 
ATOM     26 Cl15 <0> d   1      18.689   0.336   5.194  0.00  0.00    -0.084 Cl
ATOM     27  C12 <0> d   1      19.491   0.579   9.099  0.00  0.00     0.012 A 
ENDBRANCH   4  21
TORSDOF 7
ENDMDL
MODEL 8
REMARK VINA RESULT:      -7.5      3.640      6.100
REMARK  7 active torsions:
REMARK  status: ('A' for Active; 'I' for Inactive)
REMARK    1  A    between atoms: C2_2  and  C3_3 
REMARK    2  A    between atoms: C2_2  and  C20_20 
REMARK    3  A    between atoms: C3_3  and  C4_4 
REMARK    4  A    between atoms: C4_4  and  C5_5 
REMARK    5  A    between atoms: C5_5  and  N6_6 
REMARK    6  A    between atoms: C9_9  and  O10_10 
REMARK    7  A    between atoms: C9_9  and  C11_11 
ROOT
ATOM      1  N6  <0> d   1      18.186   3.469  13.992  0.00  0.00     0.088 N 
ATOM      2  C7  <0> d   1      18.506   2.036  14.011  0.00  0.00     0.276 C 
ATOM      3  C8  <0> d   1      18.205   1.427  12.640  0.00  0.00     0.073 C 
ATOM      4  C9  <0> d   1      19.040   2.141  11.575  0.00  0.00     0.088 C 
ATOM      5  C18 <0> d   1      18.723   3.639  11.608  0.00  0.00     0.073 C 
ATOM      6  C19 <0> d   1      19.010   4.184  13.010  0.00  0.00     0.276 C 
ENDROOT
BRANCH   1   7
ATOM      7  C5  <0> d   1      18.331   4.058  15.329  0.00  0.00     0.272 C 
BRANCH   7   8
ATOM      8  C4  <0> d   1      19.356   3.255  16.132  0.00  0.00     0.038 C 
BRANCH   8   9
ATOM      9  C3  <0> d   1      19.172   3.540  17.625  0.00  0.00     0.085 C 
BRANCH   9  10
ATOM     10  C2  <0> d   1      18.186   2.559  18.204  0.00  0.00     0.159 C 
ATOM     11  O1  <0> d   1      17.415   2.913  19.070  0.00  0.00    -0.292 OA
BRANCH  10  12
ATOM     12  C20 <0> d   1      18.163   1.170  17.723  0.00  0.00     0.010 A 
ATOM     13  C26 <0> d   1      19.297   0.360  17.859  0.00  0.00     0.018 A 
ATOM     14  C25 <0> d   1      19.267  -0.942  17.410  0.00  0.00     0.043 A 
ATOM     15  C23 <0> d   1      18.120  -1.448  16.815  0.00  0.00     0.116 A 
ATOM     16  C22 <0> d   1      16.996  -0.650  16.672  0.00  0.00     0.043 A 
ATOM     17  F24 <0> d   1      18.100  -2.724  16.374  0.00  0.00    -0.206 F 
ATOM     18  C21 <0> d   1      17.011   0.653  17.121  0.00  0.00     0.018 A 
ENDBRANCH  10  12
ENDBRANCH   9  10
ENDBRANCH   8   9
ENDBRANCH   7   8
ENDBRANCH   1   7
BRANCH   4  19
ATOM     19  O10 <0> d   1      20.429   1.941  11.843  0.00  0.00    -0.385 OA
ATOM     20  H37 <0> d   1      20.619   1.152  12.368  0.00  0.00     0.211 HD
ENDBRANCH   4  19
BRANCH   4  21
ATOM     21  C11 <0> d   1      18.705   1.585  10.214  0.00  0.00    -0.024 A 
ATOM     22  C17 <0> d   1      17.760   0.584  10.091  0.00  0.00     0.012 A 
ATOM     23  C16 <0> d   1      17.447   0.079   8.843  0.00  0.00     0.024 A 
ATOM     24  C14 <0> d   1      18.090   0.566   7.719  0.00  0.00     0.034 A 
ATOM     25  C13 <0> d   1      19.041   1.563   7.843  0.00  0.00     0.024 A 
ATOM     26 Cl15 <0> d   1      17.704  -0.074   6.152  0.00  0.00    -0.084 Cl
ATOM     27  C12 <0> d   1      19.348   2.073   9.091  0.00  0.00     0.012 A 
ENDBRANCH   4  21
TORSDOF 7
ENDMDL
MODEL 9
REMARK VINA RESULT:      -7.5      3.291      4.797
REMARK  7 active torsions:
REMARK  status: ('A' for Active; 'I' for Inactive)
REMARK    1  A    between atoms: C2_2  and  C3_3 
REMARK    2  A    between atoms: C2_2  and  C20_20 
REMARK    3  A    between atoms: C3_3  and  C4_4 
REMARK    4  A    between atoms: C4_4  and  C5_5 
REMARK    5  A    between atoms: C5_5  and  N6_6 
REMARK    6  A    between atoms: C9_9  and  O10_10 
REMARK    7  A    between atoms: C9_9  and  C11_11 
ROOT
ATOM      1  N6  <0> d   1      18.077  -3.281  11.302  0.00  0.00     0.088 N 
ATOM      2  C7  <0> d   1      18.046  -4.647  11.843  0.00  0.00     0.276 C 
ATOM      3  C8  <0> d   1      17.026  -5.482  11.065  0.00  0.00     0.073 C 
ATOM      4  C9  <0> d   1      17.418  -5.508   9.586  0.00  0.00     0.088 C 
ATOM      5  C18 <0> d   1      17.489  -4.072   9.059  0.00  0.00     0.073 C 
ATOM      6  C19 <0> d   1      18.496  -3.278   9.895  0.00  0.00     0.276 C 
ENDROOT
BRANCH   1   7
ATOM      7  C5  <0> d   1      18.942  -2.414  12.112  0.00  0.00     0.272 C 
BRANCH   7   8
ATOM      8  C4  <0> d   1      18.085  -1.387  12.853  0.00  0.00     0.038 C 
BRANCH   8   9
ATOM      9  C3  <0> d   1      18.303  -0.002  12.238  0.00  0.00     0.085 C 
BRANCH   9  10
ATOM     10  C2  <0> d   1      17.328   0.204  11.108  0.00  0.00     0.159 C 
ATOM     11  O1  <0> d   1      16.136   0.105  11.308  0.00  0.00    -0.292 OA
BRANCH  10  12
ATOM     12  C20 <0> d   1      17.823   0.518   9.759  0.00  0.00     0.010 A 
ATOM     13  C26 <0> d   1      17.349  -0.196   8.652  0.00  0.00     0.018 A 
ATOM     14  C25 <0> d   1      17.813   0.107   7.392  0.00  0.00     0.043 A 
ATOM     15  C23 <0> d   1      18.755   1.110   7.218  0.00  0.00     0.116 A 
ATOM     16  C22 <0> d   1      19.233   1.818   8.311  0.00  0.00     0.043 A 
ATOM     17  F24 <0> d   1      19.209   1.399   5.979  0.00  0.00    -0.206 F 
ATOM     18  C21 <0> d   1      18.773   1.529   9.577  0.00  0.00     0.018 A 
ENDBRANCH  10  12
ENDBRANCH   9  10
ENDBRANCH   8   9
ENDBRANCH   7   8
ENDBRANCH   1   7
BRANCH   4  19
ATOM     19  O10 <0> d   1      18.694  -6.134   9.440  0.00  0.00    -0.385 OA
ATOM     20  H37 <0> d   1      18.804  -6.933   9.972  0.00  0.00     0.211 HD
ENDBRANCH   4  19
BRANCH   4  21
ATOM     21  C11 <0> d   1      16.385  -6.281   8.805  0.00  0.00    -0.024 A 
ATOM     22  C17 <0> d   1      15.118  -5.758   8.629  0.00  0.00     0.012 A 
ATOM     23  C16 <0> d   1      14.173  -6.463   7.908  0.00  0.00     0.024 A 
ATOM     24  C14 <0> d   1      14.493  -7.698   7.373  0.00  0.00     0.034 A 
ATOM     25  C13 <0> d   1      15.759  -8.224   7.554  0.00  0.00     0.024 A 
ATOM     26 Cl15 <0> d   1      13.304  -8.588   6.473  0.00  0.00    -0.084 Cl
ATOM     27  C12 <0> d   1      16.705  -7.515   8.270  0.00  0.00     0.012 A 
ENDBRANCH   4  21
TORSDOF 7
ENDMDL
