MODEL 1
REMARK VINA RESULT:      -8.2      0.000      0.000
REMARK  6 active torsions:
REMARK  status: ('A' for Active; 'I' for Inactive)
REMARK    1  A    between atoms: C3_3  and  O4_4 
REMARK    2  A    between atoms: O4_4  and  C5_5 
REMARK    3  A    between atoms: C5_5  and  C6_6 
REMARK    4  A    between atoms: C13_13  and  C14_14 
REMARK    5  A    between atoms: C14_14  and  S15_15 
REMARK    6  A    between atoms: S15_15  and  C17_17 
ROOT
ATOM      1  C1  ZIN A   1      19.115   2.564   8.717  0.00  0.00     0.053 C 
ATOM      2  C2  ZIN A   1      18.360   1.540   9.526  0.00  0.00    -0.003 A 
ATOM      3  C3  ZIN A   1      18.342   0.205   9.132  0.00  0.00     0.078 A 
ATOM      4  C10 ZIN A   1      17.631  -0.704   9.912  0.00  0.00     0.056 A 
ATOM      5  C11 ZIN A   1      16.975  -0.251  11.039  0.00  0.00     0.119 A 
ATOM      6  N12 ZIN A   1      17.017   1.023  11.380  0.00  0.00    -0.264 NA
ATOM      7  C13 ZIN A   1      17.684   1.912  10.670  0.00  0.00     0.054 A 
ENDROOT
BRANCH   7   8
ATOM      8  C14 ZIN A   1      17.696   3.354  11.105  0.00  0.00     0.177 C 
BRANCH   8   9
ATOM      9  S15 ZIN A   1      19.010   3.606  12.331  0.00  0.00     0.091 S 
ATOM     10  O16 ZIN A   1      20.274   3.378  11.723  0.00  0.00    -0.249 OA
BRANCH   9  11
ATOM     11  C17 ZIN A   1      18.828   2.216  13.399  0.00  0.00     0.198 A 
ATOM     12  N25 ZIN A   1      19.604   1.100  13.364  0.00  0.00    -0.331 N 
ATOM     13  C24 ZIN A   1      19.148   0.252  14.355  0.00  0.00     0.063 A 
ATOM     14  H39 ZIN A   1      20.341   0.931  12.758  0.00  0.00     0.168 HD
ATOM     15  C19 ZIN A   1      18.069   0.914  14.965  0.00  0.00     0.086 A 
ATOM     16  C23 ZIN A   1      19.528  -1.006  14.800  0.00  0.00     0.032 A 
ATOM     17  N18 ZIN A   1      17.928   2.107  14.332  0.00  0.00    -0.221 NA
ATOM     18  C20 ZIN A   1      17.388   0.294  16.015  0.00  0.00     0.034 A 
ATOM     19  C21 ZIN A   1      17.776  -0.945  16.440  0.00  0.00     0.002 A 
ATOM     20  C22 ZIN A   1      18.842  -1.599  15.838  0.00  0.00     0.002 A 
ENDBRANCH   9  11
ENDBRANCH   8   9
ENDBRANCH   7   8
BRANCH   3  21
ATOM     21  O4  ZIN A   1      18.999  -0.201   8.017  0.00  0.00    -0.342 OA
BRANCH  21  22
ATOM     22  C5  ZIN A   1      18.280  -1.037   7.107  0.00  0.00     0.293 C 
BRANCH  22  23
ATOM     23  C6  ZIN A   1      17.638  -0.173   6.021  0.00  0.00     0.408 C 
ATOM     24  F7  ZIN A   1      17.657  -0.863   4.804  0.00  0.00    -0.169 F 
ATOM     25  F8  ZIN A   1      16.315   0.112   6.374  0.00  0.00    -0.169 F 
ATOM     26  F9  ZIN A   1      18.354   1.021   5.891  0.00  0.00    -0.169 F 
ENDBRANCH  22  23
ENDBRANCH  21  22
ENDBRANCH   3  21
TORSDOF 6
ENDMDL
MODEL 2
REMARK VINA RESULT:      -8.1      2.519      3.292
REMARK  6 active torsions:
REMARK  status: ('A' for Active; 'I' for Inactive)
REMARK    1  A    between atoms: C3_3  and  O4_4 
REMARK    2  A    between atoms: O4_4  and  C5_5 
REMARK    3  A    between atoms: C5_5  and  C6_6 
REMARK    4  A    between atoms: C13_13  and  C14_14 
REMARK    5  A    between atoms: C14_14  and  S15_15 
REMARK    6  A    between atoms: S15_15  and  C17_17 
ROOT
ATOM      1  C1  ZIN A   1      16.761   0.191  11.297  0.00  0.00     0.053 C 
ATOM      2  C2  ZIN A   1      17.652   0.694  10.190  0.00  0.00    -0.003 A 
ATOM      3  C3  ZIN A   1      18.090  -0.169   9.189  0.00  0.00     0.078 A 
ATOM      4  C10 ZIN A   1      18.912   0.342   8.188  0.00  0.00     0.056 A 
ATOM      5  C11 ZIN A   1      19.260   1.678   8.223  0.00  0.00     0.119 A 
ATOM      6  N12 ZIN A   1      18.824   2.465   9.188  0.00  0.00    -0.264 NA
ATOM      7  C13 ZIN A   1      18.040   2.019  10.151  0.00  0.00     0.054 A 
ENDROOT
BRANCH   7   8
ATOM      8  C14 ZIN A   1      17.574   2.962  11.228  0.00  0.00     0.177 C 
BRANCH   8   9
ATOM      9  S15 ZIN A   1      18.914   3.229  12.421  0.00  0.00     0.091 S 
ATOM     10  O16 ZIN A   1      20.156   2.889  11.822  0.00  0.00    -0.249 OA
BRANCH   9  11
ATOM     11  C17 ZIN A   1      18.669   1.933  13.589  0.00  0.00     0.198 A 
ATOM     12  N25 ZIN A   1      17.731   1.938  14.574  0.00  0.00    -0.331 N 
ATOM     13  C24 ZIN A   1      17.858   0.751  15.269  0.00  0.00     0.063 A 
ATOM     14  H39 ZIN A   1      17.090   2.643  14.753  0.00  0.00     0.168 HD
ATOM     15  C19 ZIN A   1      18.915   0.056  14.657  0.00  0.00     0.086 A 
ATOM     16  C23 ZIN A   1      17.198   0.190  16.353  0.00  0.00     0.032 A 
ATOM     17  N18 ZIN A   1      19.365   0.834  13.639  0.00  0.00    -0.221 NA
ATOM     18  C20 ZIN A   1      19.290  -1.196  15.150  0.00  0.00     0.034 A 
ATOM     19  C21 ZIN A   1      18.629  -1.733  16.219  0.00  0.00     0.002 A 
ATOM     20  C22 ZIN A   1      17.585  -1.047  16.822  0.00  0.00     0.002 A 
ENDBRANCH   9  11
ENDBRANCH   8   9
ENDBRANCH   7   8
BRANCH   3  21
ATOM     21  O4  ZIN A   1      17.726  -1.477   9.189  0.00  0.00    -0.342 OA
BRANCH  21  22
ATOM     22  C5  ZIN A   1      18.758  -2.438   9.414  0.00  0.00     0.293 C 
BRANCH  22  23
ATOM     23  C6  ZIN A   1      18.684  -2.938  10.859  0.00  0.00     0.408 C 
ATOM     24  F7  ZIN A   1      17.344  -3.089  11.232  0.00  0.00    -0.169 F 
ATOM     25  F8  ZIN A   1      19.339  -4.170  10.960  0.00  0.00    -0.169 F 
ATOM     26  F9  ZIN A   1      19.302  -2.010  11.705  0.00  0.00    -0.169 F 
ENDBRANCH  22  23
ENDBRANCH  21  22
ENDBRANCH   3  21
TORSDOF 6
ENDMDL
MODEL 3
REMARK VINA RESULT:      -8.1      3.164      6.430
REMARK  6 active torsions:
REMARK  status: ('A' for Active; 'I' for Inactive)
REMARK    1  A    between atoms: C3_3  and  O4_4 
REMARK    2  A    between atoms: O4_4  and  C5_5 
REMARK    3  A    between atoms: C5_5  and  C6_6 
REMARK    4  A    between atoms: C13_13  and  C14_14 
REMARK    5  A    between atoms: C14_14  and  S15_15 
REMARK    6  A    between atoms: S15_15  and  C17_17 
ROOT
ATOM      1  C1  ZIN A   1      20.898  -0.468  10.698  0.00  0.00     0.053 C 
ATOM      2  C2  ZIN A   1      19.833  -0.413  11.763  0.00  0.00    -0.003 A 
ATOM      3  C3  ZIN A   1      19.400   0.811  12.266  0.00  0.00     0.078 A 
ATOM      4  C10 ZIN A   1      18.414   0.811  13.249  0.00  0.00     0.056 A 
ATOM      5  C11 ZIN A   1      17.904  -0.395  13.687  0.00  0.00     0.119 A 
ATOM      6  N12 ZIN A   1      18.340  -1.535  13.186  0.00  0.00    -0.264 NA
ATOM      7  C13 ZIN A   1      19.269  -1.575  12.250  0.00  0.00     0.054 A 
ENDROOT
BRANCH   7   8
ATOM      8  C14 ZIN A   1      19.729  -2.906  11.715  0.00  0.00     0.177 C 
BRANCH   8   9
ATOM      9  S15 ZIN A   1      18.420  -3.633  10.691  0.00  0.00     0.091 S 
ATOM     10  O16 ZIN A   1      18.848  -4.897  10.203  0.00  0.00    -0.249 OA
BRANCH   9  11
ATOM     11  C17 ZIN A   1      18.438  -2.624   9.247  0.00  0.00     0.198 A 
ATOM     12  N25 ZIN A   1      19.220  -2.840   8.155  0.00  0.00    -0.331 N 
ATOM     13  C24 ZIN A   1      18.941  -1.839   7.246  0.00  0.00     0.063 A 
ATOM     14  H39 ZIN A   1      19.855  -3.564   8.036  0.00  0.00     0.168 HD
ATOM     15  C19 ZIN A   1      17.971  -1.023   7.853  0.00  0.00     0.086 A 
ATOM     16  C23 ZIN A   1      19.406  -1.530   5.975  0.00  0.00     0.032 A 
ATOM     17  N18 ZIN A   1      17.710  -1.560   9.073  0.00  0.00    -0.221 NA
ATOM     18  C20 ZIN A   1      17.486   0.093   7.167  0.00  0.00     0.034 A 
ATOM     19  C21 ZIN A   1      17.956   0.382   5.918  0.00  0.00     0.002 A 
ATOM     20  C22 ZIN A   1      18.913  -0.423   5.318  0.00  0.00     0.002 A 
ENDBRANCH   9  11
ENDBRANCH   8   9
ENDBRANCH   7   8
BRANCH   3  21
ATOM     21  O4  ZIN A   1      19.926   1.976  11.809  0.00  0.00    -0.342 OA
BRANCH  21  22
ATOM     22  C5  ZIN A   1      19.003   3.000  11.431  0.00  0.00     0.293 C 
BRANCH  22  23
ATOM     23  C6  ZIN A   1      18.567   2.783   9.981  0.00  0.00     0.408 C 
ATOM     24  F7  ZIN A   1      17.473   1.911   9.947  0.00  0.00    -0.169 F 
ATOM     25  F8  ZIN A   1      18.203   4.010   9.415  0.00  0.00    -0.169 F 
ATOM     26  F9  ZIN A   1      19.626   2.230   9.253  0.00  0.00    -0.169 F 
ENDBRANCH  22  23
ENDBRANCH  21  22
ENDBRANCH   3  21
TORSDOF 6
ENDMDL
MODEL 4
REMARK VINA RESULT:      -7.9      3.086      3.701
REMARK  6 active torsions:
REMARK  status: ('A' for Active; 'I' for Inactive)
REMARK    1  A    between atoms: C3_3  and  O4_4 
REMARK    2  A    between atoms: O4_4  and  C5_5 
REMARK    3  A    between atoms: C5_5  and  C6_6 
REMARK    4  A    between atoms: C13_13  and  C14_14 
REMARK    5  A    between atoms: C14_14  and  S15_15 
REMARK    6  A    between atoms: S15_15  and  C17_17 
ROOT
ATOM      1  C1  ZIN A   1      20.762   0.542  12.308  0.00  0.00     0.053 C 
ATOM      2  C2  ZIN A   1      19.863   0.845  11.137  0.00  0.00    -0.003 A 
ATOM      3  C3  ZIN A   1      19.426  -0.178  10.300  0.00  0.00     0.078 A 
ATOM      4  C10 ZIN A   1      18.597   0.152   9.230  0.00  0.00     0.056 A 
ATOM      5  C11 ZIN A   1      18.241   1.472   9.040  0.00  0.00     0.119 A 
ATOM      6  N12 ZIN A   1      18.676   2.414   9.855  0.00  0.00    -0.264 NA
ATOM      7  C13 ZIN A   1      19.458   2.140  10.882  0.00  0.00     0.054 A 
ENDROOT
BRANCH   7   8
ATOM      8  C14 ZIN A   1      19.925   3.256  11.779  0.00  0.00     0.177 C 
BRANCH   8   9
ATOM      9  S15 ZIN A   1      18.539   3.836  12.796  0.00  0.00     0.091 S 
ATOM     10  O16 ZIN A   1      18.903   5.046  13.445  0.00  0.00    -0.249 OA
BRANCH   9  11
ATOM     11  C17 ZIN A   1      18.503   2.672  14.119  0.00  0.00     0.198 A 
ATOM     12  N25 ZIN A   1      19.193   2.796  15.285  0.00  0.00    -0.331 N 
ATOM     13  C24 ZIN A   1      18.899   1.690  16.056  0.00  0.00     0.063 A 
ATOM     14  H39 ZIN A   1      19.782   3.527  15.530  0.00  0.00     0.168 HD
ATOM     15  C19 ZIN A   1      18.015   0.908  15.292  0.00  0.00     0.086 A 
ATOM     16  C23 ZIN A   1      19.286   1.259  17.317  0.00  0.00     0.032 A 
ATOM     17  N18 ZIN A   1      17.817   1.567  14.121  0.00  0.00    -0.221 NA
ATOM     18  C20 ZIN A   1      17.537  -0.296  15.812  0.00  0.00     0.034 A 
ATOM     19  C21 ZIN A   1      17.930  -0.704  17.056  0.00  0.00     0.002 A 
ATOM     20  C22 ZIN A   1      18.802   0.067  17.811  0.00  0.00     0.002 A 
ENDBRANCH   9  11
ENDBRANCH   8   9
ENDBRANCH   7   8
BRANCH   3  21
ATOM     21  O4  ZIN A   1      19.798  -1.464  10.521  0.00  0.00    -0.342 OA
BRANCH  21  22
ATOM     22  C5  ZIN A   1      18.751  -2.422  10.691  0.00  0.00     0.293 C 
BRANCH  22  23
ATOM     23  C6  ZIN A   1      18.478  -2.621  12.183  0.00  0.00     0.408 C 
ATOM     24  F7  ZIN A   1      17.616  -1.617  12.638  0.00  0.00    -0.169 F 
ATOM     25  F8  ZIN A   1      17.887  -3.872  12.387  0.00  0.00    -0.169 F 
ATOM     26  F9  ZIN A   1      19.684  -2.554  12.889  0.00  0.00    -0.169 F 
ENDBRANCH  22  23
ENDBRANCH  21  22
ENDBRANCH   3  21
TORSDOF 6
ENDMDL
MODEL 5
REMARK VINA RESULT:      -7.9      3.581      4.788
REMARK  6 active torsions:
REMARK  status: ('A' for Active; 'I' for Inactive)
REMARK    1  A    between atoms: C3_3  and  O4_4 
REMARK    2  A    between atoms: O4_4  and  C5_5 
REMARK    3  A    between atoms: C5_5  and  C6_6 
REMARK    4  A    between atoms: C13_13  and  C14_14 
REMARK    5  A    between atoms: C14_14  and  S15_15 
REMARK    6  A    between atoms: S15_15  and  C17_17 
ROOT
ATOM      1  C1  ZIN A   1      16.758   0.303  11.564  0.00  0.00     0.053 C 
ATOM      2  C2  ZIN A   1      17.757   0.727  10.518  0.00  0.00    -0.003 A 
ATOM      3  C3  ZIN A   1      17.876   2.066  10.158  0.00  0.00     0.078 A 
ATOM      4  C10 ZIN A   1      18.814   2.409   9.187  0.00  0.00     0.056 A 
ATOM      5  C11 ZIN A   1      19.585   1.415   8.620  0.00  0.00     0.119 A 
ATOM      6  N12 ZIN A   1      19.443   0.155   8.988  0.00  0.00    -0.264 NA
ATOM      7  C13 ZIN A   1      18.570  -0.207   9.908  0.00  0.00     0.054 A 
ENDROOT
BRANCH   7   8
ATOM      8  C14 ZIN A   1      18.450  -1.660  10.288  0.00  0.00     0.177 C 
BRANCH   8   9
ATOM      9  S15 ZIN A   1      19.825  -2.116  11.379  0.00  0.00     0.091 S 
ATOM     10  O16 ZIN A   1      19.741  -3.499  11.693  0.00  0.00    -0.249 OA
BRANCH   9  11
ATOM     11  C17 ZIN A   1      19.401  -1.338  12.901  0.00  0.00     0.198 A 
ATOM     12  N25 ZIN A   1      19.859  -0.125  13.310  0.00  0.00    -0.331 N 
ATOM     13  C24 ZIN A   1      19.297   0.132  14.545  0.00  0.00     0.063 A 
ATOM     14  H39 ZIN A   1      20.468   0.454  12.825  0.00  0.00     0.168 HD
ATOM     15  C19 ZIN A   1      18.498  -0.984  14.847  0.00  0.00     0.086 A 
ATOM     16  C23 ZIN A   1      19.381   1.185  15.445  0.00  0.00     0.032 A 
ATOM     17  N18 ZIN A   1      18.607  -1.843  13.800  0.00  0.00    -0.221 NA
ATOM     18  C20 ZIN A   1      17.795  -1.020  16.053  0.00  0.00     0.034 A 
ATOM     19  C21 ZIN A   1      17.889   0.026  16.927  0.00  0.00     0.002 A 
ATOM     20  C22 ZIN A   1      18.678   1.128  16.630  0.00  0.00     0.002 A 
ENDBRANCH   9  11
ENDBRANCH   8   9
ENDBRANCH   7   8
BRANCH   3  21
ATOM     21  O4  ZIN A   1      17.099   3.015  10.740  0.00  0.00    -0.342 OA
BRANCH  21  22
ATOM     22  C5  ZIN A   1      17.707   4.282  11.000  0.00  0.00     0.293 C 
BRANCH  22  23
ATOM     23  C6  ZIN A   1      18.388   4.249  12.370  0.00  0.00     0.408 C 
ATOM     24  F7  ZIN A   1      19.765   4.068  12.203  0.00  0.00    -0.169 F 
ATOM     25  F8  ZIN A   1      18.153   5.457  13.036  0.00  0.00    -0.169 F 
ATOM     26  F9  ZIN A   1      17.866   3.192  13.124  0.00  0.00    -0.169 F 
ENDBRANCH  22  23
ENDBRANCH  21  22
ENDBRANCH   3  21
TORSDOF 6
ENDMDL
MODEL 6
REMARK VINA RESULT:      -7.7      1.751      2.067
REMARK  6 active torsions:
REMARK  status: ('A' for Active; 'I' for Inactive)
REMARK    1  A    between atoms: C3_3  and  O4_4 
REMARK    2  A    between atoms: O4_4  and  C5_5 
REMARK    3  A    between atoms: C5_5  and  C6_6 
REMARK    4  A    between atoms: C13_13  and  C14_14 
REMARK    5  A    between atoms: C14_14  and  S15_15 
REMARK    6  A    between atoms: S15_15  and  C17_17 
ROOT
ATOM      1  C1  ZIN A   1      19.094   2.160   8.591  0.00  0.00     0.053 C 
ATOM      2  C2  ZIN A   1      19.175   0.794   9.222  0.00  0.00    -0.003 A 
ATOM      3  C3  ZIN A   1      19.002  -0.351   8.449  0.00  0.00     0.078 A 
ATOM      4  C10 ZIN A   1      19.086  -1.591   9.078  0.00  0.00     0.056 A 
ATOM      5  C11 ZIN A   1      19.336  -1.640  10.434  0.00  0.00     0.119 A 
ATOM      6  N12 ZIN A   1      19.494  -0.532  11.133  0.00  0.00    -0.264 NA
ATOM      7  C13 ZIN A   1      19.428   0.660  10.573  0.00  0.00     0.054 A 
ENDROOT
BRANCH   7   8
ATOM      8  C14 ZIN A   1      19.616   1.892  11.419  0.00  0.00     0.177 C 
BRANCH   8   9
ATOM      9  S15 ZIN A   1      18.089   2.235  12.337  0.00  0.00     0.091 S 
ATOM     10  O16 ZIN A   1      17.997   3.628  12.599  0.00  0.00    -0.249 OA
BRANCH   9  11
ATOM     11  C17 ZIN A   1      18.419   1.553  13.928  0.00  0.00     0.198 A 
ATOM     12  N25 ZIN A   1      18.458   0.224  14.213  0.00  0.00    -0.331 N 
ATOM     13  C24 ZIN A   1      18.747   0.100  15.557  0.00  0.00     0.063 A 
ATOM     14  H39 ZIN A   1      18.311  -0.503  13.588  0.00  0.00     0.168 HD
ATOM     15  C19 ZIN A   1      18.868   1.411  16.049  0.00  0.00     0.086 A 
ATOM     16  C23 ZIN A   1      18.917  -0.977  16.415  0.00  0.00     0.032 A 
ATOM     17  N18 ZIN A   1      18.655   2.249  15.001  0.00  0.00    -0.221 NA
ATOM     18  C20 ZIN A   1      19.157   1.614  17.401  0.00  0.00     0.034 A 
ATOM     19  C21 ZIN A   1      19.320   0.540  18.230  0.00  0.00     0.002 A 
ATOM     20  C22 ZIN A   1      19.202  -0.754  17.745  0.00  0.00     0.002 A 
ENDBRANCH   9  11
ENDBRANCH   8   9
ENDBRANCH   7   8
BRANCH   3  21
ATOM     21  O4  ZIN A   1      18.758  -0.261   7.117  0.00  0.00    -0.342 OA
BRANCH  21  22
ATOM     22  C5  ZIN A   1      19.066  -1.409   6.323  0.00  0.00     0.293 C 
BRANCH  22  23
ATOM     23  C6  ZIN A   1      18.936  -1.052   4.841  0.00  0.00     0.408 C 
ATOM     24  F7  ZIN A   1      17.584  -0.927   4.507  0.00  0.00    -0.169 F 
ATOM     25  F8  ZIN A   1      19.592   0.159   4.594  0.00  0.00    -0.169 F 
ATOM     26  F9  ZIN A   1      19.517  -2.062   4.066  0.00  0.00    -0.169 F 
ENDBRANCH  22  23
ENDBRANCH  21  22
ENDBRANCH   3  21
TORSDOF 6
ENDMDL
MODEL 7
REMARK VINA RESULT:      -7.6      4.111      5.945
REMARK  6 active torsions:
REMARK  status: ('A' for Active; 'I' for Inactive)
REMARK    1  A    between atoms: C3_3  and  O4_4 
REMARK    2  A    between atoms: O4_4  and  C5_5 
REMARK    3  A    between atoms: C5_5  and  C6_6 
REMARK    4  A    between atoms: C13_13  and  C14_14 
REMARK    5  A    between atoms: C14_14  and  S15_15 
REMARK    6  A    between atoms: S15_15  and  C17_17 
ROOT
ATOM      1  C1  ZIN A   1      20.824   0.240  12.164  0.00  0.00     0.053 C 
ATOM      2  C2  ZIN A   1      19.730  -0.756  11.878  0.00  0.00    -0.003 A 
ATOM      3  C3  ZIN A   1      19.184  -1.519  12.907  0.00  0.00     0.078 A 
ATOM      4  C10 ZIN A   1      18.175  -2.426  12.594  0.00  0.00     0.056 A 
ATOM      5  C11 ZIN A   1      17.755  -2.536  11.284  0.00  0.00     0.119 A 
ATOM      6  N12 ZIN A   1      18.296  -1.795  10.336  0.00  0.00    -0.264 NA
ATOM      7  C13 ZIN A   1      19.250  -0.921  10.594  0.00  0.00     0.054 A 
ENDROOT
BRANCH   7   8
ATOM      8  C14 ZIN A   1      19.833  -0.102   9.472  0.00  0.00     0.177 C 
BRANCH   8   9
ATOM      9  S15 ZIN A   1      18.593   1.082   8.879  0.00  0.00     0.091 S 
ATOM     10  O16 ZIN A   1      19.122   1.812   7.782  0.00  0.00    -0.249 OA
BRANCH   9  11
ATOM     11  C17 ZIN A   1      18.542   2.283  10.167  0.00  0.00     0.198 A 
ATOM     12  N25 ZIN A   1      19.634   2.865  10.733  0.00  0.00    -0.331 N 
ATOM     13  C24 ZIN A   1      19.178   3.745  11.694  0.00  0.00     0.063 A 
ATOM     14  H39 ZIN A   1      20.560   2.695  10.503  0.00  0.00     0.168 HD
ATOM     15  C19 ZIN A   1      17.776   3.649  11.674  0.00  0.00     0.086 A 
ATOM     16  C23 ZIN A   1      19.798   4.612  12.584  0.00  0.00     0.032 A 
ATOM     17  N18 ZIN A   1      17.455   2.738  10.719  0.00  0.00    -0.221 NA
ATOM     18  C20 ZIN A   1      17.021   4.428  12.554  0.00  0.00     0.034 A 
ATOM     19  C21 ZIN A   1      17.649   5.275  13.423  0.00  0.00     0.002 A 
ATOM     20  C22 ZIN A   1      19.033   5.371  13.443  0.00  0.00     0.002 A 
ENDBRANCH   9  11
ENDBRANCH   8   9
ENDBRANCH   7   8
BRANCH   3  21
ATOM     21  O4  ZIN A   1      19.624  -1.382  14.184  0.00  0.00    -0.342 OA
BRANCH  21  22
ATOM     22  C5  ZIN A   1      18.630  -1.261  15.204  0.00  0.00     0.293 C 
BRANCH  22  23
ATOM     23  C6  ZIN A   1      18.386   0.219  15.504  0.00  0.00     0.408 C 
ATOM     24  F7  ZIN A   1      17.294   0.673  14.758  0.00  0.00    -0.169 F 
ATOM     25  F8  ZIN A   1      18.119   0.380  16.868  0.00  0.00    -0.169 F 
ATOM     26  F9  ZIN A   1      19.524   0.958  15.162  0.00  0.00    -0.169 F 
ENDBRANCH  22  23
ENDBRANCH  21  22
ENDBRANCH   3  21
TORSDOF 6
ENDMDL
MODEL 8
REMARK VINA RESULT:      -7.6      4.381      6.520
REMARK  6 active torsions:
REMARK  status: ('A' for Active; 'I' for Inactive)
REMARK    1  A    between atoms: C3_3  and  O4_4 
REMARK    2  A    between atoms: O4_4  and  C5_5 
REMARK    3  A    between atoms: C5_5  and  C6_6 
REMARK    4  A    between atoms: C13_13  and  C14_14 
REMARK    5  A    between atoms: C14_14  and  S15_15 
REMARK    6  A    between atoms: S15_15  and  C17_17 
ROOT
ATOM      1  C1  ZIN A   1      16.777   0.054  11.666  0.00  0.00     0.053 C 
ATOM      2  C2  ZIN A   1      17.818   1.138  11.559  0.00  0.00    -0.003 A 
ATOM      3  C3  ZIN A   1      18.264   1.804  12.697  0.00  0.00     0.078 A 
ATOM      4  C10 ZIN A   1      19.227   2.798  12.546  0.00  0.00     0.056 A 
ATOM      5  C11 ZIN A   1      19.703   3.085  11.283  0.00  0.00     0.119 A 
ATOM      6  N12 ZIN A   1      19.257   2.431  10.228  0.00  0.00    -0.264 NA
ATOM      7  C13 ZIN A   1      18.349   1.479  10.331  0.00  0.00     0.054 A 
ENDROOT
BRANCH   7   8
ATOM      8  C14 ZIN A   1      17.875   0.766   9.092  0.00  0.00     0.177 C 
BRANCH   8   9
ATOM      9  S15 ZIN A   1      19.163  -0.376   8.520  0.00  0.00     0.091 S 
ATOM     10  O16 ZIN A   1      19.094  -0.498   7.106  0.00  0.00    -0.249 OA
BRANCH   9  11
ATOM     11  C17 ZIN A   1      18.584  -1.942   9.081  0.00  0.00     0.198 A 
ATOM     12  N25 ZIN A   1      17.787  -2.780   8.366  0.00  0.00    -0.331 N 
ATOM     13  C24 ZIN A   1      17.559  -3.897   9.146  0.00  0.00     0.063 A 
ATOM     14  H39 ZIN A   1      17.443  -2.624   7.472  0.00  0.00     0.168 HD
ATOM     15  C19 ZIN A   1      18.248  -3.675  10.351  0.00  0.00     0.086 A 
ATOM     16  C23 ZIN A   1      16.842  -5.071   8.967  0.00  0.00     0.032 A 
ATOM     17  N18 ZIN A   1      18.851  -2.462  10.244  0.00  0.00    -0.221 NA
ATOM     18  C20 ZIN A   1      18.201  -4.642  11.357  0.00  0.00     0.034 A 
ATOM     19  C21 ZIN A   1      17.489  -5.792  11.164  0.00  0.00     0.002 A 
ATOM     20  C22 ZIN A   1      16.809  -6.011   9.975  0.00  0.00     0.002 A 
ENDBRANCH   9  11
ENDBRANCH   8   9
ENDBRANCH   7   8
BRANCH   3  21
ATOM     21  O4  ZIN A   1      17.771   1.493  13.923  0.00  0.00    -0.342 OA
BRANCH  21  22
ATOM     22  C5  ZIN A   1      18.722   1.196  14.948  0.00  0.00     0.293 C 
BRANCH  22  23
ATOM     23  C6  ZIN A   1      18.901  -0.320  15.052  0.00  0.00     0.408 C 
ATOM     24  F7  ZIN A   1      19.943  -0.726  14.212  0.00  0.00    -0.169 F 
ATOM     25  F8  ZIN A   1      19.207  -0.663  16.374  0.00  0.00    -0.169 F 
ATOM     26  F9  ZIN A   1      17.717  -0.957  14.667  0.00  0.00    -0.169 F 
ENDBRANCH  22  23
ENDBRANCH  21  22
ENDBRANCH   3  21
TORSDOF 6
ENDMDL
MODEL 9
REMARK VINA RESULT:      -7.4      4.474      7.628
REMARK  6 active torsions:
REMARK  status: ('A' for Active; 'I' for Inactive)
REMARK    1  A    between atoms: C3_3  and  O4_4 
REMARK    2  A    between atoms: O4_4  and  C5_5 
REMARK    3  A    between atoms: C5_5  and  C6_6 
REMARK    4  A    between atoms: C13_13  and  C14_14 
REMARK    5  A    between atoms: C14_14  and  S15_15 
REMARK    6  A    between atoms: S15_15  and  C17_17 
ROOT
ATOM      1  C1  ZIN A   1      18.727   1.659  13.351  0.00  0.00     0.053 C 
ATOM      2  C2  ZIN A   1      18.446   0.280  12.813  0.00  0.00    -0.003 A 
ATOM      3  C3  ZIN A   1      18.823  -0.850  13.534  0.00  0.00     0.078 A 
ATOM      4  C10 ZIN A   1      18.540  -2.103  12.996  0.00  0.00     0.056 A 
ATOM      5  C11 ZIN A   1      17.901  -2.179  11.775  0.00  0.00     0.119 A 
ATOM      6  N12 ZIN A   1      17.559  -1.085  11.121  0.00  0.00    -0.264 NA
ATOM      7  C13 ZIN A   1      17.804   0.119  11.601  0.00  0.00     0.054 A 
ENDROOT
BRANCH   7   8
ATOM      8  C14 ZIN A   1      17.392   1.333  10.811  0.00  0.00     0.177 C 
BRANCH   8   9
ATOM      9  S15 ZIN A   1      18.826   1.985   9.910  0.00  0.00     0.091 S 
ATOM     10  O16 ZIN A   1      18.511   3.265   9.381  0.00  0.00    -0.249 OA
BRANCH   9  11
ATOM     11  C17 ZIN A   1      18.890   0.967   8.474  0.00  0.00     0.198 A 
ATOM     12  N25 ZIN A   1      19.071  -0.381   8.482  0.00  0.00    -0.331 N 
ATOM     13  C24 ZIN A   1      19.058  -0.805   7.168  0.00  0.00     0.063 A 
ATOM     14  H39 ZIN A   1      19.185  -0.942   9.265  0.00  0.00     0.168 HD
ATOM     15  C19 ZIN A   1      18.872   0.350   6.390  0.00  0.00     0.086 A 
ATOM     16  C23 ZIN A   1      19.189  -2.041   6.549  0.00  0.00     0.032 A 
ATOM     17  N18 ZIN A   1      18.777   1.396   7.251  0.00  0.00    -0.221 NA
ATOM     18  C20 ZIN A   1      18.821   0.240   4.998  0.00  0.00     0.034 A 
ATOM     19  C21 ZIN A   1      18.952  -0.984   4.407  0.00  0.00     0.002 A 
ATOM     20  C22 ZIN A   1      19.136  -2.125   5.175  0.00  0.00     0.002 A 
ENDBRANCH   9  11
ENDBRANCH   8   9
ENDBRANCH   7   8
BRANCH   3  21
ATOM     21  O4  ZIN A   1      19.449  -0.733  14.733  0.00  0.00    -0.342 OA
BRANCH  21  22
ATOM     22  C5  ZIN A   1      18.914  -1.488  15.821  0.00  0.00     0.293 C 
BRANCH  22  23
ATOM     23  C6  ZIN A   1      18.568  -0.544  16.975  0.00  0.00     0.408 C 
ATOM     24  F7  ZIN A   1      19.514  -0.688  17.995  0.00  0.00    -0.169 F 
ATOM     25  F8  ZIN A   1      18.574   0.777  16.514  0.00  0.00    -0.169 F 
ATOM     26  F9  ZIN A   1      17.298  -0.859  17.469  0.00  0.00    -0.169 F 
ENDBRANCH  22  23
ENDBRANCH  21  22
ENDBRANCH   3  21
TORSDOF 6
ENDMDL
