MODEL 1
REMARK VINA RESULT:      -8.8      0.000      0.000
REMARK  0 active torsions:
REMARK  status: ('A' for Active; 'I' for Inactive)
ROOT
ATOM      1  C1  ZIN A   1      17.700   4.811  12.136  0.00  0.00     0.309 C 
ATOM      2  N2  ZIN A   1      18.714   4.046  11.398  0.00  0.00     0.085 N 
ATOM      3  C3  ZIN A   1      19.209   2.906  12.204  0.00  0.00     0.282 C 
ATOM      4  C4  ZIN A   1      19.462   1.747  11.211  0.00  0.00     0.060 C 
ATOM      5  C6  ZIN A   1      18.856   0.513  11.770  0.00  0.00    -0.016 A 
ATOM      6  C7  ZIN A   1      19.328   0.160  13.040  0.00  0.00     0.034 A 
ATOM      7  C8  ZIN A   1      18.900  -0.975  13.687  0.00  0.00     0.034 A 
ATOM      8 Cl9  ZIN A   1      19.514  -1.366  15.263  0.00  0.00    -0.084 Cl
ATOM      9  C10 ZIN A   1      17.978  -1.805  13.073  0.00  0.00     0.026 A 
ATOM     10  C11 ZIN A   1      17.493  -1.464  11.833  0.00  0.00     0.039 A 
ATOM     11  C12 ZIN A   1      17.943  -0.313  11.175  0.00  0.00     0.083 A 
ATOM     12  O13 ZIN A   1      17.350  -0.086  10.008  0.00  0.00    -0.310 OA
ATOM     13  C14 ZIN A   1      17.814   0.378   8.854  0.00  0.00     0.082 A 
ATOM     14  C15 ZIN A   1      17.399  -0.299   7.700  0.00  0.00     0.038 A 
ATOM     15  C16 ZIN A   1      17.852   0.076   6.456  0.00  0.00     0.003 A 
ATOM     16  C17 ZIN A   1      18.732   1.137   6.344  0.00  0.00     0.001 A 
ATOM     17  C18 ZIN A   1      19.130   1.814   7.474  0.00  0.00     0.010 A 
ATOM     18  C19 ZIN A   1      18.662   1.452   8.740  0.00  0.00    -0.018 A 
ATOM     19  C20 ZIN A   1      19.106   2.281   9.873  0.00  0.00     0.060 C 
ATOM     20  C22 ZIN A   1      18.136   3.451  10.161  0.00  0.00     0.282 C 
ENDROOT
TORSDOF 0
ENDMDL
MODEL 2
REMARK VINA RESULT:      -8.6      2.251      3.961
REMARK  0 active torsions:
REMARK  status: ('A' for Active; 'I' for Inactive)
ROOT
ATOM      1  C1  ZIN A   1      18.459  -2.812  12.444  0.00  0.00     0.309 C 
ATOM      2  N2  ZIN A   1      17.524  -1.988  11.666  0.00  0.00     0.085 N 
ATOM      3  C3  ZIN A   1      17.302  -0.677  12.320  0.00  0.00     0.282 C 
ATOM      4  C4  ZIN A   1      17.156   0.359  11.181  0.00  0.00     0.060 C 
ATOM      5  C6  ZIN A   1      18.009   1.531  11.504  0.00  0.00    -0.016 A 
ATOM      6  C7  ZIN A   1      17.720   2.135  12.735  0.00  0.00     0.034 A 
ATOM      7  C8  ZIN A   1      18.390   3.254  13.172  0.00  0.00     0.034 A 
ATOM      8 Cl9  ZIN A   1      17.996   3.962  14.707  0.00  0.00    -0.084 Cl
ATOM      9  C10 ZIN A   1      19.377   3.812  12.379  0.00  0.00     0.026 A 
ATOM     10  C11 ZIN A   1      19.682   3.222  11.176  0.00  0.00     0.039 A 
ATOM     11  C12 ZIN A   1      18.988   2.090  10.732  0.00  0.00     0.083 A 
ATOM     12  O13 ZIN A   1      19.426   1.602   9.576  0.00  0.00    -0.310 OA
ATOM     13  C14 ZIN A   1      18.787   1.073   8.540  0.00  0.00     0.082 A 
ATOM     14  C15 ZIN A   1      19.201   1.499   7.271  0.00  0.00     0.038 A 
ATOM     15  C16 ZIN A   1      18.580   1.042   6.131  0.00  0.00     0.003 A 
ATOM     16  C17 ZIN A   1      17.529   0.150   6.241  0.00  0.00     0.001 A 
ATOM     17  C18 ZIN A   1      17.128  -0.282   7.484  0.00  0.00     0.010 A 
ATOM     18  C19 ZIN A   1      17.765   0.162   8.647  0.00  0.00    -0.018 A 
ATOM     19  C20 ZIN A   1      17.294  -0.409   9.919  0.00  0.00     0.060 C 
ATOM     20  C22 ZIN A   1      18.077  -1.683  10.317  0.00  0.00     0.282 C 
ENDROOT
TORSDOF 0
ENDMDL
MODEL 3
REMARK VINA RESULT:      -8.4      2.899      5.648
REMARK  0 active torsions:
REMARK  status: ('A' for Active; 'I' for Inactive)
ROOT
ATOM      1  C1  ZIN A   1      18.706   2.531  10.350  0.00  0.00     0.309 C 
ATOM      2  N2  ZIN A   1      17.734   1.777  11.152  0.00  0.00     0.085 N 
ATOM      3  C3  ZIN A   1      17.469   0.448  10.553  0.00  0.00     0.282 C 
ATOM      4  C4  ZIN A   1      17.274  -0.531  11.735  0.00  0.00     0.060 C 
ATOM      5  C6  ZIN A   1      18.085  -1.747  11.472  0.00  0.00    -0.016 A 
ATOM      6  C7  ZIN A   1      17.786  -2.393  10.266  0.00  0.00     0.034 A 
ATOM      7  C8  ZIN A   1      18.417  -3.554   9.885  0.00  0.00     0.034 A 
ATOM      8 Cl9  ZIN A   1      18.012  -4.314   8.378  0.00  0.00    -0.084 Cl
ATOM      9  C10 ZIN A   1      19.375  -4.113  10.712  0.00  0.00     0.026 A 
ATOM     10  C11 ZIN A   1      19.691  -3.482  11.892  0.00  0.00     0.039 A 
ATOM     11  C12 ZIN A   1      19.036  -2.307  12.279  0.00  0.00     0.083 A 
ATOM     12  O13 ZIN A   1      19.481  -1.785  13.417  0.00  0.00    -0.310 OA
ATOM     13  C14 ZIN A   1      18.852  -1.188  14.422  0.00  0.00     0.082 A 
ATOM     14  C15 ZIN A   1      19.239  -1.573  15.713  0.00  0.00     0.038 A 
ATOM     15  C16 ZIN A   1      18.625  -1.045  16.825  0.00  0.00     0.003 A 
ATOM     16  C17 ZIN A   1      17.608  -0.120  16.665  0.00  0.00     0.001 A 
ATOM     17  C18 ZIN A   1      17.236   0.271  15.400  0.00  0.00     0.010 A 
ATOM     18  C19 ZIN A   1      17.866  -0.246  14.265  0.00  0.00    -0.018 A 
ATOM     19  C20 ZIN A   1      17.428   0.286  12.964  0.00  0.00     0.060 C 
ATOM     20  C22 ZIN A   1      18.262   1.511  12.519  0.00  0.00     0.282 C 
ENDROOT
TORSDOF 0
ENDMDL
MODEL 4
REMARK VINA RESULT:      -8.4      2.732      5.473
REMARK  0 active torsions:
REMARK  status: ('A' for Active; 'I' for Inactive)
ROOT
ATOM      1  C1  ZIN A   1      19.611   5.181  13.445  0.00  0.00     0.309 C 
ATOM      2  N2  ZIN A   1      18.523   4.195  13.475  0.00  0.00     0.085 N 
ATOM      3  C3  ZIN A   1      18.319   3.588  12.139  0.00  0.00     0.282 C 
ATOM      4  C4  ZIN A   1      17.944   2.107  12.385  0.00  0.00     0.060 C 
ATOM      5  C6  ZIN A   1      18.761   1.262  11.479  0.00  0.00    -0.016 A 
ATOM      6  C7  ZIN A   1      18.620   1.567  10.119  0.00  0.00     0.034 A 
ATOM      7  C8  ZIN A   1      19.276   0.857   9.142  0.00  0.00     0.034 A 
ATOM      8 Cl9  ZIN A   1      19.071   1.278   7.470  0.00  0.00    -0.084 Cl
ATOM      9  C10 ZIN A   1      20.100  -0.196   9.499  0.00  0.00     0.026 A 
ATOM     10  C11 ZIN A   1      20.260  -0.498  10.830  0.00  0.00     0.039 A 
ATOM     11  C12 ZIN A   1      19.580   0.222  11.819  0.00  0.00     0.083 A 
ATOM     12  O13 ZIN A   1      19.871  -0.150  13.061  0.00  0.00    -0.310 OA
ATOM     13  C14 ZIN A   1      19.121  -0.269  14.149  0.00  0.00     0.082 A 
ATOM     14  C15 ZIN A   1      19.317  -1.425  14.916  0.00  0.00     0.038 A 
ATOM     15  C16 ZIN A   1      18.564  -1.665  16.043  0.00  0.00     0.003 A 
ATOM     16  C17 ZIN A   1      17.598  -0.752  16.422  0.00  0.00     0.001 A 
ATOM     17  C18 ZIN A   1      17.412   0.392  15.679  0.00  0.00     0.010 A 
ATOM     18  C19 ZIN A   1      18.184   0.654  14.544  0.00  0.00    -0.018 A 
ATOM     19  C20 ZIN A   1      17.941   1.934  13.859  0.00  0.00     0.060 C 
ATOM     20  C22 ZIN A   1      18.852   3.066  14.390  0.00  0.00     0.282 C 
ENDROOT
TORSDOF 0
ENDMDL
MODEL 5
REMARK VINA RESULT:      -8.4      1.544      1.941
REMARK  0 active torsions:
REMARK  status: ('A' for Active; 'I' for Inactive)
ROOT
ATOM      1  C1  ZIN A   1      16.279   5.612  12.948  0.00  0.00     0.309 C 
ATOM      2  N2  ZIN A   1      17.538   5.055  12.436  0.00  0.00     0.085 N 
ATOM      3  C3  ZIN A   1      18.185   4.188  13.448  0.00  0.00     0.282 C 
ATOM      4  C4  ZIN A   1      18.844   3.025  12.669  0.00  0.00     0.060 C 
ATOM      5  C6  ZIN A   1      18.489   1.751  13.344  0.00  0.00    -0.016 A 
ATOM      6  C7  ZIN A   1      18.860   1.688  14.693  0.00  0.00     0.034 A 
ATOM      7  C8  ZIN A   1      18.640   0.567  15.457  0.00  0.00     0.034 A 
ATOM      8 Cl9  ZIN A   1      19.116   0.541  17.127  0.00  0.00    -0.084 Cl
ATOM      9  C10 ZIN A   1      18.039  -0.542  14.887  0.00  0.00     0.026 A 
ATOM     10  C11 ZIN A   1      17.655  -0.490  13.568  0.00  0.00     0.039 A 
ATOM     11  C12 ZIN A   1      17.893   0.652  12.793  0.00  0.00     0.083 A 
ATOM     12  O13 ZIN A   1      17.423   0.575  11.552  0.00  0.00    -0.310 OA
ATOM     13  C14 ZIN A   1      17.909   1.002  10.393  0.00  0.00     0.082 A 
ATOM     14  C15 ZIN A   1      17.830   0.107   9.318  0.00  0.00     0.038 A 
ATOM     15  C16 ZIN A   1      18.338   0.435   8.082  0.00  0.00     0.003 A 
ATOM     16  C17 ZIN A   1      18.939   1.668   7.901  0.00  0.00     0.001 A 
ATOM     17  C18 ZIN A   1      19.006   2.555   8.950  0.00  0.00     0.010 A 
ATOM     18  C19 ZIN A   1      18.476   2.238  10.203  0.00  0.00    -0.018 A 
ATOM     19  C20 ZIN A   1      18.550   3.284  11.238  0.00  0.00     0.060 C 
ATOM     20  C22 ZIN A   1      17.293   4.186  11.251  0.00  0.00     0.282 C 
ENDROOT
TORSDOF 0
ENDMDL
MODEL 6
REMARK VINA RESULT:      -8.3      2.662      4.342
REMARK  0 active torsions:
REMARK  status: ('A' for Active; 'I' for Inactive)
ROOT
ATOM      1  C1  ZIN A   1      19.627  -5.296   9.855  0.00  0.00     0.309 C 
ATOM      2  N2  ZIN A   1      18.564  -4.289   9.743  0.00  0.00     0.085 N 
ATOM      3  C3  ZIN A   1      18.296  -3.651  11.053  0.00  0.00     0.282 C 
ATOM      4  C4  ZIN A   1      17.967  -2.169  10.756  0.00  0.00     0.060 C 
ATOM      5  C6  ZIN A   1      18.749  -1.321  11.692  0.00  0.00    -0.016 A 
ATOM      6  C7  ZIN A   1      18.523  -1.595  13.047  0.00  0.00     0.034 A 
ATOM      7  C8  ZIN A   1      19.137  -0.879  14.047  0.00  0.00     0.034 A 
ATOM      8 Cl9  ZIN A   1      18.827  -1.261  15.712  0.00  0.00    -0.084 Cl
ATOM      9  C10 ZIN A   1      20.002   0.150  13.718  0.00  0.00     0.026 A 
ATOM     10  C11 ZIN A   1      20.245   0.421  12.393  0.00  0.00     0.039 A 
ATOM     11  C12 ZIN A   1      19.608  -0.305  11.380  0.00  0.00     0.083 A 
ATOM     12  O13 ZIN A   1      19.978   0.036  10.150  0.00  0.00    -0.310 OA
ATOM     13  C14 ZIN A   1      19.294   0.147   9.018  0.00  0.00     0.082 A 
ATOM     14  C15 ZIN A   1      19.559   1.283   8.242  0.00  0.00     0.038 A 
ATOM     15  C16 ZIN A   1      18.877   1.515   7.069  0.00  0.00     0.003 A 
ATOM     16  C17 ZIN A   1      17.914   0.614   6.653  0.00  0.00     0.001 A 
ATOM     17  C18 ZIN A   1      17.662  -0.510   7.405  0.00  0.00     0.010 A 
ATOM     18  C19 ZIN A   1      18.362  -0.764   8.588  0.00  0.00    -0.018 A 
ATOM     19  C20 ZIN A   1      18.053  -2.025   9.282  0.00  0.00     0.060 C 
ATOM     20  C22 ZIN A   1      18.968  -3.186   8.826  0.00  0.00     0.282 C 
ENDROOT
TORSDOF 0
ENDMDL
MODEL 7
REMARK VINA RESULT:      -8.2      3.638      6.518
REMARK  0 active torsions:
REMARK  status: ('A' for Active; 'I' for Inactive)
ROOT
ATOM      1  C1  ZIN A   1      17.373  -5.901  10.354  0.00  0.00     0.309 C 
ATOM      2  N2  ZIN A   1      18.421  -4.987  10.827  0.00  0.00     0.085 N 
ATOM      3  C3  ZIN A   1      18.954  -4.169   9.714  0.00  0.00     0.282 C 
ATOM      4  C4  ZIN A   1      19.259  -2.773  10.307  0.00  0.00     0.060 C 
ATOM      5  C6  ZIN A   1      18.697  -1.745   9.394  0.00  0.00    -0.016 A 
ATOM      6  C7  ZIN A   1      19.172  -1.816   8.079  0.00  0.00     0.034 A 
ATOM      7  C8  ZIN A   1      18.783  -0.917   7.114  0.00  0.00     0.034 A 
ATOM      8 Cl9  ZIN A   1      19.399  -1.051   5.497  0.00  0.00    -0.084 Cl
ATOM      9  C10 ZIN A   1      17.899   0.096   7.441  0.00  0.00     0.026 A 
ATOM     10  C11 ZIN A   1      17.411   0.169   8.724  0.00  0.00     0.039 A 
ATOM     11  C12 ZIN A   1      17.821  -0.742   9.704  0.00  0.00     0.083 A 
ATOM     12  O13 ZIN A   1      17.229  -0.578  10.882  0.00  0.00    -0.310 OA
ATOM     13  C14 ZIN A   1      17.684  -0.685  12.124  0.00  0.00     0.082 A 
ATOM     14  C15 ZIN A   1      17.304   0.328  13.015  0.00  0.00     0.038 A 
ATOM     15  C16 ZIN A   1      17.752   0.334  14.316  0.00  0.00     0.003 A 
ATOM     16  C17 ZIN A   1      18.591  -0.676  14.750  0.00  0.00     0.001 A 
ATOM     17  C18 ZIN A   1      18.954  -1.681  13.883  0.00  0.00     0.010 A 
ATOM     18  C19 ZIN A   1      18.490  -1.705  12.565  0.00  0.00    -0.018 A 
ATOM     19  C20 ZIN A   1      18.893  -2.858  11.742  0.00  0.00     0.060 C 
ATOM     20  C22 ZIN A   1      17.876  -4.021  11.821  0.00  0.00     0.282 C 
ENDROOT
TORSDOF 0
ENDMDL
MODEL 8
REMARK VINA RESULT:      -8.1      2.068      4.270
REMARK  0 active torsions:
REMARK  status: ('A' for Active; 'I' for Inactive)
ROOT
ATOM      1  C1  ZIN A   1      19.248  -0.315   6.369  0.00  0.00     0.309 C 
ATOM      2  N2  ZIN A   1      18.246   0.242   7.287  0.00  0.00     0.085 N 
ATOM      3  C3  ZIN A   1      17.790  -0.778   8.259  0.00  0.00     0.282 C 
ATOM      4  C4  ZIN A   1      17.555  -0.034   9.594  0.00  0.00     0.060 C 
ATOM      5  C6  ZIN A   1      18.200  -0.812  10.682  0.00  0.00    -0.016 A 
ATOM      6  C7  ZIN A   1      17.752  -2.135  10.791  0.00  0.00     0.034 A 
ATOM      7  C8  ZIN A   1      18.218  -2.983  11.768  0.00  0.00     0.034 A 
ATOM      8 Cl9  ZIN A   1      17.634  -4.615  11.858  0.00  0.00    -0.084 Cl
ATOM      9  C10 ZIN A   1      19.153  -2.526  12.680  0.00  0.00     0.026 A 
ATOM     10  C11 ZIN A   1      19.613  -1.236  12.576  0.00  0.00     0.039 A 
ATOM     11  C12 ZIN A   1      19.126  -0.374  11.586  0.00  0.00     0.083 A 
ATOM     12  O13 ZIN A   1      19.699   0.825  11.578  0.00  0.00    -0.310 OA
ATOM     13  C14 ZIN A   1      19.208   2.039  11.359  0.00  0.00     0.082 A 
ATOM     14  C15 ZIN A   1      19.626   3.046  12.238  0.00  0.00     0.038 A 
ATOM     15  C16 ZIN A   1      19.149   4.332  12.124  0.00  0.00     0.003 A 
ATOM     16  C17 ZIN A   1      18.240   4.632  11.125  0.00  0.00     0.001 A 
ATOM     17  C18 ZIN A   1      17.838   3.650  10.250  0.00  0.00     0.010 A 
ATOM     18  C19 ZIN A   1      18.332   2.346  10.347  0.00  0.00    -0.018 A 
ATOM     19  C20 ZIN A   1      17.880   1.388   9.324  0.00  0.00     0.060 C 
ATOM     20  C22 ZIN A   1      18.823   1.350   8.098  0.00  0.00     0.282 C 
ENDROOT
TORSDOF 0
ENDMDL
MODEL 9
REMARK VINA RESULT:      -8.1      3.170      6.396
REMARK  0 active torsions:
REMARK  status: ('A' for Active; 'I' for Inactive)
ROOT
ATOM      1  C1  ZIN A   1      17.648  -4.303  10.515  0.00  0.00     0.309 C 
ATOM      2  N2  ZIN A   1      18.682  -3.579  11.266  0.00  0.00     0.085 N 
ATOM      3  C3  ZIN A   1      19.129  -2.375  10.527  0.00  0.00     0.282 C 
ATOM      4  C4  ZIN A   1      19.409  -1.289  11.592  0.00  0.00     0.060 C 
ATOM      5  C6  ZIN A   1      18.765  -0.026  11.152  0.00  0.00    -0.016 A 
ATOM      6  C7  ZIN A   1      19.180   0.427   9.893  0.00  0.00     0.034 A 
ATOM      7  C8  ZIN A   1      18.710   1.599   9.349  0.00  0.00     0.034 A 
ATOM      8 Cl9  ZIN A   1      19.253   2.114   7.783  0.00  0.00    -0.084 Cl
ATOM      9  C10 ZIN A   1      17.805   2.367  10.060  0.00  0.00     0.026 A 
ATOM     10  C11 ZIN A   1      17.377   1.929  11.290  0.00  0.00     0.039 A 
ATOM     11  C12 ZIN A   1      17.867   0.739  11.842  0.00  0.00     0.083 A 
ATOM     12  O13 ZIN A   1      17.327   0.418  13.013  0.00  0.00    -0.310 OA
ATOM     13  C14 ZIN A   1      17.845  -0.122  14.109  0.00  0.00     0.082 A 
ATOM     14  C15 ZIN A   1      17.470   0.462  15.326  0.00  0.00     0.038 A 
ATOM     15  C16 ZIN A   1      17.979   0.004  16.520  0.00  0.00     0.003 A 
ATOM     16  C17 ZIN A   1      18.876  -1.049  16.516  0.00  0.00     0.001 A 
ATOM     17  C18 ZIN A   1      19.235  -1.635  15.324  0.00  0.00     0.010 A 
ATOM     18  C19 ZIN A   1      18.710  -1.188  14.109  0.00  0.00    -0.018 A 
ATOM     19  C20 ZIN A   1      19.117  -1.925  12.900  0.00  0.00     0.060 C 
ATOM     20  C22 ZIN A   1      18.150  -3.085  12.566  0.00  0.00     0.282 C 
ENDROOT
TORSDOF 0
ENDMDL
