MODEL 1
REMARK VINA RESULT:      -8.2      0.000      0.000
REMARK  7 active torsions:
REMARK  status: ('A' for Active; 'I' for Inactive)
REMARK    1  A    between atoms: O1_1  and  C2_2 
REMARK    2  A    between atoms: C2_2  and  C3_3 
REMARK    3  A    between atoms: C3_3  and  N4_4 
REMARK    4  A    between atoms: N7_7  and  C9_9 
REMARK    5  A    between atoms: C9_9  and  C10_10 
REMARK    6  A    between atoms: C10_10  and  C11_11 
REMARK    7  A    between atoms: C11_11  and  N12_12 
ROOT
ATOM      1  N12 ZIN A   1      18.518  -1.717   8.679  0.00  0.00    -0.345 N 
ATOM      2  C13 ZIN A   1      18.591  -1.203   7.387  0.00  0.00     0.052 A 
ATOM      3  C14 ZIN A   1      18.096   0.073   7.146  0.00  0.00     0.031 A 
ATOM      4  C15 ZIN A   1      18.155   0.617   5.876  0.00  0.00     0.002 A 
ATOM      5  C16 ZIN A   1      18.707  -0.105   4.836  0.00  0.00     0.002 A 
ATOM      6  C17 ZIN A   1      19.200  -1.377   5.064  0.00  0.00     0.021 A 
ATOM      7  C18 ZIN A   1      19.144  -1.931   6.336  0.00  0.00     0.032 A 
ATOM      8  S19 ZIN A   1      19.773  -3.553   6.599  0.00  0.00    -0.086 SA
ATOM      9  C20 ZIN A   1      19.051  -4.028   8.133  0.00  0.00     0.032 A 
ATOM     10  C21 ZIN A   1      19.027  -5.372   8.485  0.00  0.00     0.023 A 
ATOM     11  C22 ZIN A   1      18.463  -5.766   9.685  0.00  0.00     0.025 A 
ATOM     12  C23 ZIN A   1      17.921  -4.822  10.536  0.00  0.00     0.036 A 
ATOM     13 Cl24 ZIN A   1      17.212  -5.318  12.042  0.00  0.00    -0.084 Cl
ATOM     14  C25 ZIN A   1      17.941  -3.483  10.192  0.00  0.00     0.054 A 
ATOM     15  C26 ZIN A   1      18.512  -3.075   8.988  0.00  0.00     0.053 A 
ENDROOT
BRANCH   1  16
ATOM     16  C11 ZIN A   1      18.450  -0.764   9.789  0.00  0.00     0.131 C 
BRANCH  16  17
ATOM     17  C10 ZIN A   1      19.860  -0.276  10.128  0.00  0.00     0.048 C 
BRANCH  17  18
ATOM     18  C9  ZIN A   1      20.350  -0.973  11.399  0.00  0.00     0.236 C 
BRANCH  18  19
ATOM     19  N7  ZIN A   1      19.535  -0.537  12.541  0.00  0.00    -0.068 N 
ATOM     20  C6  ZIN A   1      20.262   0.494  13.295  0.00  0.00     0.265 C 
ATOM     21  C5  ZIN A   1      19.406   0.962  14.473  0.00  0.00     0.300 C 
ATOM     22  N4  ZIN A   1      19.105  -0.185  15.343  0.00  0.00     0.093 N 
ATOM     23  C28 ZIN A   1      18.400  -1.236  14.596  0.00  0.00     0.300 C 
ATOM     24  C27 ZIN A   1      19.264  -1.685  13.416  0.00  0.00     0.265 C 
ATOM     25  H8  ZIN A   1      18.663  -0.156  12.206  0.00  0.00     0.280 HD
BRANCH  22  26
ATOM     26  C3  ZIN A   1      18.332   0.235  16.518  0.00  0.00     0.298 C 
BRANCH  26  27
ATOM     27  C2  ZIN A   1      19.045  -0.226  17.790  0.00  0.00     0.194 C 
BRANCH  27  28
ATOM     28  O1  ZIN A   1      19.897   0.819  18.264  0.00  0.00    -0.399 OA
ATOM     29  H29 ZIN A   1      19.988   0.847  19.226  0.00  0.00     0.209 HD
ENDBRANCH  27  28
ENDBRANCH  26  27
ENDBRANCH  22  26
ENDBRANCH  18  19
ENDBRANCH  17  18
ENDBRANCH  16  17
ENDBRANCH   1  16
TORSDOF 7
ENDMDL
MODEL 2
REMARK VINA RESULT:      -8.2      4.607      9.232
REMARK  7 active torsions:
REMARK  status: ('A' for Active; 'I' for Inactive)
REMARK    1  A    between atoms: O1_1  and  C2_2 
REMARK    2  A    between atoms: C2_2  and  C3_3 
REMARK    3  A    between atoms: C3_3  and  N4_4 
REMARK    4  A    between atoms: N7_7  and  C9_9 
REMARK    5  A    between atoms: C9_9  and  C10_10 
REMARK    6  A    between atoms: C10_10  and  C11_11 
REMARK    7  A    between atoms: C11_11  and  N12_12 
ROOT
ATOM      1  N12 ZIN A   1      18.546   1.487  14.357  0.00  0.00    -0.345 N 
ATOM      2  C13 ZIN A   1      18.702   0.979  15.644  0.00  0.00     0.052 A 
ATOM      3  C14 ZIN A   1      18.424  -0.365  15.871  0.00  0.00     0.031 A 
ATOM      4  C15 ZIN A   1      18.572  -0.905  17.135  0.00  0.00     0.002 A 
ATOM      5  C16 ZIN A   1      18.998  -0.112  18.183  0.00  0.00     0.002 A 
ATOM      6  C17 ZIN A   1      19.275   1.226  17.969  0.00  0.00     0.021 A 
ATOM      7  C18 ZIN A   1      19.128   1.776  16.702  0.00  0.00     0.032 A 
ATOM      8  S19 ZIN A   1      19.481   3.482  16.457  0.00  0.00    -0.086 SA
ATOM      9  C20 ZIN A   1      18.691   3.849  14.927  0.00  0.00     0.032 A 
ATOM     10  C21 ZIN A   1      18.446   5.173  14.589  0.00  0.00     0.023 A 
ATOM     11  C22 ZIN A   1      17.825   5.482  13.392  0.00  0.00     0.025 A 
ATOM     12  C23 ZIN A   1      17.445   4.471  12.530  0.00  0.00     0.036 A 
ATOM     13 Cl24 ZIN A   1      16.664   4.859  11.029  0.00  0.00    -0.084 Cl
ATOM     14  C25 ZIN A   1      17.685   3.149  12.861  0.00  0.00     0.054 A 
ATOM     15  C26 ZIN A   1      18.316   2.828  14.061  0.00  0.00     0.053 A 
ENDROOT
BRANCH   1  16
ATOM     16  C11 ZIN A   1      18.635   0.547  13.236  0.00  0.00     0.131 C 
BRANCH  16  17
ATOM     17  C10 ZIN A   1      20.106   0.316  12.882  0.00  0.00     0.048 C 
BRANCH  17  18
ATOM     18  C9  ZIN A   1      20.462   1.122  11.632  0.00  0.00     0.236 C 
BRANCH  18  19
ATOM     19  N7  ZIN A   1      19.659   0.645  10.497  0.00  0.00    -0.068 N 
ATOM     20  C6  ZIN A   1      20.382  -0.428   9.803  0.00  0.00     0.265 C 
ATOM     21  C5  ZIN A   1      19.539  -0.937   8.633  0.00  0.00     0.300 C 
ATOM     22  N4  ZIN A   1      19.268   0.172   7.707  0.00  0.00     0.093 N 
ATOM     23  C28 ZIN A   1      18.566   1.266   8.395  0.00  0.00     0.300 C 
ATOM     24  C27 ZIN A   1      19.419   1.756   9.567  0.00  0.00     0.265 C 
ATOM     25  H8  ZIN A   1      18.777   0.293  10.834  0.00  0.00     0.280 HD
BRANCH  22  26
ATOM     26  C3  ZIN A   1      18.507  -0.289   6.540  0.00  0.00     0.298 C 
BRANCH  26  27
ATOM     27  C2  ZIN A   1      19.085   0.340   5.271  0.00  0.00     0.194 C 
BRANCH  27  28
ATOM     28  O1  ZIN A   1      20.039  -0.550   4.690  0.00  0.00    -0.399 OA
ATOM     29  H29 ZIN A   1      20.867  -0.619   5.185  0.00  0.00     0.209 HD
ENDBRANCH  27  28
ENDBRANCH  26  27
ENDBRANCH  22  26
ENDBRANCH  18  19
ENDBRANCH  17  18
ENDBRANCH  16  17
ENDBRANCH   1  16
TORSDOF 7
ENDMDL
MODEL 3
REMARK VINA RESULT:      -7.7      2.641      4.051
REMARK  7 active torsions:
REMARK  status: ('A' for Active; 'I' for Inactive)
REMARK    1  A    between atoms: O1_1  and  C2_2 
REMARK    2  A    between atoms: C2_2  and  C3_3 
REMARK    3  A    between atoms: C3_3  and  N4_4 
REMARK    4  A    between atoms: N7_7  and  C9_9 
REMARK    5  A    between atoms: C9_9  and  C10_10 
REMARK    6  A    between atoms: C10_10  and  C11_11 
REMARK    7  A    between atoms: C11_11  and  N12_12 
ROOT
ATOM      1  N12 ZIN A   1      18.148  -0.441  11.852  0.00  0.00    -0.345 N 
ATOM      2  C13 ZIN A   1      18.233   0.770  11.169  0.00  0.00     0.052 A 
ATOM      3  C14 ZIN A   1      17.546   1.870  11.668  0.00  0.00     0.031 A 
ATOM      4  C15 ZIN A   1      17.610   3.089  11.018  0.00  0.00     0.002 A 
ATOM      5  C16 ZIN A   1      18.359   3.221   9.865  0.00  0.00     0.002 A 
ATOM      6  C17 ZIN A   1      19.045   2.133   9.358  0.00  0.00     0.021 A 
ATOM      7  C18 ZIN A   1      18.984   0.905  10.004  0.00  0.00     0.032 A 
ATOM      8  S19 ZIN A   1      19.861  -0.466   9.335  0.00  0.00    -0.086 SA
ATOM      9  C20 ZIN A   1      19.114  -1.852  10.121  0.00  0.00     0.032 A 
ATOM     10  C21 ZIN A   1      19.294  -3.119   9.580  0.00  0.00     0.023 A 
ATOM     11  C22 ZIN A   1      18.714  -4.221  10.181  0.00  0.00     0.025 A 
ATOM     12  C23 ZIN A   1      17.951  -4.064  11.323  0.00  0.00     0.036 A 
ATOM     13 Cl24 ZIN A   1      17.222  -5.448  12.075  0.00  0.00    -0.084 Cl
ATOM     14  C25 ZIN A   1      17.766  -2.805  11.867  0.00  0.00     0.054 A 
ATOM     15  C26 ZIN A   1      18.352  -1.690  11.272  0.00  0.00     0.053 A 
ENDROOT
BRANCH   1  16
ATOM     16  C11 ZIN A   1      17.829  -0.396  13.281  0.00  0.00     0.131 C 
BRANCH  16  17
ATOM     17  C10 ZIN A   1      19.126  -0.349  14.091  0.00  0.00     0.048 C 
BRANCH  17  18
ATOM     18  C9  ZIN A   1      18.902  -1.010  15.453  0.00  0.00     0.236 C 
BRANCH  18  19
ATOM     19  N7  ZIN A   1      18.966   0.010  16.509  0.00  0.00    -0.068 N 
ATOM     20  C6  ZIN A   1      17.729  -0.027  17.299  0.00  0.00     0.265 C 
ATOM     21  C5  ZIN A   1      17.802   1.022  18.411  0.00  0.00     0.300 C 
ATOM     22  N4  ZIN A   1      17.983   2.353  17.814  0.00  0.00     0.093 N 
ATOM     23  C28 ZIN A   1      19.206   2.398  16.998  0.00  0.00     0.300 C 
ATOM     24  C27 ZIN A   1      19.120   1.337  15.899  0.00  0.00     0.265 C 
ATOM     25  H8  ZIN A   1      19.754  -0.177  17.109  0.00  0.00     0.280 HD
BRANCH  22  26
ATOM     26  C3  ZIN A   1      18.002   3.396  18.848  0.00  0.00     0.298 C 
BRANCH  26  27
ATOM     27  C2  ZIN A   1      16.639   3.454  19.539  0.00  0.00     0.194 C 
BRANCH  27  28
ATOM     28  O1  ZIN A   1      15.772   4.326  18.810  0.00  0.00    -0.399 OA
ATOM     29  H29 ZIN A   1      15.803   5.246  19.102  0.00  0.00     0.209 HD
ENDBRANCH  27  28
ENDBRANCH  26  27
ENDBRANCH  22  26
ENDBRANCH  18  19
ENDBRANCH  17  18
ENDBRANCH  16  17
ENDBRANCH   1  16
TORSDOF 7
ENDMDL
MODEL 4
REMARK VINA RESULT:      -7.6      3.083      5.280
REMARK  7 active torsions:
REMARK  status: ('A' for Active; 'I' for Inactive)
REMARK    1  A    between atoms: O1_1  and  C2_2 
REMARK    2  A    between atoms: C2_2  and  C3_3 
REMARK    3  A    between atoms: C3_3  and  N4_4 
REMARK    4  A    between atoms: N7_7  and  C9_9 
REMARK    5  A    between atoms: C9_9  and  C10_10 
REMARK    6  A    between atoms: C10_10  and  C11_11 
REMARK    7  A    between atoms: C11_11  and  N12_12 
ROOT
ATOM      1  N12 ZIN A   1      19.375  -1.005  11.690  0.00  0.00    -0.345 N 
ATOM      2  C13 ZIN A   1      19.361  -2.223  11.015  0.00  0.00     0.052 A 
ATOM      3  C14 ZIN A   1      20.024  -3.308  11.578  0.00  0.00     0.031 A 
ATOM      4  C15 ZIN A   1      20.027  -4.533  10.937  0.00  0.00     0.002 A 
ATOM      5  C16 ZIN A   1      19.371  -4.689   9.732  0.00  0.00     0.002 A 
ATOM      6  C17 ZIN A   1      18.711  -3.616   9.162  0.00  0.00     0.021 A 
ATOM      7  C18 ZIN A   1      18.703  -2.381   9.798  0.00  0.00     0.032 A 
ATOM      8  S19 ZIN A   1      17.860  -1.030   9.049  0.00  0.00    -0.086 SA
ATOM      9  C20 ZIN A   1      18.525   0.375   9.875  0.00  0.00     0.032 A 
ATOM     10  C21 ZIN A   1      18.368   1.634   9.308  0.00  0.00     0.023 A 
ATOM     11  C22 ZIN A   1      18.885   2.750   9.940  0.00  0.00     0.025 A 
ATOM     12  C23 ZIN A   1      19.559   2.616  11.138  0.00  0.00     0.036 A 
ATOM     13 Cl24 ZIN A   1      20.209   4.018  11.930  0.00  0.00    -0.084 Cl
ATOM     14  C25 ZIN A   1      19.720   1.365  11.708  0.00  0.00     0.054 A 
ATOM     15  C26 ZIN A   1      19.198   0.235  11.082  0.00  0.00     0.053 A 
ENDROOT
BRANCH   1  16
ATOM     16  C11 ZIN A   1      19.584  -1.031  13.140  0.00  0.00     0.131 C 
BRANCH  16  17
ATOM     17  C10 ZIN A   1      18.229  -1.058  13.849  0.00  0.00     0.048 C 
BRANCH  17  18
ATOM     18  C9  ZIN A   1      18.433  -1.403  15.326  0.00  0.00     0.236 C 
BRANCH  18  19
ATOM     19  N7  ZIN A   1      18.896  -0.210  16.048  0.00  0.00    -0.068 N 
ATOM     20  C6  ZIN A   1      18.803  -0.447  17.494  0.00  0.00     0.265 C 
ATOM     21  C5  ZIN A   1      19.303   0.787  18.247  0.00  0.00     0.300 C 
ATOM     22  N4  ZIN A   1      18.488   1.951  17.871  0.00  0.00     0.093 N 
ATOM     23  C28 ZIN A   1      18.551   2.186  16.421  0.00  0.00     0.300 C 
ATOM     24  C27 ZIN A   1      18.057   0.939  15.684  0.00  0.00     0.265 C 
ATOM     25  H8  ZIN A   1      19.855  -0.018  15.800  0.00  0.00     0.280 HD
BRANCH  22  26
ATOM     26  C3  ZIN A   1      18.901   3.147  18.616  0.00  0.00     0.298 C 
BRANCH  26  27
ATOM     27  C2  ZIN A   1      18.016   4.328  18.218  0.00  0.00     0.194 C 
BRANCH  27  28
ATOM     28  O1  ZIN A   1      18.046   5.316  19.251  0.00  0.00    -0.399 OA
ATOM     29  H29 ZIN A   1      18.698   5.141  19.943  0.00  0.00     0.209 HD
ENDBRANCH  27  28
ENDBRANCH  26  27
ENDBRANCH  22  26
ENDBRANCH  18  19
ENDBRANCH  17  18
ENDBRANCH  16  17
ENDBRANCH   1  16
TORSDOF 7
ENDMDL
MODEL 5
REMARK VINA RESULT:      -7.6      3.245      5.406
REMARK  7 active torsions:
REMARK  status: ('A' for Active; 'I' for Inactive)
REMARK    1  A    between atoms: O1_1  and  C2_2 
REMARK    2  A    between atoms: C2_2  and  C3_3 
REMARK    3  A    between atoms: C3_3  and  N4_4 
REMARK    4  A    between atoms: N7_7  and  C9_9 
REMARK    5  A    between atoms: C9_9  and  C10_10 
REMARK    6  A    between atoms: C10_10  and  C11_11 
REMARK    7  A    between atoms: C11_11  and  N12_12 
ROOT
ATOM      1  N12 ZIN A   1      19.056   0.671  10.560  0.00  0.00    -0.345 N 
ATOM      2  C13 ZIN A   1      19.218  -0.015  11.761  0.00  0.00     0.052 A 
ATOM      3  C14 ZIN A   1      19.937   0.590  12.785  0.00  0.00     0.031 A 
ATOM      4  C15 ZIN A   1      20.115  -0.061  13.992  0.00  0.00     0.002 A 
ATOM      5  C16 ZIN A   1      19.579  -1.319  14.189  0.00  0.00     0.002 A 
ATOM      6  C17 ZIN A   1      18.863  -1.930  13.176  0.00  0.00     0.021 A 
ATOM      7  C18 ZIN A   1      18.681  -1.284  11.960  0.00  0.00     0.032 A 
ATOM      8  S19 ZIN A   1      17.772  -2.087  10.685  0.00  0.00    -0.086 SA
ATOM      9  C20 ZIN A   1      18.224  -1.194   9.236  0.00  0.00     0.032 A 
ATOM     10  C21 ZIN A   1      17.990  -1.759   7.989  0.00  0.00     0.023 A 
ATOM     11  C22 ZIN A   1      18.339  -1.075   6.839  0.00  0.00     0.025 A 
ATOM     12  C23 ZIN A   1      18.924   0.174   6.929  0.00  0.00     0.036 A 
ATOM     13 Cl24 ZIN A   1      19.363   1.032   5.485  0.00  0.00    -0.084 Cl
ATOM     14  C25 ZIN A   1      19.161   0.743   8.168  0.00  0.00     0.054 A 
ATOM     15  C26 ZIN A   1      18.807   0.064   9.332  0.00  0.00     0.053 A 
ENDROOT
BRANCH   1  16
ATOM     16  C11 ZIN A   1      19.147   2.133  10.592  0.00  0.00     0.131 C 
BRANCH  16  17
ATOM     17  C10 ZIN A   1      17.759   2.724  10.848  0.00  0.00     0.048 C 
BRANCH  17  18
ATOM     18  C9  ZIN A   1      17.900   4.053  11.593  0.00  0.00     0.236 C 
BRANCH  18  19
ATOM     19  N7  ZIN A   1      18.597   3.829  12.867  0.00  0.00    -0.068 N 
ATOM     20  C6  ZIN A   1      17.701   3.132  13.799  0.00  0.00     0.265 C 
ATOM     21  C5  ZIN A   1      18.433   2.881  15.119  0.00  0.00     0.300 C 
ATOM     22  N4  ZIN A   1      18.860   4.166  15.692  0.00  0.00     0.093 N 
ATOM     23  C28 ZIN A   1      19.739   4.887  14.759  0.00  0.00     0.300 C 
ATOM     24  C27 ZIN A   1      18.995   5.120  13.441  0.00  0.00     0.265 C 
ATOM     25  H8  ZIN A   1      19.418   3.265  12.706  0.00  0.00     0.280 HD
BRANCH  22  26
ATOM     26  C3  ZIN A   1      19.518   3.972  16.989  0.00  0.00     0.298 C 
BRANCH  26  27
ATOM     27  C2  ZIN A   1      18.810   2.855  17.759  0.00  0.00     0.194 C 
BRANCH  27  28
ATOM     28  O1  ZIN A   1      19.553   2.544  18.939  0.00  0.00    -0.399 OA
ATOM     29  H29 ZIN A   1      19.202   2.948  19.743  0.00  0.00     0.209 HD
ENDBRANCH  27  28
ENDBRANCH  26  27
ENDBRANCH  22  26
ENDBRANCH  18  19
ENDBRANCH  17  18
ENDBRANCH  16  17
ENDBRANCH   1  16
TORSDOF 7
ENDMDL
MODEL 6
REMARK VINA RESULT:      -7.6      4.663      8.563
REMARK  7 active torsions:
REMARK  status: ('A' for Active; 'I' for Inactive)
REMARK    1  A    between atoms: O1_1  and  C2_2 
REMARK    2  A    between atoms: C2_2  and  C3_3 
REMARK    3  A    between atoms: C3_3  and  N4_4 
REMARK    4  A    between atoms: N7_7  and  C9_9 
REMARK    5  A    between atoms: C9_9  and  C10_10 
REMARK    6  A    between atoms: C10_10  and  C11_11 
REMARK    7  A    between atoms: C11_11  and  N12_12 
ROOT
ATOM      1  N12 ZIN A   1      18.159   0.585  10.439  0.00  0.00    -0.345 N 
ATOM      2  C13 ZIN A   1      18.256  -0.637  11.100  0.00  0.00     0.052 A 
ATOM      3  C14 ZIN A   1      17.582  -1.735  10.579  0.00  0.00     0.031 A 
ATOM      4  C15 ZIN A   1      17.659  -2.965  11.207  0.00  0.00     0.002 A 
ATOM      5  C16 ZIN A   1      18.408  -3.110  12.359  0.00  0.00     0.002 A 
ATOM      6  C17 ZIN A   1      19.081  -2.024  12.886  0.00  0.00     0.021 A 
ATOM      7  C18 ZIN A   1      19.008  -0.785  12.262  0.00  0.00     0.032 A 
ATOM      8  S19 ZIN A   1      19.869   0.583  12.958  0.00  0.00    -0.086 SA
ATOM      9  C20 ZIN A   1      19.107   1.975  12.197  0.00  0.00     0.032 A 
ATOM     10  C21 ZIN A   1      19.273   3.233  12.762  0.00  0.00     0.023 A 
ATOM     11  C22 ZIN A   1      18.681   4.340  12.181  0.00  0.00     0.025 A 
ATOM     12  C23 ZIN A   1      17.922   4.196  11.035  0.00  0.00     0.036 A 
ATOM     13 Cl24 ZIN A   1      17.178   5.585  10.307  0.00  0.00    -0.084 Cl
ATOM     14  C25 ZIN A   1      17.751   2.946  10.468  0.00  0.00     0.054 A 
ATOM     15  C26 ZIN A   1      18.348   1.826  11.042  0.00  0.00     0.053 A 
ENDROOT
BRANCH   1  16
ATOM     16  C11 ZIN A   1      17.842   0.563   9.009  0.00  0.00     0.131 C 
BRANCH  16  17
ATOM     17  C10 ZIN A   1      19.123   0.328   8.207  0.00  0.00     0.048 C 
BRANCH  17  18
ATOM     18  C9  ZIN A   1      18.946   0.876   6.789  0.00  0.00     0.236 C 
BRANCH  18  19
ATOM     19  N7  ZIN A   1      18.869  -0.241   5.838  0.00  0.00    -0.068 N 
ATOM     20  C6  ZIN A   1      17.477  -0.418   5.403  0.00  0.00     0.265 C 
ATOM     21  C5  ZIN A   1      17.399  -1.569   4.399  0.00  0.00     0.300 C 
ATOM     22  N4  ZIN A   1      17.894  -2.801   5.030  0.00  0.00     0.093 N 
ATOM     23  C28 ZIN A   1      19.278  -2.631   5.493  0.00  0.00     0.300 C 
ATOM     24  C27 ZIN A   1      19.340  -1.470   6.488  0.00  0.00     0.265 C 
ATOM     25  H8  ZIN A   1      19.448  -0.041   5.037  0.00  0.00     0.280 HD
BRANCH  22  26
ATOM     26  C3  ZIN A   1      17.782  -3.943   4.114  0.00  0.00     0.298 C 
BRANCH  26  27
ATOM     27  C2  ZIN A   1      16.426  -3.900   3.407  0.00  0.00     0.194 C 
BRANCH  27  28
ATOM     28  O1  ZIN A   1      15.419  -4.420   4.278  0.00  0.00    -0.399 OA
ATOM     29  H29 ZIN A   1      15.219  -5.355   4.134  0.00  0.00     0.209 HD
ENDBRANCH  27  28
ENDBRANCH  26  27
ENDBRANCH  22  26
ENDBRANCH  18  19
ENDBRANCH  17  18
ENDBRANCH  16  17
ENDBRANCH   1  16
TORSDOF 7
ENDMDL
MODEL 7
REMARK VINA RESULT:      -7.5      2.181      4.073
REMARK  7 active torsions:
REMARK  status: ('A' for Active; 'I' for Inactive)
REMARK    1  A    between atoms: O1_1  and  C2_2 
REMARK    2  A    between atoms: C2_2  and  C3_3 
REMARK    3  A    between atoms: C3_3  and  N4_4 
REMARK    4  A    between atoms: N7_7  and  C9_9 
REMARK    5  A    between atoms: C9_9  and  C10_10 
REMARK    6  A    between atoms: C10_10  and  C11_11 
REMARK    7  A    between atoms: C11_11  and  N12_12 
ROOT
ATOM      1  N12 ZIN A   1      18.564  -1.991   9.256  0.00  0.00    -0.345 N 
ATOM      2  C13 ZIN A   1      19.050  -3.220   8.818  0.00  0.00     0.052 A 
ATOM      3  C14 ZIN A   1      19.329  -4.204   9.760  0.00  0.00     0.031 A 
ATOM      4  C15 ZIN A   1      19.809  -5.437   9.361  0.00  0.00     0.002 A 
ATOM      5  C16 ZIN A   1      20.015  -5.702   8.021  0.00  0.00     0.002 A 
ATOM      6  C17 ZIN A   1      19.743  -4.731   7.076  0.00  0.00     0.021 A 
ATOM      7  C18 ZIN A   1      19.261  -3.488   7.468  0.00  0.00     0.032 A 
ATOM      8  S19 ZIN A   1      18.928  -2.267   6.246  0.00  0.00    -0.086 SA
ATOM      9  C20 ZIN A   1      18.858  -0.771   7.171  0.00  0.00     0.032 A 
ATOM     10  C21 ZIN A   1      18.972   0.444   6.507  0.00  0.00     0.023 A 
ATOM     11  C22 ZIN A   1      18.921   1.631   7.215  0.00  0.00     0.025 A 
ATOM     12  C23 ZIN A   1      18.757   1.610   8.587  0.00  0.00     0.036 A 
ATOM     13 Cl24 ZIN A   1      18.695   3.100   9.476  0.00  0.00    -0.084 Cl
ATOM     14  C25 ZIN A   1      18.644   0.403   9.255  0.00  0.00     0.054 A 
ATOM     15  C26 ZIN A   1      18.688  -0.797   8.550  0.00  0.00     0.053 A 
ENDROOT
BRANCH   1  16
ATOM     16  C11 ZIN A   1      17.869  -1.952  10.545  0.00  0.00     0.131 C 
BRANCH  16  17
ATOM     17  C10 ZIN A   1      18.831  -1.458  11.627  0.00  0.00     0.048 C 
BRANCH  17  18
ATOM     18  C9  ZIN A   1      18.441  -2.068  12.975  0.00  0.00     0.236 C 
BRANCH  18  19
ATOM     19  N7  ZIN A   1      18.225  -0.995  13.955  0.00  0.00    -0.068 N 
ATOM     20  C6  ZIN A   1      18.856   0.241  13.473  0.00  0.00     0.265 C 
ATOM     21  C5  ZIN A   1      18.616   1.363  14.484  0.00  0.00     0.300 C 
ATOM     22  N4  ZIN A   1      19.181   0.978  15.786  0.00  0.00     0.093 N 
ATOM     23  C28 ZIN A   1      18.576  -0.272  16.268  0.00  0.00     0.300 C 
ATOM     24  C27 ZIN A   1      18.817  -1.380  15.242  0.00  0.00     0.265 C 
ATOM     25  H8  ZIN A   1      17.235  -0.842  14.073  0.00  0.00     0.280 HD
BRANCH  22  26
ATOM     26  C3  ZIN A   1      19.020   2.055  16.770  0.00  0.00     0.298 C 
BRANCH  26  27
ATOM     27  C2  ZIN A   1      19.031   1.465  18.180  0.00  0.00     0.194 C 
BRANCH  27  28
ATOM     28  O1  ZIN A   1      19.612   2.405  19.086  0.00  0.00    -0.399 OA
ATOM     29  H29 ZIN A   1      19.940   3.209  18.662  0.00  0.00     0.209 HD
ENDBRANCH  27  28
ENDBRANCH  26  27
ENDBRANCH  22  26
ENDBRANCH  18  19
ENDBRANCH  17  18
ENDBRANCH  16  17
ENDBRANCH   1  16
TORSDOF 7
ENDMDL
MODEL 8
REMARK VINA RESULT:      -7.5      4.470      8.754
REMARK  7 active torsions:
REMARK  status: ('A' for Active; 'I' for Inactive)
REMARK    1  A    between atoms: O1_1  and  C2_2 
REMARK    2  A    between atoms: C2_2  and  C3_3 
REMARK    3  A    between atoms: C3_3  and  N4_4 
REMARK    4  A    between atoms: N7_7  and  C9_9 
REMARK    5  A    between atoms: C9_9  and  C10_10 
REMARK    6  A    between atoms: C10_10  and  C11_11 
REMARK    7  A    between atoms: C11_11  and  N12_12 
ROOT
ATOM      1  N12 ZIN A   1      18.198   1.148  14.070  0.00  0.00    -0.345 N 
ATOM      2  C13 ZIN A   1      18.185   0.739  15.401  0.00  0.00     0.052 A 
ATOM      3  C14 ZIN A   1      17.606  -0.484  15.720  0.00  0.00     0.031 A 
ATOM      4  C15 ZIN A   1      17.578  -0.924  17.031  0.00  0.00     0.002 A 
ATOM      5  C16 ZIN A   1      18.126  -0.148  18.035  0.00  0.00     0.002 A 
ATOM      6  C17 ZIN A   1      18.702   1.071  17.729  0.00  0.00     0.021 A 
ATOM      7  C18 ZIN A   1      18.733   1.520  16.415  0.00  0.00     0.032 A 
ATOM      8  S19 ZIN A   1      19.466   3.078  16.053  0.00  0.00    -0.086 SA
ATOM      9  C20 ZIN A   1      18.840   3.464  14.454  0.00  0.00     0.032 A 
ATOM     10  C21 ZIN A   1      18.910   4.772  13.994  0.00  0.00     0.023 A 
ATOM     11  C22 ZIN A   1      18.423   5.096  12.740  0.00  0.00     0.025 A 
ATOM     12  C23 ZIN A   1      17.864   4.116  11.942  0.00  0.00     0.036 A 
ATOM     13 Cl24 ZIN A   1      17.251   4.523  10.370  0.00  0.00    -0.084 Cl
ATOM     14  C25 ZIN A   1      17.791   2.810  12.394  0.00  0.00     0.054 A 
ATOM     15  C26 ZIN A   1      18.284   2.473  13.653  0.00  0.00     0.053 A 
ENDROOT
BRANCH   1  16
ATOM     16  C11 ZIN A   1      18.123   0.111  13.037  0.00  0.00     0.131 C 
BRANCH  16  17
ATOM     17  C10 ZIN A   1      19.511  -0.498  12.825  0.00  0.00     0.048 C 
BRANCH  17  18
ATOM     18  C9  ZIN A   1      19.908  -0.362  11.354  0.00  0.00     0.236 C 
BRANCH  18  19
ATOM     19  N7  ZIN A   1      19.963  -1.694  10.737  0.00  0.00    -0.068 N 
ATOM     20  C6  ZIN A   1      18.857  -1.836   9.781  0.00  0.00     0.265 C 
ATOM     21  C5  ZIN A   1      18.925  -3.216   9.124  0.00  0.00     0.300 C 
ATOM     22  N4  ZIN A   1      18.835  -4.255  10.160  0.00  0.00     0.093 N 
ATOM     23  C28 ZIN A   1      19.922  -4.110  11.139  0.00  0.00     0.300 C 
ATOM     24  C27 ZIN A   1      19.846  -2.722  11.779  0.00  0.00     0.265 C 
ATOM     25  H8  ZIN A   1      20.841  -1.804  10.253  0.00  0.00     0.280 HD
BRANCH  22  26
ATOM     26  C3  ZIN A   1      18.840  -5.596   9.563  0.00  0.00     0.298 C 
BRANCH  26  27
ATOM     27  C2  ZIN A   1      18.372  -5.509   8.109  0.00  0.00     0.194 C 
BRANCH  27  28
ATOM     28  O1  ZIN A   1      19.079  -6.470   7.323  0.00  0.00    -0.399 OA
ATOM     29  H29 ZIN A   1      18.956  -6.367   6.370  0.00  0.00     0.209 HD
ENDBRANCH  27  28
ENDBRANCH  26  27
ENDBRANCH  22  26
ENDBRANCH  18  19
ENDBRANCH  17  18
ENDBRANCH  16  17
ENDBRANCH   1  16
TORSDOF 7
ENDMDL
MODEL 9
REMARK VINA RESULT:      -7.3      4.092      7.989
REMARK  7 active torsions:
REMARK  status: ('A' for Active; 'I' for Inactive)
REMARK    1  A    between atoms: O1_1  and  C2_2 
REMARK    2  A    between atoms: C2_2  and  C3_3 
REMARK    3  A    between atoms: C3_3  and  N4_4 
REMARK    4  A    between atoms: N7_7  and  C9_9 
REMARK    5  A    between atoms: C9_9  and  C10_10 
REMARK    6  A    between atoms: C10_10  and  C11_11 
REMARK    7  A    between atoms: C11_11  and  N12_12 
ROOT
ATOM      1  N12 ZIN A   1      18.592  -0.816  11.661  0.00  0.00    -0.345 N 
ATOM      2  C13 ZIN A   1      18.662  -0.397  12.988  0.00  0.00     0.052 A 
ATOM      3  C14 ZIN A   1      18.117  -1.209  13.975  0.00  0.00     0.031 A 
ATOM      4  C15 ZIN A   1      18.171  -0.827  15.303  0.00  0.00     0.002 A 
ATOM      5  C16 ZIN A   1      18.768   0.368  15.658  0.00  0.00     0.002 A 
ATOM      6  C17 ZIN A   1      19.311   1.184  14.683  0.00  0.00     0.021 A 
ATOM      7  C18 ZIN A   1      19.260   0.808  13.347  0.00  0.00     0.032 A 
ATOM      8  S19 ZIN A   1      19.953   1.868  12.126  0.00  0.00    -0.086 SA
ATOM      9  C20 ZIN A   1      19.230   1.293  10.627  0.00  0.00     0.032 A 
ATOM     10  C21 ZIN A   1      19.258   2.108   9.503  0.00  0.00     0.023 A 
ATOM     11  C22 ZIN A   1      18.694   1.675   8.316  0.00  0.00     0.025 A 
ATOM     12  C23 ZIN A   1      18.101   0.429   8.247  0.00  0.00     0.036 A 
ATOM     13 Cl24 ZIN A   1      17.392  -0.113   6.758  0.00  0.00    -0.084 Cl
ATOM     14  C25 ZIN A   1      18.068  -0.388   9.363  0.00  0.00     0.054 A 
ATOM     15  C26 ZIN A   1      18.639   0.037  10.561  0.00  0.00     0.053 A 
ENDROOT
BRANCH   1  16
ATOM     16  C11 ZIN A   1      18.469  -2.253  11.406  0.00  0.00     0.131 C 
BRANCH  16  17
ATOM     17  C10 ZIN A   1      19.856  -2.897  11.434  0.00  0.00     0.048 C 
BRANCH  17  18
ATOM     18  C9  ZIN A   1      19.717  -4.415  11.306  0.00  0.00     0.236 C 
BRANCH  18  19
ATOM     19  N7  ZIN A   1      19.053  -4.741  10.037  0.00  0.00    -0.068 N 
ATOM     20  C6  ZIN A   1      17.921  -5.641  10.294  0.00  0.00     0.265 C 
ATOM     21  C5  ZIN A   1      17.218  -5.966   8.975  0.00  0.00     0.300 C 
ATOM     22  N4  ZIN A   1      18.173  -6.602   8.056  0.00  0.00     0.093 N 
ATOM     23  C28 ZIN A   1      19.324  -5.721   7.809  0.00  0.00     0.300 C 
ATOM     24  C27 ZIN A   1      20.010  -5.399   9.138  0.00  0.00     0.265 C 
ATOM     25  H8  ZIN A   1      18.716  -3.893   9.607  0.00  0.00     0.280 HD
BRANCH  22  26
ATOM     26  C3  ZIN A   1      17.520  -6.980   6.797  0.00  0.00     0.298 C 
BRANCH  26  27
ATOM     27  C2  ZIN A   1      17.012  -8.420   6.897  0.00  0.00     0.194 C 
BRANCH  27  28
ATOM     28  O1  ZIN A   1      18.125  -9.312   6.982  0.00  0.00    -0.399 OA
ATOM     29  H29 ZIN A   1      17.922 -10.220   6.718  0.00  0.00     0.209 HD
ENDBRANCH  27  28
ENDBRANCH  26  27
ENDBRANCH  22  26
ENDBRANCH  18  19
ENDBRANCH  17  18
ENDBRANCH  16  17
ENDBRANCH   1  16
TORSDOF 7
ENDMDL
