MODEL 1
REMARK VINA RESULT:      -8.7      0.000      0.000
REMARK  17 active torsions:
REMARK  status: ('A' for Active; 'I' for Inactive)
REMARK    1  A    between atoms: C10_9  and  O11_10 
REMARK    2  A    between atoms: C15_14  and  C17_15 
REMARK    3  A    between atoms: C17_15  and  C18_16 
REMARK    4  A    between atoms: C18_16  and  C19_17 
REMARK    5  A    between atoms: C19_17  and  C20_18 
REMARK    6  A    between atoms: C20_18  and  C21_19 
REMARK    7  A    between atoms: C21_19  and  C22_20 
REMARK    8  A    between atoms: C22_20  and  C23_21 
REMARK    9  A    between atoms: C23_21  and  C24_22 
REMARK   10  A    between atoms: C24_22  and  C25_23 
REMARK   11  A    between atoms: C25_23  and  S26_24 
REMARK   12  A    between atoms: S26_24  and  C28_26 
REMARK   13  A    between atoms: C28_26  and  C29_27 
REMARK   14  A    between atoms: C29_27  and  C30_28 
REMARK   15  A    between atoms: C30_28  and  C31_29 
REMARK   16  A    between atoms: C31_29  and  C34_32 
REMARK   17  A    between atoms: C44_40  and  O46_41 
ROOT
ATOM      1  C1  ZIN A   1      17.326  -0.151  12.401  0.00  0.00     0.018 C 
ATOM      2  C2  ZIN A   1      18.510  -0.885  13.025  0.00  0.00    -0.014 C 
ATOM      3  C3  ZIN A   1      18.132  -1.500  14.361  0.00  0.00     0.013 C 
ATOM      4  C4  ZIN A   1      17.969  -0.390  15.401  0.00  0.00     0.010 C 
ATOM      5  C5  ZIN A   1      19.241   0.443  15.544  0.00  0.00     0.024 C 
ATOM      6  C7  ZIN A   1      19.033   1.477  16.615  0.00  0.00    -0.047 A 
ATOM      7  C8  ZIN A   1      18.991   1.040  17.935  0.00  0.00     0.011 A 
ATOM      8  C9  ZIN A   1      18.797   1.933  18.966  0.00  0.00     0.037 A 
ATOM      9  C10 ZIN A   1      18.644   3.283  18.687  0.00  0.00     0.066 A 
ATOM     10  C12 ZIN A   1      18.689   3.720  17.373  0.00  0.00     0.044 A 
ATOM     11  C13 ZIN A   1      18.883   2.817  16.338  0.00  0.00    -0.048 A 
ATOM     12  C14 ZIN A   1      18.921   3.352  14.934  0.00  0.00     0.044 C 
ATOM     13  C15 ZIN A   1      18.658   2.226  13.916  0.00  0.00    -0.005 C 
ATOM     14  C38 ZIN A   1      19.622   1.093  14.198  0.00  0.00     0.003 C 
ATOM     15  C40 ZIN A   1      19.766  -0.017  13.216  0.00  0.00     0.001 C 
ATOM     16  C42 ZIN A   1      20.326   0.180  11.819  0.00  0.00     0.008 C 
ATOM     17  C43 ZIN A   1      19.872  -1.078  11.027  0.00  0.00     0.033 C 
ATOM     18  C44 ZIN A   1      19.035  -1.932  12.013  0.00  0.00     0.126 C 
ENDROOT
BRANCH  13  19
ATOM     19  C17 ZIN A   1      18.847   2.844  12.529  0.00  0.00     0.005 C 
BRANCH  19  20
ATOM     20  C18 ZIN A   1      17.586   3.618  12.139  0.00  0.00     0.000 C 
BRANCH  20  21
ATOM     21  C19 ZIN A   1      17.502   3.720  10.614  0.00  0.00     0.000 C 
BRANCH  21  22
ATOM     22  C20 ZIN A   1      18.671   2.960   9.988  0.00  0.00     0.000 C 
BRANCH  22  23
ATOM     23  C21 ZIN A   1      18.139   1.743   9.228  0.00  0.00     0.000 C 
BRANCH  23  24
ATOM     24  C22 ZIN A   1      19.032   1.467   8.016  0.00  0.00     0.000 C 
BRANCH  24  25
ATOM     25  C23 ZIN A   1      19.081  -0.039   7.750  0.00  0.00     0.001 C 
BRANCH  25  26
ATOM     26  C24 ZIN A   1      17.798  -0.474   7.040  0.00  0.00     0.012 C 
BRANCH  26  27
ATOM     27  C25 ZIN A   1      17.839  -0.010   5.582  0.00  0.00     0.108 C 
BRANCH  27  28
ATOM     28  S26 ZIN A   1      18.600  -1.300   4.559  0.00  0.00     0.015 S 
ATOM     29  O27 ZIN A   1      20.012  -1.132   4.557  0.00  0.00    -0.258 OA
BRANCH  28  30
ATOM     30  C28 ZIN A   1      18.174  -2.826   5.442  0.00  0.00     0.109 C 
BRANCH  30  31
ATOM     31  C29 ZIN A   1      19.434  -3.411   6.086  0.00  0.00     0.019 C 
BRANCH  31  32
ATOM     32  C30 ZIN A   1      19.061  -4.649   6.903  0.00  0.00     0.090 C 
BRANCH  32  33
ATOM     33  C31 ZIN A   1      18.736  -4.233   8.339  0.00  0.00     0.339 C 
ATOM     34  F32 ZIN A   1      19.401  -3.040   8.640  0.00  0.00    -0.196 F 
ATOM     35  F33 ZIN A   1      17.356  -4.044   8.470  0.00  0.00    -0.196 F 
BRANCH  33  36
ATOM     36  C34 ZIN A   1      19.194  -5.330   9.303  0.00  0.00     0.454 C 
ATOM     37  F35 ZIN A   1      19.739  -6.393   8.575  0.00  0.00    -0.165 F 
ATOM     38  F36 ZIN A   1      20.162  -4.813  10.170  0.00  0.00    -0.165 F 
ATOM     39  F37 ZIN A   1      18.099  -5.785  10.045  0.00  0.00    -0.165 F 
ENDBRANCH  33  36
ENDBRANCH  32  33
ENDBRANCH  31  32
ENDBRANCH  30  31
ENDBRANCH  28  30
ENDBRANCH  27  28
ENDBRANCH  26  27
ENDBRANCH  25  26
ENDBRANCH  24  25
ENDBRANCH  23  24
ENDBRANCH  22  23
ENDBRANCH  21  22
ENDBRANCH  20  21
ENDBRANCH  19  20
ENDBRANCH  13  19
BRANCH   9  40
ATOM     40  O11 ZIN A   1      18.452   4.172  19.696  0.00  0.00    -0.361 OA
ATOM     41  H56 ZIN A   1      19.271   4.481  20.109  0.00  0.00     0.217 HD
ENDBRANCH   9  40
BRANCH  18  42
ATOM     42  O46 ZIN A   1      17.939  -2.558  11.344  0.00  0.00    -0.395 OA
ATOM     43  H88 ZIN A   1      17.071  -2.257  11.645  0.00  0.00     0.210 HD
ENDBRANCH  18  42
TORSDOF 17
ENDMDL
MODEL 2
REMARK VINA RESULT:      -8.6      4.125      9.097
REMARK  17 active torsions:
REMARK  status: ('A' for Active; 'I' for Inactive)
REMARK    1  A    between atoms: C10_9  and  O11_10 
REMARK    2  A    between atoms: C15_14  and  C17_15 
REMARK    3  A    between atoms: C17_15  and  C18_16 
REMARK    4  A    between atoms: C18_16  and  C19_17 
REMARK    5  A    between atoms: C19_17  and  C20_18 
REMARK    6  A    between atoms: C20_18  and  C21_19 
REMARK    7  A    between atoms: C21_19  and  C22_20 
REMARK    8  A    between atoms: C22_20  and  C23_21 
REMARK    9  A    between atoms: C23_21  and  C24_22 
REMARK   10  A    between atoms: C24_22  and  C25_23 
REMARK   11  A    between atoms: C25_23  and  S26_24 
REMARK   12  A    between atoms: S26_24  and  C28_26 
REMARK   13  A    between atoms: C28_26  and  C29_27 
REMARK   14  A    between atoms: C29_27  and  C30_28 
REMARK   15  A    between atoms: C30_28  and  C31_29 
REMARK   16  A    between atoms: C31_29  and  C34_32 
REMARK   17  A    between atoms: C44_40  and  O46_41 
ROOT
ATOM      1  C1  ZIN A   1      19.974  -0.179  11.352  0.00  0.00     0.018 C 
ATOM      2  C2  ZIN A   1      19.056  -1.126  12.119  0.00  0.00    -0.014 C 
ATOM      3  C3  ZIN A   1      19.724  -2.470  12.354  0.00  0.00     0.013 C 
ATOM      4  C4  ZIN A   1      19.798  -3.235  11.031  0.00  0.00     0.010 C 
ATOM      5  C5  ZIN A   1      18.416  -3.433  10.413  0.00  0.00     0.024 C 
ATOM      6  C7  ZIN A   1      18.554  -4.235   9.149  0.00  0.00    -0.047 A 
ATOM      7  C8  ZIN A   1      18.858  -5.587   9.273  0.00  0.00     0.011 A 
ATOM      8  C9  ZIN A   1      19.005  -6.380   8.156  0.00  0.00     0.037 A 
ATOM      9  C10 ZIN A   1      18.845  -5.826   6.894  0.00  0.00     0.066 A 
ATOM     10  C12 ZIN A   1      18.539  -4.481   6.770  0.00  0.00     0.044 A 
ATOM     11  C13 ZIN A   1      18.394  -3.686   7.898  0.00  0.00    -0.048 A 
ATOM     12  C14 ZIN A   1      18.062  -2.234   7.698  0.00  0.00     0.044 C 
ATOM     13  C15 ZIN A   1      18.407  -1.419   8.959  0.00  0.00    -0.005 C 
ATOM     14  C38 ZIN A   1      17.737  -2.074  10.148  0.00  0.00     0.003 C 
ATOM     15  C40 ZIN A   1      17.688  -1.361  11.455  0.00  0.00     0.001 C 
ATOM     16  C42 ZIN A   1      16.918  -0.071  11.667  0.00  0.00     0.008 C 
ATOM     17  C43 ZIN A   1      17.505   0.533  12.972  0.00  0.00     0.033 C 
ATOM     18  C44 ZIN A   1      18.621  -0.437  13.436  0.00  0.00     0.126 C 
ENDROOT
BRANCH  13  19
ATOM     19  C17 ZIN A   1      17.915   0.006   8.702  0.00  0.00     0.005 C 
BRANCH  19  20
ATOM     20  C18 ZIN A   1      18.945   0.757   7.854  0.00  0.00     0.000 C 
BRANCH  20  21
ATOM     21  C19 ZIN A   1      19.182   2.145   8.451  0.00  0.00     0.000 C 
BRANCH  21  22
ATOM     22  C20 ZIN A   1      18.286   2.333   9.676  0.00  0.00     0.000 C 
BRANCH  22  23
ATOM     23  C21 ZIN A   1      18.231   3.817  10.045  0.00  0.00     0.000 C 
BRANCH  23  24
ATOM     24  C22 ZIN A   1      17.840   3.963  11.517  0.00  0.00     0.000 C 
BRANCH  24  25
ATOM     25  C23 ZIN A   1      19.095   3.885  12.388  0.00  0.00     0.001 C 
BRANCH  25  26
ATOM     26  C24 ZIN A   1      18.854   4.636  13.699  0.00  0.00     0.012 C 
BRANCH  26  27
ATOM     27  C25 ZIN A   1      18.458   3.641  14.792  0.00  0.00     0.108 C 
BRANCH  27  28
ATOM     28  S26 ZIN A   1      19.632   3.758  16.170  0.00  0.00     0.015 S 
ATOM     29  O27 ZIN A   1      20.410   4.939  16.032  0.00  0.00    -0.258 OA
BRANCH  28  30
ATOM     30  C28 ZIN A   1      18.548   3.915  17.617  0.00  0.00     0.109 C 
BRANCH  30  31
ATOM     31  C29 ZIN A   1      18.822   2.763  18.586  0.00  0.00     0.019 C 
BRANCH  31  32
ATOM     32  C30 ZIN A   1      19.264   1.528  17.799  0.00  0.00     0.090 C 
BRANCH  32  33
ATOM     33  C31 ZIN A   1      18.465   0.311  18.268  0.00  0.00     0.339 C 
ATOM     34  F32 ZIN A   1      19.325  -0.599  18.893  0.00  0.00    -0.196 F 
ATOM     35  F33 ZIN A   1      17.479   0.719  19.173  0.00  0.00    -0.196 F 
BRANCH  33  36
ATOM     36  C34 ZIN A   1      17.803  -0.360  17.062  0.00  0.00     0.454 C 
ATOM     37  F35 ZIN A   1      16.694  -1.097  17.489  0.00  0.00    -0.165 F 
ATOM     38  F36 ZIN A   1      17.390   0.619  16.152  0.00  0.00    -0.165 F 
ATOM     39  F37 ZIN A   1      18.721  -1.215  16.443  0.00  0.00    -0.165 F 
ENDBRANCH  33  36
ENDBRANCH  32  33
ENDBRANCH  31  32
ENDBRANCH  30  31
ENDBRANCH  28  30
ENDBRANCH  27  28
ENDBRANCH  26  27
ENDBRANCH  25  26
ENDBRANCH  24  25
ENDBRANCH  23  24
ENDBRANCH  22  23
ENDBRANCH  21  22
ENDBRANCH  20  21
ENDBRANCH  19  20
ENDBRANCH  13  19
BRANCH   9  40
ATOM     40  O11 ZIN A   1      18.988  -6.599   5.786  0.00  0.00    -0.361 OA
ATOM     41  H56 ZIN A   1      18.935  -7.550   5.959  0.00  0.00     0.217 HD
ENDBRANCH   9  40
BRANCH  18  42
ATOM     42  O46 ZIN A   1      19.720   0.278  14.000  0.00  0.00    -0.395 OA
ATOM     43  H88 ZIN A   1      20.576   0.059  13.607  0.00  0.00     0.210 HD
ENDBRANCH  18  42
TORSDOF 17
ENDMDL
MODEL 3
REMARK VINA RESULT:      -8.5      2.563      4.986
REMARK  17 active torsions:
REMARK  status: ('A' for Active; 'I' for Inactive)
REMARK    1  A    between atoms: C10_9  and  O11_10 
REMARK    2  A    between atoms: C15_14  and  C17_15 
REMARK    3  A    between atoms: C17_15  and  C18_16 
REMARK    4  A    between atoms: C18_16  and  C19_17 
REMARK    5  A    between atoms: C19_17  and  C20_18 
REMARK    6  A    between atoms: C20_18  and  C21_19 
REMARK    7  A    between atoms: C21_19  and  C22_20 
REMARK    8  A    between atoms: C22_20  and  C23_21 
REMARK    9  A    between atoms: C23_21  and  C24_22 
REMARK   10  A    between atoms: C24_22  and  C25_23 
REMARK   11  A    between atoms: C25_23  and  S26_24 
REMARK   12  A    between atoms: S26_24  and  C28_26 
REMARK   13  A    between atoms: C28_26  and  C29_27 
REMARK   14  A    between atoms: C29_27  and  C30_28 
REMARK   15  A    between atoms: C30_28  and  C31_29 
REMARK   16  A    between atoms: C31_29  and  C34_32 
REMARK   17  A    between atoms: C44_40  and  O46_41 
ROOT
ATOM      1  C1  ZIN A   1      20.018   0.060  10.494  0.00  0.00     0.018 C 
ATOM      2  C2  ZIN A   1      18.957   1.155  10.551  0.00  0.00    -0.014 C 
ATOM      3  C3  ZIN A   1      19.517   2.432  11.155  0.00  0.00     0.013 C 
ATOM      4  C4  ZIN A   1      19.729   2.229  12.657  0.00  0.00     0.010 C 
ATOM      5  C5  ZIN A   1      18.433   1.835  13.364  0.00  0.00     0.024 C 
ATOM      6  C7  ZIN A   1      18.698   1.705  14.837  0.00  0.00    -0.047 A 
ATOM      7  C8  ZIN A   1      18.913   2.874  15.559  0.00  0.00     0.011 A 
ATOM      8  C9  ZIN A   1      19.166   2.829  16.913  0.00  0.00     0.037 A 
ATOM      9  C10 ZIN A   1      19.207   1.604  17.564  0.00  0.00     0.066 A 
ATOM     10  C12 ZIN A   1      18.989   0.440  16.846  0.00  0.00     0.044 A 
ATOM     11  C13 ZIN A   1      18.736   0.491  15.483  0.00  0.00    -0.048 A 
ATOM     12  C14 ZIN A   1      18.509  -0.807  14.759  0.00  0.00     0.044 C 
ATOM     13  C15 ZIN A   1      18.724  -0.629  13.244  0.00  0.00    -0.005 C 
ATOM     14  C38 ZIN A   1      17.867   0.527  12.774  0.00  0.00     0.003 C 
ATOM     15  C40 ZIN A   1      17.681   0.764  11.315  0.00  0.00     0.001 C 
ATOM     16  C42 ZIN A   1      16.957  -0.210  10.404  0.00  0.00     0.008 C 
ATOM     17  C43 ZIN A   1      17.394   0.189   8.967  0.00  0.00     0.033 C 
ATOM     18  C44 ZIN A   1      18.386   1.369   9.128  0.00  0.00     0.126 C 
ENDROOT
BRANCH  13  19
ATOM     19  C17 ZIN A   1      18.345  -1.961  12.594  0.00  0.00     0.005 C 
BRANCH  19  20
ATOM     20  C18 ZIN A   1      19.616  -2.720  12.208  0.00  0.00     0.000 C 
BRANCH  20  21
ATOM     21  C19 ZIN A   1      19.240  -4.094  11.649  0.00  0.00     0.000 C 
BRANCH  21  22
ATOM     22  C20 ZIN A   1      17.830  -4.464  12.113  0.00  0.00     0.000 C 
BRANCH  22  23
ATOM     23  C21 ZIN A   1      17.335  -5.677  11.324  0.00  0.00     0.000 C 
BRANCH  23  24
ATOM     24  C22 ZIN A   1      16.300  -5.227  10.290  0.00  0.00     0.000 C 
BRANCH  24  25
ATOM     25  C23 ZIN A   1      16.510  -6.000   8.988  0.00  0.00     0.001 C 
BRANCH  25  26
ATOM     26  C24 ZIN A   1      18.002  -6.045   8.655  0.00  0.00     0.012 C 
BRANCH  26  27
ATOM     27  C25 ZIN A   1      18.403  -4.756   7.933  0.00  0.00     0.108 C 
BRANCH  27  28
ATOM     28  S26 ZIN A   1      18.986  -5.155   6.263  0.00  0.00     0.015 S 
ATOM     29  O27 ZIN A   1      18.993  -6.565   6.087  0.00  0.00    -0.258 OA
BRANCH  28  30
ATOM     30  C28 ZIN A   1      17.713  -4.419   5.200  0.00  0.00     0.109 C 
BRANCH  30  31
ATOM     31  C29 ZIN A   1      18.328  -3.280   4.383  0.00  0.00     0.019 C 
BRANCH  31  32
ATOM     32  C30 ZIN A   1      17.354  -2.100   4.340  0.00  0.00     0.090 C 
BRANCH  32  33
ATOM     33  C31 ZIN A   1      17.747  -1.075   5.406  0.00  0.00     0.339 C 
ATOM     34  F32 ZIN A   1      16.596  -0.445   5.893  0.00  0.00    -0.196 F 
ATOM     35  F33 ZIN A   1      18.404  -1.724   6.457  0.00  0.00    -0.196 F 
BRANCH  33  36
ATOM     36  C34 ZIN A   1      18.679  -0.030   4.790  0.00  0.00     0.454 C 
ATOM     37  F35 ZIN A   1      18.486   1.200   5.428  0.00  0.00    -0.165 F 
ATOM     38  F36 ZIN A   1      20.008  -0.436   4.951  0.00  0.00    -0.165 F 
ATOM     39  F37 ZIN A   1      18.394   0.102   3.426  0.00  0.00    -0.165 F 
ENDBRANCH  33  36
ENDBRANCH  32  33
ENDBRANCH  31  32
ENDBRANCH  30  31
ENDBRANCH  28  30
ENDBRANCH  27  28
ENDBRANCH  26  27
ENDBRANCH  25  26
ENDBRANCH  24  25
ENDBRANCH  23  24
ENDBRANCH  22  23
ENDBRANCH  21  22
ENDBRANCH  20  21
ENDBRANCH  19  20
ENDBRANCH  13  19
BRANCH   9  40
ATOM     40  O11 ZIN A   1      19.457   1.548  18.899  0.00  0.00    -0.361 OA
ATOM     41  H56 ZIN A   1      19.587   0.651  19.237  0.00  0.00     0.217 HD
ENDBRANCH   9  40
BRANCH  18  42
ATOM     42  O46 ZIN A   1      19.435   1.292   8.163  0.00  0.00    -0.395 OA
ATOM     43  H88 ZIN A   1      19.930   0.462   8.186  0.00  0.00     0.210 HD
ENDBRANCH  18  42
TORSDOF 17
ENDMDL
MODEL 4
REMARK VINA RESULT:      -8.2      4.499      9.483
REMARK  17 active torsions:
REMARK  status: ('A' for Active; 'I' for Inactive)
REMARK    1  A    between atoms: C10_9  and  O11_10 
REMARK    2  A    between atoms: C15_14  and  C17_15 
REMARK    3  A    between atoms: C17_15  and  C18_16 
REMARK    4  A    between atoms: C18_16  and  C19_17 
REMARK    5  A    between atoms: C19_17  and  C20_18 
REMARK    6  A    between atoms: C20_18  and  C21_19 
REMARK    7  A    between atoms: C21_19  and  C22_20 
REMARK    8  A    between atoms: C22_20  and  C23_21 
REMARK    9  A    between atoms: C23_21  and  C24_22 
REMARK   10  A    between atoms: C24_22  and  C25_23 
REMARK   11  A    between atoms: C25_23  and  S26_24 
REMARK   12  A    between atoms: S26_24  and  C28_26 
REMARK   13  A    between atoms: C28_26  and  C29_27 
REMARK   14  A    between atoms: C29_27  and  C30_28 
REMARK   15  A    between atoms: C30_28  and  C31_29 
REMARK   16  A    between atoms: C31_29  and  C34_32 
REMARK   17  A    between atoms: C44_40  and  O46_41 
ROOT
ATOM      1  C1  ZIN A   1      20.172   0.051  12.645  0.00  0.00     0.018 C 
ATOM      2  C2  ZIN A   1      19.042  -0.974  12.594  0.00  0.00    -0.014 C 
ATOM      3  C3  ZIN A   1      19.521  -2.290  12.004  0.00  0.00     0.013 C 
ATOM      4  C4  ZIN A   1      19.749  -2.117  10.502  0.00  0.00     0.010 C 
ATOM      5  C5  ZIN A   1      18.484  -1.647   9.786  0.00  0.00     0.024 C 
ATOM      6  C7  ZIN A   1      18.761  -1.549   8.312  0.00  0.00    -0.047 A 
ATOM      7  C8  ZIN A   1      18.903  -2.737   7.603  0.00  0.00     0.011 A 
ATOM      8  C9  ZIN A   1      19.163  -2.721   6.249  0.00  0.00     0.037 A 
ATOM      9  C10 ZIN A   1      19.284  -1.509   5.587  0.00  0.00     0.066 A 
ATOM     10  C12 ZIN A   1      19.141  -0.325   6.292  0.00  0.00     0.044 A 
ATOM     11  C13 ZIN A   1      18.880  -0.346   7.654  0.00  0.00    -0.048 A 
ATOM     12  C14 ZIN A   1      18.736   0.971   8.365  0.00  0.00     0.044 C 
ATOM     13  C15 ZIN A   1      18.934   0.795   9.882  0.00  0.00    -0.005 C 
ATOM     14  C38 ZIN A   1      18.002  -0.299  10.360  0.00  0.00     0.003 C 
ATOM     15  C40 ZIN A   1      17.796  -0.508  11.821  0.00  0.00     0.001 C 
ATOM     16  C42 ZIN A   1      17.135   0.519  12.720  0.00  0.00     0.008 C 
ATOM     17  C43 ZIN A   1      17.540   0.107  14.162  0.00  0.00     0.033 C 
ATOM     18  C44 ZIN A   1      18.454  -1.136  14.016  0.00  0.00     0.126 C 
ENDROOT
BRANCH  13  19
ATOM     19  C17 ZIN A   1      18.640   2.154  10.517  0.00  0.00     0.005 C 
BRANCH  19  20
ATOM     20  C18 ZIN A   1      18.615   3.231   9.430  0.00  0.00     0.000 C 
BRANCH  20  21
ATOM     21  C19 ZIN A   1      17.914   4.481   9.966  0.00  0.00     0.000 C 
BRANCH  21  22
ATOM     22  C20 ZIN A   1      17.028   4.099  11.153  0.00  0.00     0.000 C 
BRANCH  22  23
ATOM     23  C21 ZIN A   1      17.258   5.086  12.299  0.00  0.00     0.000 C 
BRANCH  23  24
ATOM     24  C22 ZIN A   1      17.548   4.313  13.588  0.00  0.00     0.000 C 
BRANCH  24  25
ATOM     25  C23 ZIN A   1      17.650   5.293  14.758  0.00  0.00     0.001 C 
BRANCH  25  26
ATOM     26  C24 ZIN A   1      16.333   6.060  14.898  0.00  0.00     0.012 C 
BRANCH  26  27
ATOM     27  C25 ZIN A   1      16.000   6.238  16.381  0.00  0.00     0.108 C 
BRANCH  27  28
ATOM     28  S26 ZIN A   1      17.415   5.710  17.385  0.00  0.00     0.015 S 
ATOM     29  O27 ZIN A   1      18.125   6.854  17.843  0.00  0.00    -0.258 OA
BRANCH  28  30
ATOM     30  C28 ZIN A   1      16.629   4.883  18.795  0.00  0.00     0.109 C 
BRANCH  30  31
ATOM     31  C29 ZIN A   1      17.601   3.865  19.396  0.00  0.00     0.019 C 
BRANCH  31  32
ATOM     32  C30 ZIN A   1      17.227   2.460  18.919  0.00  0.00     0.090 C 
BRANCH  32  33
ATOM     33  C31 ZIN A   1      18.395   1.860  18.134  0.00  0.00     0.339 C 
ATOM     34  F32 ZIN A   1      18.224   2.125  16.770  0.00  0.00    -0.196 F 
ATOM     35  F33 ZIN A   1      19.595   2.428  18.574  0.00  0.00    -0.196 F 
BRANCH  33  36
ATOM     36  C34 ZIN A   1      18.435   0.347  18.358  0.00  0.00     0.454 C 
ATOM     37  F35 ZIN A   1      19.749  -0.112  18.210  0.00  0.00    -0.165 F 
ATOM     38  F36 ZIN A   1      17.982   0.054  19.648  0.00  0.00    -0.165 F 
ATOM     39  F37 ZIN A   1      17.612  -0.285  17.419  0.00  0.00    -0.165 F 
ENDBRANCH  33  36
ENDBRANCH  32  33
ENDBRANCH  31  32
ENDBRANCH  30  31
ENDBRANCH  28  30
ENDBRANCH  27  28
ENDBRANCH  26  27
ENDBRANCH  25  26
ENDBRANCH  24  25
ENDBRANCH  23  24
ENDBRANCH  22  23
ENDBRANCH  21  22
ENDBRANCH  20  21
ENDBRANCH  19  20
ENDBRANCH  13  19
BRANCH   9  40
ATOM     40  O11 ZIN A   1      19.542  -1.482   4.253  0.00  0.00    -0.361 OA
ATOM     41  H56 ZIN A   1      20.468  -1.645   4.027  0.00  0.00     0.217 HD
ENDBRANCH   9  40
BRANCH  18  42
ATOM     42  O46 ZIN A   1      19.503  -1.117  14.985  0.00  0.00    -0.395 OA
ATOM     43  H88 ZIN A   1      19.455  -1.835  15.631  0.00  0.00     0.210 HD
ENDBRANCH  18  42
TORSDOF 17
ENDMDL
MODEL 5
REMARK VINA RESULT:      -8.2      4.732     10.347
REMARK  17 active torsions:
REMARK  status: ('A' for Active; 'I' for Inactive)
REMARK    1  A    between atoms: C10_9  and  O11_10 
REMARK    2  A    between atoms: C15_14  and  C17_15 
REMARK    3  A    between atoms: C17_15  and  C18_16 
REMARK    4  A    between atoms: C18_16  and  C19_17 
REMARK    5  A    between atoms: C19_17  and  C20_18 
REMARK    6  A    between atoms: C20_18  and  C21_19 
REMARK    7  A    between atoms: C21_19  and  C22_20 
REMARK    8  A    between atoms: C22_20  and  C23_21 
REMARK    9  A    between atoms: C23_21  and  C24_22 
REMARK   10  A    between atoms: C24_22  and  C25_23 
REMARK   11  A    between atoms: C25_23  and  S26_24 
REMARK   12  A    between atoms: S26_24  and  C28_26 
REMARK   13  A    between atoms: C28_26  and  C29_27 
REMARK   14  A    between atoms: C29_27  and  C30_28 
REMARK   15  A    between atoms: C30_28  and  C31_29 
REMARK   16  A    between atoms: C31_29  and  C34_32 
REMARK   17  A    between atoms: C44_40  and  O46_41 
ROOT
ATOM      1  C1  ZIN A   1      17.313   1.127   9.955  0.00  0.00     0.018 C 
ATOM      2  C2  ZIN A   1      18.707   1.405   9.401  0.00  0.00    -0.014 C 
ATOM      3  C3  ZIN A   1      18.655   1.728   7.918  0.00  0.00     0.013 C 
ATOM      4  C4  ZIN A   1      18.340   0.452   7.134  0.00  0.00     0.010 C 
ATOM      5  C5  ZIN A   1      19.370  -0.645   7.400  0.00  0.00     0.024 C 
ATOM      6  C7  ZIN A   1      19.034  -1.846   6.562  0.00  0.00    -0.047 A 
ATOM      7  C8  ZIN A   1      19.257  -1.760   5.192  0.00  0.00     0.011 A 
ATOM      8  C9  ZIN A   1      18.967  -2.822   4.363  0.00  0.00     0.037 A 
ATOM      9  C10 ZIN A   1      18.449  -3.991   4.900  0.00  0.00     0.066 A 
ATOM     10  C12 ZIN A   1      18.229  -4.079   6.265  0.00  0.00     0.044 A 
ATOM     11  C13 ZIN A   1      18.521  -3.007   7.095  0.00  0.00    -0.048 A 
ATOM     12  C14 ZIN A   1      18.260  -3.163   8.567  0.00  0.00     0.044 C 
ATOM     13  C15 ZIN A   1      18.171  -1.786   9.252  0.00  0.00    -0.005 C 
ATOM     14  C38 ZIN A   1      19.415  -0.998   8.900  0.00  0.00     0.003 C 
ATOM     15  C40 ZIN A   1      19.718   0.268   9.626  0.00  0.00     0.001 C 
ATOM     16  C42 ZIN A   1      20.045   0.316  11.107  0.00  0.00     0.008 C 
ATOM     17  C43 ZIN A   1      19.832   1.800  11.514  0.00  0.00     0.033 C 
ATOM     18  C44 ZIN A   1      19.357   2.536  10.235  0.00  0.00     0.126 C 
ENDROOT
BRANCH  13  19
ATOM     19  C17 ZIN A   1      18.036  -2.057  10.751  0.00  0.00     0.005 C 
BRANCH  19  20
ATOM     20  C18 ZIN A   1      18.994  -3.180  11.156  0.00  0.00     0.000 C 
BRANCH  20  21
ATOM     21  C19 ZIN A   1      19.651  -2.834  12.494  0.00  0.00     0.000 C 
BRANCH  21  22
ATOM     22  C20 ZIN A   1      18.678  -2.011  13.340  0.00  0.00     0.000 C 
BRANCH  22  23
ATOM     23  C21 ZIN A   1      19.465  -1.028  14.209  0.00  0.00     0.000 C 
BRANCH  23  24
ATOM     24  C22 ZIN A   1      19.111  -1.251  15.681  0.00  0.00     0.000 C 
BRANCH  24  25
ATOM     25  C23 ZIN A   1      17.591  -1.251  15.846  0.00  0.00     0.001 C 
BRANCH  25  26
ATOM     26  C24 ZIN A   1      17.210  -0.426  17.077  0.00  0.00     0.012 C 
BRANCH  26  27
ATOM     27  C25 ZIN A   1      17.821   0.972  16.963  0.00  0.00     0.108 C 
BRANCH  27  28
ATOM     28  S26 ZIN A   1      18.685   1.382  18.504  0.00  0.00     0.015 S 
ATOM     29  O27 ZIN A   1      20.038   0.957  18.416  0.00  0.00    -0.258 OA
BRANCH  28  30
ATOM     30  C28 ZIN A   1      18.621   3.195  18.537  0.00  0.00     0.109 C 
BRANCH  30  31
ATOM     31  C29 ZIN A   1      18.515   3.728  17.107  0.00  0.00     0.019 C 
BRANCH  31  32
ATOM     32  C30 ZIN A   1      19.919   3.936  16.535  0.00  0.00     0.090 C 
BRANCH  32  33
ATOM     33  C31 ZIN A   1      20.007   5.320  15.889  0.00  0.00     0.339 C 
ATOM     34  F32 ZIN A   1      19.244   6.229  16.632  0.00  0.00    -0.196 F 
ATOM     35  F33 ZIN A   1      21.341   5.740  15.866  0.00  0.00    -0.196 F 
BRANCH  33  36
ATOM     36  C34 ZIN A   1      19.468   5.252  14.459  0.00  0.00     0.454 C 
ATOM     37  F35 ZIN A   1      19.279   3.914  14.096  0.00  0.00    -0.165 F 
ATOM     38  F36 ZIN A   1      18.247   5.931  14.388  0.00  0.00    -0.165 F 
ATOM     39  F37 ZIN A   1      20.385   5.847  13.587  0.00  0.00    -0.165 F 
ENDBRANCH  33  36
ENDBRANCH  32  33
ENDBRANCH  31  32
ENDBRANCH  30  31
ENDBRANCH  28  30
ENDBRANCH  27  28
ENDBRANCH  26  27
ENDBRANCH  25  26
ENDBRANCH  24  25
ENDBRANCH  23  24
ENDBRANCH  22  23
ENDBRANCH  21  22
ENDBRANCH  20  21
ENDBRANCH  19  20
ENDBRANCH  13  19
BRANCH   9  40
ATOM     40  O11 ZIN A   1      18.158  -5.044   4.092  0.00  0.00    -0.361 OA
ATOM     41  H56 ZIN A   1      18.487  -4.948   3.187  0.00  0.00     0.217 HD
ENDBRANCH   9  40
BRANCH  18  42
ATOM     42  O46 ZIN A   1      18.384   3.533  10.550  0.00  0.00    -0.395 OA
ATOM     43  H88 ZIN A   1      17.759   3.712   9.834  0.00  0.00     0.210 HD
ENDBRANCH  18  42
TORSDOF 17
ENDMDL
MODEL 6
REMARK VINA RESULT:      -7.9      4.746      9.993
REMARK  17 active torsions:
REMARK  status: ('A' for Active; 'I' for Inactive)
REMARK    1  A    between atoms: C10_9  and  O11_10 
REMARK    2  A    between atoms: C15_14  and  C17_15 
REMARK    3  A    between atoms: C17_15  and  C18_16 
REMARK    4  A    between atoms: C18_16  and  C19_17 
REMARK    5  A    between atoms: C19_17  and  C20_18 
REMARK    6  A    between atoms: C20_18  and  C21_19 
REMARK    7  A    between atoms: C21_19  and  C22_20 
REMARK    8  A    between atoms: C22_20  and  C23_21 
REMARK    9  A    between atoms: C23_21  and  C24_22 
REMARK   10  A    between atoms: C24_22  and  C25_23 
REMARK   11  A    between atoms: C25_23  and  S26_24 
REMARK   12  A    between atoms: S26_24  and  C28_26 
REMARK   13  A    between atoms: C28_26  and  C29_27 
REMARK   14  A    between atoms: C29_27  and  C30_28 
REMARK   15  A    between atoms: C30_28  and  C31_29 
REMARK   16  A    between atoms: C31_29  and  C34_32 
REMARK   17  A    between atoms: C44_40  and  O46_41 
ROOT
ATOM      1  C1  ZIN A   1      17.152   1.314  10.603  0.00  0.00     0.018 C 
ATOM      2  C2  ZIN A   1      18.475   1.130   9.865  0.00  0.00    -0.014 C 
ATOM      3  C3  ZIN A   1      18.247   0.692   8.429  0.00  0.00     0.013 C 
ATOM      4  C4  ZIN A   1      17.765  -0.760   8.414  0.00  0.00     0.010 C 
ATOM      5  C5  ZIN A   1      18.761  -1.694   9.099  0.00  0.00     0.024 C 
ATOM      6  C7  ZIN A   1      18.255  -3.106   9.002  0.00  0.00    -0.047 A 
ATOM      7  C8  ZIN A   1      18.301  -3.724   7.757  0.00  0.00     0.011 A 
ATOM      8  C9  ZIN A   1      17.849  -5.016   7.596  0.00  0.00     0.037 A 
ATOM      9  C10 ZIN A   1      17.344  -5.709   8.686  0.00  0.00     0.066 A 
ATOM     10  C12 ZIN A   1      17.300  -5.095   9.927  0.00  0.00     0.044 A 
ATOM     11  C13 ZIN A   1      17.755  -3.794  10.084  0.00  0.00    -0.048 A 
ATOM     12  C14 ZIN A   1      17.680  -3.182  11.455  0.00  0.00     0.044 C 
ATOM     13  C15 ZIN A   1      17.755  -1.646  11.370  0.00  0.00    -0.005 C 
ATOM     14  C38 ZIN A   1      18.983  -1.273  10.566  0.00  0.00     0.003 C 
ATOM     15  C40 ZIN A   1      19.445   0.143  10.536  0.00  0.00     0.001 C 
ATOM     16  C42 ZIN A   1      19.964   0.870  11.763  0.00  0.00     0.008 C 
ATOM     17  C43 ZIN A   1      19.886   2.378  11.394  0.00  0.00     0.033 C 
ATOM     18  C44 ZIN A   1      19.288   2.444   9.966  0.00  0.00     0.126 C 
ENDROOT
BRANCH  13  19
ATOM     19  C17 ZIN A   1      17.803  -1.135  12.811  0.00  0.00     0.005 C 
BRANCH  19  20
ATOM     20  C18 ZIN A   1      18.884  -1.893  13.586  0.00  0.00     0.000 C 
BRANCH  20  21
ATOM     21  C19 ZIN A   1      19.172  -1.166  14.902  0.00  0.00     0.000 C 
BRANCH  21  22
ATOM     22  C20 ZIN A   1      18.105  -0.096  15.137  0.00  0.00     0.000 C 
BRANCH  22  23
ATOM     23  C21 ZIN A   1      17.636  -0.155  16.592  0.00  0.00     0.000 C 
BRANCH  23  24
ATOM     24  C22 ZIN A   1      18.802  -0.581  17.487  0.00  0.00     0.000 C 
BRANCH  24  25
ATOM     25  C23 ZIN A   1      19.350   0.640  18.226  0.00  0.00     0.001 C 
BRANCH  25  26
ATOM     26  C24 ZIN A   1      18.232   1.667  18.415  0.00  0.00     0.012 C 
BRANCH  26  27
ATOM     27  C25 ZIN A   1      18.840   3.065  18.547  0.00  0.00     0.108 C 
BRANCH  27  28
ATOM     28  S26 ZIN A   1      17.514   4.284  18.756  0.00  0.00     0.015 S 
ATOM     29  O27 ZIN A   1      17.714   5.000  19.967  0.00  0.00    -0.258 OA
BRANCH  28  30
ATOM     30  C28 ZIN A   1      17.760   5.400  17.347  0.00  0.00     0.109 C 
BRANCH  30  31
ATOM     31  C29 ZIN A   1      18.995   4.960  16.558  0.00  0.00     0.019 C 
BRANCH  31  32
ATOM     32  C30 ZIN A   1      19.166   5.862  15.334  0.00  0.00     0.090 C 
BRANCH  32  33
ATOM     33  C31 ZIN A   1      18.666   5.131  14.087  0.00  0.00     0.339 C 
ATOM     34  F32 ZIN A   1      19.618   5.244  13.067  0.00  0.00    -0.196 F 
ATOM     35  F33 ZIN A   1      18.463   3.779  14.388  0.00  0.00    -0.196 F 
BRANCH  33  36
ATOM     36  C34 ZIN A   1      17.348   5.754  13.625  0.00  0.00     0.454 C 
ATOM     37  F35 ZIN A   1      17.250   5.659  12.232  0.00  0.00    -0.165 F 
ATOM     38  F36 ZIN A   1      16.277   5.073  14.215  0.00  0.00    -0.165 F 
ATOM     39  F37 ZIN A   1      17.310   7.100  14.004  0.00  0.00    -0.165 F 
ENDBRANCH  33  36
ENDBRANCH  32  33
ENDBRANCH  31  32
ENDBRANCH  30  31
ENDBRANCH  28  30
ENDBRANCH  27  28
ENDBRANCH  26  27
ENDBRANCH  25  26
ENDBRANCH  24  25
ENDBRANCH  23  24
ENDBRANCH  22  23
ENDBRANCH  21  22
ENDBRANCH  20  21
ENDBRANCH  19  20
ENDBRANCH  13  19
BRANCH   9  40
ATOM     40  O11 ZIN A   1      16.895  -6.983   8.537  0.00  0.00    -0.361 OA
ATOM     41  H56 ZIN A   1      16.061  -7.052   8.052  0.00  0.00     0.217 HD
ENDBRANCH   9  40
BRANCH  18  42
ATOM     42  O46 ZIN A   1      18.418   3.569   9.827  0.00  0.00    -0.395 OA
ATOM     43  H88 ZIN A   1      18.717   4.218   9.175  0.00  0.00     0.210 HD
ENDBRANCH  18  42
TORSDOF 17
ENDMDL
MODEL 7
REMARK VINA RESULT:      -7.8      2.459      4.591
REMARK  17 active torsions:
REMARK  status: ('A' for Active; 'I' for Inactive)
REMARK    1  A    between atoms: C10_9  and  O11_10 
REMARK    2  A    between atoms: C15_14  and  C17_15 
REMARK    3  A    between atoms: C17_15  and  C18_16 
REMARK    4  A    between atoms: C18_16  and  C19_17 
REMARK    5  A    between atoms: C19_17  and  C20_18 
REMARK    6  A    between atoms: C20_18  and  C21_19 
REMARK    7  A    between atoms: C21_19  and  C22_20 
REMARK    8  A    between atoms: C22_20  and  C23_21 
REMARK    9  A    between atoms: C23_21  and  C24_22 
REMARK   10  A    between atoms: C24_22  and  C25_23 
REMARK   11  A    between atoms: C25_23  and  S26_24 
REMARK   12  A    between atoms: S26_24  and  C28_26 
REMARK   13  A    between atoms: C28_26  and  C29_27 
REMARK   14  A    between atoms: C29_27  and  C30_28 
REMARK   15  A    between atoms: C30_28  and  C31_29 
REMARK   16  A    between atoms: C31_29  and  C34_32 
REMARK   17  A    between atoms: C44_40  and  O46_41 
ROOT
ATOM      1  C1  ZIN A   1      19.919   5.463  13.993  0.00  0.00     0.018 C 
ATOM      2  C2  ZIN A   1      18.782   5.572  15.005  0.00  0.00    -0.014 C 
ATOM      3  C3  ZIN A   1      19.282   5.342  16.421  0.00  0.00     0.013 C 
ATOM      4  C4  ZIN A   1      19.619   3.861  16.603  0.00  0.00     0.010 C 
ATOM      5  C5  ZIN A   1      18.415   2.966  16.317  0.00  0.00     0.024 C 
ATOM      6  C7  ZIN A   1      18.797   1.534  16.567  0.00  0.00    -0.047 A 
ATOM      7  C8  ZIN A   1      18.972   1.133  17.887  0.00  0.00     0.011 A 
ATOM      8  C9  ZIN A   1      19.328  -0.164  18.188  0.00  0.00     0.037 A 
ATOM      9  C10 ZIN A   1      19.513  -1.081  17.164  0.00  0.00     0.066 A 
ATOM     10  C12 ZIN A   1      19.336  -0.683  15.848  0.00  0.00     0.044 A 
ATOM     11  C13 ZIN A   1      18.979   0.624  15.551  0.00  0.00    -0.048 A 
ATOM     12  C14 ZIN A   1      18.804   0.994  14.105  0.00  0.00     0.044 C 
ATOM     13  C15 ZIN A   1      18.891   2.521  13.920  0.00  0.00    -0.005 C 
ATOM     14  C38 ZIN A   1      17.912   3.173  14.874  0.00  0.00     0.003 C 
ATOM     15  C40 ZIN A   1      17.600   4.623  14.737  0.00  0.00     0.001 C 
ATOM     16  C42 ZIN A   1      16.891   5.207  13.529  0.00  0.00     0.008 C 
ATOM     17  C43 ZIN A   1      17.187   6.731  13.592  0.00  0.00     0.033 C 
ATOM     18  C44 ZIN A   1      18.091   6.946  14.832  0.00  0.00     0.126 C 
ENDROOT
BRANCH  13  19
ATOM     19  C17 ZIN A   1      18.572   2.799  12.451  0.00  0.00     0.005 C 
BRANCH  19  20
ATOM     20  C18 ZIN A   1      17.530   1.792  11.955  0.00  0.00     0.000 C 
BRANCH  20  21
ATOM     21  C19 ZIN A   1      17.860   1.382  10.519  0.00  0.00     0.000 C 
BRANCH  21  22
ATOM     22  C20 ZIN A   1      18.967   2.286   9.972  0.00  0.00     0.000 C 
BRANCH  22  23
ATOM     23  C21 ZIN A   1      19.079   2.095   8.458  0.00  0.00     0.000 C 
BRANCH  23  24
ATOM     24  C22 ZIN A   1      18.456   0.753   8.065  0.00  0.00     0.000 C 
BRANCH  24  25
ATOM     25  C23 ZIN A   1      18.705   0.491   6.579  0.00  0.00     0.001 C 
BRANCH  25  26
ATOM     26  C24 ZIN A   1      19.179  -0.951   6.388  0.00  0.00     0.012 C 
BRANCH  26  27
ATOM     27  C25 ZIN A   1      19.213  -1.662   7.743  0.00  0.00     0.108 C 
BRANCH  27  28
ATOM     28  S26 ZIN A   1      18.382  -3.268   7.603  0.00  0.00     0.015 S 
ATOM     29  O27 ZIN A   1      18.262  -3.623   6.232  0.00  0.00    -0.258 OA
BRANCH  28  30
ATOM     30  C28 ZIN A   1      19.541  -4.399   8.421  0.00  0.00     0.109 C 
BRANCH  30  31
ATOM     31  C29 ZIN A   1      18.841  -5.084   9.597  0.00  0.00     0.019 C 
BRANCH  31  32
ATOM     32  C30 ZIN A   1      19.287  -4.431  10.906  0.00  0.00     0.090 C 
BRANCH  32  33
ATOM     33  C31 ZIN A   1      18.089  -3.751  11.572  0.00  0.00     0.339 C 
ATOM     34  F32 ZIN A   1      17.039  -3.654  10.653  0.00  0.00    -0.196 F 
ATOM     35  F33 ZIN A   1      17.677  -4.506  12.675  0.00  0.00    -0.196 F 
BRANCH  33  36
ATOM     36  C34 ZIN A   1      18.492  -2.349  12.035  0.00  0.00     0.454 C 
ATOM     37  F35 ZIN A   1      19.352  -2.450  13.134  0.00  0.00    -0.165 F 
ATOM     38  F36 ZIN A   1      19.144  -1.682  10.993  0.00  0.00    -0.165 F 
ATOM     39  F37 ZIN A   1      17.347  -1.634  12.404  0.00  0.00    -0.165 F 
ENDBRANCH  33  36
ENDBRANCH  32  33
ENDBRANCH  31  32
ENDBRANCH  30  31
ENDBRANCH  28  30
ENDBRANCH  27  28
ENDBRANCH  26  27
ENDBRANCH  25  26
ENDBRANCH  24  25
ENDBRANCH  23  24
ENDBRANCH  22  23
ENDBRANCH  21  22
ENDBRANCH  20  21
ENDBRANCH  19  20
ENDBRANCH  13  19
BRANCH   9  40
ATOM     40  O11 ZIN A   1      19.865  -2.362  17.449  0.00  0.00    -0.361 OA
ATOM     41  H56 ZIN A   1      19.691  -2.623  18.364  0.00  0.00     0.217 HD
ENDBRANCH   9  40
BRANCH  18  42
ATOM     42  O46 ZIN A   1      19.069   7.957  14.584  0.00  0.00    -0.395 OA
ATOM     43  H88 ZIN A   1      18.953   8.419  13.743  0.00  0.00     0.210 HD
ENDBRANCH  18  42
TORSDOF 17
ENDMDL
MODEL 8
REMARK VINA RESULT:      -7.8      1.722      4.680
REMARK  17 active torsions:
REMARK  status: ('A' for Active; 'I' for Inactive)
REMARK    1  A    between atoms: C10_9  and  O11_10 
REMARK    2  A    between atoms: C15_14  and  C17_15 
REMARK    3  A    between atoms: C17_15  and  C18_16 
REMARK    4  A    between atoms: C18_16  and  C19_17 
REMARK    5  A    between atoms: C19_17  and  C20_18 
REMARK    6  A    between atoms: C20_18  and  C21_19 
REMARK    7  A    between atoms: C21_19  and  C22_20 
REMARK    8  A    between atoms: C22_20  and  C23_21 
REMARK    9  A    between atoms: C23_21  and  C24_22 
REMARK   10  A    between atoms: C24_22  and  C25_23 
REMARK   11  A    between atoms: C25_23  and  S26_24 
REMARK   12  A    between atoms: S26_24  and  C28_26 
REMARK   13  A    between atoms: C28_26  and  C29_27 
REMARK   14  A    between atoms: C29_27  and  C30_28 
REMARK   15  A    between atoms: C30_28  and  C31_29 
REMARK   16  A    between atoms: C31_29  and  C34_32 
REMARK   17  A    between atoms: C44_40  and  O46_41 
ROOT
ATOM      1  C1  ZIN A   1      19.915   5.514  16.086  0.00  0.00     0.018 C 
ATOM      2  C2  ZIN A   1      18.576   4.955  16.560  0.00  0.00    -0.014 C 
ATOM      3  C3  ZIN A   1      18.774   3.771  17.491  0.00  0.00     0.013 C 
ATOM      4  C4  ZIN A   1      19.258   2.567  16.681  0.00  0.00     0.010 C 
ATOM      5  C5  ZIN A   1      18.279   2.204  15.566  0.00  0.00     0.024 C 
ATOM      6  C7  ZIN A   1      18.786   0.985  14.846  0.00  0.00    -0.047 A 
ATOM      7  C8  ZIN A   1      18.713  -0.234  15.513  0.00  0.00     0.011 A 
ATOM      8  C9  ZIN A   1      19.164  -1.391  14.914  0.00  0.00     0.037 A 
ATOM      9  C10 ZIN A   1      19.695  -1.340  13.634  0.00  0.00     0.066 A 
ATOM     10  C12 ZIN A   1      19.765  -0.127  12.969  0.00  0.00     0.044 A 
ATOM     11  C13 ZIN A   1      19.311   1.035  13.575  0.00  0.00    -0.048 A 
ATOM     12  C14 ZIN A   1      19.415   2.320  12.803  0.00  0.00     0.044 C 
ATOM     13  C15 ZIN A   1      19.335   3.532  13.751  0.00  0.00    -0.005 C 
ATOM     14  C38 ZIN A   1      18.089   3.391  14.600  0.00  0.00     0.003 C 
ATOM     15  C40 ZIN A   1      17.623   4.540  15.426  0.00  0.00     0.001 C 
ATOM     16  C42 ZIN A   1      17.130   5.844  14.827  0.00  0.00     0.008 C 
ATOM     17  C43 ZIN A   1      17.197   6.869  15.993  0.00  0.00     0.033 C 
ATOM     18  C44 ZIN A   1      17.763   6.099  17.214  0.00  0.00     0.126 C 
ENDROOT
BRANCH  13  19
ATOM     19  C17 ZIN A   1      19.318   4.776  12.862  0.00  0.00     0.005 C 
BRANCH  19  20
ATOM     20  C18 ZIN A   1      19.214   4.354  11.394  0.00  0.00     0.000 C 
BRANCH  20  21
ATOM     21  C19 ZIN A   1      17.740   4.204  11.010  0.00  0.00     0.000 C 
BRANCH  21  22
ATOM     22  C20 ZIN A   1      17.540   2.883  10.265  0.00  0.00     0.000 C 
BRANCH  22  23
ATOM     23  C21 ZIN A   1      18.709   2.660   9.302  0.00  0.00     0.000 C 
BRANCH  23  24
ATOM     24  C22 ZIN A   1      19.009   1.162   9.204  0.00  0.00     0.000 C 
BRANCH  24  25
ATOM     25  C23 ZIN A   1      17.697   0.384   9.095  0.00  0.00     0.001 C 
BRANCH  25  26
ATOM     26  C24 ZIN A   1      17.595  -0.253   7.707  0.00  0.00     0.012 C 
BRANCH  26  27
ATOM     27  C25 ZIN A   1      19.000  -0.495   7.152  0.00  0.00     0.108 C 
BRANCH  27  28
ATOM     28  S26 ZIN A   1      18.954  -1.868   5.968  0.00  0.00     0.015 S 
ATOM     29  O27 ZIN A   1      19.775  -1.559   4.851  0.00  0.00    -0.258 OA
BRANCH  28  30
ATOM     30  C28 ZIN A   1      19.695  -3.236   6.902  0.00  0.00     0.109 C 
BRANCH  30  31
ATOM     31  C29 ZIN A   1      18.585  -4.098   7.510  0.00  0.00     0.019 C 
BRANCH  31  32
ATOM     32  C30 ZIN A   1      18.796  -4.208   9.021  0.00  0.00     0.090 C 
BRANCH  32  33
ATOM     33  C31 ZIN A   1      17.542  -4.798   9.669  0.00  0.00     0.339 C 
ATOM     34  F32 ZIN A   1      16.421  -4.471   8.897  0.00  0.00    -0.196 F 
ATOM     35  F33 ZIN A   1      17.666  -6.189   9.747  0.00  0.00    -0.196 F 
BRANCH  33  36
ATOM     36  C34 ZIN A   1      17.377  -4.221  11.077  0.00  0.00     0.454 C 
ATOM     37  F35 ZIN A   1      18.489  -4.562  11.854  0.00  0.00    -0.165 F 
ATOM     38  F36 ZIN A   1      17.270  -2.828  11.001  0.00  0.00    -0.165 F 
ATOM     39  F37 ZIN A   1      16.220  -4.747  11.663  0.00  0.00    -0.165 F 
ENDBRANCH  33  36
ENDBRANCH  32  33
ENDBRANCH  31  32
ENDBRANCH  30  31
ENDBRANCH  28  30
ENDBRANCH  27  28
ENDBRANCH  26  27
ENDBRANCH  25  26
ENDBRANCH  24  25
ENDBRANCH  23  24
ENDBRANCH  22  23
ENDBRANCH  21  22
ENDBRANCH  20  21
ENDBRANCH  19  20
ENDBRANCH  13  19
BRANCH   9  40
ATOM     40  O11 ZIN A   1      20.143  -2.475  13.035  0.00  0.00    -0.361 OA
ATOM     41  H56 ZIN A   1      19.439  -3.063  12.729  0.00  0.00     0.217 HD
ENDBRANCH   9  40
BRANCH  18  42
ATOM     42  O46 ZIN A   1      18.627   6.932  17.988  0.00  0.00    -0.395 OA
ATOM     43  H88 ZIN A   1      18.347   7.042  18.907  0.00  0.00     0.210 HD
ENDBRANCH  18  42
TORSDOF 17
ENDMDL
MODEL 9
REMARK VINA RESULT:      -7.8      3.066      7.218
REMARK  17 active torsions:
REMARK  status: ('A' for Active; 'I' for Inactive)
REMARK    1  A    between atoms: C10_9  and  O11_10 
REMARK    2  A    between atoms: C15_14  and  C17_15 
REMARK    3  A    between atoms: C17_15  and  C18_16 
REMARK    4  A    between atoms: C18_16  and  C19_17 
REMARK    5  A    between atoms: C19_17  and  C20_18 
REMARK    6  A    between atoms: C20_18  and  C21_19 
REMARK    7  A    between atoms: C21_19  and  C22_20 
REMARK    8  A    between atoms: C22_20  and  C23_21 
REMARK    9  A    between atoms: C23_21  and  C24_22 
REMARK   10  A    between atoms: C24_22  and  C25_23 
REMARK   11  A    between atoms: C25_23  and  S26_24 
REMARK   12  A    between atoms: S26_24  and  C28_26 
REMARK   13  A    between atoms: C28_26  and  C29_27 
REMARK   14  A    between atoms: C29_27  and  C30_28 
REMARK   15  A    between atoms: C30_28  and  C31_29 
REMARK   16  A    between atoms: C31_29  and  C34_32 
REMARK   17  A    between atoms: C44_40  and  O46_41 
ROOT
ATOM      1  C1  ZIN A   1      17.166   0.314  12.391  0.00  0.00     0.018 C 
ATOM      2  C2  ZIN A   1      18.281   1.323  12.135  0.00  0.00    -0.014 C 
ATOM      3  C3  ZIN A   1      17.884   2.321  11.061  0.00  0.00     0.013 C 
ATOM      4  C4  ZIN A   1      17.881   1.623   9.700  0.00  0.00     0.010 C 
ATOM      5  C5  ZIN A   1      19.242   1.010   9.374  0.00  0.00     0.024 C 
ATOM      6  C7  ZIN A   1      19.186   0.391   8.006  0.00  0.00    -0.047 A 
ATOM      7  C8  ZIN A   1      19.141   1.247   6.911  0.00  0.00     0.011 A 
ATOM      8  C9  ZIN A   1      19.083   0.747   5.628  0.00  0.00     0.037 A 
ATOM      9  C10 ZIN A   1      19.071  -0.625   5.425  0.00  0.00     0.066 A 
ATOM     10  C12 ZIN A   1      19.119  -1.479   6.515  0.00  0.00     0.044 A 
ATOM     11  C13 ZIN A   1      19.176  -0.971   7.805  0.00  0.00    -0.048 A 
ATOM     12  C14 ZIN A   1      19.224  -1.948   8.946  0.00  0.00     0.044 C 
ATOM     13  C15 ZIN A   1      18.803  -1.268  10.262  0.00  0.00    -0.005 C 
ATOM     14  C38 ZIN A   1      19.645  -0.023  10.446  0.00  0.00     0.003 C 
ATOM     15  C40 ZIN A   1      19.632   0.693  11.752  0.00  0.00     0.001 C 
ATOM     16  C42 ZIN A   1      20.162   0.083  13.036  0.00  0.00     0.008 C 
ATOM     17  C43 ZIN A   1      19.545   0.946  14.172  0.00  0.00     0.033 C 
ATOM     18  C44 ZIN A   1      18.652   2.004  13.475  0.00  0.00     0.126 C 
ENDROOT
BRANCH  13  19
ATOM     19  C17 ZIN A   1      19.012  -2.302  11.370  0.00  0.00     0.005 C 
BRANCH  19  20
ATOM     20  C18 ZIN A   1      17.665  -2.923  11.749  0.00  0.00     0.000 C 
BRANCH  20  21
ATOM     21  C19 ZIN A   1      17.790  -4.448  11.754  0.00  0.00     0.000 C 
BRANCH  21  22
ATOM     22  C20 ZIN A   1      19.005  -4.862  10.923  0.00  0.00     0.000 C 
BRANCH  22  23
ATOM     23  C21 ZIN A   1      18.574  -5.875   9.860  0.00  0.00     0.000 C 
BRANCH  23  24
ATOM     24  C22 ZIN A   1      17.258  -5.419   9.226  0.00  0.00     0.000 C 
BRANCH  24  25
ATOM     25  C23 ZIN A   1      17.536  -4.818   7.847  0.00  0.00     0.001 C 
BRANCH  25  26
ATOM     26  C24 ZIN A   1      18.721  -5.542   7.205  0.00  0.00     0.012 C 
BRANCH  26  27
ATOM     27  C25 ZIN A   1      18.320  -6.046   5.817  0.00  0.00     0.108 C 
BRANCH  27  28
ATOM     28  S26 ZIN A   1      17.378  -4.758   4.955  0.00  0.00     0.015 S 
ATOM     29  O27 ZIN A   1      18.237  -4.056   4.067  0.00  0.00    -0.258 OA
BRANCH  28  30
ATOM     30  C28 ZIN A   1      16.167  -5.710   3.997  0.00  0.00     0.109 C 
BRANCH  30  31
ATOM     31  C29 ZIN A   1      14.873  -5.846   4.804  0.00  0.00     0.019 C 
BRANCH  31  32
ATOM     32  C30 ZIN A   1      14.784  -7.254   5.393  0.00  0.00     0.090 C 
BRANCH  32  33
ATOM     33  C31 ZIN A   1      14.574  -7.163   6.906  0.00  0.00     0.339 C 
ATOM     34  F32 ZIN A   1      15.605  -7.847   7.561  0.00  0.00    -0.196 F 
ATOM     35  F33 ZIN A   1      14.582  -5.820   7.298  0.00  0.00    -0.196 F 
BRANCH  33  36
ATOM     36  C34 ZIN A   1      13.230  -7.793   7.273  0.00  0.00     0.454 C 
ATOM     37  F35 ZIN A   1      13.443  -8.889   8.116  0.00  0.00    -0.165 F 
ATOM     38  F36 ZIN A   1      12.435  -6.848   7.930  0.00  0.00    -0.165 F 
ATOM     39  F37 ZIN A   1      12.581  -8.219   6.109  0.00  0.00    -0.165 F 
ENDBRANCH  33  36
ENDBRANCH  32  33
ENDBRANCH  31  32
ENDBRANCH  30  31
ENDBRANCH  28  30
ENDBRANCH  27  28
ENDBRANCH  26  27
ENDBRANCH  25  26
ENDBRANCH  24  25
ENDBRANCH  23  24
ENDBRANCH  22  23
ENDBRANCH  21  22
ENDBRANCH  20  21
ENDBRANCH  19  20
ENDBRANCH  13  19
BRANCH   9  40
ATOM     40  O11 ZIN A   1      19.013  -1.129   4.165  0.00  0.00    -0.361 OA
ATOM     41  H56 ZIN A   1      19.870  -1.169   3.717  0.00  0.00     0.217 HD
ENDBRANCH   9  40
BRANCH  18  42
ATOM     42  O46 ZIN A   1      17.472   2.260  14.237  0.00  0.00    -0.395 OA
ATOM     43  H88 ZIN A   1      17.477   1.858  15.117  0.00  0.00     0.210 HD
ENDBRANCH  18  42
TORSDOF 17
ENDMDL
