MODEL 1
REMARK VINA RESULT:      -8.4      0.000      0.000
REMARK  6 active torsions:
REMARK  status: ('A' for Active; 'I' for Inactive)
REMARK    1  A    between atoms: C3_3  and  C4_4 
REMARK    2  A    between atoms: C4_4  and  C19_18 
REMARK    3  A    between atoms: C5_5  and  C6_6 
REMARK    4  A    between atoms: C6_6  and  C7_7 
REMARK    5  A    between atoms: C7_7  and  N8_8 
REMARK    6  A    between atoms: C13_13  and  C15_14 
ROOT
ATOM      1  C4  ZIN A   1      17.904  -0.390   9.910  0.00  0.00    -0.005 C 
ATOM      2  C5  ZIN A   1      17.075   0.367  10.651  0.00  0.00    -0.011 C 
ENDROOT
BRANCH   1   3
ATOM      3  C3  ZIN A   1      18.502  -1.612  10.488  0.00  0.00     0.022 A 
ATOM      4  C2  ZIN A   1      19.731  -1.694  11.036  0.00  0.00    -0.044 A 
ATOM      5  C1  ZIN A   1      20.661  -0.512  11.126  0.00  0.00     0.049 C 
ATOM      6  C27 ZIN A   1      20.071  -2.946  11.504  0.00  0.00     0.015 A 
ATOM      7  C26 ZIN A   1      19.130  -3.882  11.352  0.00  0.00     0.051 A 
ATOM      8  S25 ZIN A   1      17.720  -3.186  10.565  0.00  0.00    -0.101 SA
ENDBRANCH   1   3
BRANCH   1   9
ATOM      9  C19 ZIN A   1      18.216  -0.001   8.519  0.00  0.00     0.022 A 
ATOM     10  S24 ZIN A   1      17.937  -0.999   7.098  0.00  0.00    -0.101 SA
ATOM     11  C23 ZIN A   1      18.582   0.257   6.050  0.00  0.00     0.051 A 
ATOM     12  C22 ZIN A   1      18.964   1.305   6.785  0.00  0.00     0.015 A 
ATOM     13  C20 ZIN A   1      18.765   1.172   8.144  0.00  0.00    -0.044 A 
ATOM     14  C21 ZIN A   1      19.134   2.250   9.129  0.00  0.00     0.049 C 
ENDBRANCH   1   9
BRANCH   2  15
ATOM     15  C6  ZIN A   1      16.849   0.037  12.103  0.00  0.00     0.056 C 
BRANCH  15  16
ATOM     16  C7  ZIN A   1      17.702   0.960  12.975  0.00  0.00     0.238 C 
BRANCH  16  17
ATOM     17  N8  ZIN A   1      17.698   0.468  14.360  0.00  0.00    -0.070 N 
ATOM     18  H9  ZIN A   1      16.754   0.476  14.716  0.00  0.00     0.279 HD
ATOM     19  C18 ZIN A   1      18.539   1.338  15.189  0.00  0.00     0.250 C 
ATOM     20  C13 ZIN A   1      18.472   0.879  16.648  0.00  0.00     0.112 C 
ATOM     21  C12 ZIN A   1      18.978  -0.564  16.745  0.00  0.00     0.019 C 
ATOM     22  C11 ZIN A   1      18.142  -1.450  15.818  0.00  0.00     0.029 C 
ATOM     23  C10 ZIN A   1      18.220  -0.904  14.391  0.00  0.00     0.235 C 
BRANCH  20  24
ATOM     24  C15 ZIN A   1      19.337   1.773  17.498  0.00  0.00     0.178 C 
ATOM     25  O16 ZIN A   1      19.675   2.869  17.084  0.00  0.00    -0.648 OA
ATOM     26  O17 ZIN A   1      19.700   1.400  18.601  0.00  0.00    -0.648 OA
ENDBRANCH  20  24
ENDBRANCH  16  17
ENDBRANCH  15  16
ENDBRANCH   2  15
TORSDOF 6
ENDMDL
MODEL 2
REMARK VINA RESULT:      -7.9      4.692      8.037
REMARK  6 active torsions:
REMARK  status: ('A' for Active; 'I' for Inactive)
REMARK    1  A    between atoms: C3_3  and  C4_4 
REMARK    2  A    between atoms: C4_4  and  C19_18 
REMARK    3  A    between atoms: C5_5  and  C6_6 
REMARK    4  A    between atoms: C6_6  and  C7_7 
REMARK    5  A    between atoms: C7_7  and  N8_8 
REMARK    6  A    between atoms: C13_13  and  C15_14 
ROOT
ATOM      1  C4  ZIN A   1      17.881   0.410  12.888  0.00  0.00    -0.005 C 
ATOM      2  C5  ZIN A   1      17.069  -0.292  12.079  0.00  0.00    -0.011 C 
ENDROOT
BRANCH   1   3
ATOM      3  C3  ZIN A   1      18.476   1.679  12.416  0.00  0.00     0.022 A 
ATOM      4  C2  ZIN A   1      19.737   1.827  11.962  0.00  0.00    -0.044 A 
ATOM      5  C1  ZIN A   1      20.711   0.680  11.881  0.00  0.00     0.049 C 
ATOM      6  C27 ZIN A   1      20.066   3.111  11.582  0.00  0.00     0.015 A 
ATOM      7  C26 ZIN A   1      19.084   4.009  11.711  0.00  0.00     0.051 A 
ATOM      8  S25 ZIN A   1      17.647   3.229  12.360  0.00  0.00    -0.101 SA
ENDBRANCH   1   3
BRANCH   1   9
ATOM      9  C19 ZIN A   1      18.180  -0.084  14.247  0.00  0.00     0.022 A 
ATOM     10  S24 ZIN A   1      17.750   0.735  15.744  0.00  0.00    -0.101 SA
ATOM     11  C23 ZIN A   1      18.479  -0.552  16.695  0.00  0.00     0.051 A 
ATOM     12  C22 ZIN A   1      18.991  -1.480  15.881  0.00  0.00     0.015 A 
ATOM     13  C20 ZIN A   1      18.830  -1.231  14.534  0.00  0.00    -0.044 A 
ATOM     14  C21 ZIN A   1      19.340  -2.165  13.467  0.00  0.00     0.049 C 
ENDBRANCH   1   9
BRANCH   2  15
ATOM     15  C6  ZIN A   1      16.857   0.149  10.654  0.00  0.00     0.056 C 
BRANCH  15  16
ATOM     16  C7  ZIN A   1      17.687  -0.733   9.719  0.00  0.00     0.238 C 
BRANCH  16  17
ATOM     17  N8  ZIN A   1      17.803  -0.081   8.407  0.00  0.00    -0.070 N 
ATOM     18  H9  ZIN A   1      16.905   0.288   8.135  0.00  0.00     0.279 HD
ATOM     19  C18 ZIN A   1      18.249  -1.063   7.412  0.00  0.00     0.250 C 
ATOM     20  C13 ZIN A   1      18.294  -0.409   6.029  0.00  0.00     0.112 C 
ATOM     21  C12 ZIN A   1      19.273   0.768   6.059  0.00  0.00     0.019 C 
ATOM     22  C11 ZIN A   1      18.841   1.750   7.152  0.00  0.00     0.029 C 
ATOM     23  C10 ZIN A   1      18.775   1.016   8.493  0.00  0.00     0.235 C 
BRANCH  20  24
ATOM     24  C15 ZIN A   1      18.753  -1.419   5.009  0.00  0.00     0.178 C 
ATOM     25  O16 ZIN A   1      18.094  -2.425   4.806  0.00  0.00    -0.648 OA
ATOM     26  O17 ZIN A   1      19.784  -1.230   4.387  0.00  0.00    -0.648 OA
ENDBRANCH  20  24
ENDBRANCH  16  17
ENDBRANCH  15  16
ENDBRANCH   2  15
TORSDOF 6
ENDMDL
MODEL 3
REMARK VINA RESULT:      -7.5      2.532      4.657
REMARK  6 active torsions:
REMARK  status: ('A' for Active; 'I' for Inactive)
REMARK    1  A    between atoms: C3_3  and  C4_4 
REMARK    2  A    between atoms: C4_4  and  C19_18 
REMARK    3  A    between atoms: C5_5  and  C6_6 
REMARK    4  A    between atoms: C6_6  and  C7_7 
REMARK    5  A    between atoms: C7_7  and  N8_8 
REMARK    6  A    between atoms: C13_13  and  C15_14 
ROOT
ATOM      1  C4  ZIN A   1      17.992  -1.840  10.232  0.00  0.00    -0.005 C 
ATOM      2  C5  ZIN A   1      17.333  -1.508  11.356  0.00  0.00    -0.011 C 
ENDROOT
BRANCH   1   3
ATOM      3  C3  ZIN A   1      18.368  -0.793   9.259  0.00  0.00     0.022 A 
ATOM      4  C2  ZIN A   1      19.522  -0.095   9.273  0.00  0.00    -0.044 A 
ATOM      5  C1  ZIN A   1      20.591  -0.313  10.312  0.00  0.00     0.049 C 
ATOM      6  C27 ZIN A   1      19.645   0.836   8.263  0.00  0.00     0.015 A 
ATOM      7  C26 ZIN A   1      18.609   0.898   7.422  0.00  0.00     0.051 A 
ATOM      8  S25 ZIN A   1      17.379  -0.262   7.904  0.00  0.00    -0.101 SA
ENDBRANCH   1   3
BRANCH   1   9
ATOM      9  C19 ZIN A   1      18.340  -3.252   9.969  0.00  0.00     0.022 A 
ATOM     10  S24 ZIN A   1      17.614  -4.263   8.726  0.00  0.00    -0.101 SA
ATOM     11  C23 ZIN A   1      18.624  -5.622   9.197  0.00  0.00     0.051 A 
ATOM     12  C22 ZIN A   1      19.409  -5.269  10.218  0.00  0.00     0.015 A 
ATOM     13  C20 ZIN A   1      19.260  -3.967  10.648  0.00  0.00    -0.044 A 
ATOM     14  C21 ZIN A   1      20.060  -3.389  11.787  0.00  0.00     0.049 C 
ENDBRANCH   1   9
BRANCH   2  15
ATOM     15  C6  ZIN A   1      16.875  -0.089  11.570  0.00  0.00     0.056 C 
BRANCH  15  16
ATOM     16  C7  ZIN A   1      17.734   0.568  12.652  0.00  0.00     0.238 C 
BRANCH  16  17
ATOM     17  N8  ZIN A   1      18.337   1.798  12.119  0.00  0.00    -0.070 N 
ATOM     18  H9  ZIN A   1      19.263   1.595  11.773  0.00  0.00     0.279 HD
ATOM     19  C18 ZIN A   1      18.424   2.800  13.187  0.00  0.00     0.250 C 
ATOM     20  C13 ZIN A   1      19.125   4.054  12.658  0.00  0.00     0.112 C 
ATOM     21  C12 ZIN A   1      18.322   4.624  11.486  0.00  0.00     0.019 C 
ATOM     22  C11 ZIN A   1      18.173   3.545  10.410  0.00  0.00     0.029 C 
ATOM     23  C10 ZIN A   1      17.508   2.310  11.021  0.00  0.00     0.235 C 
BRANCH  20  24
ATOM     24  C15 ZIN A   1      19.213   5.083  13.756  0.00  0.00     0.178 C 
ATOM     25  O16 ZIN A   1      20.262   5.667  13.962  0.00  0.00    -0.648 OA
ATOM     26  O17 ZIN A   1      18.233   5.330  14.438  0.00  0.00    -0.648 OA
ENDBRANCH  20  24
ENDBRANCH  16  17
ENDBRANCH  15  16
ENDBRANCH   2  15
TORSDOF 6
ENDMDL
MODEL 4
REMARK VINA RESULT:      -7.3      2.503      4.548
REMARK  6 active torsions:
REMARK  status: ('A' for Active; 'I' for Inactive)
REMARK    1  A    between atoms: C3_3  and  C4_4 
REMARK    2  A    between atoms: C4_4  and  C19_18 
REMARK    3  A    between atoms: C5_5  and  C6_6 
REMARK    4  A    between atoms: C6_6  and  C7_7 
REMARK    5  A    between atoms: C7_7  and  N8_8 
REMARK    6  A    between atoms: C13_13  and  C15_14 
ROOT
ATOM      1  C4  ZIN A   1      18.210  -2.150  10.481  0.00  0.00    -0.005 C 
ATOM      2  C5  ZIN A   1      17.632  -2.115  11.695  0.00  0.00    -0.011 C 
ENDROOT
BRANCH   1   3
ATOM      3  C3  ZIN A   1      18.493  -0.889   9.762  0.00  0.00     0.022 A 
ATOM      4  C2  ZIN A   1      19.589  -0.123   9.936  0.00  0.00    -0.044 A 
ATOM      5  C1  ZIN A   1      20.681  -0.476  10.912  0.00  0.00     0.049 C 
ATOM      6  C27 ZIN A   1      19.628   1.012   9.154  0.00  0.00     0.015 A 
ATOM      7  C26 ZIN A   1      18.583   1.174   8.337  0.00  0.00     0.051 A 
ATOM      8  S25 ZIN A   1      17.453  -0.157   8.547  0.00  0.00    -0.101 SA
ENDBRANCH   1   3
BRANCH   1   9
ATOM      9  C19 ZIN A   1      18.562  -3.446   9.866  0.00  0.00     0.022 A 
ATOM     10  S24 ZIN A   1      17.798  -4.134   8.438  0.00  0.00    -0.101 SA
ATOM     11  C23 ZIN A   1      18.840  -5.548   8.524  0.00  0.00     0.051 A 
ATOM     12  C22 ZIN A   1      19.660  -5.442   9.573  0.00  0.00     0.015 A 
ATOM     13  C20 ZIN A   1      19.514  -4.288  10.316  0.00  0.00    -0.044 A 
ATOM     14  C21 ZIN A   1      20.351  -3.993  11.533  0.00  0.00     0.049 C 
ENDBRANCH   1   9
BRANCH   2  15
ATOM     15  C6  ZIN A   1      17.166  -0.803  12.271  0.00  0.00     0.056 C 
BRANCH  15  16
ATOM     16  C7  ZIN A   1      17.906  -0.531  13.582  0.00  0.00     0.238 C 
BRANCH  16  17
ATOM     17  N8  ZIN A   1      17.828   0.901  13.900  0.00  0.00    -0.070 N 
ATOM     18  H9  ZIN A   1      16.967   1.089  14.392  0.00  0.00     0.279 HD
ATOM     19  C18 ZIN A   1      17.859   1.679  12.657  0.00  0.00     0.250 C 
ATOM     20  C13 ZIN A   1      17.695   3.167  12.977  0.00  0.00     0.112 C 
ATOM     21  C12 ZIN A   1      18.841   3.615  13.889  0.00  0.00     0.019 C 
ATOM     22  C11 ZIN A   1      18.846   2.746  15.149  0.00  0.00     0.029 C 
ATOM     23  C10 ZIN A   1      18.966   1.274  14.749  0.00  0.00     0.235 C 
BRANCH  20  24
ATOM     24  C15 ZIN A   1      17.728   3.964  11.699  0.00  0.00     0.178 C 
ATOM     25  O16 ZIN A   1      16.793   3.905  10.919  0.00  0.00    -0.648 OA
ATOM     26  O17 ZIN A   1      18.690   4.668  11.445  0.00  0.00    -0.648 OA
ENDBRANCH  20  24
ENDBRANCH  16  17
ENDBRANCH  15  16
ENDBRANCH   2  15
TORSDOF 6
ENDMDL
MODEL 5
REMARK VINA RESULT:      -7.3      1.413      1.938
REMARK  6 active torsions:
REMARK  status: ('A' for Active; 'I' for Inactive)
REMARK    1  A    between atoms: C3_3  and  C4_4 
REMARK    2  A    between atoms: C4_4  and  C19_18 
REMARK    3  A    between atoms: C5_5  and  C6_6 
REMARK    4  A    between atoms: C6_6  and  C7_7 
REMARK    5  A    between atoms: C7_7  and  N8_8 
REMARK    6  A    between atoms: C13_13  and  C15_14 
ROOT
ATOM      1  C4  ZIN A   1      18.016  -0.154   9.889  0.00  0.00    -0.005 C 
ATOM      2  C5  ZIN A   1      17.369   0.815  10.559  0.00  0.00    -0.011 C 
ENDROOT
BRANCH   1   3
ATOM      3  C3  ZIN A   1      18.503  -1.351  10.608  0.00  0.00     0.022 A 
ATOM      4  C2  ZIN A   1      19.747  -1.509  11.103  0.00  0.00    -0.044 A 
ATOM      5  C1  ZIN A   1      20.812  -0.451  10.977  0.00  0.00     0.049 C 
ATOM      6  C27 ZIN A   1      19.968  -2.717  11.730  0.00  0.00     0.015 A 
ATOM      7  C26 ZIN A   1      18.916  -3.541  11.760  0.00  0.00     0.051 A 
ATOM      8  S25 ZIN A   1      17.549  -2.789  10.949  0.00  0.00    -0.101 SA
ENDBRANCH   1   3
BRANCH   1   9
ATOM      9  C19 ZIN A   1      18.240  -0.025   8.434  0.00  0.00     0.022 A 
ATOM     10  S24 ZIN A   1      17.849  -1.249   7.233  0.00  0.00    -0.101 SA
ATOM     11  C23 ZIN A   1      18.442  -0.216   5.940  0.00  0.00     0.051 A 
ATOM     12  C22 ZIN A   1      18.889   0.935   6.451  0.00  0.00     0.015 A 
ATOM     13  C20 ZIN A   1      18.780   1.048   7.822  0.00  0.00    -0.044 A 
ATOM     14  C21 ZIN A   1      19.232   2.273   8.575  0.00  0.00     0.049 C 
ENDBRANCH   1   9
BRANCH   2  15
ATOM     15  C6  ZIN A   1      17.244   0.740  12.059  0.00  0.00     0.056 C 
BRANCH  15  16
ATOM     16  C7  ZIN A   1      17.691   2.068  12.675  0.00  0.00     0.238 C 
BRANCH  16  17
ATOM     17  N8  ZIN A   1      18.504   1.803  13.870  0.00  0.00    -0.070 N 
ATOM     18  H9  ZIN A   1      19.469   1.688  13.601  0.00  0.00     0.279 HD
ATOM     19  C18 ZIN A   1      18.029   0.577  14.522  0.00  0.00     0.250 C 
ATOM     20  C13 ZIN A   1      18.923   0.253  15.720  0.00  0.00     0.112 C 
ATOM     21  C12 ZIN A   1      18.871   1.414  16.717  0.00  0.00     0.019 C 
ATOM     22  C11 ZIN A   1      19.296   2.703  16.007  0.00  0.00     0.029 C 
ATOM     23  C10 ZIN A   1      18.388   2.936  14.797  0.00  0.00     0.235 C 
BRANCH  20  24
ATOM     24  C15 ZIN A   1      18.434  -1.006  16.388  0.00  0.00     0.178 C 
ATOM     25  O16 ZIN A   1      17.253  -1.132  16.662  0.00  0.00    -0.648 OA
ATOM     26  O17 ZIN A   1      19.220  -1.899  16.655  0.00  0.00    -0.648 OA
ENDBRANCH  20  24
ENDBRANCH  16  17
ENDBRANCH  15  16
ENDBRANCH   2  15
TORSDOF 6
ENDMDL
MODEL 6
REMARK VINA RESULT:      -6.9      2.437      4.851
REMARK  6 active torsions:
REMARK  status: ('A' for Active; 'I' for Inactive)
REMARK    1  A    between atoms: C3_3  and  C4_4 
REMARK    2  A    between atoms: C4_4  and  C19_18 
REMARK    3  A    between atoms: C5_5  and  C6_6 
REMARK    4  A    between atoms: C6_6  and  C7_7 
REMARK    5  A    between atoms: C7_7  and  N8_8 
REMARK    6  A    between atoms: C13_13  and  C15_14 
ROOT
ATOM      1  C4  ZIN A   1      18.998  -2.254  10.001  0.00  0.00    -0.005 C 
ATOM      2  C5  ZIN A   1      20.029  -1.789  10.728  0.00  0.00    -0.011 C 
ENDROOT
BRANCH   1   3
ATOM      3  C3  ZIN A   1      18.527  -1.499   8.820  0.00  0.00     0.022 A 
ATOM      4  C2  ZIN A   1      17.595  -0.524   8.840  0.00  0.00    -0.044 A 
ATOM      5  C1  ZIN A   1      16.911  -0.080  10.107  0.00  0.00     0.049 C 
ATOM      6  C27 ZIN A   1      17.316   0.031   7.609  0.00  0.00     0.015 A 
ATOM      7  C26 ZIN A   1      18.016  -0.474   6.588  0.00  0.00     0.051 A 
ATOM      8  S25 ZIN A   1      19.094  -1.735   7.172  0.00  0.00    -0.101 SA
ENDBRANCH   1   3
BRANCH   1   9
ATOM      9  C19 ZIN A   1      18.337  -3.520  10.380  0.00  0.00     0.022 A 
ATOM     10  S24 ZIN A   1      18.202  -4.943   9.354  0.00  0.00    -0.101 SA
ATOM     11  C23 ZIN A   1      17.334  -5.808  10.615  0.00  0.00     0.051 A 
ATOM     12  C22 ZIN A   1      17.189  -5.022  11.685  0.00  0.00     0.015 A 
ATOM     13  C20 ZIN A   1      17.739  -3.762  11.564  0.00  0.00    -0.044 A 
ATOM     14  C21 ZIN A   1      17.674  -2.737  12.667  0.00  0.00     0.049 C 
ENDBRANCH   1   9
BRANCH   2  15
ATOM     15  C6  ZIN A   1      20.626  -0.442  10.413  0.00  0.00     0.056 C 
BRANCH  15  16
ATOM     16  C7  ZIN A   1      20.898   0.313  11.716  0.00  0.00     0.238 C 
BRANCH  16  17
ATOM     17  N8  ZIN A   1      19.621   0.660  12.356  0.00  0.00    -0.070 N 
ATOM     18  H9  ZIN A   1      18.896   0.049  12.012  0.00  0.00     0.279 HD
ATOM     19  C18 ZIN A   1      19.278   2.050  12.036  0.00  0.00     0.250 C 
ATOM     20  C13 ZIN A   1      17.910   2.392  12.631  0.00  0.00     0.112 C 
ATOM     21  C12 ZIN A   1      17.963   2.216  14.152  0.00  0.00     0.019 C 
ATOM     22  C11 ZIN A   1      18.396   0.783  14.474  0.00  0.00     0.029 C 
ATOM     23  C10 ZIN A   1      19.745   0.501  13.810  0.00  0.00     0.235 C 
BRANCH  20  24
ATOM     24  C15 ZIN A   1      17.559   3.820  12.302  0.00  0.00     0.178 C 
ATOM     25  O16 ZIN A   1      18.052   4.732  12.944  0.00  0.00    -0.648 OA
ATOM     26  O17 ZIN A   1      16.782   4.063  11.395  0.00  0.00    -0.648 OA
ENDBRANCH  20  24
ENDBRANCH  16  17
ENDBRANCH  15  16
ENDBRANCH   2  15
TORSDOF 6
ENDMDL
MODEL 7
REMARK VINA RESULT:      -6.9      4.720      6.962
REMARK  6 active torsions:
REMARK  status: ('A' for Active; 'I' for Inactive)
REMARK    1  A    between atoms: C3_3  and  C4_4 
REMARK    2  A    between atoms: C4_4  and  C19_18 
REMARK    3  A    between atoms: C5_5  and  C6_6 
REMARK    4  A    between atoms: C6_6  and  C7_7 
REMARK    5  A    between atoms: C7_7  and  N8_8 
REMARK    6  A    between atoms: C13_13  and  C15_14 
ROOT
ATOM      1  C4  ZIN A   1      18.135   1.920  12.752  0.00  0.00    -0.005 C 
ATOM      2  C5  ZIN A   1      17.448   1.793  11.604  0.00  0.00    -0.011 C 
ENDROOT
BRANCH   1   3
ATOM      3  C3  ZIN A   1      18.505   0.718  13.529  0.00  0.00     0.022 A 
ATOM      4  C2  ZIN A   1      19.555  -0.087  13.266  0.00  0.00    -0.044 A 
ATOM      5  C1  ZIN A   1      20.499   0.159  12.117  0.00  0.00     0.049 C 
ATOM      6  C27 ZIN A   1      19.695  -1.153  14.129  0.00  0.00     0.015 A 
ATOM      7  C26 ZIN A   1      18.776  -1.221  15.097  0.00  0.00     0.051 A 
ATOM      8  S25 ZIN A   1      17.644   0.114  14.938  0.00  0.00    -0.101 SA
ENDBRANCH   1   3
BRANCH   1   9
ATOM      9  C19 ZIN A   1      18.521   3.261  13.238  0.00  0.00     0.022 A 
ATOM     10  S24 ZIN A   1      17.757   4.118  14.571  0.00  0.00    -0.101 SA
ATOM     11  C23 ZIN A   1      18.848   5.480  14.363  0.00  0.00     0.051 A 
ATOM     12  C22 ZIN A   1      19.684   5.239  13.348  0.00  0.00     0.015 A 
ATOM     13  C20 ZIN A   1      19.511   4.020  12.725  0.00  0.00    -0.044 A 
ATOM     14  C21 ZIN A   1      20.359   3.573  11.563  0.00  0.00     0.049 C 
ENDBRANCH   1   9
BRANCH   2  15
ATOM     15  C6  ZIN A   1      16.952   0.438  11.168  0.00  0.00     0.056 C 
BRANCH  15  16
ATOM     16  C7  ZIN A   1      17.216   0.256   9.672  0.00  0.00     0.238 C 
BRANCH  16  17
ATOM     17  N8  ZIN A   1      18.203  -0.814   9.475  0.00  0.00    -0.070 N 
ATOM     18  H9  ZIN A   1      19.124  -0.465   9.692  0.00  0.00     0.279 HD
ATOM     19  C18 ZIN A   1      18.166  -1.261   8.078  0.00  0.00     0.250 C 
ATOM     20  C13 ZIN A   1      19.249  -2.318   7.849  0.00  0.00     0.112 C 
ATOM     21  C12 ZIN A   1      18.991  -3.512   8.773  0.00  0.00     0.019 C 
ATOM     22  C11 ZIN A   1      18.956  -3.023  10.223  0.00  0.00     0.029 C 
ATOM     23  C10 ZIN A   1      17.885  -1.938  10.365  0.00  0.00     0.235 C 
BRANCH  20  24
ATOM     24  C15 ZIN A   1      19.209  -2.776   6.413  0.00  0.00     0.178 C 
ATOM     25  O16 ZIN A   1      18.642  -3.815   6.119  0.00  0.00    -0.648 OA
ATOM     26  O17 ZIN A   1      19.746  -2.108   5.546  0.00  0.00    -0.648 OA
ENDBRANCH  20  24
ENDBRANCH  16  17
ENDBRANCH  15  16
ENDBRANCH   2  15
TORSDOF 6
ENDMDL
MODEL 8
REMARK VINA RESULT:      -6.8      4.699      7.404
REMARK  6 active torsions:
REMARK  status: ('A' for Active; 'I' for Inactive)
REMARK    1  A    between atoms: C3_3  and  C4_4 
REMARK    2  A    between atoms: C4_4  and  C19_18 
REMARK    3  A    between atoms: C5_5  and  C6_6 
REMARK    4  A    between atoms: C6_6  and  C7_7 
REMARK    5  A    between atoms: C7_7  and  N8_8 
REMARK    6  A    between atoms: C13_13  and  C15_14 
ROOT
ATOM      1  C4  ZIN A   1      18.157   1.828  12.655  0.00  0.00    -0.005 C 
ATOM      2  C5  ZIN A   1      17.598   1.615  11.451  0.00  0.00    -0.011 C 
ENDROOT
BRANCH   1   3
ATOM      3  C3  ZIN A   1      18.448   0.685  13.546  0.00  0.00     0.022 A 
ATOM      4  C2  ZIN A   1      19.587  -0.038  13.539  0.00  0.00    -0.044 A 
ATOM      5  C1  ZIN A   1      20.725   0.249  12.594  0.00  0.00     0.049 C 
ATOM      6  C27 ZIN A   1      19.625  -1.062  14.462  0.00  0.00     0.015 A 
ATOM      7  C26 ZIN A   1      18.535  -1.175  15.227  0.00  0.00     0.051 A 
ATOM      8  S25 ZIN A   1      17.363   0.057  14.780  0.00  0.00    -0.101 SA
ENDBRANCH   1   3
BRANCH   1   9
ATOM      9  C19 ZIN A   1      18.480   3.203  13.088  0.00  0.00     0.022 A 
ATOM     10  S24 ZIN A   1      17.633   4.099  14.343  0.00  0.00    -0.101 SA
ATOM     11  C23 ZIN A   1      18.690   5.485  14.112  0.00  0.00     0.051 A 
ATOM     12  C22 ZIN A   1      19.575   5.221  13.146  0.00  0.00     0.015 A 
ATOM     13  C20 ZIN A   1      19.466   3.968  12.579  0.00  0.00    -0.044 A 
ATOM     14  C21 ZIN A   1      20.377   3.493  11.476  0.00  0.00     0.049 C 
ENDBRANCH   1   9
BRANCH   2  15
ATOM     15  C6  ZIN A   1      17.160   0.229  11.057  0.00  0.00     0.056 C 
BRANCH  15  16
ATOM     16  C7  ZIN A   1      18.210  -0.394  10.135  0.00  0.00     0.238 C 
BRANCH  16  17
ATOM     17  N8  ZIN A   1      18.111   0.213   8.800  0.00  0.00    -0.070 N 
ATOM     18  H9  ZIN A   1      17.170   0.543   8.651  0.00  0.00     0.279 HD
ATOM     19  C18 ZIN A   1      18.443  -0.790   7.782  0.00  0.00     0.250 C 
ATOM     20  C13 ZIN A   1      18.262  -0.186   6.388  0.00  0.00     0.112 C 
ATOM     21  C12 ZIN A   1      19.192   1.021   6.237  0.00  0.00     0.019 C 
ATOM     22  C11 ZIN A   1      18.888   2.028   7.350  0.00  0.00     0.029 C 
ATOM     23  C10 ZIN A   1      19.045   1.342   8.708  0.00  0.00     0.235 C 
BRANCH  20  24
ATOM     24  C15 ZIN A   1      18.604  -1.218   5.343  0.00  0.00     0.178 C 
ATOM     25  O16 ZIN A   1      17.759  -2.014   4.972  0.00  0.00    -0.648 OA
ATOM     26  O17 ZIN A   1      19.727  -1.256   4.870  0.00  0.00    -0.648 OA
ENDBRANCH  20  24
ENDBRANCH  16  17
ENDBRANCH  15  16
ENDBRANCH   2  15
TORSDOF 6
ENDMDL
MODEL 9
REMARK VINA RESULT:      -6.7      4.727      7.601
REMARK  6 active torsions:
REMARK  status: ('A' for Active; 'I' for Inactive)
REMARK    1  A    between atoms: C3_3  and  C4_4 
REMARK    2  A    between atoms: C4_4  and  C19_18 
REMARK    3  A    between atoms: C5_5  and  C6_6 
REMARK    4  A    between atoms: C6_6  and  C7_7 
REMARK    5  A    between atoms: C7_7  and  N8_8 
REMARK    6  A    between atoms: C13_13  and  C15_14 
ROOT
ATOM      1  C4  ZIN A   1      18.913   1.146  10.591  0.00  0.00    -0.005 C 
ATOM      2  C5  ZIN A   1      19.120   1.370   9.282  0.00  0.00    -0.011 C 
ENDROOT
BRANCH   1   3
ATOM      3  C3  ZIN A   1      18.729  -0.235  11.085  0.00  0.00     0.022 A 
ATOM      4  C2  ZIN A   1      17.558  -0.768  11.491  0.00  0.00    -0.044 A 
ATOM      5  C1  ZIN A   1      16.267   0.008  11.484  0.00  0.00     0.049 C 
ATOM      6  C27 ZIN A   1      17.638  -2.077  11.916  0.00  0.00     0.015 A 
ATOM      7  C26 ZIN A   1      18.857  -2.620  11.851  0.00  0.00     0.051 A 
ATOM      8  S25 ZIN A   1      20.003  -1.438  11.235  0.00  0.00    -0.101 SA
ENDBRANCH   1   3
BRANCH   1   9
ATOM      9  C19 ZIN A   1      18.869   2.281  11.537  0.00  0.00     0.022 A 
ATOM     10  S24 ZIN A   1      19.292   2.198  13.243  0.00  0.00    -0.101 SA
ATOM     11  C23 ZIN A   1      18.941   3.909  13.445  0.00  0.00     0.051 A 
ATOM     12  C22 ZIN A   1      18.535   4.427  12.283  0.00  0.00     0.015 A 
ATOM     13  C20 ZIN A   1      18.494   3.539  11.228  0.00  0.00    -0.044 A 
ATOM     14  C21 ZIN A   1      18.062   3.941   9.842  0.00  0.00     0.049 C 
ENDBRANCH   1   9
BRANCH   2  15
ATOM     15  C6  ZIN A   1      19.048   0.228   8.302  0.00  0.00     0.056 C 
BRANCH  15  16
ATOM     16  C7  ZIN A   1      17.615   0.094   7.780  0.00  0.00     0.238 C 
BRANCH  16  17
ATOM     17  N8  ZIN A   1      17.573  -0.926   6.723  0.00  0.00    -0.070 N 
ATOM     18  H9  ZIN A   1      16.647  -1.324   6.677  0.00  0.00     0.279 HD
ATOM     19  C18 ZIN A   1      18.543  -1.984   7.026  0.00  0.00     0.250 C 
ATOM     20  C13 ZIN A   1      18.445  -3.089   5.972  0.00  0.00     0.112 C 
ATOM     21  C12 ZIN A   1      18.749  -2.497   4.592  0.00  0.00     0.019 C 
ATOM     22  C11 ZIN A   1      17.779  -1.345   4.318  0.00  0.00     0.029 C 
ATOM     23  C10 ZIN A   1      17.901  -0.305   5.434  0.00  0.00     0.235 C 
BRANCH  20  24
ATOM     24  C15 ZIN A   1      19.443  -4.174   6.285  0.00  0.00     0.178 C 
ATOM     25  O16 ZIN A   1      20.596  -3.884   6.555  0.00  0.00    -0.648 OA
ATOM     26  O17 ZIN A   1      19.097  -5.343   6.267  0.00  0.00    -0.648 OA
ENDBRANCH  20  24
ENDBRANCH  16  17
ENDBRANCH  15  16
ENDBRANCH   2  15
TORSDOF 6
ENDMDL
