MODEL 1
REMARK VINA RESULT:      -9.9      0.000      0.000
REMARK  6 active torsions:
REMARK  status: ('A' for Active; 'I' for Inactive)
REMARK    1  A    between atoms: N4_4  and  N5_5 
REMARK    2  A    between atoms: N5_5  and  C6_6 
REMARK    3  A    between atoms: C10_10  and  C11_11 
REMARK    4  A    between atoms: C15_15  and  C16_16 
REMARK    5  A    between atoms: C20_20  and  O21_21 
REMARK    6  A    between atoms: N24_24  and  C25_25 
ROOT
ATOM      1  C6  ZIN A   1      18.386   0.562   7.305  0.00  0.00     0.113 A 
ATOM      2  C7  ZIN A   1      19.161   1.354   6.453  0.00  0.00     0.036 A 
ATOM      3  C8  ZIN A   1      19.566   0.862   5.228  0.00  0.00     0.003 A 
ATOM      4  C9  ZIN A   1      19.209  -0.413   4.833  0.00  0.00     0.015 A 
ATOM      5  C10 ZIN A   1      18.436  -1.216   5.669  0.00  0.00     0.010 A 
ATOM      6  C20 ZIN A   1      18.026  -0.733   6.913  0.00  0.00     0.107 A 
ENDROOT
BRANCH   1   7
ATOM      7  N5  ZIN A   1      17.986   1.049   8.518  0.00  0.00    -0.147 NA
BRANCH   7   8
ATOM      8  N4  ZIN A   1      18.127   0.330   9.579  0.00  0.00    -0.142 NA
ATOM      9  C3  ZIN A   1      18.120   0.917  10.806  0.00  0.00     0.174 A 
ATOM     10  C2  ZIN A   1      17.975   2.264  11.074  0.00  0.00     0.087 A 
ATOM     11  C22 ZIN A   1      18.268   0.244  12.105  0.00  0.00     0.301 A 
ATOM     12  C1  ZIN A   1      17.793   3.353  10.049  0.00  0.00     0.075 C 
ATOM     13  N33 ZIN A   1      18.031   2.440  12.419  0.00  0.00    -0.167 NA
ATOM     14  N24 ZIN A   1      18.204   1.205  13.050  0.00  0.00    -0.195 N 
ATOM     15  O23 ZIN A   1      18.420  -0.949  12.293  0.00  0.00    -0.263 OA
BRANCH  14  16
ATOM     16  C25 ZIN A   1      18.301   1.001  14.431  0.00  0.00     0.062 A 
ATOM     17  C32 ZIN A   1      17.579  -0.020  15.036  0.00  0.00     0.039 A 
ATOM     18  C30 ZIN A   1      17.681  -0.221  16.398  0.00  0.00    -0.054 A 
ATOM     19  C28 ZIN A   1      18.492   0.599  17.161  0.00  0.00    -0.056 A 
ATOM     20  C31 ZIN A   1      16.902  -1.332  17.054  0.00  0.00     0.049 C 
ATOM     21  C27 ZIN A   1      19.207   1.619  16.563  0.00  0.00     0.009 A 
ATOM     22  C29 ZIN A   1      18.596   0.379  18.649  0.00  0.00     0.049 C 
ATOM     23  C26 ZIN A   1      19.114   1.823  15.200  0.00  0.00     0.032 A 
ENDBRANCH  14  16
ENDBRANCH   7   8
ENDBRANCH   1   7
BRANCH   6  24
ATOM     24  O21 ZIN A   1      17.274  -1.510   7.733  0.00  0.00    -0.357 OA
ATOM     25  H44 ZIN A   1      17.505  -2.449   7.706  0.00  0.00     0.217 HD
ENDBRANCH   6  24
BRANCH   5  26
ATOM     26  C11 ZIN A   1      18.056  -2.585   5.240  0.00  0.00    -0.022 A 
ATOM     27  C19 ZIN A   1      18.572  -3.692   5.904  0.00  0.00     0.030 A 
ATOM     28  C15 ZIN A   1      18.205  -4.975   5.498  0.00  0.00     0.041 A 
ATOM     29  C14 ZIN A   1      17.329  -5.139   4.420  0.00  0.00     0.018 A 
ATOM     30  C13 ZIN A   1      16.826  -4.034   3.764  0.00  0.00     0.002 A 
ATOM     31  C12 ZIN A   1      17.183  -2.761   4.166  0.00  0.00     0.012 A 
BRANCH  28  32
ATOM     32  C16 ZIN A   1      18.744  -6.156   6.200  0.00  0.00     0.209 C 
ATOM     33  O17 ZIN A   1      19.660  -6.026   7.000  0.00  0.00    -0.644 OA
ATOM     34  O18 ZIN A   1      18.276  -7.263   5.981  0.00  0.00    -0.644 OA
ENDBRANCH  28  32
ENDBRANCH   5  26
TORSDOF 6
ENDMDL
MODEL 2
REMARK VINA RESULT:      -9.8      2.901      9.670
REMARK  6 active torsions:
REMARK  status: ('A' for Active; 'I' for Inactive)
REMARK    1  A    between atoms: N4_4  and  N5_5 
REMARK    2  A    between atoms: N5_5  and  C6_6 
REMARK    3  A    between atoms: C10_10  and  C11_11 
REMARK    4  A    between atoms: C15_15  and  C16_16 
REMARK    5  A    between atoms: C20_20  and  O21_21 
REMARK    6  A    between atoms: N24_24  and  C25_25 
ROOT
ATOM      1  C6  ZIN A   1      19.057   2.883  10.169  0.00  0.00     0.113 A 
ATOM      2  C7  ZIN A   1      18.002   3.626   9.634  0.00  0.00     0.036 A 
ATOM      3  C8  ZIN A   1      17.383   4.598  10.395  0.00  0.00     0.003 A 
ATOM      4  C9  ZIN A   1      17.801   4.846  11.688  0.00  0.00     0.015 A 
ATOM      5  C10 ZIN A   1      18.853   4.115  12.238  0.00  0.00     0.010 A 
ATOM      6  C20 ZIN A   1      19.482   3.125  11.481  0.00  0.00     0.107 A 
ENDROOT
BRANCH   1   7
ATOM      7  N5  ZIN A   1      19.668   1.920   9.417  0.00  0.00    -0.147 NA
BRANCH   7   8
ATOM      8  N4  ZIN A   1      19.594   0.681   9.769  0.00  0.00    -0.142 NA
ATOM      9  C3  ZIN A   1      19.235  -0.266   8.861  0.00  0.00     0.174 A 
ATOM     10  C2  ZIN A   1      18.920  -0.057   7.533  0.00  0.00     0.087 A 
ATOM     11  C22 ZIN A   1      19.103  -1.711   9.101  0.00  0.00     0.301 A 
ATOM     12  C1  ZIN A   1      18.916   1.275   6.827  0.00  0.00     0.075 C 
ATOM     13  N33 ZIN A   1      18.611  -1.253   6.974  0.00  0.00    -0.167 NA
ATOM     14  N24 ZIN A   1      18.727  -2.266   7.930  0.00  0.00    -0.195 N 
ATOM     15  O23 ZIN A   1      19.295  -2.294  10.152  0.00  0.00    -0.263 OA
BRANCH  14  16
ATOM     16  C25 ZIN A   1      18.489  -3.627   7.711  0.00  0.00     0.062 A 
ATOM     17  C32 ZIN A   1      17.391  -4.245   8.296  0.00  0.00     0.039 A 
ATOM     18  C30 ZIN A   1      17.157  -5.587   8.073  0.00  0.00    -0.054 A 
ATOM     19  C28 ZIN A   1      18.019  -6.318   7.276  0.00  0.00    -0.056 A 
ATOM     20  C31 ZIN A   1      15.963  -6.257   8.704  0.00  0.00     0.049 C 
ATOM     21  C27 ZIN A   1      19.115  -5.707   6.696  0.00  0.00     0.009 A 
ATOM     22  C29 ZIN A   1      17.761  -7.784   7.039  0.00  0.00     0.049 C 
ATOM     23  C26 ZIN A   1      19.352  -4.364   6.911  0.00  0.00     0.032 A 
ENDBRANCH  14  16
ENDBRANCH   7   8
ENDBRANCH   1   7
BRANCH   6  24
ATOM     24  O21 ZIN A   1      20.506   2.409  12.011  0.00  0.00    -0.357 OA
ATOM     25  H44 ZIN A   1      20.233   1.580  12.427  0.00  0.00     0.217 HD
ENDBRANCH   6  24
BRANCH   5  26
ATOM     26  C11 ZIN A   1      19.299   4.386  13.628  0.00  0.00    -0.022 A 
ATOM     27  C19 ZIN A   1      18.992   3.488  14.644  0.00  0.00     0.030 A 
ATOM     28  C15 ZIN A   1      19.420   3.747  15.947  0.00  0.00     0.041 A 
ATOM     29  C14 ZIN A   1      20.143   4.911  16.223  0.00  0.00     0.018 A 
ATOM     30  C13 ZIN A   1      20.437   5.799  15.208  0.00  0.00     0.002 A 
ATOM     31  C12 ZIN A   1      20.021   5.544  13.916  0.00  0.00     0.012 A 
BRANCH  28  32
ATOM     32  C16 ZIN A   1      19.104   2.797  17.031  0.00  0.00     0.209 C 
ATOM     33  O17 ZIN A   1      19.593   2.953  18.142  0.00  0.00    -0.644 OA
ATOM     34  O18 ZIN A   1      18.355   1.855  16.821  0.00  0.00    -0.644 OA
ENDBRANCH  28  32
ENDBRANCH   5  26
TORSDOF 6
ENDMDL
MODEL 3
REMARK VINA RESULT:      -9.6      1.413      1.952
REMARK  6 active torsions:
REMARK  status: ('A' for Active; 'I' for Inactive)
REMARK    1  A    between atoms: N4_4  and  N5_5 
REMARK    2  A    between atoms: N5_5  and  C6_6 
REMARK    3  A    between atoms: C10_10  and  C11_11 
REMARK    4  A    between atoms: C15_15  and  C16_16 
REMARK    5  A    between atoms: C20_20  and  O21_21 
REMARK    6  A    between atoms: N24_24  and  C25_25 
ROOT
ATOM      1  C6  ZIN A   1      18.453   0.474   7.209  0.00  0.00     0.113 A 
ATOM      2  C7  ZIN A   1      19.227   1.238   6.330  0.00  0.00     0.036 A 
ATOM      3  C8  ZIN A   1      19.600   0.719   5.107  0.00  0.00     0.003 A 
ATOM      4  C9  ZIN A   1      19.213  -0.555   4.739  0.00  0.00     0.015 A 
ATOM      5  C10 ZIN A   1      18.441  -1.331   5.602  0.00  0.00     0.010 A 
ATOM      6  C20 ZIN A   1      18.062  -0.820   6.845  0.00  0.00     0.107 A 
ENDROOT
BRANCH   1   7
ATOM      7  N5  ZIN A   1      18.085   0.987   8.421  0.00  0.00    -0.147 NA
BRANCH   7   8
ATOM      8  N4  ZIN A   1      18.218   0.277   9.489  0.00  0.00    -0.142 NA
ATOM      9  C3  ZIN A   1      18.200   0.875  10.712  0.00  0.00     0.174 A 
ATOM     10  C2  ZIN A   1      18.049   2.223  10.967  0.00  0.00     0.087 A 
ATOM     11  C22 ZIN A   1      18.338   0.213  12.017  0.00  0.00     0.301 A 
ATOM     12  C1  ZIN A   1      17.873   3.304   9.931  0.00  0.00     0.075 C 
ATOM     13  N33 ZIN A   1      18.092   2.411  12.311  0.00  0.00    -0.167 NA
ATOM     14  N24 ZIN A   1      18.263   1.182  12.953  0.00  0.00    -0.195 N 
ATOM     15  O23 ZIN A   1      18.490  -0.978  12.216  0.00  0.00    -0.263 OA
BRANCH  14  16
ATOM     16  C25 ZIN A   1      18.348   0.989  14.337  0.00  0.00     0.062 A 
ATOM     17  C32 ZIN A   1      17.716  -0.097  14.928  0.00  0.00     0.039 A 
ATOM     18  C30 ZIN A   1      17.807  -0.286  16.293  0.00  0.00    -0.054 A 
ATOM     19  C28 ZIN A   1      18.517   0.610  17.072  0.00  0.00    -0.056 A 
ATOM     20  C31 ZIN A   1      17.126  -1.467  16.936  0.00  0.00     0.049 C 
ATOM     21  C27 ZIN A   1      19.142   1.695  16.486  0.00  0.00     0.009 A 
ATOM     22  C29 ZIN A   1      18.609   0.402  18.562  0.00  0.00     0.049 C 
ATOM     23  C26 ZIN A   1      19.060   1.887  15.121  0.00  0.00     0.032 A 
ENDBRANCH  14  16
ENDBRANCH   7   8
ENDBRANCH   1   7
BRANCH   6  24
ATOM     24  O21 ZIN A   1      17.311  -1.570   7.691  0.00  0.00    -0.357 OA
ATOM     25  H44 ZIN A   1      17.775  -2.337   8.054  0.00  0.00     0.217 HD
ENDBRANCH   6  24
BRANCH   5  26
ATOM     26  C11 ZIN A   1      18.027  -2.699   5.203  0.00  0.00    -0.022 A 
ATOM     27  C19 ZIN A   1      17.081  -2.875   4.199  0.00  0.00     0.030 A 
ATOM     28  C15 ZIN A   1      16.701  -4.164   3.826  0.00  0.00     0.041 A 
ATOM     29  C14 ZIN A   1      17.266  -5.269   4.470  0.00  0.00     0.018 A 
ATOM     30  C13 ZIN A   1      18.201  -5.085   5.469  0.00  0.00     0.002 A 
ATOM     31  C12 ZIN A   1      18.583  -3.809   5.838  0.00  0.00     0.012 A 
BRANCH  28  32
ATOM     32  C16 ZIN A   1      15.702  -4.362   2.758  0.00  0.00     0.209 C 
ATOM     33  O17 ZIN A   1      14.624  -4.879   3.018  0.00  0.00    -0.644 OA
ATOM     34  O18 ZIN A   1      15.951  -4.009   1.615  0.00  0.00    -0.644 OA
ENDBRANCH  28  32
ENDBRANCH   5  26
TORSDOF 6
ENDMDL
MODEL 4
REMARK VINA RESULT:      -9.5      3.723      9.702
REMARK  6 active torsions:
REMARK  status: ('A' for Active; 'I' for Inactive)
REMARK    1  A    between atoms: N4_4  and  N5_5 
REMARK    2  A    between atoms: N5_5  and  C6_6 
REMARK    3  A    between atoms: C10_10  and  C11_11 
REMARK    4  A    between atoms: C15_15  and  C16_16 
REMARK    5  A    between atoms: C20_20  and  O21_21 
REMARK    6  A    between atoms: N24_24  and  C25_25 
ROOT
ATOM      1  C6  ZIN A   1      19.202   1.025  10.402  0.00  0.00     0.113 A 
ATOM      2  C7  ZIN A   1      19.041   1.464   9.085  0.00  0.00     0.036 A 
ATOM      3  C8  ZIN A   1      18.653   2.763   8.830  0.00  0.00     0.003 A 
ATOM      4  C9  ZIN A   1      18.422   3.642   9.870  0.00  0.00     0.015 A 
ATOM      5  C10 ZIN A   1      18.578   3.223  11.191  0.00  0.00     0.010 A 
ATOM      6  C20 ZIN A   1      18.963   1.909  11.462  0.00  0.00     0.107 A 
ENDROOT
BRANCH   1   7
ATOM      7  N5  ZIN A   1      19.584  -0.262  10.654  0.00  0.00    -0.147 NA
BRANCH   7   8
ATOM      8  N4  ZIN A   1      19.477  -1.160   9.734  0.00  0.00    -0.142 NA
ATOM      9  C3  ZIN A   1      18.655  -2.229   9.917  0.00  0.00     0.174 A 
ATOM     10  C2  ZIN A   1      17.878  -2.490  11.027  0.00  0.00     0.087 A 
ATOM     11  C22 ZIN A   1      18.423  -3.332   8.972  0.00  0.00     0.301 A 
ATOM     12  C1  ZIN A   1      17.787  -1.632  12.262  0.00  0.00     0.075 C 
ATOM     13  N33 ZIN A   1      17.213  -3.654  10.818  0.00  0.00    -0.167 NA
ATOM     14  N24 ZIN A   1      17.542  -4.167   9.560  0.00  0.00    -0.195 N 
ATOM     15  O23 ZIN A   1      18.929  -3.466   7.873  0.00  0.00    -0.263 OA
BRANCH  14  16
ATOM     16  C25 ZIN A   1      17.043  -5.351   9.005  0.00  0.00     0.062 A 
ATOM     17  C32 ZIN A   1      15.692  -5.465   8.707  0.00  0.00     0.039 A 
ATOM     18  C30 ZIN A   1      15.205  -6.633   8.155  0.00  0.00    -0.054 A 
ATOM     19  C28 ZIN A   1      16.059  -7.692   7.909  0.00  0.00    -0.056 A 
ATOM     20  C31 ZIN A   1      13.739  -6.756   7.826  0.00  0.00     0.049 C 
ATOM     21  C27 ZIN A   1      17.404  -7.584   8.210  0.00  0.00     0.009 A 
ATOM     22  C29 ZIN A   1      15.522  -8.968   7.311  0.00  0.00     0.049 C 
ATOM     23  C26 ZIN A   1      17.899  -6.416   8.757  0.00  0.00     0.032 A 
ENDBRANCH  14  16
ENDBRANCH   7   8
ENDBRANCH   1   7
BRANCH   6  24
ATOM     24  O21 ZIN A   1      19.116   1.493  12.745  0.00  0.00    -0.357 OA
ATOM     25  H44 ZIN A   1      18.285   1.283  13.192  0.00  0.00     0.217 HD
ENDBRANCH   6  24
BRANCH   5  26
ATOM     26  C11 ZIN A   1      18.329   4.170  12.305  0.00  0.00    -0.022 A 
ATOM     27  C19 ZIN A   1      19.395   4.686  13.033  0.00  0.00     0.030 A 
ATOM     28  C15 ZIN A   1      19.153   5.580  14.075  0.00  0.00     0.041 A 
ATOM     29  C14 ZIN A   1      17.840   5.943  14.389  0.00  0.00     0.018 A 
ATOM     30  C13 ZIN A   1      16.787   5.421  13.665  0.00  0.00     0.002 A 
ATOM     31  C12 ZIN A   1      17.023   4.539  12.628  0.00  0.00     0.012 A 
BRANCH  28  32
ATOM     32  C16 ZIN A   1      20.279   6.137  14.849  0.00  0.00     0.209 C 
ATOM     33  O17 ZIN A   1      20.572   5.657  15.936  0.00  0.00    -0.644 OA
ATOM     34  O18 ZIN A   1      20.920   7.078  14.405  0.00  0.00    -0.644 OA
ENDBRANCH  28  32
ENDBRANCH   5  26
TORSDOF 6
ENDMDL
MODEL 5
REMARK VINA RESULT:      -9.4      3.351      5.054
REMARK  6 active torsions:
REMARK  status: ('A' for Active; 'I' for Inactive)
REMARK    1  A    between atoms: N4_4  and  N5_5 
REMARK    2  A    between atoms: N5_5  and  C6_6 
REMARK    3  A    between atoms: C10_10  and  C11_11 
REMARK    4  A    between atoms: C15_15  and  C16_16 
REMARK    5  A    between atoms: C20_20  and  O21_21 
REMARK    6  A    between atoms: N24_24  and  C25_25 
ROOT
ATOM      1  C6  ZIN A   1      19.027  -1.989  11.638  0.00  0.00     0.113 A 
ATOM      2  C7  ZIN A   1      18.096  -2.799  12.294  0.00  0.00     0.036 A 
ATOM      3  C8  ZIN A   1      17.388  -3.751  11.590  0.00  0.00     0.003 A 
ATOM      4  C9  ZIN A   1      17.592  -3.914  10.233  0.00  0.00     0.015 A 
ATOM      5  C10 ZIN A   1      18.517  -3.116   9.561  0.00  0.00     0.010 A 
ATOM      6  C20 ZIN A   1      19.235  -2.145  10.262  0.00  0.00     0.107 A 
ENDROOT
BRANCH   1   7
ATOM      7  N5  ZIN A   1      19.727  -1.045  12.335  0.00  0.00    -0.147 NA
BRANCH   7   8
ATOM      8  N4  ZIN A   1      19.604   0.203  12.034  0.00  0.00    -0.142 NA
ATOM      9  C3  ZIN A   1      19.267   1.106  12.995  0.00  0.00     0.174 A 
ATOM     10  C2  ZIN A   1      19.025   0.839  14.328  0.00  0.00     0.087 A 
ATOM     11  C22 ZIN A   1      19.087   2.554  12.817  0.00  0.00     0.301 A 
ATOM     12  C1  ZIN A   1      19.090  -0.517  14.982  0.00  0.00     0.075 C 
ATOM     13  N33 ZIN A   1      18.714   2.005  14.947  0.00  0.00    -0.167 NA
ATOM     14  N24 ZIN A   1      18.757   3.055  14.026  0.00  0.00    -0.195 N 
ATOM     15  O23 ZIN A   1      19.212   3.181  11.781  0.00  0.00    -0.263 OA
BRANCH  14  16
ATOM     16  C25 ZIN A   1      18.495   4.400  14.309  0.00  0.00     0.062 A 
ATOM     17  C32 ZIN A   1      17.186   4.862  14.348  0.00  0.00     0.039 A 
ATOM     18  C30 ZIN A   1      16.932   6.188  14.633  0.00  0.00    -0.054 A 
ATOM     19  C28 ZIN A   1      17.980   7.060  14.868  0.00  0.00    -0.056 A 
ATOM     20  C31 ZIN A   1      15.511   6.689  14.681  0.00  0.00     0.049 C 
ATOM     21  C27 ZIN A   1      19.284   6.605  14.824  0.00  0.00     0.009 A 
ATOM     22  C29 ZIN A   1      17.698   8.509  15.173  0.00  0.00     0.049 C 
ATOM     23  C26 ZIN A   1      19.545   5.278  14.545  0.00  0.00     0.032 A 
ENDBRANCH  14  16
ENDBRANCH   7   8
ENDBRANCH   1   7
BRANCH   6  24
ATOM     24  O21 ZIN A   1      20.137  -1.364   9.614  0.00  0.00    -0.357 OA
ATOM     25  H44 ZIN A   1      19.873  -1.119   8.717  0.00  0.00     0.217 HD
ENDBRANCH   6  24
BRANCH   5  26
ATOM     26  C11 ZIN A   1      18.733  -3.295   8.105  0.00  0.00    -0.022 A 
ATOM     27  C19 ZIN A   1      18.727  -2.191   7.259  0.00  0.00     0.030 A 
ATOM     28  C15 ZIN A   1      18.936  -2.368   5.891  0.00  0.00     0.041 A 
ATOM     29  C14 ZIN A   1      19.140  -3.652   5.379  0.00  0.00     0.018 A 
ATOM     30  C13 ZIN A   1      19.140  -4.742   6.225  0.00  0.00     0.002 A 
ATOM     31  C12 ZIN A   1      18.938  -4.572   7.581  0.00  0.00     0.012 A 
BRANCH  28  32
ATOM     32  C16 ZIN A   1      18.936  -1.201   4.986  0.00  0.00     0.209 C 
ATOM     33  O17 ZIN A   1      19.994  -0.758   4.561  0.00  0.00    -0.644 OA
ATOM     34  O18 ZIN A   1      17.881  -0.679   4.662  0.00  0.00    -0.644 OA
ENDBRANCH  28  32
ENDBRANCH   5  26
TORSDOF 6
ENDMDL
MODEL 6
REMARK VINA RESULT:      -9.4      4.115     10.149
REMARK  6 active torsions:
REMARK  status: ('A' for Active; 'I' for Inactive)
REMARK    1  A    between atoms: N4_4  and  N5_5 
REMARK    2  A    between atoms: N5_5  and  C6_6 
REMARK    3  A    between atoms: C10_10  and  C11_11 
REMARK    4  A    between atoms: C15_15  and  C16_16 
REMARK    5  A    between atoms: C20_20  and  O21_21 
REMARK    6  A    between atoms: N24_24  and  C25_25 
ROOT
ATOM      1  C6  ZIN A   1      18.273   2.576  11.412  0.00  0.00     0.113 A 
ATOM      2  C7  ZIN A   1      18.266   3.137  10.132  0.00  0.00     0.036 A 
ATOM      3  C8  ZIN A   1      17.788   4.417   9.939  0.00  0.00     0.003 A 
ATOM      4  C9  ZIN A   1      17.314   5.156  11.007  0.00  0.00     0.015 A 
ATOM      5  C10 ZIN A   1      17.314   4.613  12.291  0.00  0.00     0.010 A 
ATOM      6  C20 ZIN A   1      17.789   3.317  12.497  0.00  0.00     0.107 A 
ENDROOT
BRANCH   1   7
ATOM      7  N5  ZIN A   1      18.745   1.308  11.602  0.00  0.00    -0.147 NA
BRANCH   7   8
ATOM      8  N4  ZIN A   1      18.828   0.494  10.605  0.00  0.00    -0.142 NA
ATOM      9  C3  ZIN A   1      18.438  -0.802  10.749  0.00  0.00     0.174 A 
ATOM     10  C2  ZIN A   1      17.937  -1.389  11.894  0.00  0.00     0.087 A 
ATOM     11  C22 ZIN A   1      18.469  -1.850   9.718  0.00  0.00     0.301 A 
ATOM     12  C1  ZIN A   1      17.722  -0.701  13.217  0.00  0.00     0.075 C 
ATOM     13  N33 ZIN A   1      17.676  -2.694  11.626  0.00  0.00    -0.167 NA
ATOM     14  N24 ZIN A   1      17.996  -2.975  10.294  0.00  0.00    -0.195 N 
ATOM     15  O23 ZIN A   1      18.848  -1.728   8.568  0.00  0.00    -0.263 OA
BRANCH  14  16
ATOM     16  C25 ZIN A   1      17.854  -4.217   9.666  0.00  0.00     0.062 A 
ATOM     17  C32 ZIN A   1      16.605  -4.635   9.226  0.00  0.00     0.039 A 
ATOM     18  C30 ZIN A   1      16.469  -5.859   8.602  0.00  0.00    -0.054 A 
ATOM     19  C28 ZIN A   1      17.574  -6.673   8.424  0.00  0.00    -0.056 A 
ATOM     20  C31 ZIN A   1      15.116  -6.312   8.118  0.00  0.00     0.049 C 
ATOM     21  C27 ZIN A   1      18.817  -6.262   8.866  0.00  0.00     0.009 A 
ATOM     22  C29 ZIN A   1      17.421  -8.011   7.747  0.00  0.00     0.049 C 
ATOM     23  C26 ZIN A   1      18.960  -5.036   9.486  0.00  0.00     0.032 A 
ENDBRANCH  14  16
ENDBRANCH   7   8
ENDBRANCH   1   7
BRANCH   6  24
ATOM     24  O21 ZIN A   1      17.791   2.781  13.744  0.00  0.00    -0.357 OA
ATOM     25  H44 ZIN A   1      18.268   3.311  14.399  0.00  0.00     0.217 HD
ENDBRANCH   6  24
BRANCH   5  26
ATOM     26  C11 ZIN A   1      16.805   5.410  13.434  0.00  0.00    -0.022 A 
ATOM     27  C19 ZIN A   1      17.695   5.997  14.326  0.00  0.00     0.030 A 
ATOM     28  C15 ZIN A   1      17.208   6.749  15.395  0.00  0.00     0.041 A 
ATOM     29  C14 ZIN A   1      15.829   6.898  15.569  0.00  0.00     0.018 A 
ATOM     30  C13 ZIN A   1      14.952   6.307  14.682  0.00  0.00     0.002 A 
ATOM     31  C12 ZIN A   1      15.431   5.566  13.618  0.00  0.00     0.012 A 
BRANCH  28  32
ATOM     32  C16 ZIN A   1      18.146   7.380  16.343  0.00  0.00     0.209 C 
ATOM     33  O17 ZIN A   1      18.069   8.579  16.573  0.00  0.00    -0.644 OA
ATOM     34  O18 ZIN A   1      19.000   6.705  16.900  0.00  0.00    -0.644 OA
ENDBRANCH  28  32
ENDBRANCH   5  26
TORSDOF 6
ENDMDL
MODEL 7
REMARK VINA RESULT:      -9.1      2.671      4.886
REMARK  6 active torsions:
REMARK  status: ('A' for Active; 'I' for Inactive)
REMARK    1  A    between atoms: N4_4  and  N5_5 
REMARK    2  A    between atoms: N5_5  and  C6_6 
REMARK    3  A    between atoms: C10_10  and  C11_11 
REMARK    4  A    between atoms: C15_15  and  C16_16 
REMARK    5  A    between atoms: C20_20  and  O21_21 
REMARK    6  A    between atoms: N24_24  and  C25_25 
ROOT
ATOM      1  C6  ZIN A   1      17.661  -4.730  10.048  0.00  0.00     0.113 A 
ATOM      2  C7  ZIN A   1      17.251  -6.048  10.265  0.00  0.00     0.036 A 
ATOM      3  C8  ZIN A   1      17.011  -6.884   9.193  0.00  0.00     0.003 A 
ATOM      4  C9  ZIN A   1      17.175  -6.428   7.899  0.00  0.00     0.015 A 
ATOM      5  C10 ZIN A   1      17.585  -5.117   7.664  0.00  0.00     0.010 A 
ATOM      6  C20 ZIN A   1      17.824  -4.259   8.740  0.00  0.00     0.107 A 
ENDROOT
BRANCH   1   7
ATOM      7  N5  ZIN A   1      17.896  -3.902  11.110  0.00  0.00    -0.147 NA
BRANCH   7   8
ATOM      8  N4  ZIN A   1      17.189  -2.835  11.266  0.00  0.00    -0.142 NA
ATOM      9  C3  ZIN A   1      17.785  -1.671  11.639  0.00  0.00     0.174 A 
ATOM     10  C2  ZIN A   1      19.129  -1.476  11.889  0.00  0.00     0.087 A 
ATOM     11  C22 ZIN A   1      17.125  -0.375  11.859  0.00  0.00     0.301 A 
ATOM     12  C1  ZIN A   1      20.205  -2.526  11.793  0.00  0.00     0.075 C 
ATOM     13  N33 ZIN A   1      19.314  -0.178  12.241  0.00  0.00    -0.167 NA
ATOM     14  N24 ZIN A   1      18.091   0.496  12.217  0.00  0.00    -0.195 N 
ATOM     15  O23 ZIN A   1      15.938  -0.134  11.741  0.00  0.00    -0.263 OA
BRANCH  14  16
ATOM     16  C25 ZIN A   1      17.899   1.849  12.521  0.00  0.00     0.062 A 
ATOM     17  C32 ZIN A   1      17.570   2.748  11.514  0.00  0.00     0.039 A 
ATOM     18  C30 ZIN A   1      17.377   4.081  11.818  0.00  0.00    -0.054 A 
ATOM     19  C28 ZIN A   1      17.520   4.523  13.121  0.00  0.00    -0.056 A 
ATOM     20  C31 ZIN A   1      17.016   5.057  10.728  0.00  0.00     0.049 C 
ATOM     21  C27 ZIN A   1      17.852   3.631  14.124  0.00  0.00     0.009 A 
ATOM     22  C29 ZIN A   1      17.313   5.980  13.448  0.00  0.00     0.049 C 
ATOM     23  C26 ZIN A   1      18.042   2.296  13.828  0.00  0.00     0.032 A 
ENDBRANCH  14  16
ENDBRANCH   7   8
ENDBRANCH   1   7
BRANCH   6  24
ATOM     24  O21 ZIN A   1      18.222  -2.981   8.518  0.00  0.00    -0.357 OA
ATOM     25  H44 ZIN A   1      19.155  -2.820   8.715  0.00  0.00     0.217 HD
ENDBRANCH   6  24
BRANCH   5  26
ATOM     26  C11 ZIN A   1      17.760  -4.631   6.273  0.00  0.00    -0.022 A 
ATOM     27  C19 ZIN A   1      18.204  -3.335   6.038  0.00  0.00     0.030 A 
ATOM     28  C15 ZIN A   1      18.371  -2.888   4.727  0.00  0.00     0.041 A 
ATOM     29  C14 ZIN A   1      18.081  -3.743   3.659  0.00  0.00     0.018 A 
ATOM     30  C13 ZIN A   1      17.635  -5.026   3.902  0.00  0.00     0.002 A 
ATOM     31  C12 ZIN A   1      17.473  -5.474   5.199  0.00  0.00     0.012 A 
BRANCH  28  32
ATOM     32  C16 ZIN A   1      18.848  -1.516   4.469  0.00  0.00     0.209 C 
ATOM     33  O17 ZIN A   1      20.002  -1.209   4.733  0.00  0.00    -0.644 OA
ATOM     34  O18 ZIN A   1      18.089  -0.685   3.990  0.00  0.00    -0.644 OA
ENDBRANCH  28  32
ENDBRANCH   5  26
TORSDOF 6
ENDMDL
MODEL 8
REMARK VINA RESULT:      -9.1      4.442     10.105
REMARK  6 active torsions:
REMARK  status: ('A' for Active; 'I' for Inactive)
REMARK    1  A    between atoms: N4_4  and  N5_5 
REMARK    2  A    between atoms: N5_5  and  C6_6 
REMARK    3  A    between atoms: C10_10  and  C11_11 
REMARK    4  A    between atoms: C15_15  and  C16_16 
REMARK    5  A    between atoms: C20_20  and  O21_21 
REMARK    6  A    between atoms: N24_24  and  C25_25 
ROOT
ATOM      1  C6  ZIN A   1      18.322   3.089  11.833  0.00  0.00     0.113 A 
ATOM      2  C7  ZIN A   1      18.157   3.469  10.499  0.00  0.00     0.036 A 
ATOM      3  C8  ZIN A   1      17.500   4.643  10.189  0.00  0.00     0.003 A 
ATOM      4  C9  ZIN A   1      17.002   5.452  11.192  0.00  0.00     0.015 A 
ATOM      5  C10 ZIN A   1      17.158   5.090  12.529  0.00  0.00     0.010 A 
ATOM      6  C20 ZIN A   1      17.815   3.901  12.855  0.00  0.00     0.107 A 
ENDROOT
BRANCH   1   7
ATOM      7  N5  ZIN A   1      18.971   1.926  12.140  0.00  0.00    -0.147 NA
BRANCH   7   8
ATOM      8  N4  ZIN A   1      19.241   1.073  11.211  0.00  0.00    -0.142 NA
ATOM      9  C3  ZIN A   1      18.715  -0.180  11.262  0.00  0.00     0.174 A 
ATOM     10  C2  ZIN A   1      17.882  -0.685  12.240  0.00  0.00     0.087 A 
ATOM     11  C22 ZIN A   1      18.925  -1.263  10.289  0.00  0.00     0.301 A 
ATOM     12  C1  ZIN A   1      17.388   0.063  13.451  0.00  0.00     0.075 C 
ATOM     13  N33 ZIN A   1      17.588  -1.973  11.928  0.00  0.00    -0.167 NA
ATOM     14  N24 ZIN A   1      18.221  -2.325  10.732  0.00  0.00    -0.195 N 
ATOM     15  O23 ZIN A   1      19.602  -1.212   9.279  0.00  0.00    -0.263 OA
BRANCH  14  16
ATOM     16  C25 ZIN A   1      18.141  -3.572  10.104  0.00  0.00     0.062 A 
ATOM     17  C32 ZIN A   1      16.921  -4.035   9.628  0.00  0.00     0.039 A 
ATOM     18  C30 ZIN A   1      16.847  -5.265   9.004  0.00  0.00    -0.054 A 
ATOM     19  C28 ZIN A   1      17.985  -6.039   8.861  0.00  0.00    -0.056 A 
ATOM     20  C31 ZIN A   1      15.525  -5.766   8.482  0.00  0.00     0.049 C 
ATOM     21  C27 ZIN A   1      19.199  -5.583   9.339  0.00  0.00     0.009 A 
ATOM     22  C29 ZIN A   1      17.899  -7.383   8.184  0.00  0.00     0.049 C 
ATOM     23  C26 ZIN A   1      19.281  -4.352   9.959  0.00  0.00     0.032 A 
ENDBRANCH  14  16
ENDBRANCH   7   8
ENDBRANCH   1   7
BRANCH   6  24
ATOM     24  O21 ZIN A   1      17.970   3.542  14.155  0.00  0.00    -0.357 OA
ATOM     25  H44 ZIN A   1      18.889   3.537  14.455  0.00  0.00     0.217 HD
ENDBRANCH   6  24
BRANCH   5  26
ATOM     26  C11 ZIN A   1      16.622   5.962  13.603  0.00  0.00    -0.022 A 
ATOM     27  C19 ZIN A   1      15.318   5.791  14.054  0.00  0.00     0.030 A 
ATOM     28  C15 ZIN A   1      14.824   6.612  15.067  0.00  0.00     0.041 A 
ATOM     29  C14 ZIN A   1      15.638   7.607  15.615  0.00  0.00     0.018 A 
ATOM     30  C13 ZIN A   1      16.930   7.773  15.158  0.00  0.00     0.002 A 
ATOM     31  C12 ZIN A   1      17.425   6.959  14.158  0.00  0.00     0.012 A 
BRANCH  28  32
ATOM     32  C16 ZIN A   1      13.442   6.434  15.555  0.00  0.00     0.209 C 
ATOM     33  O17 ZIN A   1      13.125   6.857  16.659  0.00  0.00    -0.644 OA
ATOM     34  O18 ZIN A   1      12.616   5.865  14.858  0.00  0.00    -0.644 OA
ENDBRANCH  28  32
ENDBRANCH   5  26
TORSDOF 6
ENDMDL
MODEL 9
REMARK VINA RESULT:      -9.0      3.518      4.857
REMARK  6 active torsions:
REMARK  status: ('A' for Active; 'I' for Inactive)
REMARK    1  A    between atoms: N4_4  and  N5_5 
REMARK    2  A    between atoms: N5_5  and  C6_6 
REMARK    3  A    between atoms: C10_10  and  C11_11 
REMARK    4  A    between atoms: C15_15  and  C16_16 
REMARK    5  A    between atoms: C20_20  and  O21_21 
REMARK    6  A    between atoms: N24_24  and  C25_25 
ROOT
ATOM      1  C6  ZIN A   1      18.931  -2.512  10.157  0.00  0.00     0.113 A 
ATOM      2  C7  ZIN A   1      19.648  -3.278  11.080  0.00  0.00     0.036 A 
ATOM      3  C8  ZIN A   1      19.553  -4.655  11.059  0.00  0.00     0.003 A 
ATOM      4  C9  ZIN A   1      18.754  -5.287  10.127  0.00  0.00     0.015 A 
ATOM      5  C10 ZIN A   1      18.033  -4.539   9.197  0.00  0.00     0.010 A 
ATOM      6  C20 ZIN A   1      18.114  -3.146   9.213  0.00  0.00     0.107 A 
ENDROOT
BRANCH   1   7
ATOM      7  N5  ZIN A   1      19.023  -1.148  10.179  0.00  0.00    -0.147 NA
BRANCH   7   8
ATOM      8  N4  ZIN A   1      18.638  -0.492  11.221  0.00  0.00    -0.142 NA
ATOM      9  C3  ZIN A   1      18.587   0.867  11.190  0.00  0.00     0.174 A 
ATOM     10  C2  ZIN A   1      18.917   1.680  10.124  0.00  0.00     0.087 A 
ATOM     11  C22 ZIN A   1      18.174   1.757  12.285  0.00  0.00     0.301 A 
ATOM     12  C1  ZIN A   1      19.399   1.214   8.775  0.00  0.00     0.075 C 
ATOM     13  N33 ZIN A   1      18.737   2.971  10.500  0.00  0.00    -0.167 NA
ATOM     14  N24 ZIN A   1      18.278   3.019  11.819  0.00  0.00    -0.195 N 
ATOM     15  O23 ZIN A   1      17.809   1.422  13.396  0.00  0.00    -0.263 OA
BRANCH  14  16
ATOM     16  C25 ZIN A   1      17.981   4.183  12.538  0.00  0.00     0.062 A 
ATOM     17  C32 ZIN A   1      18.863   4.649  13.503  0.00  0.00     0.039 A 
ATOM     18  C30 ZIN A   1      18.569   5.799  14.207  0.00  0.00    -0.054 A 
ATOM     19  C28 ZIN A   1      17.392   6.483  13.958  0.00  0.00    -0.056 A 
ATOM     20  C31 ZIN A   1      19.528   6.309  15.252  0.00  0.00     0.049 C 
ATOM     21  C27 ZIN A   1      16.509   6.018  13.001  0.00  0.00     0.009 A 
ATOM     22  C29 ZIN A   1      17.072   7.736  14.732  0.00  0.00     0.049 C 
ATOM     23  C26 ZIN A   1      16.800   4.871  12.290  0.00  0.00     0.032 A 
ENDBRANCH  14  16
ENDBRANCH   7   8
ENDBRANCH   1   7
BRANCH   6  24
ATOM     24  O21 ZIN A   1      17.414  -2.411   8.312  0.00  0.00    -0.357 OA
ATOM     25  H44 ZIN A   1      16.549  -2.782   8.089  0.00  0.00     0.217 HD
ENDBRANCH   6  24
BRANCH   5  26
ATOM     26  C11 ZIN A   1      17.176  -5.223   8.198  0.00  0.00    -0.022 A 
ATOM     27  C19 ZIN A   1      15.871  -5.576   8.524  0.00  0.00     0.030 A 
ATOM     28  C15 ZIN A   1      15.070  -6.214   7.577  0.00  0.00     0.041 A 
ATOM     29  C14 ZIN A   1      15.587  -6.504   6.311  0.00  0.00     0.018 A 
ATOM     30  C13 ZIN A   1      16.885  -6.154   5.997  0.00  0.00     0.002 A 
ATOM     31  C12 ZIN A   1      17.680  -5.518   6.931  0.00  0.00     0.012 A 
BRANCH  28  32
ATOM     32  C16 ZIN A   1      13.682  -6.587   7.912  0.00  0.00     0.209 C 
ATOM     33  O17 ZIN A   1      13.338  -7.761   7.871  0.00  0.00    -0.644 OA
ATOM     34  O18 ZIN A   1      12.877  -5.725   8.232  0.00  0.00    -0.644 OA
ENDBRANCH  28  32
ENDBRANCH   5  26
TORSDOF 6
ENDMDL
