MODEL 1
REMARK VINA RESULT:      -7.8      0.000      0.000
REMARK  6 active torsions:
REMARK  status: ('A' for Active; 'I' for Inactive)
REMARK    1  A    between atoms: N2_2  and  C4_4 
REMARK    2  A    between atoms: N2_2  and  C13_13 
REMARK    3  A    between atoms: C4_4  and  C5_5 
REMARK    4  A    between atoms: C6_6  and  C7_7 
REMARK    5  A    between atoms: C8_8  and  C9_9 
REMARK    6  A    between atoms: C13_13  and  C14_14 
ROOT
ATOM      1  C1  ZIN A   1      17.400   4.076  13.694  0.00  0.00     0.270 C 
ATOM      2  N2  ZIN A   1      18.000   3.139  12.736  0.00  0.00    -0.068 N 
ATOM      3  H3  ZIN A   1      17.347   2.394  12.541  0.00  0.00     0.280 HD
ENDROOT
BRANCH   2   4
ATOM      4  C4  ZIN A   1      18.319   3.850  11.489  0.00  0.00     0.262 C 
BRANCH   4   5
ATOM      5  C5  ZIN A   1      18.099   2.929  10.317  0.00  0.00     0.009 C 
ATOM      6  C6  ZIN A   1      19.140   2.469   9.630  0.00  0.00     0.062 C 
BRANCH   6   7
ATOM      7  C7  ZIN A   1      18.932   1.593   8.517  0.00  0.00    -0.078 C 
ATOM      8  C8  ZIN A   1      18.762   0.875   7.603  0.00  0.00    -0.093 C 
BRANCH   8   9
ATOM      9  C9  ZIN A   1      18.548  -0.026   6.459  0.00  0.00     0.013 C 
ATOM     10  C10 ZIN A   1      19.312   0.505   5.243  0.00  0.00     0.028 C 
ATOM     11  C11 ZIN A   1      19.056  -1.426   6.809  0.00  0.00     0.028 C 
ATOM     12  C12 ZIN A   1      17.055  -0.092   6.135  0.00  0.00     0.028 C 
ENDBRANCH   8   9
ENDBRANCH   6   7
ENDBRANCH   4   5
ENDBRANCH   2   4
BRANCH   2  13
ATOM     13  C13 ZIN A   1      19.231   2.576  13.306  0.00  0.00     0.274 C 
BRANCH  13  14
ATOM     14  C14 ZIN A   1      19.034   1.105  13.570  0.00  0.00    -0.021 A 
ATOM     15  C23 ZIN A   1      18.889   0.236  12.532  0.00  0.00     0.010 A 
ATOM     16  C22 ZIN A   1      18.711  -1.127  12.756  0.00  0.00     0.002 A 
ATOM     17  C21 ZIN A   1      18.669  -1.629  14.021  0.00  0.00     0.012 A 
ATOM     18  C20 ZIN A   1      18.809  -0.764  15.119  0.00  0.00    -0.025 A 
ATOM     19  C15 ZIN A   1      18.995   0.623  14.890  0.00  0.00    -0.018 A 
ATOM     20  C19 ZIN A   1      18.771  -1.245  16.438  0.00  0.00     0.012 A 
ATOM     21  C16 ZIN A   1      19.136   1.490  15.987  0.00  0.00     0.013 A 
ATOM     22  C17 ZIN A   1      19.092   0.987  17.252  0.00  0.00     0.001 A 
ATOM     23  C18 ZIN A   1      18.910  -0.376  17.476  0.00  0.00     0.001 A 
ENDBRANCH  13  14
ENDBRANCH   2  13
TORSDOF 6
ENDMDL
MODEL 2
REMARK VINA RESULT:      -7.7      2.512      7.816
REMARK  6 active torsions:
REMARK  status: ('A' for Active; 'I' for Inactive)
REMARK    1  A    between atoms: N2_2  and  C4_4 
REMARK    2  A    between atoms: N2_2  and  C13_13 
REMARK    3  A    between atoms: C4_4  and  C5_5 
REMARK    4  A    between atoms: C6_6  and  C7_7 
REMARK    5  A    between atoms: C8_8  and  C9_9 
REMARK    6  A    between atoms: C13_13  and  C14_14 
ROOT
ATOM      1  C1  ZIN A   1      18.098  -4.667   6.794  0.00  0.00     0.270 C 
ATOM      2  N2  ZIN A   1      17.984  -3.601   7.798  0.00  0.00    -0.068 N 
ATOM      3  H3  ZIN A   1      17.252  -2.961   7.528  0.00  0.00     0.280 HD
ENDROOT
BRANCH   2   4
ATOM      4  C4  ZIN A   1      17.659  -4.192   9.105  0.00  0.00     0.262 C 
BRANCH   4   5
ATOM      5  C5  ZIN A   1      18.175  -3.296  10.201  0.00  0.00     0.009 C 
ATOM      6  C6  ZIN A   1      17.375  -2.943  11.202  0.00  0.00     0.062 C 
BRANCH   6   7
ATOM      7  C7  ZIN A   1      17.864  -2.093  12.245  0.00  0.00    -0.078 C 
ATOM      8  C8  ZIN A   1      18.265  -1.395  13.100  0.00  0.00    -0.093 C 
BRANCH   8   9
ATOM      9  C9  ZIN A   1      18.768  -0.521  14.172  0.00  0.00     0.013 C 
ATOM     10  C10 ZIN A   1      19.998   0.241  13.672  0.00  0.00     0.028 C 
ATOM     11  C11 ZIN A   1      17.678   0.475  14.572  0.00  0.00     0.028 C 
ATOM     12  C12 ZIN A   1      19.152  -1.370  15.384  0.00  0.00     0.028 C 
ENDBRANCH   8   9
ENDBRANCH   6   7
ENDBRANCH   4   5
ENDBRANCH   2   4
BRANCH   2  13
ATOM     13  C13 ZIN A   1      19.259  -2.878   7.892  0.00  0.00     0.274 C 
BRANCH  13  14
ATOM     14  C14 ZIN A   1      19.133  -1.546   7.196  0.00  0.00    -0.021 A 
ATOM     15  C23 ZIN A   1      19.011  -1.490   5.842  0.00  0.00     0.010 A 
ATOM     16  C22 ZIN A   1      18.888  -0.270   5.182  0.00  0.00     0.002 A 
ATOM     17  C21 ZIN A   1      18.897   0.904   5.873  0.00  0.00     0.012 A 
ATOM     18  C20 ZIN A   1      19.027   0.887   7.271  0.00  0.00    -0.025 A 
ATOM     19  C15 ZIN A   1      19.147  -0.356   7.943  0.00  0.00    -0.018 A 
ATOM     20  C19 ZIN A   1      19.040   2.077   8.017  0.00  0.00     0.012 A 
ATOM     21  C16 ZIN A   1      19.277  -0.373   9.342  0.00  0.00     0.013 A 
ATOM     22  C17 ZIN A   1      19.287   0.801  10.032  0.00  0.00     0.001 A 
ATOM     23  C18 ZIN A   1      19.168   2.022   9.372  0.00  0.00     0.001 A 
ENDBRANCH  13  14
ENDBRANCH   2  13
TORSDOF 6
ENDMDL
MODEL 3
REMARK VINA RESULT:      -7.7      2.760      5.734
REMARK  6 active torsions:
REMARK  status: ('A' for Active; 'I' for Inactive)
REMARK    1  A    between atoms: N2_2  and  C4_4 
REMARK    2  A    between atoms: N2_2  and  C13_13 
REMARK    3  A    between atoms: C4_4  and  C5_5 
REMARK    4  A    between atoms: C6_6  and  C7_7 
REMARK    5  A    between atoms: C8_8  and  C9_9 
REMARK    6  A    between atoms: C13_13  and  C14_14 
ROOT
ATOM      1  C1  ZIN A   1      19.282  -2.774   6.162  0.00  0.00     0.270 C 
ATOM      2  N2  ZIN A   1      19.151  -1.802   7.256  0.00  0.00    -0.068 N 
ATOM      3  H3  ZIN A   1      20.000  -1.796   7.802  0.00  0.00     0.280 HD
ENDROOT
BRANCH   2   4
ATOM      4  C4  ZIN A   1      18.919  -0.463   6.696  0.00  0.00     0.262 C 
BRANCH   4   5
ATOM      5  C5  ZIN A   1      18.519   0.479   7.801  0.00  0.00     0.009 C 
ATOM      6  C6  ZIN A   1      19.385   1.382   8.249  0.00  0.00     0.062 C 
BRANCH   6   7
ATOM      7  C7  ZIN A   1      19.006   2.279   9.299  0.00  0.00    -0.078 C 
ATOM      8  C8  ZIN A   1      18.694   3.015  10.159  0.00  0.00    -0.093 C 
BRANCH   8   9
ATOM      9  C9  ZIN A   1      18.305   3.938  11.238  0.00  0.00     0.013 C 
ATOM     10  C10 ZIN A   1      17.449   3.191  12.263  0.00  0.00     0.028 C 
ATOM     11  C11 ZIN A   1      19.561   4.483  11.922  0.00  0.00     0.028 C 
ATOM     12  C12 ZIN A   1      17.501   5.099  10.650  0.00  0.00     0.028 C 
ENDBRANCH   8   9
ENDBRANCH   6   7
ENDBRANCH   4   5
ENDBRANCH   2   4
BRANCH   2  13
ATOM     13  C13 ZIN A   1      18.018  -2.178   8.112  0.00  0.00     0.274 C 
BRANCH  13  14
ATOM     14  C14 ZIN A   1      18.536  -2.764   9.401  0.00  0.00    -0.021 A 
ATOM     15  C23 ZIN A   1      19.248  -3.924   9.388  0.00  0.00     0.010 A 
ATOM     16  C22 ZIN A   1      19.739  -4.478  10.567  0.00  0.00     0.002 A 
ATOM     17  C21 ZIN A   1      19.512  -3.881  11.770  0.00  0.00     0.012 A 
ATOM     18  C20 ZIN A   1      18.776  -2.685  11.825  0.00  0.00    -0.025 A 
ATOM     19  C15 ZIN A   1      18.281  -2.119  10.623  0.00  0.00    -0.018 A 
ATOM     20  C19 ZIN A   1      18.522  -2.040  13.046  0.00  0.00     0.012 A 
ATOM     21  C16 ZIN A   1      17.545  -0.923  10.677  0.00  0.00     0.013 A 
ATOM     22  C17 ZIN A   1      17.317  -0.326  11.880  0.00  0.00     0.001 A 
ATOM     23  C18 ZIN A   1      17.805  -0.883  13.061  0.00  0.00     0.001 A 
ENDBRANCH  13  14
ENDBRANCH   2  13
TORSDOF 6
ENDMDL
MODEL 4
REMARK VINA RESULT:      -7.7      1.273      2.842
REMARK  6 active torsions:
REMARK  status: ('A' for Active; 'I' for Inactive)
REMARK    1  A    between atoms: N2_2  and  C4_4 
REMARK    2  A    between atoms: N2_2  and  C13_13 
REMARK    3  A    between atoms: C4_4  and  C5_5 
REMARK    4  A    between atoms: C6_6  and  C7_7 
REMARK    5  A    between atoms: C8_8  and  C9_9 
REMARK    6  A    between atoms: C13_13  and  C14_14 
ROOT
ATOM      1  C1  ZIN A   1      20.404   0.709  12.345  0.00  0.00     0.270 C 
ATOM      2  N2  ZIN A   1      19.850   2.023  12.700  0.00  0.00    -0.068 N 
ATOM      3  H3  ZIN A   1      20.521   2.530  13.258  0.00  0.00     0.280 HD
ENDROOT
BRANCH   2   4
ATOM      4  C4  ZIN A   1      19.560   2.779  11.474  0.00  0.00     0.262 C 
BRANCH   4   5
ATOM      5  C5  ZIN A   1      19.324   1.819  10.337  0.00  0.00     0.009 C 
ATOM      6  C6  ZIN A   1      19.242   2.273   9.091  0.00  0.00     0.062 C 
BRANCH   6   7
ATOM      7  C7  ZIN A   1      19.019   1.362   8.010  0.00  0.00    -0.078 C 
ATOM      8  C8  ZIN A   1      18.836   0.614   7.122  0.00  0.00    -0.093 C 
BRANCH   8   9
ATOM      9  C9  ZIN A   1      18.605  -0.322   6.011  0.00  0.00     0.013 C 
ATOM     10  C10 ZIN A   1      19.166  -1.698   6.379  0.00  0.00     0.028 C 
ATOM     11  C11 ZIN A   1      17.103  -0.439   5.744  0.00  0.00     0.028 C 
ATOM     12  C12 ZIN A   1      19.308   0.195   4.754  0.00  0.00     0.028 C 
ENDBRANCH   8   9
ENDBRANCH   6   7
ENDBRANCH   4   5
ENDBRANCH   2   4
BRANCH   2  13
ATOM     13  C13 ZIN A   1      18.611   1.841  13.468  0.00  0.00     0.274 C 
BRANCH  13  14
ATOM     14  C14 ZIN A   1      18.841   2.261  14.898  0.00  0.00    -0.021 A 
ATOM     15  C23 ZIN A   1      18.947   3.580  15.216  0.00  0.00     0.010 A 
ATOM     16  C22 ZIN A   1      19.155   3.986  16.532  0.00  0.00     0.002 A 
ATOM     17  C21 ZIN A   1      19.267   3.075  17.538  0.00  0.00     0.012 A 
ATOM     18  C20 ZIN A   1      19.169   1.703  17.248  0.00  0.00    -0.025 A 
ATOM     19  C15 ZIN A   1      18.952   1.291  15.909  0.00  0.00    -0.018 A 
ATOM     20  C19 ZIN A   1      19.279   0.734  18.258  0.00  0.00     0.012 A 
ATOM     21  C16 ZIN A   1      18.854  -0.081  15.618  0.00  0.00     0.013 A 
ATOM     22  C17 ZIN A   1      18.967  -0.992  16.624  0.00  0.00     0.001 A 
ATOM     23  C18 ZIN A   1      19.179  -0.586  17.940  0.00  0.00     0.001 A 
ENDBRANCH  13  14
ENDBRANCH   2  13
TORSDOF 6
ENDMDL
MODEL 5
REMARK VINA RESULT:      -7.7      0.981      2.745
REMARK  6 active torsions:
REMARK  status: ('A' for Active; 'I' for Inactive)
REMARK    1  A    between atoms: N2_2  and  C4_4 
REMARK    2  A    between atoms: N2_2  and  C13_13 
REMARK    3  A    between atoms: C4_4  and  C5_5 
REMARK    4  A    between atoms: C6_6  and  C7_7 
REMARK    5  A    between atoms: C8_8  and  C9_9 
REMARK    6  A    between atoms: C13_13  and  C14_14 
ROOT
ATOM      1  C1  ZIN A   1      17.634   4.336  13.681  0.00  0.00     0.270 C 
ATOM      2  N2  ZIN A   1      18.006   3.306  12.703  0.00  0.00    -0.068 N 
ATOM      3  H3  ZIN A   1      17.263   2.627  12.631  0.00  0.00     0.280 HD
ENDROOT
BRANCH   2   4
ATOM      4  C4  ZIN A   1      18.228   3.932  11.392  0.00  0.00     0.262 C 
BRANCH   4   5
ATOM      5  C5  ZIN A   1      18.058   2.899  10.308  0.00  0.00     0.009 C 
ATOM      6  C6  ZIN A   1      19.011   2.730   9.397  0.00  0.00     0.062 C 
BRANCH   6   7
ATOM      7  C7  ZIN A   1      18.851   1.748   8.368  0.00  0.00    -0.078 C 
ATOM      8  C8  ZIN A   1      18.720   0.943   7.522  0.00  0.00    -0.093 C 
BRANCH   8   9
ATOM      9  C9  ZIN A   1      18.555  -0.066   6.464  0.00  0.00     0.013 C 
ATOM     10  C10 ZIN A   1      19.075  -1.417   6.962  0.00  0.00     0.028 C 
ATOM     11  C11 ZIN A   1      17.073  -0.192   6.105  0.00  0.00     0.028 C 
ATOM     12  C12 ZIN A   1      19.345   0.360   5.226  0.00  0.00     0.028 C 
ENDBRANCH   8   9
ENDBRANCH   6   7
ENDBRANCH   4   5
ENDBRANCH   2   4
BRANCH   2  13
ATOM     13  C13 ZIN A   1      19.240   2.637  13.140  0.00  0.00     0.274 C 
BRANCH  13  14
ATOM     14  C14 ZIN A   1      18.913   1.248  13.624  0.00  0.00    -0.021 A 
ATOM     15  C23 ZIN A   1      18.270   1.068  14.810  0.00  0.00     0.010 A 
ATOM     16  C22 ZIN A   1      17.955  -0.208  15.270  0.00  0.00     0.002 A 
ATOM     17  C21 ZIN A   1      18.290  -1.315  14.551  0.00  0.00     0.012 A 
ATOM     18  C20 ZIN A   1      18.960  -1.171  13.324  0.00  0.00    -0.025 A 
ATOM     19  C15 ZIN A   1      19.276   0.129  12.854  0.00  0.00    -0.018 A 
ATOM     20  C19 ZIN A   1      19.322  -2.288  12.555  0.00  0.00     0.012 A 
ATOM     21  C16 ZIN A   1      19.945   0.274  11.627  0.00  0.00     0.013 A 
ATOM     22  C17 ZIN A   1      20.282  -0.833  10.909  0.00  0.00     0.001 A 
ATOM     23  C18 ZIN A   1      19.971  -2.110  11.371  0.00  0.00     0.001 A 
ENDBRANCH  13  14
ENDBRANCH   2  13
TORSDOF 6
ENDMDL
MODEL 6
REMARK VINA RESULT:      -7.6      2.290      8.639
REMARK  6 active torsions:
REMARK  status: ('A' for Active; 'I' for Inactive)
REMARK    1  A    between atoms: N2_2  and  C4_4 
REMARK    2  A    between atoms: N2_2  and  C13_13 
REMARK    3  A    between atoms: C4_4  and  C5_5 
REMARK    4  A    between atoms: C6_6  and  C7_7 
REMARK    5  A    between atoms: C8_8  and  C9_9 
REMARK    6  A    between atoms: C13_13  and  C14_14 
ROOT
ATOM      1  C1  ZIN A   1      17.300  -3.881   9.737  0.00  0.00     0.270 C 
ATOM      2  N2  ZIN A   1      18.288  -2.895  10.197  0.00  0.00    -0.068 N 
ATOM      3  H3  ZIN A   1      17.815  -2.044  10.464  0.00  0.00     0.280 HD
ENDROOT
BRANCH   2   4
ATOM      4  C4  ZIN A   1      19.017  -3.434  11.354  0.00  0.00     0.262 C 
BRANCH   4   5
ATOM      5  C5  ZIN A   1      18.596  -2.697  12.599  0.00  0.00     0.009 C 
ATOM      6  C6  ZIN A   1      19.476  -1.952  13.259  0.00  0.00     0.062 C 
BRANCH   6   7
ATOM      7  C7  ZIN A   1      19.077  -1.251  14.442  0.00  0.00    -0.078 C 
ATOM      8  C8  ZIN A   1      18.750  -0.675  15.412  0.00  0.00    -0.093 C 
BRANCH   8   9
ATOM      9  C9  ZIN A   1      18.341   0.046  16.628  0.00  0.00     0.013 C 
ATOM     10  C10 ZIN A   1      19.205  -0.410  17.806  0.00  0.00     0.028 C 
ATOM     11  C11 ZIN A   1      18.522   1.550  16.414  0.00  0.00     0.028 C 
ATOM     12  C12 ZIN A   1      16.871  -0.253  16.927  0.00  0.00     0.028 C 
ENDBRANCH   8   9
ENDBRANCH   6   7
ENDBRANCH   4   5
ENDBRANCH   2   4
BRANCH   2  13
ATOM     13  C13 ZIN A   1      19.237  -2.609   9.112  0.00  0.00     0.274 C 
BRANCH  13  14
ATOM     14  C14 ZIN A   1      19.141  -1.153   8.732  0.00  0.00    -0.021 A 
ATOM     15  C23 ZIN A   1      19.051  -0.198   9.698  0.00  0.00     0.010 A 
ATOM     16  C22 ZIN A   1      18.966   1.152   9.367  0.00  0.00     0.002 A 
ATOM     17  C21 ZIN A   1      18.963   1.555   8.066  0.00  0.00     0.012 A 
ATOM     18  C20 ZIN A   1      19.048   0.599   7.041  0.00  0.00    -0.025 A 
ATOM     19  C15 ZIN A   1      19.139  -0.775   7.379  0.00  0.00    -0.018 A 
ATOM     20  C19 ZIN A   1      19.047   0.977   5.688  0.00  0.00     0.012 A 
ATOM     21  C16 ZIN A   1      19.225  -1.732   6.354  0.00  0.00     0.013 A 
ATOM     22  C17 ZIN A   1      19.219  -1.329   5.053  0.00  0.00     0.001 A 
ATOM     23  C18 ZIN A   1      19.131   0.022   4.722  0.00  0.00     0.001 A 
ENDBRANCH  13  14
ENDBRANCH   2  13
TORSDOF 6
ENDMDL
MODEL 7
REMARK VINA RESULT:      -7.6      2.257      5.463
REMARK  6 active torsions:
REMARK  status: ('A' for Active; 'I' for Inactive)
REMARK    1  A    between atoms: N2_2  and  C4_4 
REMARK    2  A    between atoms: N2_2  and  C13_13 
REMARK    3  A    between atoms: C4_4  and  C5_5 
REMARK    4  A    between atoms: C6_6  and  C7_7 
REMARK    5  A    between atoms: C8_8  and  C9_9 
REMARK    6  A    between atoms: C13_13  and  C14_14 
ROOT
ATOM      1  C1  ZIN A   1      19.265   2.311  16.640  0.00  0.00     0.270 C 
ATOM      2  N2  ZIN A   1      19.006   1.357  15.553  0.00  0.00    -0.068 N 
ATOM      3  H3  ZIN A   1      19.815   1.307  14.951  0.00  0.00     0.280 HD
ENDROOT
BRANCH   2   4
ATOM      4  C4  ZIN A   1      18.733   0.029  16.120  0.00  0.00     0.262 C 
BRANCH   4   5
ATOM      5  C5  ZIN A   1      18.441  -0.941  15.004  0.00  0.00     0.009 C 
ATOM      6  C6  ZIN A   1      19.412  -1.316  14.178  0.00  0.00     0.062 C 
BRANCH   6   7
ATOM      7  C7  ZIN A   1      19.135  -2.238  13.119  0.00  0.00    -0.078 C 
ATOM      8  C8  ZIN A   1      18.908  -2.995  12.250  0.00  0.00    -0.093 C 
BRANCH   8   9
ATOM      9  C9  ZIN A   1      18.623  -3.943  11.161  0.00  0.00     0.013 C 
ATOM     10  C10 ZIN A   1      19.922  -4.624  10.725  0.00  0.00     0.028 C 
ATOM     11  C11 ZIN A   1      17.632  -5.001  11.653  0.00  0.00     0.028 C 
ATOM     12  C12 ZIN A   1      18.017  -3.191   9.975  0.00  0.00     0.028 C 
ENDBRANCH   8   9
ENDBRANCH   6   7
ENDBRANCH   4   5
ENDBRANCH   2   4
BRANCH   2  13
ATOM     13  C13 ZIN A   1      17.844   1.806  14.774  0.00  0.00     0.274 C 
BRANCH  13  14
ATOM     14  C14 ZIN A   1      18.306   2.337  13.442  0.00  0.00    -0.021 A 
ATOM     15  C23 ZIN A   1      19.092   3.447  13.382  0.00  0.00     0.010 A 
ATOM     16  C22 ZIN A   1      19.533   3.949  12.160  0.00  0.00     0.002 A 
ATOM     17  C21 ZIN A   1      19.183   3.350  10.989  0.00  0.00     0.012 A 
ATOM     18  C20 ZIN A   1      18.369   2.205  11.009  0.00  0.00    -0.025 A 
ATOM     19  C15 ZIN A   1      17.924   1.691  12.253  0.00  0.00    -0.018 A 
ATOM     20  C19 ZIN A   1      17.987   1.559   9.821  0.00  0.00     0.012 A 
ATOM     21  C16 ZIN A   1      17.110   0.546  12.274  0.00  0.00     0.013 A 
ATOM     22  C17 ZIN A   1      16.759  -0.052  11.102  0.00  0.00     0.001 A 
ATOM     23  C18 ZIN A   1      17.197   0.453   9.880  0.00  0.00     0.001 A 
ENDBRANCH  13  14
ENDBRANCH   2  13
TORSDOF 6
ENDMDL
MODEL 8
REMARK VINA RESULT:      -7.5      1.289      3.030
REMARK  6 active torsions:
REMARK  status: ('A' for Active; 'I' for Inactive)
REMARK    1  A    between atoms: N2_2  and  C4_4 
REMARK    2  A    between atoms: N2_2  and  C13_13 
REMARK    3  A    between atoms: C4_4  and  C5_5 
REMARK    4  A    between atoms: C6_6  and  C7_7 
REMARK    5  A    between atoms: C8_8  and  C9_9 
REMARK    6  A    between atoms: C13_13  and  C14_14 
ROOT
ATOM      1  C1  ZIN A   1      17.504   5.389  15.656  0.00  0.00     0.270 C 
ATOM      2  N2  ZIN A   1      17.591   4.243  14.742  0.00  0.00    -0.068 N 
ATOM      3  H3  ZIN A   1      16.919   3.542  15.017  0.00  0.00     0.280 HD
ENDROOT
BRANCH   2   4
ATOM      4  C4  ZIN A   1      17.304   4.687  13.371  0.00  0.00     0.262 C 
BRANCH   4   5
ATOM      5  C5  ZIN A   1      17.590   3.562  12.410  0.00  0.00     0.009 C 
ATOM      6  C6  ZIN A   1      17.860   3.830  11.136  0.00  0.00     0.062 C 
BRANCH   6   7
ATOM      7  C7  ZIN A   1      18.133   2.762  10.222  0.00  0.00    -0.078 C 
ATOM      8  C8  ZIN A   1      18.356   1.886   9.473  0.00  0.00    -0.093 C 
BRANCH   8   9
ATOM      9  C9  ZIN A   1      18.637   0.788   8.534  0.00  0.00     0.013 C 
ATOM     10  C10 ZIN A   1      17.379  -0.067   8.358  0.00  0.00     0.028 C 
ATOM     11  C11 ZIN A   1      19.053   1.367   7.180  0.00  0.00     0.028 C 
ATOM     12  C12 ZIN A   1      19.769  -0.079   9.087  0.00  0.00     0.028 C 
ENDBRANCH   8   9
ENDBRANCH   6   7
ENDBRANCH   4   5
ENDBRANCH   2   4
BRANCH   2  13
ATOM     13  C13 ZIN A   1      18.944   3.673  14.798  0.00  0.00     0.274 C 
BRANCH  13  14
ATOM     14  C14 ZIN A   1      18.942   2.464  15.699  0.00  0.00    -0.021 A 
ATOM     15  C23 ZIN A   1      18.897   2.617  17.050  0.00  0.00     0.010 A 
ATOM     16  C22 ZIN A   1      18.889   1.512  17.898  0.00  0.00     0.002 A 
ATOM     17  C21 ZIN A   1      18.937   0.245  17.399  0.00  0.00     0.012 A 
ATOM     18  C20 ZIN A   1      18.990   0.047  16.009  0.00  0.00    -0.025 A 
ATOM     19  C15 ZIN A   1      18.993   1.172  15.147  0.00  0.00    -0.018 A 
ATOM     20  C19 ZIN A   1      19.040  -1.244  15.457  0.00  0.00     0.012 A 
ATOM     21  C16 ZIN A   1      19.046   0.975  13.756  0.00  0.00     0.013 A 
ATOM     22  C17 ZIN A   1      19.095  -0.292  13.258  0.00  0.00     0.001 A 
ATOM     23  C18 ZIN A   1      19.092  -1.397  14.106  0.00  0.00     0.001 A 
ENDBRANCH  13  14
ENDBRANCH   2  13
TORSDOF 6
ENDMDL
MODEL 9
REMARK VINA RESULT:      -7.3      1.704      6.488
REMARK  6 active torsions:
REMARK  status: ('A' for Active; 'I' for Inactive)
REMARK    1  A    between atoms: N2_2  and  C4_4 
REMARK    2  A    between atoms: N2_2  and  C13_13 
REMARK    3  A    between atoms: C4_4  and  C5_5 
REMARK    4  A    between atoms: C6_6  and  C7_7 
REMARK    5  A    between atoms: C8_8  and  C9_9 
REMARK    6  A    between atoms: C13_13  and  C14_14 
ROOT
ATOM      1  C1  ZIN A   1      17.052   5.178  11.069  0.00  0.00     0.270 C 
ATOM      2  N2  ZIN A   1      17.998   4.173  11.571  0.00  0.00    -0.068 N 
ATOM      3  H3  ZIN A   1      18.831   4.181  11.001  0.00  0.00     0.280 HD
ENDROOT
BRANCH   2   4
ATOM      4  C4  ZIN A   1      18.353   4.485  12.962  0.00  0.00     0.262 C 
BRANCH   4   5
ATOM      5  C5  ZIN A   1      18.135   3.266  13.821  0.00  0.00     0.009 C 
ATOM      6  C6  ZIN A   1      19.083   2.868  14.662  0.00  0.00     0.062 C 
BRANCH   6   7
ATOM      7  C7  ZIN A   1      18.876   1.710  15.479  0.00  0.00    -0.078 C 
ATOM      8  C8  ZIN A   1      18.706   0.760  16.149  0.00  0.00    -0.093 C 
BRANCH   8   9
ATOM      9  C9  ZIN A   1      18.492  -0.429  16.988  0.00  0.00     0.013 C 
ATOM     10  C10 ZIN A   1      19.058  -0.175  18.387  0.00  0.00     0.028 C 
ATOM     11  C11 ZIN A   1      16.993  -0.720  17.090  0.00  0.00     0.028 C 
ATOM     12  C12 ZIN A   1      19.202  -1.630  16.361  0.00  0.00     0.028 C 
ENDBRANCH   8   9
ENDBRANCH   6   7
ENDBRANCH   4   5
ENDBRANCH   2   4
BRANCH   2  13
ATOM     13  C13 ZIN A   1      17.377   2.842  11.511  0.00  0.00     0.274 C 
BRANCH  13  14
ATOM     14  C14 ZIN A   1      18.171   1.959  10.583  0.00  0.00    -0.021 A 
ATOM     15  C23 ZIN A   1      18.556   2.419   9.361  0.00  0.00     0.010 A 
ATOM     16  C22 ZIN A   1      19.294   1.619   8.493  0.00  0.00     0.002 A 
ATOM     17  C21 ZIN A   1      19.645   0.349   8.837  0.00  0.00     0.012 A 
ATOM     18  C20 ZIN A   1      19.261  -0.164  10.087  0.00  0.00    -0.025 A 
ATOM     19  C15 ZIN A   1      18.514   0.653  10.973  0.00  0.00    -0.018 A 
ATOM     20  C19 ZIN A   1      19.604  -1.469  10.477  0.00  0.00     0.012 A 
ATOM     21  C16 ZIN A   1      18.130   0.141  12.224  0.00  0.00     0.013 A 
ATOM     22  C17 ZIN A   1      18.480  -1.130  12.568  0.00  0.00     0.001 A 
ATOM     23  C18 ZIN A   1      19.215  -1.932  11.697  0.00  0.00     0.001 A 
ENDBRANCH  13  14
ENDBRANCH   2  13
TORSDOF 6
ENDMDL
