MODEL 1
REMARK VINA RESULT:      -8.8      0.000      0.000
REMARK  7 active torsions:
REMARK  status: ('A' for Active; 'I' for Inactive)
REMARK       I    between atoms: C2_2  and  N4_4 
REMARK    1  A    between atoms: N7_7  and  C8_8 
REMARK    2  A    between atoms: C11_11  and  O12_12 
REMARK    3  A    between atoms: O12_12  and  C13_13 
REMARK    4  A    between atoms: C13_13  and  C14_14 
REMARK    5  A    between atoms: C18_17  and  C19_18 
REMARK    6  A    between atoms: C18_17  and  C25_24 
REMARK    7  A    between atoms: C19_18  and  N20_19 
ROOT
ATOM      1  C14 <0> d   1      19.932  -1.684  11.073  0.00  0.00     0.173 C 
ATOM      2  C16 <0> d   1      20.174  -0.237  11.574  0.00  0.00     0.206 C 
ATOM      3  O17 <0> d   1      19.738   0.545  10.436  0.00  0.00    -0.347 OA
ATOM      4  C18 <0> d   1      18.620  -0.180   9.898  0.00  0.00     0.212 C 
ATOM      5  O33 <0> d   1      18.737  -1.561  10.275  0.00  0.00    -0.340 OA
ENDROOT
BRANCH   1   6
ATOM      6  C13 <0> d   1      19.702  -2.633  12.250  0.00  0.00     0.209 C 
BRANCH   6   7
ATOM      7  O12 <0> d   1      20.141  -3.945  11.897  0.00  0.00    -0.349 OA
BRANCH   7   8
ATOM      8  C11 <0> d   1      19.348  -4.655  11.048  0.00  0.00     0.069 A 
ATOM      9  C10 <0> d   1      18.016  -4.874  11.363  0.00  0.00     0.039 A 
ATOM     10  C9  <0> d   1      17.211  -5.592  10.502  0.00  0.00     0.032 A 
ATOM     11  C8  <0> d   1      17.736  -6.097   9.320  0.00  0.00     0.030 A 
ATOM     12  C35 <0> d   1      19.071  -5.882   9.008  0.00  0.00     0.032 A 
ATOM     13  C34 <0> d   1      19.874  -5.158   9.868  0.00  0.00     0.039 A 
BRANCH  11  14
ATOM     14  N7  <0> d   1      16.921  -6.826   8.447  0.00  0.00    -0.378 N 
ATOM     15  C6  <0> d   1      15.482  -6.546   8.357  0.00  0.00     0.143 C 
ATOM     16  C5  <0> d   1      15.130  -6.250   6.893  0.00  0.00     0.145 C 
ATOM     17  N4  <0> d   1      15.699  -7.310   6.050  0.00  0.00    -0.349 N 
ATOM     18  C2  <0> d   1      14.915  -8.013   5.209  0.00  0.00     0.215 C 
ATOM     19  C37 <0> d   1      17.139  -7.594   6.144  0.00  0.00     0.145 C 
ATOM     20  C1  <0> d   1      13.441  -7.710   5.124  0.00  0.00     0.117 C 
ATOM     21  O3  <0> d   1      15.395  -8.889   4.522  0.00  0.00    -0.274 OA
ATOM     22  C36 <0> d   1      17.491  -7.887   7.603  0.00  0.00     0.143 C 
ENDBRANCH  11  14
ENDBRANCH   7   8
ENDBRANCH   6   7
ENDBRANCH   1   6
BRANCH   4  23
ATOM     23  C19 <0> d   1      17.316   0.398  10.454  0.00  0.00     0.203 C 
BRANCH  23  24
ATOM     24  N20 <0> d   1      17.587   1.694  11.084  0.00  0.00    -0.345 N 
ATOM     25  C24 <0> d   1      17.762   2.872  10.448  0.00  0.00     0.209 A 
ATOM     26  N23 <0> d   1      17.980   3.799  11.341  0.00  0.00    -0.255 NA
ATOM     27  C22 <0> d   1      17.960   3.250  12.564  0.00  0.00     0.135 A 
ATOM     28  C21 <0> d   1      17.717   1.934  12.425  0.00  0.00     0.111 A 
ENDBRANCH  23  24
ENDBRANCH   4  23
BRANCH   4  29
ATOM     29  C25 <0> d   1      18.621  -0.070   8.395  0.00  0.00     0.027 A 
ATOM     30  C31 <0> d   1      18.204  -1.139   7.623  0.00  0.00     0.047 A 
ATOM     31  C30 <0> d   1      18.200  -1.036   6.243  0.00  0.00     0.048 A 
ATOM     32 Cl32 <0> d   1      17.674  -2.606   8.385  0.00  0.00    -0.084 Cl
ATOM     33  C28 <0> d   1      18.623   0.133   5.636  0.00  0.00     0.035 A 
ATOM     34  C27 <0> d   1      19.044   1.200   6.409  0.00  0.00     0.024 A 
ATOM     35 Cl29 <0> d   1      18.625   0.262   3.906  0.00  0.00    -0.084 Cl
ATOM     36  C26 <0> d   1      19.044   1.098   7.789  0.00  0.00     0.016 A 
ENDBRANCH   4  29
TORSDOF 7
ENDMDL
MODEL 2
REMARK VINA RESULT:      -8.6      4.243     10.677
REMARK  7 active torsions:
REMARK  status: ('A' for Active; 'I' for Inactive)
REMARK       I    between atoms: C2_2  and  N4_4 
REMARK    1  A    between atoms: N7_7  and  C8_8 
REMARK    2  A    between atoms: C11_11  and  O12_12 
REMARK    3  A    between atoms: O12_12  and  C13_13 
REMARK    4  A    between atoms: C13_13  and  C14_14 
REMARK    5  A    between atoms: C18_17  and  C19_18 
REMARK    6  A    between atoms: C18_17  and  C25_24 
REMARK    7  A    between atoms: C19_18  and  N20_19 
ROOT
ATOM      1  C14 <0> d   1      19.511   0.483  10.758  0.00  0.00     0.173 C 
ATOM      2  C16 <0> d   1      20.216  -0.887  10.592  0.00  0.00     0.206 C 
ATOM      3  O17 <0> d   1      19.960  -1.507  11.875  0.00  0.00    -0.347 OA
ATOM      4  C18 <0> d   1      18.638  -1.072  12.236  0.00  0.00     0.212 C 
ATOM      5  O33 <0> d   1      18.356   0.165  11.561  0.00  0.00    -0.340 OA
ENDROOT
BRANCH   1   6
ATOM      6  C13 <0> d   1      19.086   1.041   9.399  0.00  0.00     0.209 C 
BRANCH   6   7
ATOM      7  O12 <0> d   1      19.380   2.438   9.344  0.00  0.00    -0.349 OA
BRANCH   7   8
ATOM      8  C11 <0> d   1      18.965   3.198  10.394  0.00  0.00     0.069 A 
ATOM      9  C10 <0> d   1      19.837   3.478  11.435  0.00  0.00     0.039 A 
ATOM     10  C9  <0> d   1      19.418   4.250  12.500  0.00  0.00     0.032 A 
ATOM     11  C8  <0> d   1      18.120   4.744  12.530  0.00  0.00     0.030 A 
ATOM     12  C35 <0> d   1      17.245   4.457  11.491  0.00  0.00     0.032 A 
ATOM     13  C34 <0> d   1      17.669   3.690  10.423  0.00  0.00     0.039 A 
BRANCH  11  14
ATOM     14  N7  <0> d   1      17.693   5.525  13.609  0.00  0.00    -0.378 N 
ATOM     15  C6  <0> d   1      16.418   6.252  13.548  0.00  0.00     0.143 C 
ATOM     16  C5  <0> d   1      15.562   5.844  14.755  0.00  0.00     0.145 C 
ATOM     17  N4  <0> d   1      16.382   5.952  15.969  0.00  0.00    -0.349 N 
ATOM     18  C2  <0> d   1      15.971   6.706  17.009  0.00  0.00     0.215 C 
ATOM     19  C37 <0> d   1      17.661   5.229  16.028  0.00  0.00     0.145 C 
ATOM     20  C1  <0> d   1      14.658   7.441  16.934  0.00  0.00     0.117 C 
ATOM     21  O3  <0> d   1      16.659   6.791  18.005  0.00  0.00    -0.274 OA
ATOM     22  C36 <0> d   1      18.513   5.634  14.825  0.00  0.00     0.143 C 
ENDBRANCH  11  14
ENDBRANCH   7   8
ENDBRANCH   6   7
ENDBRANCH   1   6
BRANCH   4  23
ATOM     23  C19 <0> d   1      17.616  -2.132  11.821  0.00  0.00     0.203 C 
BRANCH  23  24
ATOM     24  N20 <0> d   1      18.282  -3.166  11.024  0.00  0.00    -0.345 N 
ATOM     25  C24 <0> d   1      18.252  -3.285   9.680  0.00  0.00     0.209 A 
ATOM     26  N23 <0> d   1      18.963  -4.324   9.336  0.00  0.00    -0.255 NA
ATOM     27  C22 <0> d   1      19.459  -4.905  10.438  0.00  0.00     0.135 A 
ATOM     28  C21 <0> d   1      19.045  -4.197  11.505  0.00  0.00     0.111 A 
ENDBRANCH  23  24
ENDBRANCH   4  23
BRANCH   4  29
ATOM     29  C25 <0> d   1      18.567  -0.856  13.726  0.00  0.00     0.027 A 
ATOM     30  C31 <0> d   1      17.803   0.178  14.239  0.00  0.00     0.047 A 
ATOM     31  C30 <0> d   1      17.733   0.372  15.607  0.00  0.00     0.048 A 
ATOM     32 Cl32 <0> d   1      16.923   1.222  13.167  0.00  0.00    -0.084 Cl
ATOM     33  C28 <0> d   1      18.434  -0.460  16.461  0.00  0.00     0.035 A 
ATOM     34  C27 <0> d   1      19.202  -1.490  15.946  0.00  0.00     0.024 A 
ATOM     35 Cl29 <0> d   1      18.352  -0.213  18.177  0.00  0.00    -0.084 Cl
ATOM     36  C26 <0> d   1      19.268  -1.687  14.579  0.00  0.00     0.016 A 
ENDBRANCH   4  29
TORSDOF 7
ENDMDL
MODEL 3
REMARK VINA RESULT:      -8.6      4.489     10.013
REMARK  7 active torsions:
REMARK  status: ('A' for Active; 'I' for Inactive)
REMARK       I    between atoms: C2_2  and  N4_4 
REMARK    1  A    between atoms: N7_7  and  C8_8 
REMARK    2  A    between atoms: C11_11  and  O12_12 
REMARK    3  A    between atoms: O12_12  and  C13_13 
REMARK    4  A    between atoms: C13_13  and  C14_14 
REMARK    5  A    between atoms: C18_17  and  C19_18 
REMARK    6  A    between atoms: C18_17  and  C25_24 
REMARK    7  A    between atoms: C19_18  and  N20_19 
ROOT
ATOM      1  C14 <0> d   1      18.448  -3.066  11.907  0.00  0.00     0.173 C 
ATOM      2  C16 <0> d   1      19.914  -3.463  11.599  0.00  0.00     0.206 C 
ATOM      3  O17 <0> d   1      19.743  -4.385  10.496  0.00  0.00    -0.347 OA
ATOM      4  C18 <0> d   1      18.644  -3.852   9.737  0.00  0.00     0.212 C 
ATOM      5  O33 <0> d   1      17.830  -3.046  10.604  0.00  0.00    -0.340 OA
ENDROOT
BRANCH   1   6
ATOM      6  C13 <0> d   1      18.387  -1.682  12.555  0.00  0.00     0.209 C 
BRANCH   6   7
ATOM      7  O12 <0> d   1      19.448  -1.552  13.502  0.00  0.00    -0.349 OA
BRANCH   7   8
ATOM      8  C11 <0> d   1      19.249  -0.696  14.541  0.00  0.00     0.069 A 
ATOM      9  C10 <0> d   1      18.891  -1.190  15.786  0.00  0.00     0.039 A 
ATOM     10  C9  <0> d   1      18.689  -0.322  16.841  0.00  0.00     0.032 A 
ATOM     11  C8  <0> d   1      18.843   1.045  16.654  0.00  0.00     0.030 A 
ATOM     12  C35 <0> d   1      19.196   1.539  15.405  0.00  0.00     0.032 A 
ATOM     13  C34 <0> d   1      19.403   0.669  14.352  0.00  0.00     0.039 A 
BRANCH  11  14
ATOM     14  N7  <0> d   1      18.638   1.926  17.722  0.00  0.00    -0.378 N 
ATOM     15  C6  <0> d   1      19.139   3.305  17.661  0.00  0.00     0.143 C 
ATOM     16  C5  <0> d   1      17.967   4.264  17.908  0.00  0.00     0.145 C 
ATOM     17  N4  <0> d   1      17.247   3.825  19.111  0.00  0.00    -0.349 N 
ATOM     18  C2  <0> d   1      17.050   4.672  20.141  0.00  0.00     0.215 C 
ATOM     19  C37 <0> d   1      16.751   2.442  19.175  0.00  0.00     0.145 C 
ATOM     20  C1  <0> d   1      17.565   6.087  20.061  0.00  0.00     0.117 C 
ATOM     21  O3  <0> d   1      16.458   4.297  21.131  0.00  0.00    -0.274 OA
ATOM     22  C36 <0> d   1      17.918   1.486  18.926  0.00  0.00     0.143 C 
ENDBRANCH  11  14
ENDBRANCH   7   8
ENDBRANCH   6   7
ENDBRANCH   1   6
BRANCH   4  23
ATOM     23  C19 <0> d   1      19.181  -2.996   8.587  0.00  0.00     0.203 C 
BRANCH  23  24
ATOM     24  N20 <0> d   1      18.837  -1.591   8.824  0.00  0.00    -0.345 N 
ATOM     25  C24 <0> d   1      17.643  -1.008   8.584  0.00  0.00     0.209 A 
ATOM     26  N23 <0> d   1      17.718   0.251   8.922  0.00  0.00    -0.255 NA
ATOM     27  C22 <0> d   1      18.952   0.514   9.375  0.00  0.00     0.135 A 
ATOM     28  C21 <0> d   1      19.668  -0.624   9.321  0.00  0.00     0.111 A 
ENDBRANCH  23  24
ENDBRANCH   4  23
BRANCH   4  29
ATOM     29  C25 <0> d   1      17.817  -4.983   9.183  0.00  0.00     0.027 A 
ATOM     30  C31 <0> d   1      18.438  -6.082   8.617  0.00  0.00     0.047 A 
ATOM     31  C30 <0> d   1      17.678  -7.123   8.112  0.00  0.00     0.048 A 
ATOM     32 Cl32 <0> d   1      20.171  -6.161   8.550  0.00  0.00    -0.084 Cl
ATOM     33  C28 <0> d   1      16.297  -7.059   8.165  0.00  0.00     0.035 A 
ATOM     34  C27 <0> d   1      15.677  -5.958   8.727  0.00  0.00     0.024 A 
ATOM     35 Cl29 <0> d   1      15.343  -8.361   7.528  0.00  0.00    -0.084 Cl
ATOM     36  C26 <0> d   1      16.437  -4.920   9.235  0.00  0.00     0.016 A 
ENDBRANCH   4  29
TORSDOF 7
ENDMDL
MODEL 4
REMARK VINA RESULT:      -8.5      4.376      6.834
REMARK  7 active torsions:
REMARK  status: ('A' for Active; 'I' for Inactive)
REMARK       I    between atoms: C2_2  and  N4_4 
REMARK    1  A    between atoms: N7_7  and  C8_8 
REMARK    2  A    between atoms: C11_11  and  O12_12 
REMARK    3  A    between atoms: O12_12  and  C13_13 
REMARK    4  A    between atoms: C13_13  and  C14_14 
REMARK    5  A    between atoms: C18_17  and  C19_18 
REMARK    6  A    between atoms: C18_17  and  C25_24 
REMARK    7  A    between atoms: C19_18  and  N20_19 
ROOT
ATOM      1  C14 <0> d   1      18.270   3.014  11.290  0.00  0.00     0.173 C 
ATOM      2  C16 <0> d   1      19.763   3.359  11.519  0.00  0.00     0.206 C 
ATOM      3  O17 <0> d   1      19.677   4.358  12.565  0.00  0.00    -0.347 OA
ATOM      4  C18 <0> d   1      18.585   3.927  13.395  0.00  0.00     0.212 C 
ATOM      5  O33 <0> d   1      17.703   3.106  12.613  0.00  0.00    -0.340 OA
ENDROOT
BRANCH   1   6
ATOM      6  C13 <0> d   1      18.122   1.596  10.737  0.00  0.00     0.209 C 
BRANCH   6   7
ATOM      7  O12 <0> d   1      19.305   1.237  10.022  0.00  0.00    -0.349 OA
BRANCH   7   8
ATOM      8  C11 <0> d   1      19.148   0.452   8.922  0.00  0.00     0.069 A 
ATOM      9  C10 <0> d   1      19.391  -0.911   9.002  0.00  0.00     0.039 A 
ATOM     10  C9  <0> d   1      19.231  -1.709   7.887  0.00  0.00     0.032 A 
ATOM     11  C8  <0> d   1      18.828  -1.146   6.683  0.00  0.00     0.030 A 
ATOM     12  C35 <0> d   1      18.590   0.220   6.602  0.00  0.00     0.032 A 
ATOM     13  C34 <0> d   1      18.745   1.015   7.720  0.00  0.00     0.039 A 
BRANCH  11  14
ATOM     14  N7  <0> d   1      18.666  -1.953   5.552  0.00  0.00    -0.378 N 
ATOM     15  C6  <0> d   1      19.164  -3.335   5.541  0.00  0.00     0.143 C 
ATOM     16  C5  <0> d   1      18.002  -4.272   5.184  0.00  0.00     0.145 C 
ATOM     17  N4  <0> d   1      17.332  -3.752   3.985  0.00  0.00    -0.349 N 
ATOM     18  C2  <0> d   1      17.177  -4.529   2.894  0.00  0.00     0.215 C 
ATOM     19  C37 <0> d   1      16.839  -2.367   3.993  0.00  0.00     0.145 C 
ATOM     20  C1  <0> d   1      17.688  -5.947   2.901  0.00  0.00     0.117 C 
ATOM     21  O3  <0> d   1      16.626  -4.087   1.908  0.00  0.00    -0.274 OA
ATOM     22  C36 <0> d   1      17.995  -1.432   4.351  0.00  0.00     0.143 C 
ENDBRANCH  11  14
ENDBRANCH   7   8
ENDBRANCH   6   7
ENDBRANCH   1   6
BRANCH   4  23
ATOM     23  C19 <0> d   1      19.126   3.122  14.579  0.00  0.00     0.203 C 
BRANCH  23  24
ATOM     24  N20 <0> d   1      18.828   1.701  14.380  0.00  0.00    -0.345 N 
ATOM     25  C24 <0> d   1      17.646   1.091  14.609  0.00  0.00     0.209 A 
ATOM     26  N23 <0> d   1      17.766  -0.175  14.314  0.00  0.00    -0.255 NA
ATOM     27  C22 <0> d   1      19.018  -0.416  13.898  0.00  0.00     0.135 A 
ATOM     28  C21 <0> d   1      19.699   0.744  13.932  0.00  0.00     0.111 A 
ENDBRANCH  23  24
ENDBRANCH   4  23
BRANCH   4  29
ATOM     29  C25 <0> d   1      17.831   5.129  13.903  0.00  0.00     0.027 A 
ATOM     30  C31 <0> d   1      18.517   6.179  14.488  0.00  0.00     0.047 A 
ATOM     31  C30 <0> d   1      17.825   7.285  14.949  0.00  0.00     0.048 A 
ATOM     32 Cl32 <0> d   1      20.245   6.113  14.633  0.00  0.00    -0.084 Cl
ATOM     33  C28 <0> d   1      16.448   7.337  14.834  0.00  0.00     0.035 A 
ATOM     34  C27 <0> d   1      15.763   6.284  14.253  0.00  0.00     0.024 A 
ATOM     35 Cl29 <0> d   1      15.578   8.721  15.417  0.00  0.00    -0.084 Cl
ATOM     36  C26 <0> d   1      16.455   5.181  13.788  0.00  0.00     0.016 A 
ENDBRANCH   4  29
TORSDOF 7
ENDMDL
MODEL 5
REMARK VINA RESULT:      -8.4      3.127      9.525
REMARK  7 active torsions:
REMARK  status: ('A' for Active; 'I' for Inactive)
REMARK       I    between atoms: C2_2  and  N4_4 
REMARK    1  A    between atoms: N7_7  and  C8_8 
REMARK    2  A    between atoms: C11_11  and  O12_12 
REMARK    3  A    between atoms: O12_12  and  C13_13 
REMARK    4  A    between atoms: C13_13  and  C14_14 
REMARK    5  A    between atoms: C18_17  and  C19_18 
REMARK    6  A    between atoms: C18_17  and  C25_24 
REMARK    7  A    between atoms: C19_18  and  N20_19 
ROOT
ATOM      1  C14 <0> d   1      18.733  -3.612  11.587  0.00  0.00     0.173 C 
ATOM      2  C16 <0> d   1      20.040  -4.298  11.113  0.00  0.00     0.206 C 
ATOM      3  O17 <0> d   1      19.591  -5.001   9.930  0.00  0.00    -0.347 OA
ATOM      4  C18 <0> d   1      18.616  -4.131   9.333  0.00  0.00     0.212 C 
ATOM      5  O33 <0> d   1      18.070  -3.277  10.351  0.00  0.00    -0.340 OA
ENDROOT
BRANCH   1   6
ATOM      6  C13 <0> d   1      19.045  -2.350  12.392  0.00  0.00     0.209 C 
BRANCH   6   7
ATOM      7  O12 <0> d   1      17.837  -1.627  12.632  0.00  0.00    -0.349 OA
BRANCH   7   8
ATOM      8  C11 <0> d   1      17.958  -0.308  12.945  0.00  0.00     0.069 A 
ATOM      9  C10 <0> d   1      18.512   0.068  14.158  0.00  0.00     0.039 A 
ATOM     10  C9  <0> d   1      18.636   1.406  14.476  0.00  0.00     0.032 A 
ATOM     11  C8  <0> d   1      18.203   2.375  13.581  0.00  0.00     0.030 A 
ATOM     12  C35 <0> d   1      17.642   1.997  12.368  0.00  0.00     0.032 A 
ATOM     13  C34 <0> d   1      17.525   0.658  12.049  0.00  0.00     0.039 A 
BRANCH  11  14
ATOM     14  N7  <0> d   1      18.327   3.731  13.902  0.00  0.00    -0.378 N 
ATOM     15  C6  <0> d   1      17.650   4.756  13.096  0.00  0.00     0.143 C 
ATOM     16  C5  <0> d   1      16.775   5.611  14.022  0.00  0.00     0.145 C 
ATOM     17  N4  <0> d   1      17.586   6.035  15.172  0.00  0.00    -0.349 N 
ATOM     18  C2  <0> d   1      17.706   7.342  15.482  0.00  0.00     0.215 C 
ATOM     19  C37 <0> d   1      18.268   5.010  15.976  0.00  0.00     0.145 C 
ATOM     20  C1  <0> d   1      17.001   8.381  14.648  0.00  0.00     0.117 C 
ATOM     21  O3  <0> d   1      18.382   7.680  16.431  0.00  0.00    -0.274 OA
ATOM     22  C36 <0> d   1      19.138   4.156  15.052  0.00  0.00     0.143 C 
ENDBRANCH  11  14
ENDBRANCH   7   8
ENDBRANCH   6   7
ENDBRANCH   1   6
BRANCH   4  23
ATOM     23  C19 <0> d   1      19.281  -3.282   8.247  0.00  0.00     0.203 C 
BRANCH  23  24
ATOM     24  N20 <0> d   1      18.877  -1.882   8.408  0.00  0.00    -0.345 N 
ATOM     25  C24 <0> d   1      19.592  -0.907   9.010  0.00  0.00     0.209 A 
ATOM     26  N23 <0> d   1      18.910   0.204   8.956  0.00  0.00    -0.255 NA
ATOM     27  C22 <0> d   1      17.744  -0.022   8.333  0.00  0.00     0.135 A 
ATOM     28  C21 <0> d   1      17.703  -1.321   7.983  0.00  0.00     0.111 A 
ENDBRANCH  23  24
ENDBRANCH   4  23
BRANCH   4  29
ATOM     29  C25 <0> d   1      17.510  -4.954   8.724  0.00  0.00     0.027 A 
ATOM     30  C31 <0> d   1      17.747  -5.693   7.579  0.00  0.00     0.047 A 
ATOM     31  C30 <0> d   1      16.733  -6.453   7.023  0.00  0.00     0.048 A 
ATOM     32 Cl32 <0> d   1      19.321  -5.677   6.846  0.00  0.00    -0.084 Cl
ATOM     33  C28 <0> d   1      15.479  -6.466   7.607  0.00  0.00     0.035 A 
ATOM     34  C27 <0> d   1      15.241  -5.722   8.750  0.00  0.00     0.024 A 
ATOM     35 Cl29 <0> d   1      14.204  -7.413   6.908  0.00  0.00    -0.084 Cl
ATOM     36  C26 <0> d   1      16.257  -4.967   9.307  0.00  0.00     0.016 A 
ENDBRANCH   4  29
TORSDOF 7
ENDMDL
MODEL 6
REMARK VINA RESULT:      -8.4      5.815      9.286
REMARK  7 active torsions:
REMARK  status: ('A' for Active; 'I' for Inactive)
REMARK       I    between atoms: C2_2  and  N4_4 
REMARK    1  A    between atoms: N7_7  and  C8_8 
REMARK    2  A    between atoms: C11_11  and  O12_12 
REMARK    3  A    between atoms: O12_12  and  C13_13 
REMARK    4  A    between atoms: C13_13  and  C14_14 
REMARK    5  A    between atoms: C18_17  and  C19_18 
REMARK    6  A    between atoms: C18_17  and  C25_24 
REMARK    7  A    between atoms: C19_18  and  N20_19 
ROOT
ATOM      1  C14 <0> d   1      18.346   5.166  14.860  0.00  0.00     0.173 C 
ATOM      2  C16 <0> d   1      19.663   5.639  15.526  0.00  0.00     0.206 C 
ATOM      3  O17 <0> d   1      19.348   5.499  16.932  0.00  0.00    -0.347 OA
ATOM      4  C18 <0> d   1      18.524   4.323  17.009  0.00  0.00     0.212 C 
ATOM      5  O33 <0> d   1      17.891   4.116  15.737  0.00  0.00    -0.340 OA
ENDROOT
BRANCH   1   6
ATOM      6  C13 <0> d   1      18.616   4.619  13.457  0.00  0.00     0.209 C 
BRANCH   6   7
ATOM      7  O12 <0> d   1      17.570   3.719  13.087  0.00  0.00    -0.349 OA
BRANCH   7   8
ATOM      8  C11 <0> d   1      17.769   2.964  11.973  0.00  0.00     0.069 A 
ATOM      9  C10 <0> d   1      17.308   1.657  11.929  0.00  0.00     0.039 A 
ATOM     10  C9  <0> d   1      17.509   0.891  10.798  0.00  0.00     0.032 A 
ATOM     11  C8  <0> d   1      18.175   1.429   9.705  0.00  0.00     0.030 A 
ATOM     12  C35 <0> d   1      18.641   2.735   9.752  0.00  0.00     0.032 A 
ATOM     13  C34 <0> d   1      18.434   3.503  10.882  0.00  0.00     0.039 A 
BRANCH  11  14
ATOM     14  N7  <0> d   1      18.380   0.653   8.559  0.00  0.00    -0.378 N 
ATOM     15  C6  <0> d   1      17.408  -0.377   8.169  0.00  0.00     0.143 C 
ATOM     16  C5  <0> d   1      16.956  -0.105   6.728  0.00  0.00     0.145 C 
ATOM     17  N4  <0> d   1      18.148   0.095   5.893  0.00  0.00    -0.349 N 
ATOM     18  C2  <0> d   1      18.347  -0.653   4.789  0.00  0.00     0.215 C 
ATOM     19  C37 <0> d   1      19.124   1.122   6.286  0.00  0.00     0.145 C 
ATOM     20  C1  <0> d   1      17.337  -1.702   4.399  0.00  0.00     0.117 C 
ATOM     21  O3  <0> d   1      19.337  -0.480   4.110  0.00  0.00    -0.274 OA
ATOM     22  C36 <0> d   1      19.573   0.854   7.723  0.00  0.00     0.143 C 
ENDBRANCH  11  14
ENDBRANCH   7   8
ENDBRANCH   6   7
ENDBRANCH   1   6
BRANCH   4  23
ATOM     23  C19 <0> d   1      19.390   3.111  17.359  0.00  0.00     0.203 C 
BRANCH  23  24
ATOM     24  N20 <0> d   1      18.945   1.952  16.580  0.00  0.00    -0.345 N 
ATOM     25  C24 <0> d   1      19.357   1.614  15.340  0.00  0.00     0.209 A 
ATOM     26  N23 <0> d   1      18.741   0.522  14.978  0.00  0.00    -0.255 NA
ATOM     27  C22 <0> d   1      17.916   0.133  15.961  0.00  0.00     0.135 A 
ATOM     28  C21 <0> d   1      18.028   1.014  16.972  0.00  0.00     0.111 A 
ENDBRANCH  23  24
ENDBRANCH   4  23
BRANCH   4  29
ATOM     29  C25 <0> d   1      17.469   4.513  18.068  0.00  0.00     0.027 A 
ATOM     30  C31 <0> d   1      16.544   5.534  17.948  0.00  0.00     0.047 A 
ATOM     31  C30 <0> d   1      15.572   5.705  18.918  0.00  0.00     0.048 A 
ATOM     32 Cl32 <0> d   1      16.595   6.594  16.573  0.00  0.00    -0.084 Cl
ATOM     33  C28 <0> d   1      15.532   4.861  20.012  0.00  0.00     0.035 A 
ATOM     34  C27 <0> d   1      16.461   3.843  20.135  0.00  0.00     0.024 A 
ATOM     35 Cl29 <0> d   1      14.317   5.078  21.233  0.00  0.00    -0.084 Cl
ATOM     36  C26 <0> d   1      17.429   3.670  19.163  0.00  0.00     0.016 A 
ENDBRANCH   4  29
TORSDOF 7
ENDMDL
MODEL 7
REMARK VINA RESULT:      -8.3      3.695      9.407
REMARK  7 active torsions:
REMARK  status: ('A' for Active; 'I' for Inactive)
REMARK       I    between atoms: C2_2  and  N4_4 
REMARK    1  A    between atoms: N7_7  and  C8_8 
REMARK    2  A    between atoms: C11_11  and  O12_12 
REMARK    3  A    between atoms: O12_12  and  C13_13 
REMARK    4  A    between atoms: C13_13  and  C14_14 
REMARK    5  A    between atoms: C18_17  and  C19_18 
REMARK    6  A    between atoms: C18_17  and  C25_24 
REMARK    7  A    between atoms: C19_18  and  N20_19 
ROOT
ATOM      1  C14 <0> d   1      18.192  -4.548   8.495  0.00  0.00     0.173 C 
ATOM      2  C16 <0> d   1      19.245  -5.671   8.318  0.00  0.00     0.206 C 
ATOM      3  O17 <0> d   1      18.420  -6.784   7.898  0.00  0.00    -0.347 OA
ATOM      4  C18 <0> d   1      17.401  -6.195   7.073  0.00  0.00     0.212 C 
ATOM      5  O33 <0> d   1      17.243  -4.816   7.443  0.00  0.00    -0.340 OA
ENDROOT
BRANCH   1   6
ATOM      6  C13 <0> d   1      18.833  -3.171   8.307  0.00  0.00     0.209 C 
BRANCH   6   7
ATOM      7  O12 <0> d   1      17.989  -2.171   8.880  0.00  0.00    -0.349 OA
BRANCH   7   8
ATOM      8  C11 <0> d   1      18.305  -1.740  10.131  0.00  0.00     0.069 A 
ATOM      9  C10 <0> d   1      17.304  -1.306  10.988  0.00  0.00     0.039 A 
ATOM     10  C9  <0> d   1      17.623  -0.869  12.258  0.00  0.00     0.032 A 
ATOM     11  C8  <0> d   1      18.947  -0.862  12.677  0.00  0.00     0.030 A 
ATOM     12  C35 <0> d   1      19.949  -1.291  11.817  0.00  0.00     0.032 A 
ATOM     13  C34 <0> d   1      19.627  -1.733  10.549  0.00  0.00     0.039 A 
BRANCH  11  14
ATOM     14  N7  <0> d   1      19.272  -0.419  13.964  0.00  0.00    -0.378 N 
ATOM     15  C6  <0> d   1      19.370   1.017  14.258  0.00  0.00     0.143 C 
ATOM     16  C5  <0> d   1      18.434   1.343  15.430  0.00  0.00     0.145 C 
ATOM     17  N4  <0> d   1      18.685   0.380  16.511  0.00  0.00    -0.349 N 
ATOM     18  C2  <0> d   1      18.999   0.807  17.751  0.00  0.00     0.215 C 
ATOM     19  C37 <0> d   1      18.593  -1.057  16.216  0.00  0.00     0.145 C 
ATOM     20  C1  <0> d   1      19.089   2.284  18.039  0.00  0.00     0.117 C 
ATOM     21  O3  <0> d   1      19.208   0.002  18.634  0.00  0.00    -0.274 OA
ATOM     22  C36 <0> d   1      19.523  -1.382  15.046  0.00  0.00     0.143 C 
ENDBRANCH  11  14
ENDBRANCH   7   8
ENDBRANCH   6   7
ENDBRANCH   1   6
BRANCH   4  23
ATOM     23  C19 <0> d   1      17.811  -6.292   5.601  0.00  0.00     0.203 C 
BRANCH  23  24
ATOM     24  N20 <0> d   1      17.219  -5.177   4.856  0.00  0.00    -0.345 N 
ATOM     25  C24 <0> d   1      15.979  -5.139   4.322  0.00  0.00     0.209 A 
ATOM     26  N23 <0> d   1      15.811  -3.984   3.738  0.00  0.00    -0.255 NA
ATOM     27  C22 <0> d   1      16.929  -3.255   3.870  0.00  0.00     0.135 A 
ATOM     28  C21 <0> d   1      17.822  -3.983   4.565  0.00  0.00     0.111 A 
ENDBRANCH  23  24
ENDBRANCH   4  23
BRANCH   4  29
ATOM     29  C25 <0> d   1      16.097  -6.921   7.283  0.00  0.00     0.027 A 
ATOM     30  C31 <0> d   1      16.035  -8.293   7.115  0.00  0.00     0.047 A 
ATOM     31  C30 <0> d   1      14.839  -8.961   7.314  0.00  0.00     0.048 A 
ATOM     32 Cl32 <0> d   1      17.459  -9.178   6.666  0.00  0.00    -0.084 Cl
ATOM     33  C28 <0> d   1      13.705  -8.255   7.671  0.00  0.00     0.035 A 
ATOM     34  C27 <0> d   1      13.767  -6.883   7.834  0.00  0.00     0.024 A 
ATOM     35 Cl29 <0> d   1      12.203  -9.090   7.914  0.00  0.00    -0.084 Cl
ATOM     36  C26 <0> d   1      14.963  -6.217   7.640  0.00  0.00     0.016 A 
ENDBRANCH   4  29
TORSDOF 7
ENDMDL
MODEL 8
REMARK VINA RESULT:      -8.2      4.658      9.544
REMARK  7 active torsions:
REMARK  status: ('A' for Active; 'I' for Inactive)
REMARK       I    between atoms: C2_2  and  N4_4 
REMARK    1  A    between atoms: N7_7  and  C8_8 
REMARK    2  A    between atoms: C11_11  and  O12_12 
REMARK    3  A    between atoms: O12_12  and  C13_13 
REMARK    4  A    between atoms: C13_13  and  C14_14 
REMARK    5  A    between atoms: C18_17  and  C19_18 
REMARK    6  A    between atoms: C18_17  and  C25_24 
REMARK    7  A    between atoms: C19_18  and  N20_19 
ROOT
ATOM      1  C14 <0> d   1      18.266  -1.447  11.425  0.00  0.00     0.173 C 
ATOM      2  C16 <0> d   1      19.798  -1.555  11.631  0.00  0.00     0.206 C 
ATOM      3  O17 <0> d   1      20.300  -1.066  10.364  0.00  0.00    -0.347 OA
ATOM      4  C18 <0> d   1      19.387  -0.022   9.986  0.00  0.00     0.212 C 
ATOM      5  O33 <0> d   1      18.123  -0.255  10.626  0.00  0.00    -0.340 OA
ENDROOT
BRANCH   1   6
ATOM      6  C13 <0> d   1      17.550  -1.287  12.768  0.00  0.00     0.209 C 
BRANCH   6   7
ATOM      7  O12 <0> d   1      18.495  -1.421  13.831  0.00  0.00    -0.349 OA
BRANCH   7   8
ATOM      8  C11 <0> d   1      18.446  -0.489  14.821  0.00  0.00     0.069 A 
ATOM      9  C10 <0> d   1      17.618  -0.684  15.916  0.00  0.00     0.039 A 
ATOM     10  C9  <0> d   1      17.568   0.261  16.922  0.00  0.00     0.032 A 
ATOM     11  C8  <0> d   1      18.348   1.406  16.837  0.00  0.00     0.030 A 
ATOM     12  C35 <0> d   1      19.173   1.603  15.738  0.00  0.00     0.032 A 
ATOM     13  C34 <0> d   1      19.225   0.655  14.735  0.00  0.00     0.039 A 
BRANCH  11  14
ATOM     14  N7  <0> d   1      18.299   2.365  17.855  0.00  0.00    -0.378 N 
ATOM     15  C6  <0> d   1      18.917   3.684  17.672  0.00  0.00     0.143 C 
ATOM     16  C5  <0> d   1      17.857   4.763  17.929  0.00  0.00     0.145 C 
ATOM     17  N4  <0> d   1      17.186   4.467  19.202  0.00  0.00    -0.349 N 
ATOM     18  C2  <0> d   1      17.139   5.389  20.184  0.00  0.00     0.215 C 
ATOM     19  C37 <0> d   1      16.572   3.143  19.389  0.00  0.00     0.145 C 
ATOM     20  C1  <0> d   1      17.773   6.741  19.979  0.00  0.00     0.117 C 
ATOM     21  O3  <0> d   1      16.586   5.131  21.233  0.00  0.00    -0.274 OA
ATOM     22  C36 <0> d   1      17.628   2.068  19.129  0.00  0.00     0.143 C 
ENDBRANCH  11  14
ENDBRANCH   7   8
ENDBRANCH   6   7
ENDBRANCH   1   6
BRANCH   4  23
ATOM     23  C19 <0> d   1      19.947   1.333  10.424  0.00  0.00     0.203 C 
BRANCH  23  24
ATOM     24  N20 <0> d   1      18.839   2.245  10.722  0.00  0.00    -0.345 N 
ATOM     25  C24 <0> d   1      18.012   2.179  11.788  0.00  0.00     0.209 A 
ATOM     26  N23 <0> d   1      17.155   3.161  11.712  0.00  0.00    -0.255 NA
ATOM     27  C22 <0> d   1      17.395   3.874  10.603  0.00  0.00     0.135 A 
ATOM     28  C21 <0> d   1      18.445   3.318   9.969  0.00  0.00     0.111 A 
ENDBRANCH  23  24
ENDBRANCH   4  23
BRANCH   4  29
ATOM     29  C25 <0> d   1      19.200  -0.031   8.490  0.00  0.00     0.027 A 
ATOM     30  C31 <0> d   1      19.021  -1.230   7.823  0.00  0.00     0.047 A 
ATOM     31  C30 <0> d   1      18.843  -1.238   6.451  0.00  0.00     0.048 A 
ATOM     32 Cl32 <0> d   1      19.008  -2.723   8.709  0.00  0.00    -0.084 Cl
ATOM     33  C28 <0> d   1      18.854  -0.048   5.745  0.00  0.00     0.035 A 
ATOM     34  C27 <0> d   1      19.037   1.149   6.413  0.00  0.00     0.024 A 
ATOM     35 Cl29 <0> d   1      18.637  -0.057   4.024  0.00  0.00    -0.084 Cl
ATOM     36  C26 <0> d   1      19.210   1.158   7.785  0.00  0.00     0.016 A 
ENDBRANCH   4  29
TORSDOF 7
ENDMDL
MODEL 9
REMARK VINA RESULT:      -8.2      3.956      6.412
REMARK  7 active torsions:
REMARK  status: ('A' for Active; 'I' for Inactive)
REMARK       I    between atoms: C2_2  and  N4_4 
REMARK    1  A    between atoms: N7_7  and  C8_8 
REMARK    2  A    between atoms: C11_11  and  O12_12 
REMARK    3  A    between atoms: O12_12  and  C13_13 
REMARK    4  A    between atoms: C13_13  and  C14_14 
REMARK    5  A    between atoms: C18_17  and  C19_18 
REMARK    6  A    between atoms: C18_17  and  C25_24 
REMARK    7  A    between atoms: C19_18  and  N20_19 
ROOT
ATOM      1  C14 <0> d   1      18.140   3.086  11.336  0.00  0.00     0.173 C 
ATOM      2  C16 <0> d   1      19.649   3.380  11.528  0.00  0.00     0.206 C 
ATOM      3  O17 <0> d   1      19.624   4.367  12.587  0.00  0.00    -0.347 OA
ATOM      4  C18 <0> d   1      18.541   3.963  13.441  0.00  0.00     0.212 C 
ATOM      5  O33 <0> d   1      17.611   3.181  12.674  0.00  0.00    -0.340 OA
ENDROOT
BRANCH   1   6
ATOM      6  C13 <0> d   1      17.930   1.680  10.771  0.00  0.00     0.209 C 
BRANCH   6   7
ATOM      7  O12 <0> d   1      19.100   1.273  10.060  0.00  0.00    -0.349 OA
BRANCH   7   8
ATOM      8  C11 <0> d   1      19.071   0.045   9.475  0.00  0.00     0.069 A 
ATOM      9  C10 <0> d   1      19.199  -0.071   8.099  0.00  0.00     0.039 A 
ATOM     10  C9  <0> d   1      19.171  -1.317   7.504  0.00  0.00     0.032 A 
ATOM     11  C8  <0> d   1      19.012  -2.454   8.285  0.00  0.00     0.030 A 
ATOM     12  C35 <0> d   1      18.877  -2.337   9.661  0.00  0.00     0.032 A 
ATOM     13  C34 <0> d   1      18.912  -1.091  10.255  0.00  0.00     0.039 A 
BRANCH  11  14
ATOM     14  N7  <0> d   1      18.982  -3.717   7.683  0.00  0.00    -0.378 N 
ATOM     15  C6  <0> d   1      18.567  -4.901   8.448  0.00  0.00     0.143 C 
ATOM     16  C5  <0> d   1      17.414  -5.587   7.704  0.00  0.00     0.145 C 
ATOM     17  N4  <0> d   1      17.798  -5.753   6.295  0.00  0.00    -0.349 N 
ATOM     18  C2  <0> d   1      17.770  -6.970   5.715  0.00  0.00     0.215 C 
ATOM     19  C37 <0> d   1      18.219  -4.569   5.531  0.00  0.00     0.145 C 
ATOM     20  C1  <0> d   1      17.337  -8.174   6.512  0.00  0.00     0.117 C 
ATOM     21  O3  <0> d   1      18.094  -7.095   4.553  0.00  0.00    -0.274 OA
ATOM     22  C36 <0> d   1      19.367  -3.884   6.274  0.00  0.00     0.143 C 
ENDBRANCH  11  14
ENDBRANCH   7   8
ENDBRANCH   6   7
ENDBRANCH   1   6
BRANCH   4  23
ATOM     23  C19 <0> d   1      19.085   3.127  14.601  0.00  0.00     0.203 C 
BRANCH  23  24
ATOM     24  N20 <0> d   1      18.795   1.711  14.360  0.00  0.00    -0.345 N 
ATOM     25  C24 <0> d   1      19.616   0.813  13.775  0.00  0.00     0.209 A 
ATOM     26  N23 <0> d   1      19.013  -0.344  13.739  0.00  0.00    -0.255 NA
ATOM     27  C22 <0> d   1      17.794  -0.224  14.286  0.00  0.00     0.135 A 
ATOM     28  C21 <0> d   1      17.638   1.053  14.681  0.00  0.00     0.111 A 
ENDBRANCH  23  24
ENDBRANCH   4  23
BRANCH   4  29
ATOM     29  C25 <0> d   1      17.841   5.183  13.983  0.00  0.00     0.027 A 
ATOM     30  C31 <0> d   1      18.581   6.239  14.485  0.00  0.00     0.047 A 
ATOM     31  C30 <0> d   1      17.938   7.362  14.977  0.00  0.00     0.048 A 
ATOM     32 Cl32 <0> d   1      20.315   6.161  14.487  0.00  0.00    -0.084 Cl
ATOM     33  C28 <0> d   1      16.556   7.424  14.975  0.00  0.00     0.035 A 
ATOM     34  C27 <0> d   1      15.818   6.365  14.477  0.00  0.00     0.024 A 
ATOM     35 Cl29 <0> d   1      15.749   8.828  15.597  0.00  0.00    -0.084 Cl
ATOM     36  C26 <0> d   1      16.460   5.246  13.981  0.00  0.00     0.016 A 
ENDBRANCH   4  29
TORSDOF 7
ENDMDL
