MODEL 1
REMARK VINA RESULT:      -7.3      0.000      0.000
REMARK  4 active torsions:
REMARK  status: ('A' for Active; 'I' for Inactive)
REMARK    1  A    between atoms: N2_2  and  C5_5 
REMARK    2  A    between atoms: C5_5  and  C6_6 
REMARK    3  A    between atoms: C6_6  and  C7_7 
REMARK    4  A    between atoms: C7_7  and  N8_8 
ROOT
ATOM      1  N8  ZIN A   1      18.180   2.272  13.306  0.00  0.00    -0.345 N 
ATOM      2  C9  ZIN A   1      18.331   2.555  11.950  0.00  0.00     0.052 A 
ATOM      3  C10 ZIN A   1      17.672   3.658  11.419  0.00  0.00     0.031 A 
ATOM      4  C11 ZIN A   1      17.802   3.972  10.079  0.00  0.00     0.002 A 
ATOM      5  C12 ZIN A   1      18.589   3.190   9.257  0.00  0.00     0.002 A 
ATOM      6  C13 ZIN A   1      19.248   2.089   9.774  0.00  0.00     0.021 A 
ATOM      7  C14 ZIN A   1      19.122   1.768  11.119  0.00  0.00     0.032 A 
ATOM      8  S15 ZIN A   1      19.966   0.358  11.751  0.00  0.00    -0.086 SA
ATOM      9  C16 ZIN A   1      19.142   0.036  13.273  0.00  0.00     0.032 A 
ATOM     10  C17 ZIN A   1      19.292  -1.205  13.878  0.00  0.00     0.023 A 
ATOM     11  C18 ZIN A   1      18.652  -1.478  15.073  0.00  0.00     0.025 A 
ATOM     12  C19 ZIN A   1      17.861  -0.514  15.669  0.00  0.00     0.036 A 
ATOM     13 Cl20 ZIN A   1      17.057  -0.858  17.169  0.00  0.00    -0.084 Cl
ATOM     14  C21 ZIN A   1      17.708   0.725  15.073  0.00  0.00     0.054 A 
ATOM     15  C22 ZIN A   1      18.354   1.011  13.872  0.00  0.00     0.053 A 
ENDROOT
BRANCH   1  16
ATOM     16  C7  ZIN A   1      17.819   3.377  14.197  0.00  0.00     0.131 C 
BRANCH  16  17
ATOM     17  C6  ZIN A   1      19.067   4.200  14.521  0.00  0.00     0.048 C 
BRANCH  17  18
ATOM     18  C5  ZIN A   1      19.361   4.113  16.020  0.00  0.00     0.235 C 
BRANCH  18  19
ATOM     19  N2  ZIN A   1      19.878   5.404  16.493  0.00  0.00    -0.079 N 
ATOM     20  C1  ZIN A   1      20.967   5.848  15.613  0.00  0.00     0.269 C 
ATOM     21  H3  ZIN A   1      20.225   5.303  17.435  0.00  0.00     0.278 HD
ATOM     22  C4  ZIN A   1      18.798   6.400  16.474  0.00  0.00     0.269 C 
ENDBRANCH  18  19
ENDBRANCH  17  18
ENDBRANCH  16  17
ENDBRANCH   1  16
TORSDOF 4
ENDMDL
MODEL 2
REMARK VINA RESULT:      -7.1      3.179      5.512
REMARK  4 active torsions:
REMARK  status: ('A' for Active; 'I' for Inactive)
REMARK    1  A    between atoms: N2_2  and  C5_5 
REMARK    2  A    between atoms: C5_5  and  C6_6 
REMARK    3  A    between atoms: C6_6  and  C7_7 
REMARK    4  A    between atoms: C7_7  and  N8_8 
ROOT
ATOM      1  N8  ZIN A   1      19.245  -0.543  12.114  0.00  0.00    -0.345 N 
ATOM      2  C9  ZIN A   1      19.264  -1.777  11.468  0.00  0.00     0.052 A 
ATOM      3  C10 ZIN A   1      19.918  -2.842  12.078  0.00  0.00     0.031 A 
ATOM      4  C11 ZIN A   1      19.954  -4.082  11.469  0.00  0.00     0.002 A 
ATOM      5  C12 ZIN A   1      19.339  -4.272  10.247  0.00  0.00     0.002 A 
ATOM      6  C13 ZIN A   1      18.686  -3.221   9.630  0.00  0.00     0.021 A 
ATOM      7  C14 ZIN A   1      18.647  -1.972  10.236  0.00  0.00     0.032 A 
ATOM      8  S15 ZIN A   1      17.815  -0.648   9.427  0.00  0.00    -0.086 SA
ATOM      9  C16 ZIN A   1      18.440   0.784  10.238  0.00  0.00     0.032 A 
ATOM     10  C17 ZIN A   1      18.289   2.027   9.637  0.00  0.00     0.023 A 
ATOM     11  C18 ZIN A   1      18.773   3.164  10.256  0.00  0.00     0.025 A 
ATOM     12  C19 ZIN A   1      19.412   3.065  11.479  0.00  0.00     0.036 A 
ATOM     13 Cl20 ZIN A   1      20.022   4.492  12.256  0.00  0.00    -0.084 Cl
ATOM     14  C21 ZIN A   1      19.566   1.831  12.084  0.00  0.00     0.054 A 
ATOM     15  C22 ZIN A   1      19.075   0.681  11.470  0.00  0.00     0.053 A 
ENDROOT
BRANCH   1  16
ATOM     16  C7  ZIN A   1      19.408  -0.532  13.569  0.00  0.00     0.131 C 
BRANCH  16  17
ATOM     17  C6  ZIN A   1      18.044  -0.714  14.237  0.00  0.00     0.048 C 
BRANCH  17  18
ATOM     18  C5  ZIN A   1      17.560   0.631  14.784  0.00  0.00     0.235 C 
BRANCH  18  19
ATOM     19  N2  ZIN A   1      17.435   0.548  16.245  0.00  0.00    -0.079 N 
ATOM     20  C1  ZIN A   1      17.273  -0.856  16.644  0.00  0.00     0.269 C 
ATOM     21  H3  ZIN A   1      16.630   1.078  16.544  0.00  0.00     0.278 HD
ATOM     22  C4  ZIN A   1      18.644   1.099  16.872  0.00  0.00     0.269 C 
ENDBRANCH  18  19
ENDBRANCH  17  18
ENDBRANCH  16  17
ENDBRANCH   1  16
TORSDOF 4
ENDMDL
MODEL 3
REMARK VINA RESULT:      -7.0      5.006      6.618
REMARK  4 active torsions:
REMARK  status: ('A' for Active; 'I' for Inactive)
REMARK    1  A    between atoms: N2_2  and  C5_5 
REMARK    2  A    between atoms: C5_5  and  C6_6 
REMARK    3  A    between atoms: C6_6  and  C7_7 
REMARK    4  A    between atoms: C7_7  and  N8_8 
ROOT
ATOM      1  N8  ZIN A   1      18.550  -1.758   8.458  0.00  0.00    -0.345 N 
ATOM      2  C9  ZIN A   1      18.597  -1.305   7.142  0.00  0.00     0.052 A 
ATOM      3  C10 ZIN A   1      18.131  -0.026   6.857  0.00  0.00     0.031 A 
ATOM      4  C11 ZIN A   1      18.167   0.459   5.563  0.00  0.00     0.002 A 
ATOM      5  C12 ZIN A   1      18.666  -0.326   4.542  0.00  0.00     0.002 A 
ATOM      6  C13 ZIN A   1      19.132  -1.599   4.813  0.00  0.00     0.021 A 
ATOM      7  C14 ZIN A   1      19.098  -2.093   6.110  0.00  0.00     0.032 A 
ATOM      8  S15 ZIN A   1      19.690  -3.720   6.429  0.00  0.00    -0.086 SA
ATOM      9  C16 ZIN A   1      19.002  -4.106   8.002  0.00  0.00     0.032 A 
ATOM     10  C17 ZIN A   1      18.953  -5.431   8.417  0.00  0.00     0.023 A 
ATOM     11  C18 ZIN A   1      18.416  -5.755   9.648  0.00  0.00     0.025 A 
ATOM     12  C19 ZIN A   1      17.924  -4.758  10.471  0.00  0.00     0.036 A 
ATOM     13 Cl20 ZIN A   1      17.247  -5.166  12.017  0.00  0.00    -0.084 Cl
ATOM     14  C21 ZIN A   1      17.970  -3.437  10.066  0.00  0.00     0.054 A 
ATOM     15  C22 ZIN A   1      18.516  -3.100   8.829  0.00  0.00     0.053 A 
ENDROOT
BRANCH   1  16
ATOM     16  C7  ZIN A   1      18.541  -0.755   9.525  0.00  0.00     0.131 C 
BRANCH  16  17
ATOM     17  C6  ZIN A   1      19.973  -0.301   9.811  0.00  0.00     0.048 C 
BRANCH  17  18
ATOM     18  C5  ZIN A   1      20.434  -0.880  11.151  0.00  0.00     0.235 C 
BRANCH  18  19
ATOM     19  N2  ZIN A   1      19.442  -0.565  12.187  0.00  0.00    -0.079 N 
ATOM     20  C1  ZIN A   1      19.261  -1.731  13.063  0.00  0.00     0.269 C 
ATOM     21  H3  ZIN A   1      18.563  -0.331  11.751  0.00  0.00     0.278 HD
ATOM     22  C4  ZIN A   1      19.912   0.576  12.984  0.00  0.00     0.269 C 
ENDBRANCH  18  19
ENDBRANCH  17  18
ENDBRANCH  16  17
ENDBRANCH   1  16
TORSDOF 4
ENDMDL
MODEL 4
REMARK VINA RESULT:      -7.0      4.319      7.122
REMARK  4 active torsions:
REMARK  status: ('A' for Active; 'I' for Inactive)
REMARK    1  A    between atoms: N2_2  and  C5_5 
REMARK    2  A    between atoms: C5_5  and  C6_6 
REMARK    3  A    between atoms: C6_6  and  C7_7 
REMARK    4  A    between atoms: C7_7  and  N8_8 
ROOT
ATOM      1  N8  ZIN A   1      18.422  -0.259   9.535  0.00  0.00    -0.345 N 
ATOM      2  C9  ZIN A   1      18.273   1.019  10.069  0.00  0.00     0.052 A 
ATOM      3  C10 ZIN A   1      18.731   2.108   9.336  0.00  0.00     0.031 A 
ATOM      4  C11 ZIN A   1      18.597   3.391   9.833  0.00  0.00     0.002 A 
ATOM      5  C12 ZIN A   1      18.006   3.600  11.063  0.00  0.00     0.002 A 
ATOM      6  C13 ZIN A   1      17.548   2.524  11.802  0.00  0.00     0.021 A 
ATOM      7  C14 ZIN A   1      17.680   1.233  11.310  0.00  0.00     0.032 A 
ATOM      8  S15 ZIN A   1      17.094  -0.120  12.272  0.00  0.00    -0.086 SA
ATOM      9  C16 ZIN A   1      17.903  -1.511  11.557  0.00  0.00     0.032 A 
ATOM     10  C17 ZIN A   1      17.968  -2.700  12.271  0.00  0.00     0.023 A 
ATOM     11  C18 ZIN A   1      18.600  -3.804  11.729  0.00  0.00     0.025 A 
ATOM     12  C19 ZIN A   1      19.170  -3.725  10.471  0.00  0.00     0.036 A 
ATOM     13 Cl20 ZIN A   1      19.964  -5.110   9.791  0.00  0.00    -0.084 Cl
ATOM     14  C21 ZIN A   1      19.108  -2.544   9.754  0.00  0.00     0.054 A 
ATOM     15  C22 ZIN A   1      18.467  -1.429  10.290  0.00  0.00     0.053 A 
ENDROOT
BRANCH   1  16
ATOM     16  C7  ZIN A   1      18.530  -0.382   8.079  0.00  0.00     0.131 C 
BRANCH  16  17
ATOM     17  C6  ZIN A   1      17.132  -0.367   7.460  0.00  0.00     0.048 C 
BRANCH  17  18
ATOM     18  C5  ZIN A   1      17.228   0.045   5.990  0.00  0.00     0.235 C 
BRANCH  18  19
ATOM     19  N2  ZIN A   1      18.139  -0.867   5.285  0.00  0.00    -0.079 N 
ATOM     20  C1  ZIN A   1      17.367  -1.716   4.367  0.00  0.00     0.269 C 
ATOM     21  H3  ZIN A   1      18.621  -1.447   5.955  0.00  0.00     0.278 HD
ATOM     22  C4  ZIN A   1      19.119  -0.085   4.520  0.00  0.00     0.269 C 
ENDBRANCH  18  19
ENDBRANCH  17  18
ENDBRANCH  16  17
ENDBRANCH   1  16
TORSDOF 4
ENDMDL
MODEL 5
REMARK VINA RESULT:      -6.9      3.175      4.201
REMARK  4 active torsions:
REMARK  status: ('A' for Active; 'I' for Inactive)
REMARK    1  A    between atoms: N2_2  and  C5_5 
REMARK    2  A    between atoms: C5_5  and  C6_6 
REMARK    3  A    between atoms: C6_6  and  C7_7 
REMARK    4  A    between atoms: C7_7  and  N8_8 
ROOT
ATOM      1  N8  ZIN A   1      18.149  -0.362  11.954  0.00  0.00    -0.345 N 
ATOM      2  C9  ZIN A   1      18.246   0.839  11.254  0.00  0.00     0.052 A 
ATOM      3  C10 ZIN A   1      17.547   1.946  11.724  0.00  0.00     0.031 A 
ATOM      4  C11 ZIN A   1      17.624   3.155  11.058  0.00  0.00     0.002 A 
ATOM      5  C12 ZIN A   1      18.397   3.272   9.919  0.00  0.00     0.002 A 
ATOM      6  C13 ZIN A   1      19.095   2.177   9.442  0.00  0.00     0.021 A 
ATOM      7  C14 ZIN A   1      19.023   0.960  10.105  0.00  0.00     0.032 A 
ATOM      8  S15 ZIN A   1      19.916  -0.420   9.475  0.00  0.00    -0.086 SA
ATOM      9  C16 ZIN A   1      19.153  -1.797  10.264  0.00  0.00     0.032 A 
ATOM     10  C17 ZIN A   1      19.348  -3.070   9.746  0.00  0.00     0.023 A 
ATOM     11  C18 ZIN A   1      18.757  -4.165  10.349  0.00  0.00     0.025 A 
ATOM     12  C19 ZIN A   1      17.968  -3.992  11.472  0.00  0.00     0.036 A 
ATOM     13 Cl20 ZIN A   1      17.224  -5.366  12.228  0.00  0.00    -0.084 Cl
ATOM     14  C21 ZIN A   1      17.770  -2.726  11.993  0.00  0.00     0.054 A 
ATOM     15  C22 ZIN A   1      18.367  -1.619  11.396  0.00  0.00     0.053 A 
ENDROOT
BRANCH   1  16
ATOM     16  C7  ZIN A   1      17.798  -0.297  13.374  0.00  0.00     0.131 C 
BRANCH  16  17
ATOM     17  C6  ZIN A   1      19.076  -0.257  14.214  0.00  0.00     0.048 C 
BRANCH  17  18
ATOM     18  C5  ZIN A   1      18.824   0.549  15.489  0.00  0.00     0.235 C 
BRANCH  18  19
ATOM     19  N2  ZIN A   1      18.843  -0.351  16.650  0.00  0.00    -0.079 N 
ATOM     20  C1  ZIN A   1      19.281   0.392  17.839  0.00  0.00     0.269 C 
ATOM     21  H3  ZIN A   1      19.481  -1.113  16.475  0.00  0.00     0.278 HD
ATOM     22  C4  ZIN A   1      17.493  -0.885  16.877  0.00  0.00     0.269 C 
ENDBRANCH  18  19
ENDBRANCH  17  18
ENDBRANCH  16  17
ENDBRANCH   1  16
TORSDOF 4
ENDMDL
MODEL 6
REMARK VINA RESULT:      -6.9      2.993      6.566
REMARK  4 active torsions:
REMARK  status: ('A' for Active; 'I' for Inactive)
REMARK    1  A    between atoms: N2_2  and  C5_5 
REMARK    2  A    between atoms: C5_5  and  C6_6 
REMARK    3  A    between atoms: C6_6  and  C7_7 
REMARK    4  A    between atoms: C7_7  and  N8_8 
ROOT
ATOM      1  N8  ZIN A   1      18.666   1.389  14.057  0.00  0.00    -0.345 N 
ATOM      2  C9  ZIN A   1      18.810   0.791  15.307  0.00  0.00     0.052 A 
ATOM      3  C10 ZIN A   1      18.614  -0.581  15.419  0.00  0.00     0.031 A 
ATOM      4  C11 ZIN A   1      18.753  -1.210  16.642  0.00  0.00     0.002 A 
ATOM      5  C12 ZIN A   1      19.088  -0.478  17.764  0.00  0.00     0.002 A 
ATOM      6  C13 ZIN A   1      19.284   0.888  17.665  0.00  0.00     0.021 A 
ATOM      7  C14 ZIN A   1      19.146   1.526  16.440  0.00  0.00     0.032 A 
ATOM      8  S15 ZIN A   1      19.395   3.266  16.341  0.00  0.00    -0.086 SA
ATOM      9  C16 ZIN A   1      18.635   3.703  14.814  0.00  0.00     0.032 A 
ATOM     10  C17 ZIN A   1      18.317   5.032  14.569  0.00  0.00     0.023 A 
ATOM     11  C18 ZIN A   1      17.719   5.395  13.376  0.00  0.00     0.025 A 
ATOM     12  C19 ZIN A   1      17.436   4.433  12.424  0.00  0.00     0.036 A 
ATOM     13 Cl20 ZIN A   1      16.684   4.890  10.928  0.00  0.00    -0.084 Cl
ATOM     14  C21 ZIN A   1      17.750   3.108  12.662  0.00  0.00     0.054 A 
ATOM     15  C22 ZIN A   1      18.359   2.733  13.858  0.00  0.00     0.053 A 
ENDROOT
BRANCH   1  16
ATOM     16  C7  ZIN A   1      18.855   0.549  12.873  0.00  0.00     0.131 C 
BRANCH  16  17
ATOM     17  C6  ZIN A   1      20.350   0.416  12.575  0.00  0.00     0.048 C 
BRANCH  17  18
ATOM     18  C5  ZIN A   1      20.542  -0.281  11.227  0.00  0.00     0.235 C 
BRANCH  18  19
ATOM     19  N2  ZIN A   1      19.451  -1.241  11.012  0.00  0.00    -0.079 N 
ATOM     20  C1  ZIN A   1      19.075  -1.245   9.592  0.00  0.00     0.269 C 
ATOM     21  H3  ZIN A   1      18.654  -0.975  11.571  0.00  0.00     0.278 HD
ATOM     22  C4  ZIN A   1      19.897  -2.584  11.403  0.00  0.00     0.269 C 
ENDBRANCH  18  19
ENDBRANCH  17  18
ENDBRANCH  16  17
ENDBRANCH   1  16
TORSDOF 4
ENDMDL
MODEL 7
REMARK VINA RESULT:      -6.8      3.980      7.404
REMARK  4 active torsions:
REMARK  status: ('A' for Active; 'I' for Inactive)
REMARK    1  A    between atoms: N2_2  and  C5_5 
REMARK    2  A    between atoms: C5_5  and  C6_6 
REMARK    3  A    between atoms: C6_6  and  C7_7 
REMARK    4  A    between atoms: C7_7  and  N8_8 
ROOT
ATOM      1  N8  ZIN A   1      18.178   0.320  10.098  0.00  0.00    -0.345 N 
ATOM      2  C9  ZIN A   1      18.432  -0.919  10.681  0.00  0.00     0.052 A 
ATOM      3  C10 ZIN A   1      17.666  -2.012  10.291  0.00  0.00     0.031 A 
ATOM      4  C11 ZIN A   1      17.893  -3.258  10.845  0.00  0.00     0.002 A 
ATOM      5  C12 ZIN A   1      18.884  -3.426  11.792  0.00  0.00     0.002 A 
ATOM      6  C13 ZIN A   1      19.651  -2.346  12.189  0.00  0.00     0.021 A 
ATOM      7  C14 ZIN A   1      19.429  -1.092  11.637  0.00  0.00     0.032 A 
ATOM      8  S15 ZIN A   1      20.415   0.268  12.163  0.00  0.00    -0.086 SA
ATOM      9  C16 ZIN A   1      19.490   1.672  11.640  0.00  0.00     0.032 A 
ATOM     10  C17 ZIN A   1      19.771   2.915  12.191  0.00  0.00     0.023 A 
ATOM     11  C18 ZIN A   1      19.055   4.029  11.795  0.00  0.00     0.025 A 
ATOM     12  C19 ZIN A   1      18.055   3.907  10.848  0.00  0.00     0.036 A 
ATOM     13 Cl20 ZIN A   1      17.155   5.306  10.352  0.00  0.00    -0.084 Cl
ATOM     14  C21 ZIN A   1      17.770   2.672  10.294  0.00  0.00     0.054 A 
ATOM     15  C22 ZIN A   1      18.491   1.545  10.682  0.00  0.00     0.053 A 
ENDROOT
BRANCH   1  16
ATOM     16  C7  ZIN A   1      17.545   0.335   8.777  0.00  0.00     0.131 C 
BRANCH  16  17
ATOM     17  C6  ZIN A   1      18.624   0.379   7.694  0.00  0.00     0.048 C 
BRANCH  17  18
ATOM     18  C5  ZIN A   1      18.180  -0.466   6.498  0.00  0.00     0.235 C 
BRANCH  18  19
ATOM     19  N2  ZIN A   1      19.293  -1.321   6.063  0.00  0.00    -0.079 N 
ATOM     20  C1  ZIN A   1      19.358  -2.513   6.919  0.00  0.00     0.269 C 
ATOM     21  H3  ZIN A   1      20.158  -0.808   6.132  0.00  0.00     0.278 HD
ATOM     22  C4  ZIN A   1      19.078  -1.732   4.669  0.00  0.00     0.269 C 
ENDBRANCH  18  19
ENDBRANCH  17  18
ENDBRANCH  16  17
ENDBRANCH   1  16
TORSDOF 4
ENDMDL
MODEL 8
REMARK VINA RESULT:      -6.7      3.540      5.709
REMARK  4 active torsions:
REMARK  status: ('A' for Active; 'I' for Inactive)
REMARK    1  A    between atoms: N2_2  and  C5_5 
REMARK    2  A    between atoms: C5_5  and  C6_6 
REMARK    3  A    between atoms: C6_6  and  C7_7 
REMARK    4  A    between atoms: C7_7  and  N8_8 
ROOT
ATOM      1  N8  ZIN A   1      18.994   0.816  10.541  0.00  0.00    -0.345 N 
ATOM      2  C9  ZIN A   1      19.145   0.178  11.770  0.00  0.00     0.052 A 
ATOM      3  C10 ZIN A   1      19.835   0.834  12.784  0.00  0.00     0.031 A 
ATOM      4  C11 ZIN A   1      20.001   0.234  14.018  0.00  0.00     0.002 A 
ATOM      5  C12 ZIN A   1      19.481  -1.024  14.253  0.00  0.00     0.002 A 
ATOM      6  C13 ZIN A   1      18.794  -1.686  13.251  0.00  0.00     0.021 A 
ATOM      7  C14 ZIN A   1      18.624  -1.090  12.009  0.00  0.00     0.032 A 
ATOM      8  S15 ZIN A   1      17.751  -1.956  10.749  0.00  0.00    -0.086 SA
ATOM      9  C16 ZIN A   1      18.216  -1.112   9.276  0.00  0.00     0.032 A 
ATOM     10  C17 ZIN A   1      18.012  -1.728   8.047  0.00  0.00     0.023 A 
ATOM     11  C18 ZIN A   1      18.372  -1.083   6.878  0.00  0.00     0.025 A 
ATOM     12  C19 ZIN A   1      18.936   0.178   6.931  0.00  0.00     0.036 A 
ATOM     13 Cl20 ZIN A   1      19.389   0.987   5.463  0.00  0.00    -0.084 Cl
ATOM     14  C21 ZIN A   1      19.142   0.797   8.150  0.00  0.00     0.054 A 
ATOM     15  C22 ZIN A   1      18.776   0.158   9.333  0.00  0.00     0.053 A 
ENDROOT
BRANCH   1  16
ATOM     16  C7  ZIN A   1      19.062   2.279  10.519  0.00  0.00     0.131 C 
BRANCH  16  17
ATOM     17  C6  ZIN A   1      17.664   2.859  10.739  0.00  0.00     0.048 C 
BRANCH  17  18
ATOM     18  C5  ZIN A   1      17.780   4.322  11.173  0.00  0.00     0.235 C 
BRANCH  18  19
ATOM     19  N2  ZIN A   1      17.552   4.423  12.620  0.00  0.00    -0.079 N 
ATOM     20  C1  ZIN A   1      18.818   4.738  13.295  0.00  0.00     0.269 C 
ATOM     21  H3  ZIN A   1      17.194   3.546  12.966  0.00  0.00     0.278 HD
ATOM     22  C4  ZIN A   1      16.577   5.489  12.888  0.00  0.00     0.269 C 
ENDBRANCH  18  19
ENDBRANCH  17  18
ENDBRANCH  16  17
ENDBRANCH   1  16
TORSDOF 4
ENDMDL
MODEL 9
REMARK VINA RESULT:      -6.5      3.408      6.372
REMARK  4 active torsions:
REMARK  status: ('A' for Active; 'I' for Inactive)
REMARK    1  A    between atoms: N2_2  and  C5_5 
REMARK    2  A    between atoms: C5_5  and  C6_6 
REMARK    3  A    between atoms: C6_6  and  C7_7 
REMARK    4  A    between atoms: C7_7  and  N8_8 
ROOT
ATOM      1  N8  ZIN A   1      18.871  -1.299  12.067  0.00  0.00    -0.345 N 
ATOM      2  C9  ZIN A   1      18.921  -0.611  10.856  0.00  0.00     0.052 A 
ATOM      3  C10 ZIN A   1      19.638  -1.165   9.801  0.00  0.00     0.031 A 
ATOM      4  C11 ZIN A   1      19.705  -0.513   8.584  0.00  0.00     0.002 A 
ATOM      5  C12 ZIN A   1      19.061   0.696   8.408  0.00  0.00     0.002 A 
ATOM      6  C13 ZIN A   1      18.347   1.257   9.450  0.00  0.00     0.021 A 
ATOM      7  C14 ZIN A   1      18.275   0.608  10.676  0.00  0.00     0.032 A 
ATOM      8  S15 ZIN A   1      17.364   1.346  11.989  0.00  0.00    -0.086 SA
ATOM      9  C16 ZIN A   1      17.954   0.505  13.419  0.00  0.00     0.032 A 
ATOM     10  C17 ZIN A   1      17.732   1.059  14.673  0.00  0.00     0.023 A 
ATOM     11  C18 ZIN A   1      18.188   0.416  15.809  0.00  0.00     0.025 A 
ATOM     12  C19 ZIN A   1      18.869  -0.783  15.697  0.00  0.00     0.036 A 
ATOM     13 Cl20 ZIN A   1      19.443  -1.590  17.122  0.00  0.00    -0.084 Cl
ATOM     14  C21 ZIN A   1      19.093  -1.341  14.451  0.00  0.00     0.054 A 
ATOM     15  C22 ZIN A   1      18.630  -0.703  13.302  0.00  0.00     0.053 A 
ENDROOT
BRANCH   1  16
ATOM     16  C7  ZIN A   1      19.079  -2.748  12.036  0.00  0.00     0.131 C 
BRANCH  16  17
ATOM     17  C6  ZIN A   1      17.785  -3.441  11.605  0.00  0.00     0.048 C 
BRANCH  17  18
ATOM     18  C5  ZIN A   1      18.033  -4.944  11.462  0.00  0.00     0.235 C 
BRANCH  18  19
ATOM     19  N2  ZIN A   1      18.022  -5.309  10.039  0.00  0.00    -0.079 N 
ATOM     20  C1  ZIN A   1      17.252  -4.313   9.283  0.00  0.00     0.269 C 
ATOM     21  H3  ZIN A   1      17.599  -6.218   9.929  0.00  0.00     0.278 HD
ATOM     22  C4  ZIN A   1      19.401  -5.347   9.533  0.00  0.00     0.269 C 
ENDBRANCH  18  19
ENDBRANCH  17  18
ENDBRANCH  16  17
ENDBRANCH   1  16
TORSDOF 4
ENDMDL
