MODEL 1
REMARK VINA RESULT:      -7.8      0.000      0.000
REMARK  12 active torsions:
REMARK  status: ('A' for Active; 'I' for Inactive)
REMARK    1  A    between atoms: C2_2  and  C3_3 
REMARK    2  A    between atoms: C3_3  and  C4_4 
REMARK    3  A    between atoms: C4_4  and  C5_5 
REMARK    4  A    between atoms: C5_5  and  C6_6 
REMARK    5  A    between atoms: C6_6  and  O8_7 
REMARK    6  A    between atoms: C6_6  and  C9_8 
REMARK    7  A    between atoms: C9_8  and  C10_9 
REMARK    8  A    between atoms: C10_9  and  C11_10 
REMARK    9  A    between atoms: C13_11  and  O15_12 
REMARK   10  A    between atoms: C21_17  and  O22_18 
REMARK   11  A    between atoms: O22_18  and  C23_19 
REMARK   12  A    between atoms: C23_19  and  C24_20 
ROOT
ATOM      1  C11 <0> d   1      17.957  -1.023  12.671  0.00  0.00     0.019 C 
ATOM      2  C13 <0> d   1      19.476  -1.029  12.413  0.00  0.00     0.123 C 
ATOM      3  C16 <0> d   1      20.076   0.103  13.282  0.00  0.00     0.037 C 
ATOM      4  C17 <0> d   1      18.879   1.037  13.503  0.00  0.00    -0.003 C 
ATOM      5  C19 <0> d   1      19.053   2.048  14.593  0.00  0.00     0.047 C 
ATOM      6  C20 <0> d   1      18.859   1.490  15.973  0.00  0.00    -0.018 A 
ATOM      7  C21 <0> d   1      19.267   2.264  17.058  0.00  0.00     0.076 A 
ATOM      8  C27 <0> d   1      19.091   1.806  18.352  0.00  0.00     0.037 A 
ATOM      9  C28 <0> d   1      18.502   0.576  18.567  0.00  0.00     0.003 A 
ATOM     10  C29 <0> d   1      18.105  -0.193  17.492  0.00  0.00     0.008 A 
ATOM     11  C30 <0> d   1      18.291   0.256  16.189  0.00  0.00    -0.049 A 
ATOM     12  C31 <0> d   1      17.888  -0.656  15.071  0.00  0.00     0.044 C 
ATOM     13  C32 <0> d   1      17.708   0.065  13.757  0.00  0.00     0.001 C 
ENDROOT
BRANCH   1  14
ATOM     14  C10 <0> d   1      17.206  -0.667  11.386  0.00  0.00     0.010 C 
BRANCH  14  15
ATOM     15  C9  <0> d   1      17.831  -1.413  10.206  0.00  0.00     0.032 C 
BRANCH  15  16
ATOM     16  C6  <0> d   1      18.025  -0.446   9.036  0.00  0.00     0.118 C 
BRANCH  16  17
ATOM     17  C5  <0> d   1      17.794   0.988   9.517  0.00  0.00     0.032 C 
BRANCH  17  18
ATOM     18  C4  <0> d   1      19.133   1.726   9.582  0.00  0.00     0.002 C 
BRANCH  18  19
ATOM     19  C3  <0> d   1      18.957   3.034  10.357  0.00  0.00    -0.000 C 
BRANCH  19  20
ATOM     20  C2  <0> d   1      17.502   3.166  10.810  0.00  0.00    -0.005 C 
ATOM     21  C1  <0> d   1      17.351   4.413  11.684  0.00  0.00     0.005 C 
ENDBRANCH  19  20
ENDBRANCH  18  19
ENDBRANCH  17  18
ENDBRANCH  16  17
BRANCH  16  22
ATOM     22  O8  <0> d   1      17.092  -0.757   8.001  0.00  0.00    -0.396 OA
ATOM     23  H45 <0> d   1      17.469  -0.735   7.110  0.00  0.00     0.210 HD
ENDBRANCH  16  22
ENDBRANCH  15  16
ENDBRANCH  14  15
ENDBRANCH   1  14
BRANCH   2  24
ATOM     24  O15 <0> d   1      20.032  -2.289  12.796  0.00  0.00    -0.395 OA
ATOM     25  H50 <0> d   1      19.622  -2.677  13.582  0.00  0.00     0.210 HD
ENDBRANCH   2  24
BRANCH   7  26
ATOM     26  O22 <0> d   1      19.844   3.476  16.842  0.00  0.00    -0.340 OA
BRANCH  26  27
ATOM     27  C23 <0> d   1      18.985   4.618  16.881  0.00  0.00     0.288 C 
BRANCH  27  28
ATOM     28  C24 <0> d   1      19.698   5.803  16.281  0.00  0.00     0.198 C 
ATOM     29  O25 <0> d   1      19.149   6.891  16.246  0.00  0.00    -0.646 OA
ATOM     30  O26 <0> d   1      20.822   5.673  15.829  0.00  0.00    -0.646 OA
ENDBRANCH  27  28
ENDBRANCH  26  27
ENDBRANCH   7  26
TORSDOF 12
ENDMDL
MODEL 2
REMARK VINA RESULT:      -7.7      3.421      9.358
REMARK  12 active torsions:
REMARK  status: ('A' for Active; 'I' for Inactive)
REMARK    1  A    between atoms: C2_2  and  C3_3 
REMARK    2  A    between atoms: C3_3  and  C4_4 
REMARK    3  A    between atoms: C4_4  and  C5_5 
REMARK    4  A    between atoms: C5_5  and  C6_6 
REMARK    5  A    between atoms: C6_6  and  O8_7 
REMARK    6  A    between atoms: C6_6  and  C9_8 
REMARK    7  A    between atoms: C9_8  and  C10_9 
REMARK    8  A    between atoms: C10_9  and  C11_10 
REMARK    9  A    between atoms: C13_11  and  O15_12 
REMARK   10  A    between atoms: C21_17  and  O22_18 
REMARK   11  A    between atoms: O22_18  and  C23_19 
REMARK   12  A    between atoms: C23_19  and  C24_20 
ROOT
ATOM      1  C11 <0> d   1      17.861   1.090  10.252  0.00  0.00     0.019 C 
ATOM      2  C13 <0> d   1      19.376   1.111  10.541  0.00  0.00     0.123 C 
ATOM      3  C16 <0> d   1      20.005  -0.013   9.682  0.00  0.00     0.037 C 
ATOM      4  C17 <0> d   1      18.821  -0.959   9.434  0.00  0.00    -0.003 C 
ATOM      5  C19 <0> d   1      19.029  -1.966   8.347  0.00  0.00     0.047 C 
ATOM      6  C20 <0> d   1      18.857  -1.407   6.964  0.00  0.00    -0.018 A 
ATOM      7  C21 <0> d   1      19.296  -2.175   5.887  0.00  0.00     0.076 A 
ATOM      8  C27 <0> d   1      19.141  -1.716   4.589  0.00  0.00     0.037 A 
ATOM      9  C28 <0> d   1      18.545  -0.492   4.365  0.00  0.00     0.003 A 
ATOM     10  C29 <0> d   1      18.117   0.271   5.432  0.00  0.00     0.008 A 
ATOM     11  C30 <0> d   1      18.281  -0.179   6.738  0.00  0.00    -0.049 A 
ATOM     12  C31 <0> d   1      17.846   0.727   7.849  0.00  0.00     0.044 C 
ATOM     13  C32 <0> d   1      17.646   0.001   9.159  0.00  0.00     0.001 C 
ENDROOT
BRANCH   1  14
ATOM     14  C10 <0> d   1      17.088   0.723  11.520  0.00  0.00     0.010 C 
BRANCH  14  15
ATOM     15  C9  <0> d   1      17.684   1.471  12.715  0.00  0.00     0.032 C 
BRANCH  15  16
ATOM     16  C6  <0> d   1      18.024   0.472  13.823  0.00  0.00     0.118 C 
BRANCH  16  17
ATOM     17  C5  <0> d   1      17.730  -0.949  13.335  0.00  0.00     0.032 C 
BRANCH  17  18
ATOM     18  C4  <0> d   1      19.047  -1.691  13.099  0.00  0.00     0.002 C 
BRANCH  18  19
ATOM     19  C3  <0> d   1      18.771  -2.993  12.345  0.00  0.00    -0.000 C 
BRANCH  19  20
ATOM     20  C2  <0> d   1      20.077  -3.523  11.749  0.00  0.00    -0.005 C 
ATOM     21  C1  <0> d   1      19.761  -4.599  10.707  0.00  0.00     0.005 C 
ENDBRANCH  19  20
ENDBRANCH  18  19
ENDBRANCH  17  18
ENDBRANCH  16  17
BRANCH  16  22
ATOM     22  O8  <0> d   1      17.232   0.753  14.977  0.00  0.00    -0.396 OA
ATOM     23  H45 <0> d   1      16.283   0.620  14.846  0.00  0.00     0.210 HD
ENDBRANCH  16  22
ENDBRANCH  15  16
ENDBRANCH  14  15
ENDBRANCH   1  14
BRANCH   2  24
ATOM     24  O15 <0> d   1      19.926   2.377  10.171  0.00  0.00    -0.395 OA
ATOM     25  H50 <0> d   1      20.334   2.858  10.905  0.00  0.00     0.210 HD
ENDBRANCH   2  24
BRANCH   7  26
ATOM     26  O22 <0> d   1      19.880  -3.381   6.112  0.00  0.00    -0.340 OA
BRANCH  26  27
ATOM     27  C23 <0> d   1      19.046  -4.537   5.996  0.00  0.00     0.288 C 
BRANCH  27  28
ATOM     28  C24 <0> d   1      19.597  -5.642   6.860  0.00  0.00     0.198 C 
ATOM     29  O25 <0> d   1      20.766  -5.619   7.208  0.00  0.00    -0.646 OA
ATOM     30  O26 <0> d   1      18.875  -6.560   7.211  0.00  0.00    -0.646 OA
ENDBRANCH  27  28
ENDBRANCH  26  27
ENDBRANCH   7  26
TORSDOF 12
ENDMDL
MODEL 3
REMARK VINA RESULT:      -7.4      2.188      8.054
REMARK  12 active torsions:
REMARK  status: ('A' for Active; 'I' for Inactive)
REMARK    1  A    between atoms: C2_2  and  C3_3 
REMARK    2  A    between atoms: C3_3  and  C4_4 
REMARK    3  A    between atoms: C4_4  and  C5_5 
REMARK    4  A    between atoms: C5_5  and  C6_6 
REMARK    5  A    between atoms: C6_6  and  O8_7 
REMARK    6  A    between atoms: C6_6  and  C9_8 
REMARK    7  A    between atoms: C9_8  and  C10_9 
REMARK    8  A    between atoms: C10_9  and  C11_10 
REMARK    9  A    between atoms: C13_11  and  O15_12 
REMARK   10  A    between atoms: C21_17  and  O22_18 
REMARK   11  A    between atoms: O22_18  and  C23_19 
REMARK   12  A    between atoms: C23_19  and  C24_20 
ROOT
ATOM      1  C11 <0> d   1      18.737   3.548  11.171  0.00  0.00     0.019 C 
ATOM      2  C13 <0> d   1      19.824   2.710  11.872  0.00  0.00     0.123 C 
ATOM      3  C16 <0> d   1      19.648   1.254  11.376  0.00  0.00     0.037 C 
ATOM      4  C17 <0> d   1      18.182   1.220  10.924  0.00  0.00    -0.003 C 
ATOM      5  C19 <0> d   1      17.804   0.047  10.076  0.00  0.00     0.047 C 
ATOM      6  C20 <0> d   1      18.231   0.174   8.642  0.00  0.00    -0.018 A 
ATOM      7  C21 <0> d   1      18.181  -0.964   7.839  0.00  0.00     0.076 A 
ATOM      8  C27 <0> d   1      18.543  -0.897   6.504  0.00  0.00     0.037 A 
ATOM      9  C28 <0> d   1      18.951   0.307   5.967  0.00  0.00     0.003 A 
ATOM     10  C29 <0> d   1      19.007   1.432   6.765  0.00  0.00     0.008 A 
ATOM     11  C30 <0> d   1      18.657   1.368   8.110  0.00  0.00    -0.049 A 
ATOM     12  C31 <0> d   1      18.797   2.615   8.928  0.00  0.00     0.044 C 
ATOM     13  C32 <0> d   1      17.996   2.573  10.208  0.00  0.00     0.001 C 
ENDROOT
BRANCH   1  14
ATOM     14  C10 <0> d   1      17.760   4.113  12.204  0.00  0.00     0.010 C 
BRANCH  14  15
ATOM     15  C9  <0> d   1      18.544   4.757  13.349  0.00  0.00     0.032 C 
BRANCH  15  16
ATOM     16  C6  <0> d   1      17.948   4.314  14.687  0.00  0.00     0.118 C 
BRANCH  16  17
ATOM     17  C5  <0> d   1      17.871   2.786  14.729  0.00  0.00     0.032 C 
BRANCH  17  18
ATOM     18  C4  <0> d   1      19.073   2.236  15.501  0.00  0.00     0.002 C 
BRANCH  18  19
ATOM     19  C3  <0> d   1      19.226   0.741  15.209  0.00  0.00    -0.000 C 
BRANCH  19  20
ATOM     20  C2  <0> d   1      17.980   0.234  14.480  0.00  0.00    -0.005 C 
ATOM     21  C1  <0> d   1      18.267  -1.142  13.877  0.00  0.00     0.005 C 
ENDBRANCH  19  20
ENDBRANCH  18  19
ENDBRANCH  17  18
ENDBRANCH  16  17
BRANCH  16  22
ATOM     22  O8  <0> d   1      16.637   4.860  14.829  0.00  0.00    -0.396 OA
ATOM     23  H45 <0> d   1      16.126   4.476  15.556  0.00  0.00     0.210 HD
ENDBRANCH  16  22
ENDBRANCH  15  16
ENDBRANCH  14  15
ENDBRANCH   1  14
BRANCH   2  24
ATOM     24  O15 <0> d   1      21.121   3.196  11.517  0.00  0.00    -0.395 OA
ATOM     25  H50 <0> d   1      21.641   2.576  10.987  0.00  0.00     0.210 HD
ENDBRANCH   2  24
BRANCH   7  26
ATOM     26  O22 <0> d   1      17.776  -2.147   8.371  0.00  0.00    -0.340 OA
BRANCH  26  27
ATOM     27  C23 <0> d   1      18.793  -3.107   8.666  0.00  0.00     0.288 C 
BRANCH  27  28
ATOM     28  C24 <0> d   1      18.588  -3.644  10.059  0.00  0.00     0.198 C 
ATOM     29  O25 <0> d   1      17.552  -4.221  10.344  0.00  0.00    -0.646 OA
ATOM     30  O26 <0> d   1      19.457  -3.503  10.902  0.00  0.00    -0.646 OA
ENDBRANCH  27  28
ENDBRANCH  26  27
ENDBRANCH   7  26
TORSDOF 12
ENDMDL
MODEL 4
REMARK VINA RESULT:      -7.2      1.268      2.272
REMARK  12 active torsions:
REMARK  status: ('A' for Active; 'I' for Inactive)
REMARK    1  A    between atoms: C2_2  and  C3_3 
REMARK    2  A    between atoms: C3_3  and  C4_4 
REMARK    3  A    between atoms: C4_4  and  C5_5 
REMARK    4  A    between atoms: C5_5  and  C6_6 
REMARK    5  A    between atoms: C6_6  and  O8_7 
REMARK    6  A    between atoms: C6_6  and  C9_8 
REMARK    7  A    between atoms: C9_8  and  C10_9 
REMARK    8  A    between atoms: C10_9  and  C11_10 
REMARK    9  A    between atoms: C13_11  and  O15_12 
REMARK   10  A    between atoms: C21_17  and  O22_18 
REMARK   11  A    between atoms: O22_18  and  C23_19 
REMARK   12  A    between atoms: C23_19  and  C24_20 
ROOT
ATOM      1  C11 <0> d   1      17.829  -0.945  12.707  0.00  0.00     0.019 C 
ATOM      2  C13 <0> d   1      19.341  -0.966  12.410  0.00  0.00     0.123 C 
ATOM      3  C16 <0> d   1      19.977   0.145  13.282  0.00  0.00     0.037 C 
ATOM      4  C17 <0> d   1      18.796   1.090  13.548  0.00  0.00    -0.003 C 
ATOM      5  C19 <0> d   1      19.010   2.081  14.648  0.00  0.00     0.047 C 
ATOM      6  C20 <0> d   1      18.844   1.504  16.025  0.00  0.00    -0.018 A 
ATOM      7  C21 <0> d   1      19.289   2.255  17.110  0.00  0.00     0.076 A 
ATOM      8  C27 <0> d   1      19.139   1.779  18.402  0.00  0.00     0.037 A 
ATOM      9  C28 <0> d   1      18.542   0.553  18.612  0.00  0.00     0.003 A 
ATOM     10  C29 <0> d   1      18.108  -0.194  17.536  0.00  0.00     0.008 A 
ATOM     11  C30 <0> d   1      18.267   0.274  16.236  0.00  0.00    -0.049 A 
ATOM     12  C31 <0> d   1      17.825  -0.617  15.114  0.00  0.00     0.044 C 
ATOM     13  C32 <0> d   1      17.621   0.128  13.816  0.00  0.00     0.001 C 
ENDROOT
BRANCH   1  14
ATOM     14  C10 <0> d   1      17.050  -0.560  11.447  0.00  0.00     0.010 C 
BRANCH  14  15
ATOM     15  C9  <0> d   1      17.998  -0.545  10.246  0.00  0.00     0.032 C 
BRANCH  15  16
ATOM     16  C6  <0> d   1      17.830   0.769   9.481  0.00  0.00     0.118 C 
BRANCH  16  17
ATOM     17  C5  <0> d   1      19.182   1.203   8.912  0.00  0.00     0.032 C 
BRANCH  17  18
ATOM     18  C4  <0> d   1      19.003   1.662   7.463  0.00  0.00     0.002 C 
BRANCH  18  19
ATOM     19  C3  <0> d   1      18.216   0.603   6.687  0.00  0.00    -0.000 C 
BRANCH  19  20
ATOM     20  C2  <0> d   1      19.177  -0.467   6.167  0.00  0.00    -0.005 C 
ATOM     21  C1  <0> d   1      18.779  -1.830   6.739  0.00  0.00     0.005 C 
ENDBRANCH  19  20
ENDBRANCH  18  19
ENDBRANCH  17  18
ENDBRANCH  16  17
BRANCH  16  22
ATOM     22  O8  <0> d   1      17.340   1.777  10.366  0.00  0.00    -0.396 OA
ATOM     23  H45 <0> d   1      18.020   2.169  10.931  0.00  0.00     0.210 HD
ENDBRANCH  16  22
ENDBRANCH  15  16
ENDBRANCH  14  15
ENDBRANCH   1  14
BRANCH   2  24
ATOM     24  O15 <0> d   1      19.891  -2.238  12.760  0.00  0.00    -0.395 OA
ATOM     25  H50 <0> d   1      19.866  -2.430  13.708  0.00  0.00     0.210 HD
ENDBRANCH   2  24
BRANCH   7  26
ATOM     26  O22 <0> d   1      19.874   3.464  16.899  0.00  0.00    -0.340 OA
BRANCH  26  27
ATOM     27  C23 <0> d   1      19.022   4.611  16.930  0.00  0.00     0.288 C 
BRANCH  27  28
ATOM     28  C24 <0> d   1      19.713   5.768  16.255  0.00  0.00     0.198 C 
ATOM     29  O25 <0> d   1      19.185   6.867  16.237  0.00  0.00    -0.646 OA
ATOM     30  O26 <0> d   1      20.800   5.606  15.727  0.00  0.00    -0.646 OA
ENDBRANCH  27  28
ENDBRANCH  26  27
ENDBRANCH   7  26
TORSDOF 12
ENDMDL
MODEL 5
REMARK VINA RESULT:      -7.2      2.775      8.890
REMARK  12 active torsions:
REMARK  status: ('A' for Active; 'I' for Inactive)
REMARK    1  A    between atoms: C2_2  and  C3_3 
REMARK    2  A    between atoms: C3_3  and  C4_4 
REMARK    3  A    between atoms: C4_4  and  C5_5 
REMARK    4  A    between atoms: C5_5  and  C6_6 
REMARK    5  A    between atoms: C6_6  and  O8_7 
REMARK    6  A    between atoms: C6_6  and  C9_8 
REMARK    7  A    between atoms: C9_8  and  C10_9 
REMARK    8  A    between atoms: C10_9  and  C11_10 
REMARK    9  A    between atoms: C13_11  and  O15_12 
REMARK   10  A    between atoms: C21_17  and  O22_18 
REMARK   11  A    between atoms: O22_18  and  C23_19 
REMARK   12  A    between atoms: C23_19  and  C24_20 
ROOT
ATOM      1  C11 <0> d   1      18.534   1.877  11.436  0.00  0.00     0.019 C 
ATOM      2  C13 <0> d   1      19.837   1.175  11.868  0.00  0.00     0.123 C 
ATOM      3  C16 <0> d   1      19.984  -0.076  10.968  0.00  0.00     0.037 C 
ATOM      4  C17 <0> d   1      18.541  -0.346  10.517  0.00  0.00    -0.003 C 
ATOM      5  C19 <0> d   1      18.402  -1.286   9.361  0.00  0.00     0.047 C 
ATOM      6  C20 <0> d   1      18.687  -0.654   8.029  0.00  0.00    -0.018 A 
ATOM      7  C21 <0> d   1      18.859  -1.492   6.929  0.00  0.00     0.076 A 
ATOM      8  C27 <0> d   1      19.103  -0.960   5.674  0.00  0.00     0.037 A 
ATOM      9  C28 <0> d   1      19.171   0.409   5.514  0.00  0.00     0.003 A 
ATOM     10  C29 <0> d   1      19.008   1.238   6.606  0.00  0.00     0.008 A 
ATOM     11  C30 <0> d   1      18.776   0.709   7.871  0.00  0.00    -0.049 A 
ATOM     12  C31 <0> d   1      18.666   1.666   9.019  0.00  0.00     0.044 C 
ATOM     13  C32 <0> d   1      17.987   1.063  10.226  0.00  0.00     0.001 C 
ENDROOT
BRANCH   1  14
ATOM     14  C10 <0> d   1      17.522   1.862  12.583  0.00  0.00     0.010 C 
BRANCH  14  15
ATOM     15  C9  <0> d   1      17.996   2.801  13.694  0.00  0.00     0.032 C 
BRANCH  15  16
ATOM     16  C6  <0> d   1      18.353   1.981  14.936  0.00  0.00     0.118 C 
BRANCH  16  17
ATOM     17  C5  <0> d   1      17.638   0.630  14.877  0.00  0.00     0.032 C 
BRANCH  17  18
ATOM     18  C4  <0> d   1      18.642  -0.492  15.150  0.00  0.00     0.002 C 
BRANCH  18  19
ATOM     19  C3  <0> d   1      18.124  -1.374  16.288  0.00  0.00    -0.000 C 
BRANCH  19  20
ATOM     20  C2  <0> d   1      17.909  -0.518  17.538  0.00  0.00    -0.005 C 
ATOM     21  C1  <0> d   1      19.265  -0.142  18.138  0.00  0.00     0.005 C 
ENDBRANCH  19  20
ENDBRANCH  18  19
ENDBRANCH  17  18
ENDBRANCH  16  17
BRANCH  16  22
ATOM     22  O8  <0> d   1      17.943   2.687  16.107  0.00  0.00    -0.396 OA
ATOM     23  H45 <0> d   1      17.877   2.133  16.898  0.00  0.00     0.210 HD
ENDBRANCH  16  22
ENDBRANCH  15  16
ENDBRANCH  14  15
ENDBRANCH   1  14
BRANCH   2  24
ATOM     24  O15 <0> d   1      20.950   2.050  11.679  0.00  0.00    -0.395 OA
ATOM     25  H50 <0> d   1      21.611   2.004  12.384  0.00  0.00     0.210 HD
ENDBRANCH   2  24
BRANCH   7  26
ATOM     26  O22 <0> d   1      18.788  -2.839   7.090  0.00  0.00    -0.340 OA
BRANCH  26  27
ATOM     27  C23 <0> d   1      19.864  -3.614   6.553  0.00  0.00     0.288 C 
BRANCH  27  28
ATOM     28  C24 <0> d   1      19.848  -4.989   7.169  0.00  0.00     0.198 C 
ATOM     29  O25 <0> d   1      20.876  -5.642   7.228  0.00  0.00    -0.646 OA
ATOM     30  O26 <0> d   1      18.808  -5.450   7.607  0.00  0.00    -0.646 OA
ENDBRANCH  27  28
ENDBRANCH  26  27
ENDBRANCH   7  26
TORSDOF 12
ENDMDL
MODEL 6
REMARK VINA RESULT:      -7.1      2.851      8.612
REMARK  12 active torsions:
REMARK  status: ('A' for Active; 'I' for Inactive)
REMARK    1  A    between atoms: C2_2  and  C3_3 
REMARK    2  A    between atoms: C3_3  and  C4_4 
REMARK    3  A    between atoms: C4_4  and  C5_5 
REMARK    4  A    between atoms: C5_5  and  C6_6 
REMARK    5  A    between atoms: C6_6  and  O8_7 
REMARK    6  A    between atoms: C6_6  and  C9_8 
REMARK    7  A    between atoms: C9_8  and  C10_9 
REMARK    8  A    between atoms: C10_9  and  C11_10 
REMARK    9  A    between atoms: C13_11  and  O15_12 
REMARK   10  A    between atoms: C21_17  and  O22_18 
REMARK   11  A    between atoms: O22_18  and  C23_19 
REMARK   12  A    between atoms: C23_19  and  C24_20 
ROOT
ATOM      1  C11 <0> d   1      18.418   1.060  11.095  0.00  0.00     0.019 C 
ATOM      2  C13 <0> d   1      19.555   0.090  11.475  0.00  0.00     0.123 C 
ATOM      3  C16 <0> d   1      19.564  -1.022  10.398  0.00  0.00     0.037 C 
ATOM      4  C17 <0> d   1      18.134  -0.973   9.841  0.00  0.00    -0.003 C 
ATOM      5  C19 <0> d   1      17.930  -1.696   8.547  0.00  0.00     0.047 C 
ATOM      6  C20 <0> d   1      18.411  -0.935   7.346  0.00  0.00    -0.018 A 
ATOM      7  C21 <0> d   1      18.526  -1.619   6.138  0.00  0.00     0.076 A 
ATOM      8  C27 <0> d   1      18.944  -0.959   4.994  0.00  0.00     0.037 A 
ATOM      9  C28 <0> d   1      19.244   0.386   5.054  0.00  0.00     0.003 A 
ATOM     10  C29 <0> d   1      19.137   1.062   6.253  0.00  0.00     0.008 A 
ATOM     11  C30 <0> d   1      18.730   0.401   7.407  0.00  0.00    -0.049 A 
ATOM     12  C31 <0> d   1      18.691   1.185   8.684  0.00  0.00     0.044 C 
ATOM     13  C32 <0> d   1      17.837   0.537   9.748  0.00  0.00     0.001 C 
ENDROOT
BRANCH   1  14
ATOM     14  C10 <0> d   1      17.335   1.051  12.176  0.00  0.00     0.010 C 
BRANCH  14  15
ATOM     15  C9  <0> d   1      17.926   0.525  13.486  0.00  0.00     0.032 C 
BRANCH  15  16
ATOM     16  C6  <0> d   1      18.378   1.704  14.350  0.00  0.00     0.118 C 
BRANCH  16  17
ATOM     17  C5  <0> d   1      17.857   3.009  13.743  0.00  0.00     0.032 C 
BRANCH  17  18
ATOM     18  C4  <0> d   1      19.004   4.017  13.639  0.00  0.00     0.002 C 
BRANCH  18  19
ATOM     19  C3  <0> d   1      19.054   4.590  12.221  0.00  0.00    -0.000 C 
BRANCH  19  20
ATOM     20  C2  <0> d   1      17.629   4.753  11.688  0.00  0.00    -0.005 C 
ATOM     21  C1  <0> d   1      17.633   4.587  10.166  0.00  0.00     0.005 C 
ENDBRANCH  19  20
ENDBRANCH  18  19
ENDBRANCH  17  18
ENDBRANCH  16  17
BRANCH  16  22
ATOM     22  O8  <0> d   1      19.804   1.739  14.401  0.00  0.00    -0.396 OA
ATOM     23  H45 <0> d   1      20.228   1.795  13.533  0.00  0.00     0.210 HD
ENDBRANCH  16  22
ENDBRANCH  15  16
ENDBRANCH  14  15
ENDBRANCH   1  14
BRANCH   2  24
ATOM     24  O15 <0> d   1      20.806   0.781  11.478  0.00  0.00    -0.395 OA
ATOM     25  H50 <0> d   1      20.927   1.379  10.727  0.00  0.00     0.210 HD
ENDBRANCH   2  24
BRANCH   7  26
ATOM     26  O22 <0> d   1      18.227  -2.944   6.082  0.00  0.00    -0.340 OA
BRANCH  26  27
ATOM     27  C23 <0> d   1      19.294  -3.836   5.752  0.00  0.00     0.288 C 
BRANCH  27  28
ATOM     28  C24 <0> d   1      19.576  -4.739   6.925  0.00  0.00     0.198 C 
ATOM     29  O25 <0> d   1      18.672  -5.059   7.679  0.00  0.00    -0.646 OA
ATOM     30  O26 <0> d   1      20.707  -5.150   7.122  0.00  0.00    -0.646 OA
ENDBRANCH  27  28
ENDBRANCH  26  27
ENDBRANCH   7  26
TORSDOF 12
ENDMDL
MODEL 7
REMARK VINA RESULT:      -6.9      3.494      7.893
REMARK  12 active torsions:
REMARK  status: ('A' for Active; 'I' for Inactive)
REMARK    1  A    between atoms: C2_2  and  C3_3 
REMARK    2  A    between atoms: C3_3  and  C4_4 
REMARK    3  A    between atoms: C4_4  and  C5_5 
REMARK    4  A    between atoms: C5_5  and  C6_6 
REMARK    5  A    between atoms: C6_6  and  O8_7 
REMARK    6  A    between atoms: C6_6  and  C9_8 
REMARK    7  A    between atoms: C9_8  and  C10_9 
REMARK    8  A    between atoms: C10_9  and  C11_10 
REMARK    9  A    between atoms: C13_11  and  O15_12 
REMARK   10  A    between atoms: C21_17  and  O22_18 
REMARK   11  A    between atoms: O22_18  and  C23_19 
REMARK   12  A    between atoms: C23_19  and  C24_20 
ROOT
ATOM      1  C11 <0> d   1      17.909  -0.583  12.459  0.00  0.00     0.019 C 
ATOM      2  C13 <0> d   1      17.124   0.073  11.306  0.00  0.00     0.123 C 
ATOM      3  C16 <0> d   1      17.432  -0.756  10.035  0.00  0.00     0.037 C 
ATOM      4  C17 <0> d   1      18.771  -1.424  10.377  0.00  0.00    -0.003 C 
ATOM      5  C19 <0> d   1      19.162  -2.560   9.485  0.00  0.00     0.047 C 
ATOM      6  C20 <0> d   1      18.454  -3.847   9.797  0.00  0.00    -0.018 A 
ATOM      7  C21 <0> d   1      18.530  -4.880   8.865  0.00  0.00     0.076 A 
ATOM      8  C27 <0> d   1      17.914  -6.095   9.114  0.00  0.00     0.037 A 
ATOM      9  C28 <0> d   1      17.223  -6.281  10.294  0.00  0.00     0.003 A 
ATOM     10  C29 <0> d   1      17.141  -5.254  11.212  0.00  0.00     0.008 A 
ATOM     11  C30 <0> d   1      17.748  -4.028  10.963  0.00  0.00    -0.049 A 
ATOM     12  C31 <0> d   1      17.570  -2.941  11.979  0.00  0.00     0.044 C 
ATOM     13  C32 <0> d   1      18.598  -1.841  11.852  0.00  0.00     0.001 C 
ENDROOT
BRANCH   1  14
ATOM     14  C10 <0> d   1      18.962   0.387  12.998  0.00  0.00     0.010 C 
BRANCH  14  15
ATOM     15  C9  <0> d   1      18.586   1.817  12.606  0.00  0.00     0.032 C 
BRANCH  15  16
ATOM     16  C6  <0> d   1      19.752   2.462  11.853  0.00  0.00     0.118 C 
BRANCH  16  17
ATOM     17  C5  <0> d   1      19.348   2.700  10.397  0.00  0.00     0.032 C 
BRANCH  17  18
ATOM     18  C4  <0> d   1      17.887   3.152  10.340  0.00  0.00     0.002 C 
BRANCH  18  19
ATOM     19  C3  <0> d   1      17.829   4.662  10.096  0.00  0.00    -0.000 C 
BRANCH  19  20
ATOM     20  C2  <0> d   1      16.631   5.253  10.841  0.00  0.00    -0.005 C 
ATOM     21  C1  <0> d   1      16.792   5.005  12.342  0.00  0.00     0.005 C 
ENDBRANCH  19  20
ENDBRANCH  18  19
ENDBRANCH  17  18
ENDBRANCH  16  17
BRANCH  16  22
ATOM     22  O8  <0> d   1      20.885   1.595  11.897  0.00  0.00    -0.396 OA
ATOM     23  H45 <0> d   1      20.698   0.687  11.620  0.00  0.00     0.210 HD
ENDBRANCH  16  22
ENDBRANCH  15  16
ENDBRANCH  14  15
ENDBRANCH   1  14
BRANCH   2  24
ATOM     24  O15 <0> d   1      15.723   0.038  11.586  0.00  0.00    -0.395 OA
ATOM     25  H50 <0> d   1      15.391  -0.838  11.824  0.00  0.00     0.210 HD
ENDBRANCH   2  24
BRANCH   7  26
ATOM     26  O22 <0> d   1      19.213  -4.694   7.705  0.00  0.00    -0.340 OA
BRANCH  26  27
ATOM     27  C23 <0> d   1      18.444  -4.632   6.502  0.00  0.00     0.288 C 
BRANCH  27  28
ATOM     28  C24 <0> d   1      18.811  -3.389   5.734  0.00  0.00     0.198 C 
ATOM     29  O25 <0> d   1      19.956  -2.969   5.764  0.00  0.00    -0.646 OA
ATOM     30  O26 <0> d   1      17.965  -2.802   5.082  0.00  0.00    -0.646 OA
ENDBRANCH  27  28
ENDBRANCH  26  27
ENDBRANCH   7  26
TORSDOF 12
ENDMDL
MODEL 8
REMARK VINA RESULT:      -6.8      2.622      5.283
REMARK  12 active torsions:
REMARK  status: ('A' for Active; 'I' for Inactive)
REMARK    1  A    between atoms: C2_2  and  C3_3 
REMARK    2  A    between atoms: C3_3  and  C4_4 
REMARK    3  A    between atoms: C4_4  and  C5_5 
REMARK    4  A    between atoms: C5_5  and  C6_6 
REMARK    5  A    between atoms: C6_6  and  O8_7 
REMARK    6  A    between atoms: C6_6  and  C9_8 
REMARK    7  A    between atoms: C9_8  and  C10_9 
REMARK    8  A    between atoms: C10_9  and  C11_10 
REMARK    9  A    between atoms: C13_11  and  O15_12 
REMARK   10  A    between atoms: C21_17  and  O22_18 
REMARK   11  A    between atoms: O22_18  and  C23_19 
REMARK   12  A    between atoms: C23_19  and  C24_20 
ROOT
ATOM      1  C11 <0> d   1      18.324   1.883   9.246  0.00  0.00     0.019 C 
ATOM      2  C13 <0> d   1      18.196   0.711  10.239  0.00  0.00     0.123 C 
ATOM      3  C16 <0> d   1      18.630   1.254  11.622  0.00  0.00     0.037 C 
ATOM      4  C17 <0> d   1      19.514   2.455  11.257  0.00  0.00    -0.003 C 
ATOM      5  C19 <0> d   1      19.807   3.395  12.383  0.00  0.00     0.047 C 
ATOM      6  C20 <0> d   1      18.678   4.336  12.695  0.00  0.00    -0.018 A 
ATOM      7  C21 <0> d   1      18.732   5.053  13.888  0.00  0.00     0.076 A 
ATOM      8  C27 <0> d   1      17.729   5.950  14.213  0.00  0.00     0.037 A 
ATOM      9  C28 <0> d   1      16.671   6.135  13.346  0.00  0.00     0.003 A 
ATOM     10  C29 <0> d   1      16.614   5.418  12.168  0.00  0.00     0.008 A 
ATOM     11  C30 <0> d   1      17.613   4.507  11.842  0.00  0.00    -0.049 A 
ATOM     12  C31 <0> d   1      17.457   3.723  10.575  0.00  0.00     0.044 C 
ATOM     13  C32 <0> d   1      18.754   3.119  10.091  0.00  0.00     0.001 C 
ENDROOT
BRANCH   1  14
ATOM     14  C10 <0> d   1      19.390   1.568   8.194  0.00  0.00     0.010 C 
BRANCH  14  15
ATOM     15  C9  <0> d   1      18.743   0.835   7.017  0.00  0.00     0.032 C 
BRANCH  15  16
ATOM     16  C6  <0> d   1      18.893  -0.675   7.212  0.00  0.00     0.118 C 
BRANCH  16  17
ATOM     17  C5  <0> d   1      19.262  -1.327   5.878  0.00  0.00     0.032 C 
BRANCH  17  18
ATOM     18  C4  <0> d   1      18.492  -0.644   4.746  0.00  0.00     0.002 C 
BRANCH  18  19
ATOM     19  C3  <0> d   1      17.330  -1.539   4.307  0.00  0.00    -0.000 C 
BRANCH  19  20
ATOM     20  C2  <0> d   1      17.715  -3.006   4.505  0.00  0.00    -0.005 C 
ATOM     21  C1  <0> d   1      17.016  -3.863   3.447  0.00  0.00     0.005 C 
ENDBRANCH  19  20
ENDBRANCH  18  19
ENDBRANCH  17  18
ENDBRANCH  16  17
BRANCH  16  22
ATOM     22  O8  <0> d   1      17.660  -1.220   7.683  0.00  0.00    -0.396 OA
ATOM     23  H45 <0> d   1      17.582  -1.241   8.647  0.00  0.00     0.210 HD
ENDBRANCH  16  22
ENDBRANCH  15  16
ENDBRANCH  14  15
ENDBRANCH   1  14
BRANCH   2  24
ATOM     24  O15 <0> d   1      16.840   0.262  10.292  0.00  0.00    -0.395 OA
ATOM     25  H50 <0> d   1      16.663  -0.371  11.002  0.00  0.00     0.210 HD
ENDBRANCH   2  24
BRANCH   7  26
ATOM     26  O22 <0> d   1      19.777   4.870  14.738  0.00  0.00    -0.340 OA
BRANCH  26  27
ATOM     27  C23 <0> d   1      19.471   4.783  16.132  0.00  0.00     0.288 C 
BRANCH  27  28
ATOM     28  C24 <0> d   1      19.539   3.344  16.572  0.00  0.00     0.198 C 
ATOM     29  O25 <0> d   1      19.317   2.450  15.772  0.00  0.00    -0.646 OA
ATOM     30  O26 <0> d   1      19.814   3.071  17.728  0.00  0.00    -0.646 OA
ENDBRANCH  27  28
ENDBRANCH  26  27
ENDBRANCH   7  26
TORSDOF 12
ENDMDL
MODEL 9
REMARK VINA RESULT:      -6.8      2.292      3.415
REMARK  12 active torsions:
REMARK  status: ('A' for Active; 'I' for Inactive)
REMARK    1  A    between atoms: C2_2  and  C3_3 
REMARK    2  A    between atoms: C3_3  and  C4_4 
REMARK    3  A    between atoms: C4_4  and  C5_5 
REMARK    4  A    between atoms: C5_5  and  C6_6 
REMARK    5  A    between atoms: C6_6  and  O8_7 
REMARK    6  A    between atoms: C6_6  and  C9_8 
REMARK    7  A    between atoms: C9_8  and  C10_9 
REMARK    8  A    between atoms: C10_9  and  C11_10 
REMARK    9  A    between atoms: C13_11  and  O15_12 
REMARK   10  A    between atoms: C21_17  and  O22_18 
REMARK   11  A    between atoms: O22_18  and  C23_19 
REMARK   12  A    between atoms: C23_19  and  C24_20 
ROOT
ATOM      1  C11 <0> d   1      18.937  -1.237  11.102  0.00  0.00     0.019 C 
ATOM      2  C13 <0> d   1      20.212  -0.393  10.901  0.00  0.00     0.123 C 
ATOM      3  C16 <0> d   1      20.197   0.698  11.999  0.00  0.00     0.037 C 
ATOM      4  C17 <0> d   1      18.709   0.799  12.362  0.00  0.00    -0.003 C 
ATOM      5  C19 <0> d   1      18.413   1.524  13.638  0.00  0.00     0.047 C 
ATOM      6  C20 <0> d   1      18.645   0.700  14.871  0.00  0.00    -0.018 A 
ATOM      7  C21 <0> d   1      18.671   1.352  16.102  0.00  0.00     0.076 A 
ATOM      8  C27 <0> d   1      18.860   0.636  17.271  0.00  0.00     0.037 A 
ATOM      9  C28 <0> d   1      19.020  -0.734  17.215  0.00  0.00     0.003 A 
ATOM     10  C29 <0> d   1      19.001  -1.378  15.995  0.00  0.00     0.008 A 
ATOM     11  C30 <0> d   1      18.824  -0.662  14.816  0.00  0.00    -0.049 A 
ATOM     12  C31 <0> d   1      18.872  -1.421  13.524  0.00  0.00     0.044 C 
ATOM     13  C32 <0> d   1      18.241  -0.670  12.375  0.00  0.00     0.001 C 
ENDROOT
BRANCH   1  14
ATOM     14  C10 <0> d   1      18.015  -1.095   9.890  0.00  0.00     0.010 C 
BRANCH  14  15
ATOM     15  C9  <0> d   1      18.826  -1.283   8.606  0.00  0.00     0.032 C 
BRANCH  15  16
ATOM     16  C6  <0> d   1      18.819  -2.761   8.211  0.00  0.00     0.118 C 
BRANCH  16  17
ATOM     17  C5  <0> d   1      19.572  -2.939   6.891  0.00  0.00     0.032 C 
BRANCH  17  18
ATOM     18  C4  <0> d   1      18.568  -3.094   5.747  0.00  0.00     0.002 C 
BRANCH  18  19
ATOM     19  C3  <0> d   1      19.050  -2.298   4.533  0.00  0.00    -0.000 C 
BRANCH  19  20
ATOM     20  C2  <0> d   1      18.299  -0.967   4.465  0.00  0.00    -0.005 C 
ATOM     21  C1  <0> d   1      19.229   0.166   4.902  0.00  0.00     0.005 C 
ENDBRANCH  19  20
ENDBRANCH  18  19
ENDBRANCH  17  18
ENDBRANCH  16  17
BRANCH  16  22
ATOM     22  O8  <0> d   1      17.471  -3.206   8.054  0.00  0.00    -0.396 OA
ATOM     23  H45 <0> d   1      17.202  -3.329   7.133  0.00  0.00     0.210 HD
ENDBRANCH  16  22
ENDBRANCH  15  16
ENDBRANCH  14  15
ENDBRANCH   1  14
BRANCH   2  24
ATOM     24  O15 <0> d   1      21.371  -1.216  11.043  0.00  0.00    -0.395 OA
ATOM     25  H50 <0> d   1      21.194  -2.079  11.443  0.00  0.00     0.210 HD
ENDBRANCH   2  24
BRANCH   7  26
ATOM     26  O22 <0> d   1      18.511   2.701  16.153  0.00  0.00    -0.340 OA
BRANCH  26  27
ATOM     27  C23 <0> d   1      19.623   3.468  16.620  0.00  0.00     0.288 C 
BRANCH  27  28
ATOM     28  C24 <0> d   1      19.761   4.714  15.783  0.00  0.00     0.198 C 
ATOM     29  O25 <0> d   1      19.210   4.784  14.698  0.00  0.00    -0.646 OA
ATOM     30  O26 <0> d   1      20.425   5.652  16.190  0.00  0.00    -0.646 OA
ENDBRANCH  27  28
ENDBRANCH  26  27
ENDBRANCH   7  26
TORSDOF 12
ENDMDL
