MODEL 1
REMARK VINA RESULT:      -5.8      0.000      0.000
REMARK  16 active torsions:
REMARK  status: ('A' for Active; 'I' for Inactive)
REMARK    1  A    between atoms: C2_2  and  C4_4 
REMARK    2  A    between atoms: C4_4  and  N5_5 
REMARK    3  A    between atoms: N5_5  and  C6_6 
REMARK    4  A    between atoms: N5_5  and  C17_17 
REMARK    5  A    between atoms: C6_6  and  C7_7 
REMARK    6  A    between atoms: C7_7  and  N8_8 
REMARK    7  A    between atoms: N8_8  and  C9_9 
REMARK    8  A    between atoms: N8_8  and  C13_13 
REMARK    9  A    between atoms: C9_9  and  C10_10 
REMARK   10  A    between atoms: C13_13  and  C14_14 
REMARK   11  A    between atoms: C17_17  and  C18_18 
REMARK   12  A    between atoms: C18_18  and  N19_19 
REMARK   13  A    between atoms: N19_19  and  C20_20 
REMARK   14  A    between atoms: N19_19  and  C24_24 
REMARK   15  A    between atoms: C20_20  and  C21_21 
REMARK   16  A    between atoms: C24_24  and  C25_25 
ROOT
ATOM      1  N5  <0> d   1      19.587  -1.424   7.428  0.00  0.00     0.102 N 
ENDROOT
BRANCH   1   2
ATOM      2  C4  <0> d   1      18.627  -0.799   6.510  0.00  0.00     0.385 C 
BRANCH   2   3
ATOM      3  C2  <0> d   1      19.299  -0.527   5.188  0.00  0.00     0.202 C 
ATOM      4  O1  <0> d   1      19.272   0.594   4.709  0.00  0.00    -0.647 OA
ATOM      5  O3  <0> d   1      19.873  -1.428   4.600  0.00  0.00    -0.647 OA
ENDBRANCH   2   3
ENDBRANCH   1   2
BRANCH   1   6
ATOM      6  C6  <0> d   1      19.617  -0.723   8.718  0.00  0.00     0.303 C 
BRANCH   6   7
ATOM      7  C7  <0> d   1      18.780   0.554   8.624  0.00  0.00     0.304 C 
BRANCH   7   8
ATOM      8  N8  <0> d   1      18.293   0.919   9.961  0.00  0.00     0.110 N 
BRANCH   8   9
ATOM      9  C9  <0> d   1      18.500  -0.177  10.916  0.00  0.00     0.385 C 
BRANCH   9  10
ATOM     10  C10 <0> d   1      17.164  -0.679  11.401  0.00  0.00     0.202 C 
ATOM     11  O11 <0> d   1      16.242   0.102  11.563  0.00  0.00    -0.647 OA
ATOM     12  O12 <0> d   1      17.006  -1.866  11.630  0.00  0.00    -0.647 OA
ENDBRANCH   9  10
ENDBRANCH   8   9
BRANCH   8  13
ATOM     13  C13 <0> d   1      18.930   2.156  10.433  0.00  0.00     0.385 C 
BRANCH  13  14
ATOM     14  C14 <0> d   1      17.921   3.277  10.421  0.00  0.00     0.202 C 
ATOM     15  O15 <0> d   1      17.057   3.328  11.280  0.00  0.00    -0.647 OA
ATOM     16  O16 <0> d   1      17.970   4.131   9.552  0.00  0.00    -0.647 OA
ENDBRANCH  13  14
ENDBRANCH   8  13
ENDBRANCH   7   8
ENDBRANCH   6   7
ENDBRANCH   1   6
BRANCH   1  17
ATOM     17  C17 <0> d   1      19.288  -2.851   7.611  0.00  0.00     0.303 C 
BRANCH  17  18
ATOM     18  C18 <0> d   1      17.956  -3.002   8.348  0.00  0.00     0.304 C 
BRANCH  18  19
ATOM     19  N19 <0> d   1      18.012  -4.183   9.222  0.00  0.00     0.110 N 
BRANCH  19  20
ATOM     20  C20 <0> d   1      17.331  -5.327   8.604  0.00  0.00     0.385 C 
BRANCH  20  21
ATOM     21  C21 <0> d   1      15.963  -5.488   9.214  0.00  0.00     0.202 C 
ATOM     22  O22 <0> d   1      15.804  -5.310  10.410  0.00  0.00    -0.647 OA
ATOM     23  O23 <0> d   1      15.015  -5.798   8.513  0.00  0.00    -0.647 OA
ENDBRANCH  20  21
ENDBRANCH  19  20
BRANCH  19  24
ATOM     24  C24 <0> d   1      19.400  -4.518   9.566  0.00  0.00     0.385 C 
BRANCH  24  25
ATOM     25  C25 <0> d   1      19.597  -4.378  11.053  0.00  0.00     0.202 C 
ATOM     26  O26 <0> d   1      18.818  -4.911  11.824  0.00  0.00    -0.647 OA
ATOM     27  O27 <0> d   1      20.535  -3.731  11.485  0.00  0.00    -0.647 OA
ENDBRANCH  24  25
ENDBRANCH  19  24
ENDBRANCH  18  19
ENDBRANCH  17  18
ENDBRANCH   1  17
TORSDOF 16
ENDMDL
MODEL 2
REMARK VINA RESULT:      -5.8      1.506      2.490
REMARK  16 active torsions:
REMARK  status: ('A' for Active; 'I' for Inactive)
REMARK    1  A    between atoms: C2_2  and  C4_4 
REMARK    2  A    between atoms: C4_4  and  N5_5 
REMARK    3  A    between atoms: N5_5  and  C6_6 
REMARK    4  A    between atoms: N5_5  and  C17_17 
REMARK    5  A    between atoms: C6_6  and  C7_7 
REMARK    6  A    between atoms: C7_7  and  N8_8 
REMARK    7  A    between atoms: N8_8  and  C9_9 
REMARK    8  A    between atoms: N8_8  and  C13_13 
REMARK    9  A    between atoms: C9_9  and  C10_10 
REMARK   10  A    between atoms: C13_13  and  C14_14 
REMARK   11  A    between atoms: C17_17  and  C18_18 
REMARK   12  A    between atoms: C18_18  and  N19_19 
REMARK   13  A    between atoms: N19_19  and  C20_20 
REMARK   14  A    between atoms: N19_19  and  C24_24 
REMARK   15  A    between atoms: C20_20  and  C21_21 
REMARK   16  A    between atoms: C24_24  and  C25_25 
ROOT
ATOM      1  N5  <0> d   1      18.884  -0.692   7.634  0.00  0.00     0.102 N 
ENDROOT
BRANCH   1   2
ATOM      2  C4  <0> d   1      18.374  -1.169   6.343  0.00  0.00     0.385 C 
BRANCH   2   3
ATOM      3  C2  <0> d   1      19.274  -0.682   5.236  0.00  0.00     0.202 C 
ATOM      4  O1  <0> d   1      19.756  -1.477   4.447  0.00  0.00    -0.647 OA
ATOM      5  O3  <0> d   1      19.516   0.508   5.127  0.00  0.00    -0.647 OA
ENDBRANCH   2   3
ENDBRANCH   1   2
BRANCH   1   6
ATOM      6  C6  <0> d   1      17.979   0.304   8.223  0.00  0.00     0.303 C 
BRANCH   6   7
ATOM      7  C7  <0> d   1      18.797   1.469   8.782  0.00  0.00     0.304 C 
BRANCH   7   8
ATOM      8  N8  <0> d   1      18.239   1.885  10.076  0.00  0.00     0.110 N 
BRANCH   8   9
ATOM      9  C9  <0> d   1      18.556   0.907  11.125  0.00  0.00     0.385 C 
BRANCH   9  10
ATOM     10  C10 <0> d   1      17.315   0.612  11.928  0.00  0.00     0.202 C 
ATOM     11  O11 <0> d   1      17.372   0.574  13.145  0.00  0.00    -0.647 OA
ATOM     12  O12 <0> d   1      16.256   0.413  11.360  0.00  0.00    -0.647 OA
ENDBRANCH   9  10
ENDBRANCH   8   9
BRANCH   8  13
ATOM     13  C13 <0> d   1      18.708   3.226  10.446  0.00  0.00     0.385 C 
BRANCH  13  14
ATOM     14  C14 <0> d   1      17.540   4.178  10.473  0.00  0.00     0.202 C 
ATOM     15  O15 <0> d   1      17.522   5.143   9.727  0.00  0.00    -0.647 OA
ATOM     16  O16 <0> d   1      16.613   3.983  11.240  0.00  0.00    -0.647 OA
ENDBRANCH  13  14
ENDBRANCH   8  13
ENDBRANCH   7   8
ENDBRANCH   6   7
ENDBRANCH   1   6
BRANCH   1  17
ATOM     17  C17 <0> d   1      19.108  -1.812   8.558  0.00  0.00     0.303 C 
BRANCH  17  18
ATOM     18  C18 <0> d   1      18.597  -3.107   7.923  0.00  0.00     0.304 C 
BRANCH  18  19
ATOM     19  N19 <0> d   1      18.426  -4.129   8.965  0.00  0.00     0.110 N 
BRANCH  19  20
ATOM     20  C20 <0> d   1      19.726  -4.632   9.426  0.00  0.00     0.385 C 
BRANCH  20  21
ATOM     21  C21 <0> d   1      20.082  -5.880   8.661  0.00  0.00     0.202 C 
ATOM     22  O22 <0> d   1      19.283  -6.798   8.586  0.00  0.00    -0.647 OA
ATOM     23  O23 <0> d   1      21.169  -5.972   8.117  0.00  0.00    -0.647 OA
ENDBRANCH  20  21
ENDBRANCH  19  20
BRANCH  19  24
ATOM     24  C24 <0> d   1      17.633  -3.609  10.087  0.00  0.00     0.385 C 
BRANCH  24  25
ATOM     25  C25 <0> d   1      16.681  -4.674  10.566  0.00  0.00     0.202 C 
ATOM     26  O26 <0> d   1      16.343  -5.572   9.814  0.00  0.00    -0.647 OA
ATOM     27  O27 <0> d   1      16.249  -4.638  11.705  0.00  0.00    -0.647 OA
ENDBRANCH  24  25
ENDBRANCH  19  24
ENDBRANCH  18  19
ENDBRANCH  17  18
ENDBRANCH   1  17
TORSDOF 16
ENDMDL
MODEL 3
REMARK VINA RESULT:      -5.8      1.454      6.019
REMARK  16 active torsions:
REMARK  status: ('A' for Active; 'I' for Inactive)
REMARK    1  A    between atoms: C2_2  and  C4_4 
REMARK    2  A    between atoms: C4_4  and  N5_5 
REMARK    3  A    between atoms: N5_5  and  C6_6 
REMARK    4  A    between atoms: N5_5  and  C17_17 
REMARK    5  A    between atoms: C6_6  and  C7_7 
REMARK    6  A    between atoms: C7_7  and  N8_8 
REMARK    7  A    between atoms: N8_8  and  C9_9 
REMARK    8  A    between atoms: N8_8  and  C13_13 
REMARK    9  A    between atoms: C9_9  and  C10_10 
REMARK   10  A    between atoms: C13_13  and  C14_14 
REMARK   11  A    between atoms: C17_17  and  C18_18 
REMARK   12  A    between atoms: C18_18  and  N19_19 
REMARK   13  A    between atoms: N19_19  and  C20_20 
REMARK   14  A    between atoms: N19_19  and  C24_24 
REMARK   15  A    between atoms: C20_20  and  C21_21 
REMARK   16  A    between atoms: C24_24  and  C25_25 
ROOT
ATOM      1  N5  <0> d   1      18.268  -1.044   7.131  0.00  0.00     0.102 N 
ENDROOT
BRANCH   1   2
ATOM      2  C4  <0> d   1      19.165  -0.218   6.312  0.00  0.00     0.385 C 
BRANCH   2   3
ATOM      3  C2  <0> d   1      19.123  -0.698   4.883  0.00  0.00     0.202 C 
ATOM      4  O1  <0> d   1      18.363  -0.173   4.086  0.00  0.00    -0.647 OA
ATOM      5  O3  <0> d   1      19.851  -1.607   4.523  0.00  0.00    -0.647 OA
ENDBRANCH   2   3
ENDBRANCH   1   2
BRANCH   1   6
ATOM      6  C6  <0> d   1      19.007  -2.125   7.796  0.00  0.00     0.303 C 
BRANCH   6   7
ATOM      7  C7  <0> d   1      18.029  -3.008   8.573  0.00  0.00     0.304 C 
BRANCH   7   8
ATOM      8  N8  <0> d   1      18.337  -4.422   8.318  0.00  0.00     0.110 N 
BRANCH   8   9
ATOM      9  C9  <0> d   1      17.177  -5.119   7.747  0.00  0.00     0.385 C 
BRANCH   9  10
ATOM     10  C10 <0> d   1      16.323  -5.669   8.861  0.00  0.00     0.202 C 
ATOM     11  O11 <0> d   1      16.845  -6.230   9.808  0.00  0.00    -0.647 OA
ATOM     12  O12 <0> d   1      15.111  -5.550   8.814  0.00  0.00    -0.647 OA
ENDBRANCH   9  10
ENDBRANCH   8   9
BRANCH   8  13
ATOM     13  C13 <0> d   1      19.513  -4.556   7.448  0.00  0.00     0.385 C 
BRANCH  13  14
ATOM     14  C14 <0> d   1      20.441  -5.598   8.016  0.00  0.00     0.202 C 
ATOM     15  O15 <0> d   1      20.072  -6.307   8.936  0.00  0.00    -0.647 OA
ATOM     16  O16 <0> d   1      21.562  -5.732   7.555  0.00  0.00    -0.647 OA
ENDBRANCH  13  14
ENDBRANCH   8  13
ENDBRANCH   7   8
ENDBRANCH   6   7
ENDBRANCH   1   6
BRANCH   1  17
ATOM     17  C17 <0> d   1      17.543  -0.221   8.110  0.00  0.00     0.303 C 
BRANCH  17  18
ATOM     18  C18 <0> d   1      18.483   0.846   8.674  0.00  0.00     0.304 C 
BRANCH  18  19
ATOM     19  N19 <0> d   1      18.141   1.107  10.079  0.00  0.00     0.110 N 
BRANCH  19  20
ATOM     20  C20 <0> d   1      18.384  -0.079  10.909  0.00  0.00     0.385 C 
BRANCH  20  21
ATOM     21  C21 <0> d   1      17.075  -0.594  11.447  0.00  0.00     0.202 C 
ATOM     22  O22 <0> d   1      16.971  -1.760  11.787  0.00  0.00    -0.647 OA
ATOM     23  O23 <0> d   1      16.118   0.157  11.542  0.00  0.00    -0.647 OA
ENDBRANCH  20  21
ENDBRANCH  19  20
BRANCH  19  24
ATOM     24  C24 <0> d   1      18.877   2.270  10.593  0.00  0.00     0.385 C 
BRANCH  24  25
ATOM     25  C25 <0> d   1      17.962   3.105  11.450  0.00  0.00     0.202 C 
ATOM     26  O26 <0> d   1      18.324   3.467  12.556  0.00  0.00    -0.647 OA
ATOM     27  O27 <0> d   1      16.858   3.419  11.037  0.00  0.00    -0.647 OA
ENDBRANCH  24  25
ENDBRANCH  19  24
ENDBRANCH  18  19
ENDBRANCH  17  18
ENDBRANCH   1  17
TORSDOF 16
ENDMDL
MODEL 4
REMARK VINA RESULT:      -5.7      1.534      2.066
REMARK  16 active torsions:
REMARK  status: ('A' for Active; 'I' for Inactive)
REMARK    1  A    between atoms: C2_2  and  C4_4 
REMARK    2  A    between atoms: C4_4  and  N5_5 
REMARK    3  A    between atoms: N5_5  and  C6_6 
REMARK    4  A    between atoms: N5_5  and  C17_17 
REMARK    5  A    between atoms: C6_6  and  C7_7 
REMARK    6  A    between atoms: C7_7  and  N8_8 
REMARK    7  A    between atoms: N8_8  and  C9_9 
REMARK    8  A    between atoms: N8_8  and  C13_13 
REMARK    9  A    between atoms: C9_9  and  C10_10 
REMARK   10  A    between atoms: C13_13  and  C14_14 
REMARK   11  A    between atoms: C17_17  and  C18_18 
REMARK   12  A    between atoms: C18_18  and  N19_19 
REMARK   13  A    between atoms: N19_19  and  C20_20 
REMARK   14  A    between atoms: N19_19  and  C24_24 
REMARK   15  A    between atoms: C20_20  and  C21_21 
REMARK   16  A    between atoms: C24_24  and  C25_25 
ROOT
ATOM      1  N5  <0> d   1      18.487  -1.054   7.267  0.00  0.00     0.102 N 
ENDROOT
BRANCH   1   2
ATOM      2  C4  <0> d   1      18.041  -1.183   5.873  0.00  0.00     0.385 C 
BRANCH   2   3
ATOM      3  C2  <0> d   1      19.234  -1.428   4.986  0.00  0.00     0.202 C 
ATOM      4  O1  <0> d   1      19.986  -0.509   4.706  0.00  0.00    -0.647 OA
ATOM      5  O3  <0> d   1      19.451  -2.546   4.551  0.00  0.00    -0.647 OA
ENDBRANCH   2   3
ENDBRANCH   1   2
BRANCH   1   6
ATOM      6  C6  <0> d   1      17.985   0.189   7.868  0.00  0.00     0.303 C 
BRANCH   6   7
ATOM      7  C7  <0> d   1      19.034   0.749   8.831  0.00  0.00     0.304 C 
BRANCH   7   8
ATOM      8  N8  <0> d   1      18.409   1.024  10.131  0.00  0.00     0.110 N 
BRANCH   8   9
ATOM      9  C9  <0> d   1      18.538  -0.129  11.032  0.00  0.00     0.385 C 
BRANCH   9  10
ATOM     10  C10 <0> d   1      17.169  -0.665  11.361  0.00  0.00     0.202 C 
ATOM     11  O11 <0> d   1      17.044  -1.806  11.771  0.00  0.00    -0.647 OA
ATOM     12  O12 <0> d   1      16.187   0.043  11.219  0.00  0.00    -0.647 OA
ENDBRANCH   9  10
ENDBRANCH   8   9
BRANCH   8  13
ATOM     13  C13 <0> d   1      18.972   2.235  10.741  0.00  0.00     0.385 C 
BRANCH  13  14
ATOM     14  C14 <0> d   1      17.877   3.006  11.433  0.00  0.00     0.202 C 
ATOM     15  O15 <0> d   1      16.983   3.516  10.778  0.00  0.00    -0.647 OA
ATOM     16  O16 <0> d   1      17.884   3.119  12.647  0.00  0.00    -0.647 OA
ENDBRANCH  13  14
ENDBRANCH   8  13
ENDBRANCH   7   8
ENDBRANCH   6   7
ENDBRANCH   1   6
BRANCH   1  17
ATOM     17  C17 <0> d   1      18.082  -2.223   8.059  0.00  0.00     0.303 C 
BRANCH  17  18
ATOM     18  C18 <0> d   1      19.328  -2.942   8.581  0.00  0.00     0.304 C 
BRANCH  18  19
ATOM     19  N19 <0> d   1      19.157  -4.393   8.425  0.00  0.00     0.110 N 
BRANCH  19  20
ATOM     20  C20 <0> d   1      19.692  -4.850   7.136  0.00  0.00     0.385 C 
BRANCH  20  21
ATOM     21  C21 <0> d   1      18.623  -5.603   6.387  0.00  0.00     0.202 C 
ATOM     22  O22 <0> d   1      17.695  -4.999   5.877  0.00  0.00    -0.647 OA
ATOM     23  O23 <0> d   1      18.686  -6.817   6.292  0.00  0.00    -0.647 OA
ENDBRANCH  20  21
ENDBRANCH  19  20
BRANCH  19  24
ATOM     24  C24 <0> d   1      19.780  -5.119   9.541  0.00  0.00     0.385 C 
BRANCH  24  25
ATOM     25  C25 <0> d   1      19.096  -4.741  10.829  0.00  0.00     0.202 C 
ATOM     26  O26 <0> d   1      19.729  -4.201  11.720  0.00  0.00    -0.647 OA
ATOM     27  O27 <0> d   1      17.909  -4.977  10.981  0.00  0.00    -0.647 OA
ENDBRANCH  24  25
ENDBRANCH  19  24
ENDBRANCH  18  19
ENDBRANCH  17  18
ENDBRANCH   1  17
TORSDOF 16
ENDMDL
MODEL 5
REMARK VINA RESULT:      -5.7      2.362      5.700
REMARK  16 active torsions:
REMARK  status: ('A' for Active; 'I' for Inactive)
REMARK    1  A    between atoms: C2_2  and  C4_4 
REMARK    2  A    between atoms: C4_4  and  N5_5 
REMARK    3  A    between atoms: N5_5  and  C6_6 
REMARK    4  A    between atoms: N5_5  and  C17_17 
REMARK    5  A    between atoms: C6_6  and  C7_7 
REMARK    6  A    between atoms: C7_7  and  N8_8 
REMARK    7  A    between atoms: N8_8  and  C9_9 
REMARK    8  A    between atoms: N8_8  and  C13_13 
REMARK    9  A    between atoms: C9_9  and  C10_10 
REMARK   10  A    between atoms: C13_13  and  C14_14 
REMARK   11  A    between atoms: C17_17  and  C18_18 
REMARK   12  A    between atoms: C18_18  and  N19_19 
REMARK   13  A    between atoms: N19_19  and  C20_20 
REMARK   14  A    between atoms: N19_19  and  C24_24 
REMARK   15  A    between atoms: C20_20  and  C21_21 
REMARK   16  A    between atoms: C24_24  and  C25_25 
ROOT
ATOM      1  N5  <0> d   1      18.136   1.981  10.219  0.00  0.00     0.102 N 
ENDROOT
BRANCH   1   2
ATOM      2  C4  <0> d   1      18.647   3.319  10.546  0.00  0.00     0.385 C 
BRANCH   2   3
ATOM      3  C2  <0> d   1      17.556   4.338  10.337  0.00  0.00     0.202 C 
ATOM      4  O1  <0> d   1      17.660   5.170   9.451  0.00  0.00    -0.647 OA
ATOM      5  O3  <0> d   1      16.568   4.329  11.051  0.00  0.00    -0.647 OA
ENDBRANCH   2   3
ENDBRANCH   1   2
BRANCH   1   6
ATOM      6  C6  <0> d   1      19.114   1.221   9.431  0.00  0.00     0.303 C 
BRANCH   6   7
ATOM      7  C7  <0> d   1      18.961   1.573   7.950  0.00  0.00     0.304 C 
BRANCH   7   8
ATOM      8  N8  <0> d   1      18.740   0.346   7.175  0.00  0.00     0.110 N 
BRANCH   8   9
ATOM      9  C9  <0> d   1      17.763  -0.528   7.838  0.00  0.00     0.385 C 
BRANCH   9  10
ATOM     10  C10 <0> d   1      18.383  -1.880   8.079  0.00  0.00     0.202 C 
ATOM     11  O11 <0> d   1      19.534  -2.092   7.741  0.00  0.00    -0.647 OA
ATOM     12  O12 <0> d   1      17.732  -2.761   8.614  0.00  0.00    -0.647 OA
ENDBRANCH   9  10
ENDBRANCH   8   9
BRANCH   8  13
ATOM     13  C13 <0> d   1      18.320   0.659   5.802  0.00  0.00     0.385 C 
BRANCH  13  14
ATOM     14  C14 <0> d   1      18.776  -0.438   4.875  0.00  0.00     0.202 C 
ATOM     15  O15 <0> d   1      19.967  -0.630   4.696  0.00  0.00    -0.647 OA
ATOM     16  O16 <0> d   1      17.954  -1.134   4.303  0.00  0.00    -0.647 OA
ENDBRANCH  13  14
ENDBRANCH   8  13
ENDBRANCH   7   8
ENDBRANCH   6   7
ENDBRANCH   1   6
BRANCH   1  17
ATOM     17  C17 <0> d   1      17.758   1.251  11.437  0.00  0.00     0.303 C 
BRANCH  17  18
ATOM     18  C18 <0> d   1      18.988   0.545  12.011  0.00  0.00     0.304 C 
BRANCH  18  19
ATOM     19  N19 <0> d   1      18.563  -0.630  12.783  0.00  0.00     0.110 N 
BRANCH  19  20
ATOM     20  C20 <0> d   1      17.814  -0.230  13.981  0.00  0.00     0.385 C 
BRANCH  20  21
ATOM     21  C21 <0> d   1      18.347  -0.971  15.179  0.00  0.00     0.202 C 
ATOM     22  O22 <0> d   1      17.659  -1.091  16.178  0.00  0.00    -0.647 OA
ATOM     23  O23 <0> d   1      19.468  -1.451  15.149  0.00  0.00    -0.647 OA
ENDBRANCH  20  21
ENDBRANCH  19  20
BRANCH  19  24
ATOM     24  C24 <0> d   1      17.775  -1.550  11.951  0.00  0.00     0.385 C 
BRANCH  24  25
ATOM     25  C25 <0> d   1      18.385  -2.926  12.008  0.00  0.00     0.202 C 
ATOM     26  O26 <0> d   1      17.676  -3.912  11.903  0.00  0.00    -0.647 OA
ATOM     27  O27 <0> d   1      19.588  -3.053  12.160  0.00  0.00    -0.647 OA
ENDBRANCH  24  25
ENDBRANCH  19  24
ENDBRANCH  18  19
ENDBRANCH  17  18
ENDBRANCH   1  17
TORSDOF 16
ENDMDL
MODEL 6
REMARK VINA RESULT:      -5.7      2.120      3.263
REMARK  16 active torsions:
REMARK  status: ('A' for Active; 'I' for Inactive)
REMARK    1  A    between atoms: C2_2  and  C4_4 
REMARK    2  A    between atoms: C4_4  and  N5_5 
REMARK    3  A    between atoms: N5_5  and  C6_6 
REMARK    4  A    between atoms: N5_5  and  C17_17 
REMARK    5  A    between atoms: C6_6  and  C7_7 
REMARK    6  A    between atoms: C7_7  and  N8_8 
REMARK    7  A    between atoms: N8_8  and  C9_9 
REMARK    8  A    between atoms: N8_8  and  C13_13 
REMARK    9  A    between atoms: C9_9  and  C10_10 
REMARK   10  A    between atoms: C13_13  and  C14_14 
REMARK   11  A    between atoms: C17_17  and  C18_18 
REMARK   12  A    between atoms: C18_18  and  N19_19 
REMARK   13  A    between atoms: N19_19  and  C20_20 
REMARK   14  A    between atoms: N19_19  and  C24_24 
REMARK   15  A    between atoms: C20_20  and  C21_21 
REMARK   16  A    between atoms: C24_24  and  C25_25 
ROOT
ATOM      1  N5  <0> d   1      18.753  -0.709   7.492  0.00  0.00     0.102 N 
ENDROOT
BRANCH   1   2
ATOM      2  C4  <0> d   1      18.259  -1.170   6.189  0.00  0.00     0.385 C 
BRANCH   2   3
ATOM      3  C2  <0> d   1      19.222  -0.749   5.108  0.00  0.00     0.202 C 
ATOM      4  O1  <0> d   1      19.758  -1.590   4.407  0.00  0.00    -0.647 OA
ATOM      5  O3  <0> d   1      19.461   0.433   4.932  0.00  0.00    -0.647 OA
ENDBRANCH   2   3
ENDBRANCH   1   2
BRANCH   1   6
ATOM      6  C6  <0> d   1      17.711   0.024   8.222  0.00  0.00     0.303 C 
BRANCH   6   7
ATOM      7  C7  <0> d   1      18.343   1.194   8.978  0.00  0.00     0.304 C 
BRANCH   7   8
ATOM      8  N8  <0> d   1      18.491   0.838  10.396  0.00  0.00     0.110 N 
BRANCH   8   9
ATOM      9  C9  <0> d   1      19.710   1.430  10.963  0.00  0.00     0.385 C 
BRANCH   9  10
ATOM     10  C10 <0> d   1      20.506   0.362  11.667  0.00  0.00     0.202 C 
ATOM     11  O11 <0> d   1      21.077  -0.499  11.019  0.00  0.00    -0.647 OA
ATOM     12  O12 <0> d   1      20.581   0.360  12.883  0.00  0.00    -0.647 OA
ENDBRANCH   9  10
ENDBRANCH   8   9
BRANCH   8  13
ATOM     13  C13 <0> d   1      17.305   1.236  11.165  0.00  0.00     0.385 C 
BRANCH  13  14
ATOM     14  C14 <0> d   1      16.987   0.172  12.184  0.00  0.00     0.202 C 
ATOM     15  O15 <0> d   1      16.532  -0.901  11.824  0.00  0.00    -0.647 OA
ATOM     16  O16 <0> d   1      17.186   0.383  13.368  0.00  0.00    -0.647 OA
ENDBRANCH  13  14
ENDBRANCH   8  13
ENDBRANCH   7   8
ENDBRANCH   6   7
ENDBRANCH   1   6
BRANCH   1  17
ATOM     17  C17 <0> d   1      19.264  -1.832   8.290  0.00  0.00     0.303 C 
BRANCH  17  18
ATOM     18  C18 <0> d   1      18.097  -2.725   8.718  0.00  0.00     0.304 C 
BRANCH  18  19
ATOM     19  N19 <0> d   1      18.619  -3.918   9.399  0.00  0.00     0.110 N 
BRANCH  19  20
ATOM     20  C20 <0> d   1      18.179  -3.959  10.799  0.00  0.00     0.385 C 
BRANCH  20  21
ATOM     21  C21 <0> d   1      19.316  -3.543  11.695  0.00  0.00     0.202 C 
ATOM     22  O22 <0> d   1      19.125  -2.734  12.587  0.00  0.00    -0.647 OA
ATOM     23  O23 <0> d   1      20.428  -4.014  11.528  0.00  0.00    -0.647 OA
ENDBRANCH  20  21
ENDBRANCH  19  20
BRANCH  19  24
ATOM     24  C24 <0> d   1      18.228  -5.143   8.688  0.00  0.00     0.385 C 
BRANCH  24  25
ATOM     25  C25 <0> d   1      19.455  -5.810   8.124  0.00  0.00     0.202 C 
ATOM     26  O26 <0> d   1      19.550  -5.997   6.923  0.00  0.00    -0.647 OA
ATOM     27  O27 <0> d   1      20.354  -6.162   8.869  0.00  0.00    -0.647 OA
ENDBRANCH  24  25
ENDBRANCH  19  24
ENDBRANCH  18  19
ENDBRANCH  17  18
ENDBRANCH   1  17
TORSDOF 16
ENDMDL
MODEL 7
REMARK VINA RESULT:      -5.6      1.643      2.527
REMARK  16 active torsions:
REMARK  status: ('A' for Active; 'I' for Inactive)
REMARK    1  A    between atoms: C2_2  and  C4_4 
REMARK    2  A    between atoms: C4_4  and  N5_5 
REMARK    3  A    between atoms: N5_5  and  C6_6 
REMARK    4  A    between atoms: N5_5  and  C17_17 
REMARK    5  A    between atoms: C6_6  and  C7_7 
REMARK    6  A    between atoms: C7_7  and  N8_8 
REMARK    7  A    between atoms: N8_8  and  C9_9 
REMARK    8  A    between atoms: N8_8  and  C13_13 
REMARK    9  A    between atoms: C9_9  and  C10_10 
REMARK   10  A    between atoms: C13_13  and  C14_14 
REMARK   11  A    between atoms: C17_17  and  C18_18 
REMARK   12  A    between atoms: C18_18  and  N19_19 
REMARK   13  A    between atoms: N19_19  and  C20_20 
REMARK   14  A    between atoms: N19_19  and  C24_24 
REMARK   15  A    between atoms: C20_20  and  C21_21 
REMARK   16  A    between atoms: C24_24  and  C25_25 
ROOT
ATOM      1  N5  <0> d   1      19.187  -1.103   7.244  0.00  0.00     0.102 N 
ENDROOT
BRANCH   1   2
ATOM      2  C4  <0> d   1      18.138  -1.083   6.216  0.00  0.00     0.385 C 
BRANCH   2   3
ATOM      3  C2  <0> d   1      18.764  -0.849   4.865  0.00  0.00     0.202 C 
ATOM      4  O1  <0> d   1      19.975  -0.905   4.736  0.00  0.00    -0.647 OA
ATOM      5  O3  <0> d   1      18.059  -0.608   3.900  0.00  0.00    -0.647 OA
ENDBRANCH   2   3
ENDBRANCH   1   2
BRANCH   1   6
ATOM      6  C6  <0> d   1      19.191   0.146   8.018  0.00  0.00     0.303 C 
BRANCH   6   7
ATOM      7  C7  <0> d   1      19.681  -0.136   9.439  0.00  0.00     0.304 C 
BRANCH   7   8
ATOM      8  N8  <0> d   1      18.765   0.484  10.405  0.00  0.00     0.110 N 
BRANCH   8   9
ATOM      9  C9  <0> d   1      18.597  -0.365  11.593  0.00  0.00     0.385 C 
BRANCH   9  10
ATOM     10  C10 <0> d   1      17.192  -0.908  11.628  0.00  0.00     0.202 C 
ATOM     11  O11 <0> d   1      16.243  -0.144  11.593  0.00  0.00    -0.647 OA
ATOM     12  O12 <0> d   1      17.005  -2.110  11.689  0.00  0.00    -0.647 OA
ENDBRANCH   9  10
ENDBRANCH   8   9
BRANCH   8  13
ATOM     13  C13 <0> d   1      19.224   1.828  10.779  0.00  0.00     0.385 C 
BRANCH  13  14
ATOM     14  C14 <0> d   1      18.192   2.845  10.365  0.00  0.00     0.202 C 
ATOM     15  O15 <0> d   1      17.169   2.976  11.016  0.00  0.00    -0.647 OA
ATOM     16  O16 <0> d   1      18.380   3.538   9.380  0.00  0.00    -0.647 OA
ENDBRANCH  13  14
ENDBRANCH   8  13
ENDBRANCH   7   8
ENDBRANCH   6   7
ENDBRANCH   1   6
BRANCH   1  17
ATOM     17  C17 <0> d   1      19.038  -2.268   8.126  0.00  0.00     0.303 C 
BRANCH  17  18
ATOM     18  C18 <0> d   1      19.460  -3.533   7.375  0.00  0.00     0.304 C 
BRANCH  18  19
ATOM     19  N19 <0> d   1      18.586  -4.648   7.765  0.00  0.00     0.110 N 
BRANCH  19  20
ATOM     20  C20 <0> d   1      17.738  -4.279   8.905  0.00  0.00     0.385 C 
BRANCH  20  21
ATOM     21  C21 <0> d   1      17.987  -5.232  10.045  0.00  0.00     0.202 C 
ATOM     22  O22 <0> d   1      18.840  -4.977  10.878  0.00  0.00    -0.647 OA
ATOM     23  O23 <0> d   1      17.334  -6.258  10.135  0.00  0.00    -0.647 OA
ENDBRANCH  20  21
ENDBRANCH  19  20
BRANCH  19  24
ATOM     24  C24 <0> d   1      17.773  -5.101   6.628  0.00  0.00     0.385 C 
BRANCH  24  25
ATOM     25  C25 <0> d   1      18.194  -6.493   6.232  0.00  0.00     0.202 C 
ATOM     26  O26 <0> d   1      18.207  -6.815   5.057  0.00  0.00    -0.647 OA
ATOM     27  O27 <0> d   1      18.521  -7.297   7.088  0.00  0.00    -0.647 OA
ENDBRANCH  24  25
ENDBRANCH  19  24
ENDBRANCH  18  19
ENDBRANCH  17  18
ENDBRANCH   1  17
TORSDOF 16
ENDMDL
MODEL 8
REMARK VINA RESULT:      -5.6      3.794      6.531
REMARK  16 active torsions:
REMARK  status: ('A' for Active; 'I' for Inactive)
REMARK    1  A    between atoms: C2_2  and  C4_4 
REMARK    2  A    between atoms: C4_4  and  N5_5 
REMARK    3  A    between atoms: N5_5  and  C6_6 
REMARK    4  A    between atoms: N5_5  and  C17_17 
REMARK    5  A    between atoms: C6_6  and  C7_7 
REMARK    6  A    between atoms: C7_7  and  N8_8 
REMARK    7  A    between atoms: N8_8  and  C9_9 
REMARK    8  A    between atoms: N8_8  and  C13_13 
REMARK    9  A    between atoms: C9_9  and  C10_10 
REMARK   10  A    between atoms: C13_13  and  C14_14 
REMARK   11  A    between atoms: C17_17  and  C18_18 
REMARK   12  A    between atoms: C18_18  and  N19_19 
REMARK   13  A    between atoms: N19_19  and  C20_20 
REMARK   14  A    between atoms: N19_19  and  C24_24 
REMARK   15  A    between atoms: C20_20  and  C21_21 
REMARK   16  A    between atoms: C24_24  and  C25_25 
ROOT
ATOM      1  N5  <0> d   1      18.466   3.317  12.327  0.00  0.00     0.102 N 
ENDROOT
BRANCH   1   2
ATOM      2  C4  <0> d   1      17.228   3.562  11.577  0.00  0.00     0.385 C 
BRANCH   2   3
ATOM      3  C2  <0> d   1      17.065   5.043  11.346  0.00  0.00     0.202 C 
ATOM      4  O1  <0> d   1      16.727   5.769  12.266  0.00  0.00    -0.647 OA
ATOM      5  O3  <0> d   1      17.276   5.515  10.243  0.00  0.00    -0.647 OA
ENDBRANCH   2   3
ENDBRANCH   1   2
BRANCH   1   6
ATOM      6  C6  <0> d   1      18.174   2.912  13.709  0.00  0.00     0.303 C 
BRANCH   6   7
ATOM      7  C7  <0> d   1      19.315   2.042  14.238  0.00  0.00     0.304 C 
BRANCH   7   8
ATOM      8  N8  <0> d   1      18.892   1.380  15.478  0.00  0.00     0.110 N 
BRANCH   8   9
ATOM      9  C9  <0> d   1      18.628   2.363  16.537  0.00  0.00     0.385 C 
BRANCH   9  10
ATOM     10  C10 <0> d   1      18.738   1.693  17.883  0.00  0.00     0.202 C 
ATOM     11  O11 <0> d   1      19.820   1.296  18.279  0.00  0.00    -0.647 OA
ATOM     12  O12 <0> d   1      17.745   1.550  18.575  0.00  0.00    -0.647 OA
ENDBRANCH   9  10
ENDBRANCH   8   9
BRANCH   8  13
ATOM     13  C13 <0> d   1      17.718   0.527  15.246  0.00  0.00     0.385 C 
BRANCH  13  14
ATOM     14  C14 <0> d   1      18.092  -0.915  15.471  0.00  0.00     0.202 C 
ATOM     15  O15 <0> d   1      17.711  -1.495  16.473  0.00  0.00    -0.647 OA
ATOM     16  O16 <0> d   1      18.777  -1.502  14.650  0.00  0.00    -0.647 OA
ENDBRANCH  13  14
ENDBRANCH   8  13
ENDBRANCH   7   8
ENDBRANCH   6   7
ENDBRANCH   1   6
BRANCH   1  17
ATOM     17  C17 <0> d   1      19.303   2.316  11.651  0.00  0.00     0.303 C 
BRANCH  17  18
ATOM     18  C18 <0> d   1      18.823   2.142  10.208  0.00  0.00     0.304 C 
BRANCH  18  19
ATOM     19  N19 <0> d   1      18.320   0.774  10.021  0.00  0.00     0.110 N 
BRANCH  19  20
ATOM     20  C20 <0> d   1      19.017   0.103   8.917  0.00  0.00     0.385 C 
BRANCH  20  21
ATOM     21  C21 <0> d   1      18.036  -0.733   8.137  0.00  0.00     0.202 C 
ATOM     22  O22 <0> d   1      17.065  -0.209   7.619  0.00  0.00    -0.647 OA
ATOM     23  O23 <0> d   1      18.214  -1.934   8.024  0.00  0.00    -0.647 OA
ENDBRANCH  20  21
ENDBRANCH  19  20
BRANCH  19  24
ATOM     24  C24 <0> d   1      18.432  -0.002  11.264  0.00  0.00     0.385 C 
BRANCH  24  25
ATOM     25  C25 <0> d   1      17.086  -0.580  11.617  0.00  0.00     0.202 C 
ATOM     26  O26 <0> d   1      16.978  -1.769  11.863  0.00  0.00    -0.647 OA
ATOM     27  O27 <0> d   1      16.104   0.142  11.657  0.00  0.00    -0.647 OA
ENDBRANCH  24  25
ENDBRANCH  19  24
ENDBRANCH  18  19
ENDBRANCH  17  18
ENDBRANCH   1  17
TORSDOF 16
ENDMDL
MODEL 9
REMARK VINA RESULT:      -5.6      4.159      9.286
REMARK  16 active torsions:
REMARK  status: ('A' for Active; 'I' for Inactive)
REMARK    1  A    between atoms: C2_2  and  C4_4 
REMARK    2  A    between atoms: C4_4  and  N5_5 
REMARK    3  A    between atoms: N5_5  and  C6_6 
REMARK    4  A    between atoms: N5_5  and  C17_17 
REMARK    5  A    between atoms: C6_6  and  C7_7 
REMARK    6  A    between atoms: C7_7  and  N8_8 
REMARK    7  A    between atoms: N8_8  and  C9_9 
REMARK    8  A    between atoms: N8_8  and  C13_13 
REMARK    9  A    between atoms: C9_9  and  C10_10 
REMARK   10  A    between atoms: C13_13  and  C14_14 
REMARK   11  A    between atoms: C17_17  and  C18_18 
REMARK   12  A    between atoms: C18_18  and  N19_19 
REMARK   13  A    between atoms: N19_19  and  C20_20 
REMARK   14  A    between atoms: N19_19  and  C24_24 
REMARK   15  A    between atoms: C20_20  and  C21_21 
REMARK   16  A    between atoms: C24_24  and  C25_25 
ROOT
ATOM      1  N5  <0> d   1      18.799   1.155  15.626  0.00  0.00     0.102 N 
ENDROOT
BRANCH   1   2
ATOM      2  C4  <0> d   1      18.181   0.968  16.945  0.00  0.00     0.385 C 
BRANCH   2   3
ATOM      3  C2  <0> d   1      19.248   0.633  17.956  0.00  0.00     0.202 C 
ATOM      4  O1  <0> d   1      19.569  -0.529  18.140  0.00  0.00    -0.647 OA
ATOM      5  O3  <0> d   1      19.792   1.524  18.586  0.00  0.00    -0.647 OA
ENDBRANCH   2   3
ENDBRANCH   1   2
BRANCH   1   6
ATOM      6  C6  <0> d   1      17.995   0.521  14.572  0.00  0.00     0.303 C 
BRANCH   6   7
ATOM      7  C7  <0> d   1      18.580  -0.853  14.242  0.00  0.00     0.304 C 
BRANCH   7   8
ATOM      8  N8  <0> d   1      18.286  -1.188  12.843  0.00  0.00     0.110 N 
BRANCH   8   9
ATOM      9  C9  <0> d   1      18.246   0.021  12.009  0.00  0.00     0.385 C 
BRANCH   9  10
ATOM     10  C10 <0> d   1      17.047  -0.037  11.097  0.00  0.00     0.202 C 
ATOM     11  O11 <0> d   1      17.199  -0.221   9.902  0.00  0.00    -0.647 OA
ATOM     12  O12 <0> d   1      15.926   0.098  11.556  0.00  0.00    -0.647 OA
ENDBRANCH   9  10
ENDBRANCH   8   9
BRANCH   8  13
ATOM     13  C13 <0> d   1      19.257  -2.157  12.318  0.00  0.00     0.385 C 
BRANCH  13  14
ATOM     14  C14 <0> d   1      18.530  -3.392  11.848  0.00  0.00     0.202 C 
ATOM     15  O15 <0> d   1      19.146  -4.427  11.659  0.00  0.00    -0.647 OA
ATOM     16  O16 <0> d   1      17.326  -3.355  11.658  0.00  0.00    -0.647 OA
ENDBRANCH  13  14
ENDBRANCH   8  13
ENDBRANCH   7   8
ENDBRANCH   6   7
ENDBRANCH   1   6
BRANCH   1  17
ATOM     17  C17 <0> d   1      19.010   2.581  15.340  0.00  0.00     0.303 C 
BRANCH  17  18
ATOM     18  C18 <0> d   1      18.765   2.845  13.853  0.00  0.00     0.304 C 
BRANCH  18  19
ATOM     19  N19 <0> d   1      18.396   4.255  13.661  0.00  0.00     0.110 N 
BRANCH  19  20
ATOM     20  C20 <0> d   1      19.232   5.135  14.488  0.00  0.00     0.385 C 
BRANCH  20  21
ATOM     21  C21 <0> d   1      18.402   6.286  14.994  0.00  0.00     0.202 C 
ATOM     22  O22 <0> d   1      17.188   6.184  15.050  0.00  0.00    -0.647 OA
ATOM     23  O23 <0> d   1      18.944   7.320  15.347  0.00  0.00    -0.647 OA
ENDBRANCH  20  21
ENDBRANCH  19  20
BRANCH  19  24
ATOM     24  C24 <0> d   1      18.477   4.631  12.243  0.00  0.00     0.385 C 
BRANCH  24  25
ATOM     25  C25 <0> d   1      17.177   4.297  11.560  0.00  0.00     0.202 C 
ATOM     26  O26 <0> d   1      16.175   4.948  11.803  0.00  0.00    -0.647 OA
ATOM     27  O27 <0> d   1      17.125   3.375  10.764  0.00  0.00    -0.647 OA
ENDBRANCH  24  25
ENDBRANCH  19  24
ENDBRANCH  18  19
ENDBRANCH  17  18
ENDBRANCH   1  17
TORSDOF 16
ENDMDL
