MODEL 1
REMARK VINA RESULT:      -8.5      0.000      0.000
REMARK  11 active torsions:
REMARK  status: ('A' for Active; 'I' for Inactive)
REMARK    1  A    between atoms: N1_1  and  C2_2 
REMARK    2  A    between atoms: N9_9  and  C10_10 
REMARK    3  A    between atoms: C12_12  and  C14_13 
REMARK    4  A    between atoms: C14_13  and  N15_14 
REMARK    5  A    between atoms: N15_14  and  C16_15 
REMARK    6  A    between atoms: C19_18  and  C20_19 
REMARK       I    between atoms: C20_19  and  N22_21 
REMARK    7  A    between atoms: N22_21  and  C23_22 
REMARK    8  A    between atoms: C23_22  and  C25_23 
REMARK    9  A    between atoms: C23_22  and  C30_28 
REMARK   10  A    between atoms: C25_23  and  C26_24 
REMARK   11  A    between atoms: C26_24  and  C27_25 
ROOT
ATOM      1  N15 ZIN A   1      19.539   1.855   9.112  0.00  0.00    -0.388 N 
ATOM      2  H42 ZIN A   1      19.968   2.347   8.395  0.00  0.00     0.159 HD
ENDROOT
BRANCH   1   3
ATOM      3  C14 ZIN A   1      19.320   0.412   8.982  0.00  0.00     0.147 C 
BRANCH   3   4
ATOM      4  C12 ZIN A   1      17.825   0.110   9.102  0.00  0.00     0.128 C 
ATOM      5  N9  ZIN A   1      17.603  -0.890  10.160  0.00  0.00    -0.309 N 
ATOM      6  C5  ZIN A   1      17.918  -2.237   9.889  0.00  0.00     0.155 A 
ATOM      7  C4  ZIN A   1      18.103  -2.659   8.579  0.00  0.00     0.175 A 
ATOM      8  C6  ZIN A   1      18.046  -3.166  10.928  0.00  0.00     0.314 A 
ATOM      9  N3  ZIN A   1      18.397  -3.941   8.333  0.00  0.00    -0.043 NA
ATOM     10  N36 ZIN A   1      17.986  -1.753   7.539  0.00  0.00    -0.370 N 
ATOM     11  C2  ZIN A   1      18.515  -4.810   9.314  0.00  0.00     0.725 A 
ATOM     12  N8  ZIN A   1      18.340  -4.446  10.614  0.00  0.00    -0.020 NA
ATOM     13  C35 ZIN A   1      17.305  -0.473   7.780  0.00  0.00     0.148 C 
ATOM     14  H54 ZIN A   1      18.348  -1.959   6.663  0.00  0.00     0.161 HD
ATOM     15  O7  ZIN A   1      17.890  -2.827  12.091  0.00  0.00    -0.263 OA
BRANCH   5  16
ATOM     16  C10 ZIN A   1      17.110  -0.525  11.360  0.00  0.00     0.356 C 
ATOM     17  O11 ZIN A   1      16.181   0.253  11.424  0.00  0.00    -0.283 OA
ENDBRANCH   5  16
BRANCH  11  18
ATOM     18  N1  ZIN A   1      18.817  -6.115   9.020  0.00  0.00    -0.231 N 
ATOM     19  H37 ZIN A   1      19.742  -6.406   9.003  0.00  0.00     0.174 HD
ATOM     20  H38 ZIN A   1      18.106  -6.746   8.833  0.00  0.00     0.174 HD
ENDBRANCH  11  18
ENDBRANCH   3   4
ENDBRANCH   1   3
BRANCH   1  21
ATOM     21  C16 ZIN A   1      19.132   2.519  10.264  0.00  0.00     0.028 A 
ATOM     22  C34 ZIN A   1      19.696   2.187  11.493  0.00  0.00     0.030 A 
ATOM     23  C33 ZIN A   1      19.299   2.848  12.634  0.00  0.00     0.019 A 
ATOM     24  C19 ZIN A   1      18.320   3.843  12.559  0.00  0.00     0.032 A 
ATOM     25  C18 ZIN A   1      17.752   4.169  11.324  0.00  0.00     0.019 A 
ATOM     26  C17 ZIN A   1      18.157   3.510  10.186  0.00  0.00     0.030 A 
BRANCH  24  27
ATOM     27  C20 ZIN A   1      17.888   4.548  13.781  0.00  0.00     0.252 C 
ATOM     28  O21 ZIN A   1      16.881   5.228  13.766  0.00  0.00    -0.268 OA
ATOM     29  N22 ZIN A   1      18.610   4.437  14.914  0.00  0.00    -0.342 N 
ATOM     30  H45 ZIN A   1      19.414   3.894  14.926  0.00  0.00     0.163 HD
BRANCH  29  31
ATOM     31  C23 ZIN A   1      18.181   5.137  16.127  0.00  0.00     0.186 C 
BRANCH  31  32
ATOM     32  C25 ZIN A   1      18.389   4.228  17.340  0.00  0.00     0.046 C 
BRANCH  32  33
ATOM     33  C26 ZIN A   1      19.160   2.977  16.916  0.00  0.00     0.116 C 
BRANCH  33  34
ATOM     34  C27 ZIN A   1      18.949   1.886  17.934  0.00  0.00     0.172 C 
ATOM     35  O28 ZIN A   1      17.844   1.708  18.416  0.00  0.00    -0.648 OA
ATOM     36  O29 ZIN A   1      19.884   1.182  18.275  0.00  0.00    -0.648 OA
ENDBRANCH  33  34
ENDBRANCH  32  33
ENDBRANCH  31  32
BRANCH  31  37
ATOM     37  C30 ZIN A   1      18.994   6.394  16.296  0.00  0.00     0.196 C 
ATOM     38  O31 ZIN A   1      18.440   7.448  16.559  0.00  0.00    -0.646 OA
ATOM     39  O32 ZIN A   1      20.206   6.358  16.169  0.00  0.00    -0.646 OA
ENDBRANCH  31  37
ENDBRANCH  29  31
ENDBRANCH  24  27
ENDBRANCH   1  21
TORSDOF 11
ENDMDL
MODEL 2
REMARK VINA RESULT:      -8.1      4.054      9.601
REMARK  11 active torsions:
REMARK  status: ('A' for Active; 'I' for Inactive)
REMARK    1  A    between atoms: N1_1  and  C2_2 
REMARK    2  A    between atoms: N9_9  and  C10_10 
REMARK    3  A    between atoms: C12_12  and  C14_13 
REMARK    4  A    between atoms: C14_13  and  N15_14 
REMARK    5  A    between atoms: N15_14  and  C16_15 
REMARK    6  A    between atoms: C19_18  and  C20_19 
REMARK       I    between atoms: C20_19  and  N22_21 
REMARK    7  A    between atoms: N22_21  and  C23_22 
REMARK    8  A    between atoms: C23_22  and  C25_23 
REMARK    9  A    between atoms: C23_22  and  C30_28 
REMARK   10  A    between atoms: C25_23  and  C26_24 
REMARK   11  A    between atoms: C26_24  and  C27_25 
ROOT
ATOM      1  N15 ZIN A   1      18.242   2.289   9.264  0.00  0.00    -0.388 N 
ATOM      2  H42 ZIN A   1      18.256   3.227   9.013  0.00  0.00     0.159 HD
ENDROOT
BRANCH   1   3
ATOM      3  C14 ZIN A   1      18.120   1.909  10.673  0.00  0.00     0.147 C 
BRANCH   3   4
ATOM      4  C12 ZIN A   1      19.508   1.616  11.244  0.00  0.00     0.128 C 
ATOM      5  N9  ZIN A   1      19.480   0.353  12.001  0.00  0.00    -0.309 N 
ATOM      6  C5  ZIN A   1      18.884   0.348  13.278  0.00  0.00     0.155 A 
ATOM      7  C4  ZIN A   1      18.643   1.545  13.939  0.00  0.00     0.175 A 
ATOM      8  C6  ZIN A   1      18.529  -0.856  13.898  0.00  0.00     0.314 A 
ATOM      9  N3  ZIN A   1      18.081   1.528  15.154  0.00  0.00    -0.043 NA
ATOM     10  N36 ZIN A   1      18.982   2.746  13.339  0.00  0.00    -0.370 N 
ATOM     11  C2  ZIN A   1      17.751   0.393  15.732  0.00  0.00     0.725 A 
ATOM     12  N8  ZIN A   1      17.969  -0.806  15.126  0.00  0.00    -0.020 NA
ATOM     13  C35 ZIN A   1      19.921   2.738  12.208  0.00  0.00     0.148 C 
ATOM     14  H54 ZIN A   1      18.606   3.580  13.660  0.00  0.00     0.161 HD
ATOM     15  O7  ZIN A   1      18.726  -1.926  13.343  0.00  0.00    -0.263 OA
BRANCH   5  16
ATOM     16  C10 ZIN A   1      20.010  -0.772  11.483  0.00  0.00     0.356 C 
ATOM     17  O11 ZIN A   1      20.916  -0.702  10.677  0.00  0.00    -0.283 OA
ENDBRANCH   5  16
BRANCH  11  18
ATOM     18  N1  ZIN A   1      17.178   0.419  16.977  0.00  0.00    -0.231 N 
ATOM     19  H37 ZIN A   1      17.635   0.858  17.712  0.00  0.00     0.174 HD
ATOM     20  H38 ZIN A   1      16.315   0.002  17.123  0.00  0.00     0.174 HD
ENDBRANCH  11  18
ENDBRANCH   3   4
ENDBRANCH   1   3
BRANCH   1  21
ATOM     21  C16 ZIN A   1      18.336   1.308   8.284  0.00  0.00     0.028 A 
ATOM     22  C34 ZIN A   1      17.739   0.066   8.484  0.00  0.00     0.030 A 
ATOM     23  C33 ZIN A   1      17.826  -0.906   7.513  0.00  0.00     0.019 A 
ATOM     24  C19 ZIN A   1      18.526  -0.648   6.330  0.00  0.00     0.032 A 
ATOM     25  C18 ZIN A   1      19.129   0.597   6.135  0.00  0.00     0.019 A 
ATOM     26  C17 ZIN A   1      19.034   1.567   7.106  0.00  0.00     0.030 A 
BRANCH  24  27
ATOM     27  C20 ZIN A   1      18.627  -1.690   5.290  0.00  0.00     0.252 C 
ATOM     28  O21 ZIN A   1      19.498  -1.623   4.446  0.00  0.00    -0.268 OA
ATOM     29  N22 ZIN A   1      17.752  -2.716   5.277  0.00  0.00    -0.342 N 
ATOM     30  H45 ZIN A   1      17.056  -2.770   5.951  0.00  0.00     0.163 HD
BRANCH  29  31
ATOM     31  C23 ZIN A   1      17.852  -3.750   4.244  0.00  0.00     0.186 C 
BRANCH  31  32
ATOM     32  C25 ZIN A   1      18.201  -5.089   4.896  0.00  0.00     0.046 C 
BRANCH  32  33
ATOM     33  C26 ZIN A   1      18.312  -4.907   6.410  0.00  0.00     0.116 C 
BRANCH  33  34
ATOM     34  C27 ZIN A   1      19.761  -4.962   6.820  0.00  0.00     0.172 C 
ATOM     35  O28 ZIN A   1      20.195  -5.946   7.394  0.00  0.00    -0.648 OA
ATOM     36  O29 ZIN A   1      20.499  -4.023   6.576  0.00  0.00    -0.648 OA
ENDBRANCH  33  34
ENDBRANCH  32  33
ENDBRANCH  31  32
BRANCH  31  37
ATOM     37  C30 ZIN A   1      16.534  -3.870   3.524  0.00  0.00     0.196 C 
ATOM     38  O31 ZIN A   1      15.546  -4.260   4.122  0.00  0.00    -0.646 OA
ATOM     39  O32 ZIN A   1      16.456  -3.578   2.342  0.00  0.00    -0.646 OA
ENDBRANCH  31  37
ENDBRANCH  29  31
ENDBRANCH  24  27
ENDBRANCH   1  21
TORSDOF 11
ENDMDL
MODEL 3
REMARK VINA RESULT:      -8.1      1.176      1.627
REMARK  11 active torsions:
REMARK  status: ('A' for Active; 'I' for Inactive)
REMARK    1  A    between atoms: N1_1  and  C2_2 
REMARK    2  A    between atoms: N9_9  and  C10_10 
REMARK    3  A    between atoms: C12_12  and  C14_13 
REMARK    4  A    between atoms: C14_13  and  N15_14 
REMARK    5  A    between atoms: N15_14  and  C16_15 
REMARK    6  A    between atoms: C19_18  and  C20_19 
REMARK       I    between atoms: C20_19  and  N22_21 
REMARK    7  A    between atoms: N22_21  and  C23_22 
REMARK    8  A    between atoms: C23_22  and  C25_23 
REMARK    9  A    between atoms: C23_22  and  C30_28 
REMARK   10  A    between atoms: C25_23  and  C26_24 
REMARK   11  A    between atoms: C26_24  and  C27_25 
ROOT
ATOM      1  N15 ZIN A   1      19.539   1.604   8.781  0.00  0.00    -0.388 N 
ATOM      2  H42 ZIN A   1      19.734   2.135   7.993  0.00  0.00     0.159 HD
ENDROOT
BRANCH   1   3
ATOM      3  C14 ZIN A   1      19.545   0.142   8.700  0.00  0.00     0.147 C 
BRANCH   3   4
ATOM      4  C12 ZIN A   1      18.158  -0.395   9.058  0.00  0.00     0.128 C 
ATOM      5  N9  ZIN A   1      18.278  -1.753   9.614  0.00  0.00    -0.309 N 
ATOM      6  C5  ZIN A   1      18.533  -2.821   8.732  0.00  0.00     0.155 A 
ATOM      7  C4  ZIN A   1      18.338  -2.658   7.366  0.00  0.00     0.175 A 
ATOM      8  C6  ZIN A   1      18.980  -4.057   9.212  0.00  0.00     0.314 A 
ATOM      9  N3  ZIN A   1      18.579  -3.681   6.537  0.00  0.00    -0.043 NA
ATOM     10  N36 ZIN A   1      17.901  -1.440   6.872  0.00  0.00    -0.370 N 
ATOM     11  C2  ZIN A   1      18.998  -4.840   6.995  0.00  0.00     0.725 A 
ATOM     12  N8  ZIN A   1      19.201  -5.051   8.325  0.00  0.00    -0.020 NA
ATOM     13  C35 ZIN A   1      17.289  -0.474   7.794  0.00  0.00     0.148 C 
ATOM     14  H54 ZIN A   1      17.997  -1.228   5.930  0.00  0.00     0.161 HD
ATOM     15  O7  ZIN A   1      19.162  -4.233  10.407  0.00  0.00    -0.263 OA
BRANCH   5  16
ATOM     16  C10 ZIN A   1      18.147  -1.969  10.938  0.00  0.00     0.356 C 
ATOM     17  O11 ZIN A   1      17.086  -1.756  11.487  0.00  0.00    -0.283 OA
ENDBRANCH   5  16
BRANCH  11  18
ATOM     18  N1  ZIN A   1      19.233  -5.863   6.113  0.00  0.00    -0.231 N 
ATOM     19  H37 ZIN A   1      20.120  -5.988   5.741  0.00  0.00     0.174 HD
ATOM     20  H38 ZIN A   1      18.513  -6.464   5.864  0.00  0.00     0.174 HD
ENDBRANCH  11  18
ENDBRANCH   3   4
ENDBRANCH   1   3
BRANCH   1  21
ATOM     21  C16 ZIN A   1      19.255   2.232   9.988  0.00  0.00     0.028 A 
ATOM     22  C34 ZIN A   1      18.302   3.246  10.037  0.00  0.00     0.030 A 
ATOM     23  C33 ZIN A   1      18.015   3.866  11.233  0.00  0.00     0.019 A 
ATOM     24  C19 ZIN A   1      18.690   3.484  12.396  0.00  0.00     0.032 A 
ATOM     25  C18 ZIN A   1      19.651   2.470  12.342  0.00  0.00     0.019 A 
ATOM     26  C17 ZIN A   1      19.930   1.850  11.146  0.00  0.00     0.030 A 
BRANCH  24  27
ATOM     27  C20 ZIN A   1      18.390   4.151  13.677  0.00  0.00     0.252 C 
ATOM     28  O21 ZIN A   1      17.358   4.780  13.807  0.00  0.00    -0.268 OA
ATOM     29  N22 ZIN A   1      19.260   4.063  14.703  0.00  0.00    -0.342 N 
ATOM     30  H45 ZIN A   1      20.084   3.561  14.600  0.00  0.00     0.163 HD
BRANCH  29  31
ATOM     31  C23 ZIN A   1      18.962   4.726  15.975  0.00  0.00     0.186 C 
BRANCH  31  32
ATOM     32  C25 ZIN A   1      19.586   3.930  17.123  0.00  0.00     0.046 C 
BRANCH  32  33
ATOM     33  C26 ZIN A   1      18.620   2.831  17.568  0.00  0.00     0.116 C 
BRANCH  33  34
ATOM     34  C27 ZIN A   1      19.242   1.481  17.316  0.00  0.00     0.172 C 
ATOM     35  O28 ZIN A   1      19.759   0.868  18.234  0.00  0.00    -0.648 OA
ATOM     36  O29 ZIN A   1      19.227   1.003  16.195  0.00  0.00    -0.648 OA
ENDBRANCH  33  34
ENDBRANCH  32  33
ENDBRANCH  31  32
BRANCH  31  37
ATOM     37  C30 ZIN A   1      19.532   6.120  15.961  0.00  0.00     0.196 C 
ATOM     38  O31 ZIN A   1      18.843   7.064  16.308  0.00  0.00    -0.646 OA
ATOM     39  O32 ZIN A   1      20.683   6.304  15.603  0.00  0.00    -0.646 OA
ENDBRANCH  31  37
ENDBRANCH  29  31
ENDBRANCH  24  27
ENDBRANCH   1  21
TORSDOF 11
ENDMDL
MODEL 4
REMARK VINA RESULT:      -8.0      2.554      5.380
REMARK  11 active torsions:
REMARK  status: ('A' for Active; 'I' for Inactive)
REMARK    1  A    between atoms: N1_1  and  C2_2 
REMARK    2  A    between atoms: N9_9  and  C10_10 
REMARK    3  A    between atoms: C12_12  and  C14_13 
REMARK    4  A    between atoms: C14_13  and  N15_14 
REMARK    5  A    between atoms: N15_14  and  C16_15 
REMARK    6  A    between atoms: C19_18  and  C20_19 
REMARK       I    between atoms: C20_19  and  N22_21 
REMARK    7  A    between atoms: N22_21  and  C23_22 
REMARK    8  A    between atoms: C23_22  and  C25_23 
REMARK    9  A    between atoms: C23_22  and  C30_28 
REMARK   10  A    between atoms: C25_23  and  C26_24 
REMARK   11  A    between atoms: C26_24  and  C27_25 
ROOT
ATOM      1  N15 ZIN A   1      18.992  -1.398  13.702  0.00  0.00    -0.388 N 
ATOM      2  H42 ZIN A   1      18.654  -2.298  13.831  0.00  0.00     0.159 HD
ENDROOT
BRANCH   1   3
ATOM      3  C14 ZIN A   1      19.575  -1.010  12.416  0.00  0.00     0.147 C 
BRANCH   3   4
ATOM      4  C12 ZIN A   1      18.580  -1.308  11.293  0.00  0.00     0.128 C 
ATOM      5  N9  ZIN A   1      18.852  -0.433  10.141  0.00  0.00    -0.309 N 
ATOM      6  C5  ZIN A   1      18.460   0.919  10.216  0.00  0.00     0.155 A 
ATOM      7  C4  ZIN A   1      17.553   1.329  11.185  0.00  0.00     0.175 A 
ATOM      8  C6  ZIN A   1      18.972   1.864   9.320  0.00  0.00     0.314 A 
ATOM      9  N3  ZIN A   1      17.185   2.614  11.244  0.00  0.00    -0.043 NA
ATOM     10  N36 ZIN A   1      17.040   0.408  12.084  0.00  0.00    -0.370 N 
ATOM     11  C2  ZIN A   1      17.669   3.497  10.398  0.00  0.00     0.725 A 
ATOM     12  N8  ZIN A   1      18.558   3.145   9.429  0.00  0.00    -0.020 NA
ATOM     13  C35 ZIN A   1      17.150  -1.025  11.778  0.00  0.00     0.148 C 
ATOM     14  H54 ZIN A   1      16.615   0.705  12.903  0.00  0.00     0.161 HD
ATOM     15  O7  ZIN A   1      19.772   1.537   8.457  0.00  0.00    -0.263 OA
BRANCH   5  16
ATOM     16  C10 ZIN A   1      19.462  -0.914   9.040  0.00  0.00     0.356 C 
ATOM     17  O11 ZIN A   1      19.003  -1.878   8.463  0.00  0.00    -0.283 OA
ENDBRANCH   5  16
BRANCH  11  18
ATOM     18  N1  ZIN A   1      17.265   4.804  10.492  0.00  0.00    -0.231 N 
ATOM     19  H37 ZIN A   1      17.919   5.503  10.654  0.00  0.00     0.174 HD
ATOM     20  H38 ZIN A   1      16.328   5.031  10.392  0.00  0.00     0.174 HD
ENDBRANCH  11  18
ENDBRANCH   3   4
ENDBRANCH   1   3
BRANCH   1  21
ATOM     21  C16 ZIN A   1      18.920  -0.475  14.739  0.00  0.00     0.028 A 
ATOM     22  C34 ZIN A   1      19.408   0.816  14.556  0.00  0.00     0.030 A 
ATOM     23  C33 ZIN A   1      19.333   1.734  15.579  0.00  0.00     0.019 A 
ATOM     24  C19 ZIN A   1      18.777   1.364  16.808  0.00  0.00     0.032 A 
ATOM     25  C18 ZIN A   1      18.294   0.066  16.991  0.00  0.00     0.019 A 
ATOM     26  C17 ZIN A   1      18.366  -0.846  15.962  0.00  0.00     0.030 A 
BRANCH  24  27
ATOM     27  C20 ZIN A   1      18.702   2.343  17.909  0.00  0.00     0.252 C 
ATOM     28  O21 ZIN A   1      19.517   2.309  18.809  0.00  0.00    -0.268 OA
ATOM     29  N22 ZIN A   1      17.728   3.276  17.915  0.00  0.00    -0.342 N 
ATOM     30  H45 ZIN A   1      17.077   3.304  17.197  0.00  0.00     0.163 HD
BRANCH  29  31
ATOM     31  C23 ZIN A   1      17.653   4.248  19.009  0.00  0.00     0.186 C 
BRANCH  31  32
ATOM     32  C25 ZIN A   1      17.792   5.663  18.444  0.00  0.00     0.046 C 
BRANCH  32  33
ATOM     33  C26 ZIN A   1      17.640   5.623  16.922  0.00  0.00     0.116 C 
BRANCH  33  34
ATOM     34  C27 ZIN A   1      18.949   5.997  16.275  0.00  0.00     0.172 C 
ATOM     35  O28 ZIN A   1      19.907   5.248  16.363  0.00  0.00    -0.648 OA
ATOM     36  O29 ZIN A   1      19.048   7.046  15.663  0.00  0.00    -0.648 OA
ENDBRANCH  33  34
ENDBRANCH  32  33
ENDBRANCH  31  32
BRANCH  31  37
ATOM     37  C30 ZIN A   1      16.326   4.115  19.709  0.00  0.00     0.196 C 
ATOM     38  O31 ZIN A   1      15.317   4.566  19.194  0.00  0.00    -0.646 OA
ATOM     39  O32 ZIN A   1      16.261   3.556  20.791  0.00  0.00    -0.646 OA
ENDBRANCH  31  37
ENDBRANCH  29  31
ENDBRANCH  24  27
ENDBRANCH   1  21
TORSDOF 11
ENDMDL
MODEL 5
REMARK VINA RESULT:      -8.0      3.281     10.105
REMARK  11 active torsions:
REMARK  status: ('A' for Active; 'I' for Inactive)
REMARK    1  A    between atoms: N1_1  and  C2_2 
REMARK    2  A    between atoms: N9_9  and  C10_10 
REMARK    3  A    between atoms: C12_12  and  C14_13 
REMARK    4  A    between atoms: C14_13  and  N15_14 
REMARK    5  A    between atoms: N15_14  and  C16_15 
REMARK    6  A    between atoms: C19_18  and  C20_19 
REMARK       I    between atoms: C20_19  and  N22_21 
REMARK    7  A    between atoms: N22_21  and  C23_22 
REMARK    8  A    between atoms: C23_22  and  C25_23 
REMARK    9  A    between atoms: C23_22  and  C30_28 
REMARK   10  A    between atoms: C25_23  and  C26_24 
REMARK   11  A    between atoms: C26_24  and  C27_25 
ROOT
ATOM      1  N15 ZIN A   1      19.603  -1.233  13.562  0.00  0.00    -0.388 N 
ATOM      2  H42 ZIN A   1      19.824  -1.757  14.348  0.00  0.00     0.159 HD
ENDROOT
BRANCH   1   3
ATOM      3  C14 ZIN A   1      19.678   0.230  13.611  0.00  0.00     0.147 C 
BRANCH   3   4
ATOM      4  C12 ZIN A   1      18.292   0.820  13.346  0.00  0.00     0.128 C 
ATOM      5  N9  ZIN A   1      18.422   2.222  12.916  0.00  0.00    -0.309 N 
ATOM      6  C5  ZIN A   1      18.722   3.199  13.887  0.00  0.00     0.155 A 
ATOM      7  C4  ZIN A   1      18.563   2.911  15.237  0.00  0.00     0.175 A 
ATOM      8  C6  ZIN A   1      19.180   4.467  13.510  0.00  0.00     0.314 A 
ATOM      9  N3  ZIN A   1      18.847   3.847  16.150  0.00  0.00    -0.043 NA
ATOM     10  N36 ZIN A   1      18.116   1.660  15.628  0.00  0.00    -0.370 N 
ATOM     11  C2  ZIN A   1      19.276   5.038  15.789  0.00  0.00     0.725 A 
ATOM     12  N8  ZIN A   1      19.445   5.369  14.480  0.00  0.00    -0.020 NA
ATOM     13  C35 ZIN A   1      17.461   0.795  14.638  0.00  0.00     0.148 C 
ATOM     14  H54 ZIN A   1      18.235   1.359  16.542  0.00  0.00     0.161 HD
ATOM     15  O7  ZIN A   1      19.331   4.751  12.333  0.00  0.00    -0.263 OA
BRANCH   5  16
ATOM     16  C10 ZIN A   1      18.258   2.563  11.622  0.00  0.00     0.356 C 
ATOM     17  O11 ZIN A   1      17.149   2.558  11.129  0.00  0.00    -0.283 OA
ENDBRANCH   5  16
BRANCH  11  18
ATOM     18  N1  ZIN A   1      19.554   5.969  16.756  0.00  0.00    -0.231 N 
ATOM     19  H37 ZIN A   1      20.434   5.995  17.164  0.00  0.00     0.174 HD
ATOM     20  H38 ZIN A   1      18.874   6.604  17.029  0.00  0.00     0.174 HD
ENDBRANCH  11  18
ENDBRANCH   3   4
ENDBRANCH   1   3
BRANCH   1  21
ATOM     21  C16 ZIN A   1      19.216  -1.870  12.389  0.00  0.00     0.028 A 
ATOM     22  C34 ZIN A   1      18.155  -2.772  12.406  0.00  0.00     0.030 A 
ATOM     23  C33 ZIN A   1      17.766  -3.401  11.244  0.00  0.00     0.019 A 
ATOM     24  C19 ZIN A   1      18.446  -3.141  10.050  0.00  0.00     0.032 A 
ATOM     25  C18 ZIN A   1      19.514  -2.240  10.038  0.00  0.00     0.019 A 
ATOM     26  C17 ZIN A   1      19.895  -1.610  11.201  0.00  0.00     0.030 A 
BRANCH  24  27
ATOM     27  C20 ZIN A   1      18.036  -3.818   8.805  0.00  0.00     0.252 C 
ATOM     28  O21 ZIN A   1      16.983  -4.423   8.761  0.00  0.00    -0.268 OA
ATOM     29  N22 ZIN A   1      18.829  -3.766   7.717  0.00  0.00    -0.342 N 
ATOM     30  H45 ZIN A   1      19.670  -3.283   7.751  0.00  0.00     0.163 HD
BRANCH  29  31
ATOM     31  C23 ZIN A   1      18.422  -4.439   6.480  0.00  0.00     0.186 C 
BRANCH  31  32
ATOM     32  C25 ZIN A   1      18.887  -3.617   5.276  0.00  0.00     0.046 C 
BRANCH  32  33
ATOM     33  C26 ZIN A   1      18.191  -2.255   5.288  0.00  0.00     0.116 C 
BRANCH  33  34
ATOM     34  C27 ZIN A   1      19.205  -1.174   5.564  0.00  0.00     0.172 C 
ATOM     35  O28 ZIN A   1      19.902  -0.749   4.659  0.00  0.00    -0.648 OA
ATOM     36  O29 ZIN A   1      19.327  -0.725   6.690  0.00  0.00    -0.648 OA
ENDBRANCH  33  34
ENDBRANCH  32  33
ENDBRANCH  31  32
BRANCH  31  37
ATOM     37  C30 ZIN A   1      19.046  -5.808   6.425  0.00  0.00     0.196 C 
ATOM     38  O31 ZIN A   1      18.452  -6.728   5.887  0.00  0.00    -0.646 OA
ATOM     39  O32 ZIN A   1      20.146  -5.998   6.918  0.00  0.00    -0.646 OA
ENDBRANCH  31  37
ENDBRANCH  29  31
ENDBRANCH  24  27
ENDBRANCH   1  21
TORSDOF 11
ENDMDL
MODEL 6
REMARK VINA RESULT:      -8.0      2.396      4.594
REMARK  11 active torsions:
REMARK  status: ('A' for Active; 'I' for Inactive)
REMARK    1  A    between atoms: N1_1  and  C2_2 
REMARK    2  A    between atoms: N9_9  and  C10_10 
REMARK    3  A    between atoms: C12_12  and  C14_13 
REMARK    4  A    between atoms: C14_13  and  N15_14 
REMARK    5  A    between atoms: N15_14  and  C16_15 
REMARK    6  A    between atoms: C19_18  and  C20_19 
REMARK       I    between atoms: C20_19  and  N22_21 
REMARK    7  A    between atoms: N22_21  and  C23_22 
REMARK    8  A    between atoms: C23_22  and  C25_23 
REMARK    9  A    between atoms: C23_22  and  C30_28 
REMARK   10  A    between atoms: C25_23  and  C26_24 
REMARK   11  A    between atoms: C26_24  and  C27_25 
ROOT
ATOM      1  N15 ZIN A   1      19.434  -1.749  13.678  0.00  0.00    -0.388 N 
ATOM      2  H42 ZIN A   1      19.683  -2.652  13.927  0.00  0.00     0.159 HD
ENDROOT
BRANCH   1   3
ATOM      3  C14 ZIN A   1      19.210  -1.412  12.270  0.00  0.00     0.147 C 
BRANCH   3   4
ATOM      4  C12 ZIN A   1      17.762  -1.733  11.893  0.00  0.00     0.128 C 
ATOM      5  N9  ZIN A   1      17.725  -2.411  10.587  0.00  0.00    -0.309 N 
ATOM      6  C5  ZIN A   1      17.924  -1.641   9.424  0.00  0.00     0.155 A 
ATOM      7  C4  ZIN A   1      17.815  -0.257   9.478  0.00  0.00     0.175 A 
ATOM      8  C6  ZIN A   1      18.229  -2.252   8.202  0.00  0.00     0.314 A 
ATOM      9  N3  ZIN A   1      18.001   0.464   8.366  0.00  0.00    -0.043 NA
ATOM     10  N36 ZIN A   1      17.519   0.366  10.679  0.00  0.00    -0.370 N 
ATOM     11  C2  ZIN A   1      18.286  -0.117   7.220  0.00  0.00     0.725 A 
ATOM     12  N8  ZIN A   1      18.400  -1.469   7.115  0.00  0.00    -0.020 NA
ATOM     13  C35 ZIN A   1      16.955  -0.432  11.776  0.00  0.00     0.148 C 
ATOM     14  H54 ZIN A   1      17.682   1.315  10.794  0.00  0.00     0.161 HD
ATOM     15  O7  ZIN A   1      18.333  -3.466   8.121  0.00  0.00    -0.263 OA
BRANCH   5  16
ATOM     16  C10 ZIN A   1      17.508  -3.739  10.506  0.00  0.00     0.356 C 
ATOM     17  O11 ZIN A   1      17.632  -4.435  11.492  0.00  0.00    -0.283 OA
ENDBRANCH   5  16
BRANCH  11  18
ATOM     18  N1  ZIN A   1      18.468   0.658   6.104  0.00  0.00    -0.231 N 
ATOM     19  H37 ZIN A   1      18.091   0.380   5.255  0.00  0.00     0.174 HD
ATOM     20  H38 ZIN A   1      18.970   1.486   6.165  0.00  0.00     0.174 HD
ENDBRANCH  11  18
ENDBRANCH   3   4
ENDBRANCH   1   3
BRANCH   1  21
ATOM     21  C16 ZIN A   1      19.289  -0.773  14.657  0.00  0.00     0.028 A 
ATOM     22  C34 ZIN A   1      19.428   0.572  14.325  0.00  0.00     0.030 A 
ATOM     23  C33 ZIN A   1      19.279   1.540  15.292  0.00  0.00     0.019 A 
ATOM     24  C19 ZIN A   1      19.000   1.171  16.611  0.00  0.00     0.032 A 
ATOM     25  C18 ZIN A   1      18.866  -0.180  16.942  0.00  0.00     0.019 A 
ATOM     26  C17 ZIN A   1      19.010  -1.144  15.971  0.00  0.00     0.030 A 
BRANCH  24  27
ATOM     27  C20 ZIN A   1      18.846   2.206  17.651  0.00  0.00     0.252 C 
ATOM     28  O21 ZIN A   1      19.540   2.173  18.648  0.00  0.00    -0.268 OA
ATOM     29  N22 ZIN A   1      17.936   3.188  17.495  0.00  0.00    -0.342 N 
ATOM     30  H45 ZIN A   1      17.382   3.215  16.699  0.00  0.00     0.163 HD
BRANCH  29  31
ATOM     31  C23 ZIN A   1      17.783   4.216  18.528  0.00  0.00     0.186 C 
BRANCH  31  32
ATOM     32  C25 ZIN A   1      17.930   5.601  17.895  0.00  0.00     0.046 C 
BRANCH  32  33
ATOM     33  C26 ZIN A   1      18.038   5.459  16.375  0.00  0.00     0.116 C 
BRANCH  33  34
ATOM     34  C27 ZIN A   1      19.445   5.779  15.938  0.00  0.00     0.172 C 
ATOM     35  O28 ZIN A   1      20.354   5.012  16.204  0.00  0.00    -0.648 OA
ATOM     36  O29 ZIN A   1      19.672   6.804  15.319  0.00  0.00    -0.648 OA
ENDBRANCH  33  34
ENDBRANCH  32  33
ENDBRANCH  31  32
BRANCH  31  37
ATOM     37  C30 ZIN A   1      16.422   4.094  19.160  0.00  0.00     0.196 C 
ATOM     38  O31 ZIN A   1      16.184   3.174  19.924  0.00  0.00    -0.646 OA
ATOM     39  O32 ZIN A   1      15.556   4.916  18.908  0.00  0.00    -0.646 OA
ENDBRANCH  31  37
ENDBRANCH  29  31
ENDBRANCH  24  27
ENDBRANCH   1  21
TORSDOF 11
ENDMDL
MODEL 7
REMARK VINA RESULT:      -7.5      1.718      2.857
REMARK  11 active torsions:
REMARK  status: ('A' for Active; 'I' for Inactive)
REMARK    1  A    between atoms: N1_1  and  C2_2 
REMARK    2  A    between atoms: N9_9  and  C10_10 
REMARK    3  A    between atoms: C12_12  and  C14_13 
REMARK    4  A    between atoms: C14_13  and  N15_14 
REMARK    5  A    between atoms: N15_14  and  C16_15 
REMARK    6  A    between atoms: C19_18  and  C20_19 
REMARK       I    between atoms: C20_19  and  N22_21 
REMARK    7  A    between atoms: N22_21  and  C23_22 
REMARK    8  A    between atoms: C23_22  and  C25_23 
REMARK    9  A    between atoms: C23_22  and  C30_28 
REMARK   10  A    between atoms: C25_23  and  C26_24 
REMARK   11  A    between atoms: C26_24  and  C27_25 
ROOT
ATOM      1  N15 ZIN A   1      18.750   2.405   8.929  0.00  0.00    -0.388 N 
ATOM      2  H42 ZIN A   1      18.647   2.873   8.085  0.00  0.00     0.159 HD
ENDROOT
BRANCH   1   3
ATOM      3  C14 ZIN A   1      18.874   0.945   8.946  0.00  0.00     0.147 C 
BRANCH   3   4
ATOM      4  C12 ZIN A   1      17.487   0.318   9.100  0.00  0.00     0.128 C 
ATOM      5  N9  ZIN A   1      17.497  -0.645  10.214  0.00  0.00    -0.309 N 
ATOM      6  C5  ZIN A   1      18.111  -1.898  10.015  0.00  0.00     0.155 A 
ATOM      7  C4  ZIN A   1      18.389  -2.340   8.728  0.00  0.00     0.175 A 
ATOM      8  C6  ZIN A   1      18.446  -2.713  11.102  0.00  0.00     0.314 A 
ATOM      9  N3  ZIN A   1      18.968  -3.534   8.550  0.00  0.00    -0.043 NA
ATOM     10  N36 ZIN A   1      18.069  -1.544   7.640  0.00  0.00    -0.370 N 
ATOM     11  C2  ZIN A   1      19.280  -4.296   9.576  0.00  0.00     0.725 A 
ATOM     12  N8  ZIN A   1      19.025  -3.908  10.856  0.00  0.00    -0.020 NA
ATOM     13  C35 ZIN A   1      17.115  -0.442   7.819  0.00  0.00     0.148 C 
ATOM     14  H54 ZIN A   1      18.470  -1.712   6.773  0.00  0.00     0.161 HD
ATOM     15  O7  ZIN A   1      18.216  -2.353  12.246  0.00  0.00    -0.263 OA
BRANCH   5  16
ATOM     16  C10 ZIN A   1      16.932  -0.334  11.398  0.00  0.00     0.356 C 
ATOM     17  O11 ZIN A   1      16.741   0.827  11.693  0.00  0.00    -0.283 OA
ENDBRANCH   5  16
BRANCH  11  18
ATOM     18  N1  ZIN A   1      19.871  -5.512   9.351  0.00  0.00    -0.231 N 
ATOM     19  H37 ZIN A   1      20.388  -5.937  10.054  0.00  0.00     0.174 HD
ATOM     20  H38 ZIN A   1      19.770  -5.948   8.491  0.00  0.00     0.174 HD
ENDBRANCH  11  18
ENDBRANCH   3   4
ENDBRANCH   1   3
BRANCH   1  21
ATOM     21  C16 ZIN A   1      18.782   3.120  10.120  0.00  0.00     0.028 A 
ATOM     22  C34 ZIN A   1      17.829   4.105  10.365  0.00  0.00     0.030 A 
ATOM     23  C33 ZIN A   1      17.854   4.810  11.547  0.00  0.00     0.019 A 
ATOM     24  C19 ZIN A   1      18.846   4.545  12.497  0.00  0.00     0.032 A 
ATOM     25  C18 ZIN A   1      19.804   3.559  12.245  0.00  0.00     0.019 A 
ATOM     26  C17 ZIN A   1      19.770   2.853  11.064  0.00  0.00     0.030 A 
BRANCH  24  27
ATOM     27  C20 ZIN A   1      18.879   5.303  13.761  0.00  0.00     0.252 C 
ATOM     28  O21 ZIN A   1      19.884   5.908  14.080  0.00  0.00    -0.268 OA
ATOM     29  N22 ZIN A   1      17.796   5.326  14.563  0.00  0.00    -0.342 N 
ATOM     30  H45 ZIN A   1      16.994   4.843  14.309  0.00  0.00     0.163 HD
BRANCH  29  31
ATOM     31  C23 ZIN A   1      17.830   6.079  15.819  0.00  0.00     0.186 C 
BRANCH  31  32
ATOM     32  C25 ZIN A   1      16.647   7.048  15.864  0.00  0.00     0.046 C 
BRANCH  32  33
ATOM     33  C26 ZIN A   1      15.694   6.745  14.708  0.00  0.00     0.116 C 
BRANCH  33  34
ATOM     34  C27 ZIN A   1      14.352   6.332  15.256  0.00  0.00     0.172 C 
ATOM     35  O28 ZIN A   1      14.085   6.534  16.428  0.00  0.00    -0.648 OA
ATOM     36  O29 ZIN A   1      13.533   5.798  14.528  0.00  0.00    -0.648 OA
ENDBRANCH  33  34
ENDBRANCH  32  33
ENDBRANCH  31  32
BRANCH  31  37
ATOM     37  C30 ZIN A   1      17.741   5.124  16.980  0.00  0.00     0.196 C 
ATOM     38  O31 ZIN A   1      16.827   5.221  17.782  0.00  0.00    -0.646 OA
ATOM     39  O32 ZIN A   1      18.583   4.252  17.119  0.00  0.00    -0.646 OA
ENDBRANCH  31  37
ENDBRANCH  29  31
ENDBRANCH  24  27
ENDBRANCH   1  21
TORSDOF 11
ENDMDL
MODEL 8
REMARK VINA RESULT:      -7.5      1.856      2.450
REMARK  11 active torsions:
REMARK  status: ('A' for Active; 'I' for Inactive)
REMARK    1  A    between atoms: N1_1  and  C2_2 
REMARK    2  A    between atoms: N9_9  and  C10_10 
REMARK    3  A    between atoms: C12_12  and  C14_13 
REMARK    4  A    between atoms: C14_13  and  N15_14 
REMARK    5  A    between atoms: N15_14  and  C16_15 
REMARK    6  A    between atoms: C19_18  and  C20_19 
REMARK       I    between atoms: C20_19  and  N22_21 
REMARK    7  A    between atoms: N22_21  and  C23_22 
REMARK    8  A    between atoms: C23_22  and  C25_23 
REMARK    9  A    between atoms: C23_22  and  C30_28 
REMARK   10  A    between atoms: C25_23  and  C26_24 
REMARK   11  A    between atoms: C26_24  and  C27_25 
ROOT
ATOM      1  N15 ZIN A   1      18.381   1.553   8.834  0.00  0.00    -0.388 N 
ATOM      2  H42 ZIN A   1      18.793   1.974   8.063  0.00  0.00     0.159 HD
ENDROOT
BRANCH   1   3
ATOM      3  C14 ZIN A   1      18.049   0.127   8.801  0.00  0.00     0.147 C 
BRANCH   3   4
ATOM      4  C12 ZIN A   1      19.298  -0.679   8.438  0.00  0.00     0.128 C 
ATOM      5  N9  ZIN A   1      18.914  -2.050   8.061  0.00  0.00    -0.309 N 
ATOM      6  C5  ZIN A   1      18.552  -2.951   9.082  0.00  0.00     0.155 A 
ATOM      7  C4  ZIN A   1      18.870  -2.671  10.404  0.00  0.00     0.175 A 
ATOM      8  C6  ZIN A   1      17.871  -4.137   8.782  0.00  0.00     0.314 A 
ATOM      9  N3  ZIN A   1      18.525  -3.537  11.365  0.00  0.00    -0.043 NA
ATOM     10  N36 ZIN A   1      19.539  -1.500  10.720  0.00  0.00    -0.370 N 
ATOM     11  C2  ZIN A   1      17.886  -4.651  11.076  0.00  0.00     0.725 A 
ATOM     12  N8  ZIN A   1      17.554  -4.971   9.796  0.00  0.00    -0.020 NA
ATOM     13  C35 ZIN A   1      20.232  -0.765   9.654  0.00  0.00     0.148 C 
ATOM     14  H54 ZIN A   1      19.548  -1.170  11.632  0.00  0.00     0.161 HD
ATOM     15  O7  ZIN A   1      17.575  -4.412   7.629  0.00  0.00    -0.263 OA
BRANCH   5  16
ATOM     16  C10 ZIN A   1      18.909  -2.432   6.769  0.00  0.00     0.356 C 
ATOM     17  O11 ZIN A   1      19.698  -1.943   5.988  0.00  0.00    -0.283 OA
ENDBRANCH   5  16
BRANCH  11  18
ATOM     18  N1  ZIN A   1      17.551  -5.511  12.090  0.00  0.00    -0.231 N 
ATOM     19  H37 ZIN A   1      18.237  -5.841  12.691  0.00  0.00     0.174 HD
ATOM     20  H38 ZIN A   1      16.629  -5.786  12.207  0.00  0.00     0.174 HD
ENDBRANCH  11  18
ENDBRANCH   3   4
ENDBRANCH   1   3
BRANCH   1  21
ATOM     21  C16 ZIN A   1      18.107   2.304   9.971  0.00  0.00     0.028 A 
ATOM     22  C34 ZIN A   1      17.792   1.665  11.167  0.00  0.00     0.030 A 
ATOM     23  C33 ZIN A   1      17.526   2.406  12.297  0.00  0.00     0.019 A 
ATOM     24  C19 ZIN A   1      17.561   3.803  12.238  0.00  0.00     0.032 A 
ATOM     25  C18 ZIN A   1      17.872   4.441  11.034  0.00  0.00     0.019 A 
ATOM     26  C17 ZIN A   1      18.143   3.695   9.910  0.00  0.00     0.030 A 
BRANCH  24  27
ATOM     27  C20 ZIN A   1      17.270   4.600  13.444  0.00  0.00     0.252 C 
ATOM     28  O21 ZIN A   1      16.202   5.170  13.553  0.00  0.00    -0.268 OA
ATOM     29  N22 ZIN A   1      18.189   4.697  14.426  0.00  0.00    -0.342 N 
ATOM     30  H45 ZIN A   1      19.042   4.242  14.340  0.00  0.00     0.163 HD
BRANCH  29  31
ATOM     31  C23 ZIN A   1      17.900   5.489  15.624  0.00  0.00     0.186 C 
BRANCH  31  32
ATOM     32  C25 ZIN A   1      18.287   4.689  16.870  0.00  0.00     0.046 C 
BRANCH  32  33
ATOM     33  C26 ZIN A   1      19.617   3.975  16.625  0.00  0.00     0.116 C 
BRANCH  33  34
ATOM     34  C27 ZIN A   1      19.389   2.485  16.583  0.00  0.00     0.172 C 
ATOM     35  O28 ZIN A   1      19.325   1.910  15.510  0.00  0.00    -0.648 OA
ATOM     36  O29 ZIN A   1      19.269   1.857  17.620  0.00  0.00    -0.648 OA
ENDBRANCH  33  34
ENDBRANCH  32  33
ENDBRANCH  31  32
BRANCH  31  37
ATOM     37  C30 ZIN A   1      18.693   6.769  15.583  0.00  0.00     0.196 C 
ATOM     38  O31 ZIN A   1      18.491   7.638  16.415  0.00  0.00    -0.646 OA
ATOM     39  O32 ZIN A   1      19.536   6.937  14.718  0.00  0.00    -0.646 OA
ENDBRANCH  31  37
ENDBRANCH  29  31
ENDBRANCH  24  27
ENDBRANCH   1  21
TORSDOF 11
ENDMDL
MODEL 9
REMARK VINA RESULT:      -7.4      3.579     10.022
REMARK  11 active torsions:
REMARK  status: ('A' for Active; 'I' for Inactive)
REMARK    1  A    between atoms: N1_1  and  C2_2 
REMARK    2  A    between atoms: N9_9  and  C10_10 
REMARK    3  A    between atoms: C12_12  and  C14_13 
REMARK    4  A    between atoms: C14_13  and  N15_14 
REMARK    5  A    between atoms: N15_14  and  C16_15 
REMARK    6  A    between atoms: C19_18  and  C20_19 
REMARK       I    between atoms: C20_19  and  N22_21 
REMARK    7  A    between atoms: N22_21  and  C23_22 
REMARK    8  A    between atoms: C23_22  and  C25_23 
REMARK    9  A    between atoms: C23_22  and  C30_28 
REMARK   10  A    between atoms: C25_23  and  C26_24 
REMARK   11  A    between atoms: C26_24  and  C27_25 
ROOT
ATOM      1  N15 ZIN A   1      16.966  -0.329  11.941  0.00  0.00    -0.388 N 
ATOM      2  H42 ZIN A   1      16.329  -0.803  12.497  0.00  0.00     0.159 HD
ENDROOT
BRANCH   1   3
ATOM      3  C14 ZIN A   1      17.505   0.961  12.380  0.00  0.00     0.147 C 
BRANCH   3   4
ATOM      4  C12 ZIN A   1      19.008   0.827  12.630  0.00  0.00     0.128 C 
ATOM      5  N9  ZIN A   1      19.249   0.452  14.033  0.00  0.00    -0.309 N 
ATOM      6  C5  ZIN A   1      19.107   1.440  15.028  0.00  0.00     0.155 A 
ATOM      7  C4  ZIN A   1      19.081   2.783  14.676  0.00  0.00     0.175 A 
ATOM      8  C6  ZIN A   1      18.994   1.087  16.377  0.00  0.00     0.314 A 
ATOM      9  N3  ZIN A   1      18.951   3.714  15.629  0.00  0.00    -0.043 NA
ATOM     10  N36 ZIN A   1      19.186   3.151  13.345  0.00  0.00    -0.370 N 
ATOM     11  C2  ZIN A   1      18.847   3.376  16.896  0.00  0.00     0.725 A 
ATOM     12  N8  ZIN A   1      18.870   2.073  17.292  0.00  0.00    -0.020 NA
ATOM     13  C35 ZIN A   1      19.700   2.175  12.374  0.00  0.00     0.148 C 
ATOM     14  H54 ZIN A   1      18.924   4.039  13.058  0.00  0.00     0.161 HD
ATOM     15  O7  ZIN A   1      19.013  -0.085  16.720  0.00  0.00    -0.263 OA
BRANCH   5  16
ATOM     16  C10 ZIN A   1      19.595  -0.810  14.358  0.00  0.00     0.356 C 
ATOM     17  O11 ZIN A   1      18.989  -1.748  13.883  0.00  0.00    -0.283 OA
ENDBRANCH   5  16
BRANCH  11  18
ATOM     18  N1  ZIN A   1      18.716   4.360  17.842  0.00  0.00    -0.231 N 
ATOM     19  H37 ZIN A   1      17.836   4.705  18.063  0.00  0.00     0.174 HD
ATOM     20  H38 ZIN A   1      19.501   4.706  18.293  0.00  0.00     0.174 HD
ENDBRANCH  11  18
ENDBRANCH   3   4
ENDBRANCH   1   3
BRANCH   1  21
ATOM     21  C16 ZIN A   1      17.370  -0.873  10.727  0.00  0.00     0.028 A 
ATOM     22  C34 ZIN A   1      17.796  -2.198  10.667  0.00  0.00     0.030 A 
ATOM     23  C33 ZIN A   1      18.190  -2.742   9.466  0.00  0.00     0.019 A 
ATOM     24  C19 ZIN A   1      18.174  -1.959   8.307  0.00  0.00     0.032 A 
ATOM     25  C18 ZIN A   1      17.752  -0.628   8.372  0.00  0.00     0.019 A 
ATOM     26  C17 ZIN A   1      17.353  -0.091   9.575  0.00  0.00     0.030 A 
BRANCH  24  27
ATOM     27  C20 ZIN A   1      18.603  -2.537   7.020  0.00  0.00     0.252 C 
ATOM     28  O21 ZIN A   1      19.712  -2.298   6.585  0.00  0.00    -0.268 OA
ATOM     29  N22 ZIN A   1      17.764  -3.331   6.324  0.00  0.00    -0.342 N 
ATOM     30  H45 ZIN A   1      16.878  -3.522   6.670  0.00  0.00     0.163 HD
BRANCH  29  31
ATOM     31  C23 ZIN A   1      18.189  -3.904   5.045  0.00  0.00     0.186 C 
BRANCH  31  32
ATOM     32  C25 ZIN A   1      17.993  -5.421   5.076  0.00  0.00     0.046 C 
BRANCH  32  33
ATOM     33  C26 ZIN A   1      17.305  -5.821   6.383  0.00  0.00     0.116 C 
BRANCH  33  34
ATOM     34  C27 ZIN A   1      18.269  -6.602   7.240  0.00  0.00     0.172 C 
ATOM     35  O28 ZIN A   1      18.034  -7.767   7.512  0.00  0.00    -0.648 OA
ATOM     36  O29 ZIN A   1      19.281  -6.070   7.659  0.00  0.00    -0.648 OA
ENDBRANCH  33  34
ENDBRANCH  32  33
ENDBRANCH  31  32
BRANCH  31  37
ATOM     37  C30 ZIN A   1      17.365  -3.313   3.931  0.00  0.00     0.196 C 
ATOM     38  O31 ZIN A   1      17.037  -2.140   3.971  0.00  0.00    -0.646 OA
ATOM     39  O32 ZIN A   1      17.027  -4.009   2.988  0.00  0.00    -0.646 OA
ENDBRANCH  31  37
ENDBRANCH  29  31
ENDBRANCH  24  27
ENDBRANCH   1  21
TORSDOF 11
ENDMDL
