MODEL 1
REMARK VINA RESULT:      -5.8      0.000      0.000
REMARK  4 active torsions:
REMARK  status: ('A' for Active; 'I' for Inactive)
REMARK    1  A    between atoms: C8_8  and  O9_9 
REMARK    2  A    between atoms: O9_9  and  C10_10 
REMARK    3  A    between atoms: C10_10  and  C11_11 
REMARK    4  A    between atoms: C11_11  and  N14_13 
ROOT
ATOM      1  C1  ZIN A   1      18.947   2.289   8.889  0.00  0.00     0.051 C 
ATOM      2  C2  ZIN A   1      18.993   1.150   7.903  0.00  0.00    -0.028 A 
ATOM      3  C3  ZIN A   1      19.010   1.411   6.546  0.00  0.00     0.009 A 
ATOM      4  C4  ZIN A   1      19.053   0.367   5.641  0.00  0.00     0.001 A 
ATOM      5  C5  ZIN A   1      19.081  -0.940   6.090  0.00  0.00     0.009 A 
ATOM      6  C6  ZIN A   1      19.065  -1.206   7.445  0.00  0.00    -0.028 A 
ATOM      7  C7  ZIN A   1      19.095  -2.631   7.935  0.00  0.00     0.051 C 
ATOM      8  C8  ZIN A   1      19.026  -0.160   8.356  0.00  0.00     0.080 A 
ENDROOT
BRANCH   8   9
ATOM      9  O9  ZIN A   1      19.010  -0.419   9.690  0.00  0.00    -0.348 OA
BRANCH   9  10
ATOM     10  C10 ZIN A   1      20.275  -0.496  10.352  0.00  0.00     0.208 C 
BRANCH  10  11
ATOM     11  C11 ZIN A   1      20.198   0.250  11.685  0.00  0.00     0.203 C 
ATOM     12  C13 ZIN A   1      19.533  -0.645  12.732  0.00  0.00     0.042 C 
BRANCH  11  13
ATOM     13  N14 ZIN A   1      21.555   0.599  12.130  0.00  0.00    -0.073 N 
ATOM     14  H15 ZIN A   1      21.956  -0.180  12.630  0.00  0.00     0.274 HD
ATOM     15  H16 ZIN A   1      22.127   0.813  11.327  0.00  0.00     0.274 HD
ATOM     16  H17 ZIN A   1      21.513   1.403  12.738  0.00  0.00     0.274 HD
ENDBRANCH  11  13
ENDBRANCH  10  11
ENDBRANCH   9  10
ENDBRANCH   8   9
TORSDOF 4
ENDMDL
MODEL 2
REMARK VINA RESULT:      -5.7      0.223      2.382
REMARK  4 active torsions:
REMARK  status: ('A' for Active; 'I' for Inactive)
REMARK    1  A    between atoms: C8_8  and  O9_9 
REMARK    2  A    between atoms: O9_9  and  C10_10 
REMARK    3  A    between atoms: C10_10  and  C11_11 
REMARK    4  A    between atoms: C11_11  and  N14_13 
ROOT
ATOM      1  C1  ZIN A   1      18.757  -2.568   8.129  0.00  0.00     0.051 C 
ATOM      2  C2  ZIN A   1      18.828  -1.153   7.615  0.00  0.00    -0.028 A 
ATOM      3  C3  ZIN A   1      18.851  -0.912   6.255  0.00  0.00     0.009 A 
ATOM      4  C4  ZIN A   1      18.916   0.386   5.783  0.00  0.00     0.001 A 
ATOM      5  C5  ZIN A   1      18.957   1.446   6.670  0.00  0.00     0.009 A 
ATOM      6  C6  ZIN A   1      18.934   1.210   8.030  0.00  0.00    -0.028 A 
ATOM      7  C7  ZIN A   1      18.980   2.366   8.997  0.00  0.00     0.051 C 
ATOM      8  C8  ZIN A   1      18.864  -0.091   8.507  0.00  0.00     0.080 A 
ENDROOT
BRANCH   8   9
ATOM      9  O9  ZIN A   1      18.842  -0.326   9.846  0.00  0.00    -0.348 OA
BRANCH   9  10
ATOM     10  C10 ZIN A   1      20.100  -0.553  10.485  0.00  0.00     0.208 C 
BRANCH  10  11
ATOM     11  C11 ZIN A   1      20.162   0.248  11.787  0.00  0.00     0.203 C 
ATOM     12  C13 ZIN A   1      19.538  -0.569  12.919  0.00  0.00     0.042 C 
BRANCH  11  13
ATOM     13  N14 ZIN A   1      21.564   0.545  12.112  0.00  0.00    -0.073 N 
ATOM     14  H15 ZIN A   1      21.924  -0.167  12.730  0.00  0.00     0.274 HD
ATOM     15  H16 ZIN A   1      22.110   0.563  11.264  0.00  0.00     0.274 HD
ATOM     16  H17 ZIN A   1      21.620   1.444  12.567  0.00  0.00     0.274 HD
ENDBRANCH  11  13
ENDBRANCH  10  11
ENDBRANCH   9  10
ENDBRANCH   8   9
TORSDOF 4
ENDMDL
MODEL 3
REMARK VINA RESULT:      -5.6      3.041      5.291
REMARK  4 active torsions:
REMARK  status: ('A' for Active; 'I' for Inactive)
REMARK    1  A    between atoms: C8_8  and  O9_9 
REMARK    2  A    between atoms: O9_9  and  C10_10 
REMARK    3  A    between atoms: C10_10  and  C11_11 
REMARK    4  A    between atoms: C11_11  and  N14_13 
ROOT
ATOM      1  C1  ZIN A   1      19.025   2.550   9.403  0.00  0.00     0.051 C 
ATOM      2  C2  ZIN A   1      18.449   3.461  10.457  0.00  0.00    -0.028 A 
ATOM      3  C3  ZIN A   1      17.553   4.451  10.101  0.00  0.00     0.009 A 
ATOM      4  C4  ZIN A   1      17.024   5.285  11.068  0.00  0.00     0.001 A 
ATOM      5  C5  ZIN A   1      17.389   5.132  12.393  0.00  0.00     0.009 A 
ATOM      6  C6  ZIN A   1      18.283   4.144  12.754  0.00  0.00    -0.028 A 
ATOM      7  C7  ZIN A   1      18.681   3.977  14.198  0.00  0.00     0.051 C 
ATOM      8  C8  ZIN A   1      18.812   3.302  11.787  0.00  0.00     0.080 A 
ENDROOT
BRANCH   8   9
ATOM      9  O9  ZIN A   1      19.693   2.328  12.139  0.00  0.00    -0.348 OA
BRANCH   9  10
ATOM     10  C10 ZIN A   1      19.159   1.022  12.370  0.00  0.00     0.208 C 
BRANCH  10  11
ATOM     11  C11 ZIN A   1      20.249  -0.024  12.128  0.00  0.00     0.203 C 
ATOM     12  C13 ZIN A   1      20.014  -0.701  10.776  0.00  0.00     0.042 C 
BRANCH  11  13
ATOM     13  N14 ZIN A   1      21.564   0.631  12.125  0.00  0.00    -0.073 N 
ATOM     14  H15 ZIN A   1      22.276  -0.045  11.890  0.00  0.00     0.274 HD
ATOM     15  H16 ZIN A   1      21.569   1.375  11.444  0.00  0.00     0.274 HD
ATOM     16  H17 ZIN A   1      21.752   1.011  13.041  0.00  0.00     0.274 HD
ENDBRANCH  11  13
ENDBRANCH  10  11
ENDBRANCH   9  10
ENDBRANCH   8   9
TORSDOF 4
ENDMDL
MODEL 4
REMARK VINA RESULT:      -5.6      3.114      5.192
REMARK  4 active torsions:
REMARK  status: ('A' for Active; 'I' for Inactive)
REMARK    1  A    between atoms: C8_8  and  O9_9 
REMARK    2  A    between atoms: O9_9  and  C10_10 
REMARK    3  A    between atoms: C10_10  and  C11_11 
REMARK    4  A    between atoms: C11_11  and  N14_13 
ROOT
ATOM      1  C1  ZIN A   1      18.637   3.595  14.362  0.00  0.00     0.051 C 
ATOM      2  C2  ZIN A   1      18.166   3.929  12.970  0.00  0.00    -0.028 A 
ATOM      3  C3  ZIN A   1      17.221   4.919  12.779  0.00  0.00     0.009 A 
ATOM      4  C4  ZIN A   1      16.789   5.226  11.503  0.00  0.00     0.001 A 
ATOM      5  C5  ZIN A   1      17.301   4.545  10.413  0.00  0.00     0.009 A 
ATOM      6  C6  ZIN A   1      18.245   3.555  10.599  0.00  0.00    -0.028 A 
ATOM      7  C7  ZIN A   1      18.803   2.813   9.412  0.00  0.00     0.051 C 
ATOM      8  C8  ZIN A   1      18.684   3.248  11.878  0.00  0.00     0.080 A 
ENDROOT
BRANCH   8   9
ATOM      9  O9  ZIN A   1      19.614   2.273  12.063  0.00  0.00    -0.348 OA
BRANCH   9  10
ATOM     10  C10 ZIN A   1      19.135   0.930  12.159  0.00  0.00     0.208 C 
BRANCH  10  11
ATOM     11  C11 ZIN A   1      20.283  -0.042  11.876  0.00  0.00     0.203 C 
ATOM     12  C13 ZIN A   1      20.227  -0.482  10.412  0.00  0.00     0.042 C 
BRANCH  11  13
ATOM     13  N14 ZIN A   1      21.565   0.626  12.138  0.00  0.00    -0.073 N 
ATOM     14  H15 ZIN A   1      22.263   0.275  11.500  0.00  0.00     0.274 HD
ATOM     15  H16 ZIN A   1      21.459   1.620  12.008  0.00  0.00     0.274 HD
ATOM     16  H17 ZIN A   1      21.853   0.439  13.087  0.00  0.00     0.274 HD
ENDBRANCH  11  13
ENDBRANCH  10  11
ENDBRANCH   9  10
ENDBRANCH   8   9
TORSDOF 4
ENDMDL
MODEL 5
REMARK VINA RESULT:      -5.3      4.626      7.489
REMARK  4 active torsions:
REMARK  status: ('A' for Active; 'I' for Inactive)
REMARK    1  A    between atoms: C8_8  and  O9_9 
REMARK    2  A    between atoms: O9_9  and  C10_10 
REMARK    3  A    between atoms: C10_10  and  C11_11 
REMARK    4  A    between atoms: C11_11  and  N14_13 
ROOT
ATOM      1  C1  ZIN A   1      18.972  -1.625  13.529  0.00  0.00     0.051 C 
ATOM      2  C2  ZIN A   1      18.779  -0.862  14.815  0.00  0.00    -0.028 A 
ATOM      3  C3  ZIN A   1      18.267  -1.501  15.928  0.00  0.00     0.009 A 
ATOM      4  C4  ZIN A   1      18.090  -0.802  17.107  0.00  0.00     0.001 A 
ATOM      5  C5  ZIN A   1      18.427   0.537  17.177  0.00  0.00     0.009 A 
ATOM      6  C6  ZIN A   1      18.939   1.181  16.068  0.00  0.00    -0.028 A 
ATOM      7  C7  ZIN A   1      19.305   2.641  16.144  0.00  0.00     0.051 C 
ATOM      8  C8  ZIN A   1      19.122   0.481  14.884  0.00  0.00     0.080 A 
ENDROOT
BRANCH   8   9
ATOM      9  O9  ZIN A   1      19.626   1.112  13.791  0.00  0.00    -0.348 OA
BRANCH   9  10
ATOM     10  C10 ZIN A   1      18.698   1.817  12.963  0.00  0.00     0.208 C 
BRANCH  10  11
ATOM     11  C11 ZIN A   1      19.461   2.596  11.891  0.00  0.00     0.203 C 
ATOM     12  C13 ZIN A   1      19.486   4.080  12.260  0.00  0.00     0.042 C 
BRANCH  11  13
ATOM     13  N14 ZIN A   1      20.837   2.090  11.804  0.00  0.00    -0.073 N 
ATOM     14  H15 ZIN A   1      21.125   2.061  10.837  0.00  0.00     0.274 HD
ATOM     15  H16 ZIN A   1      21.453   2.700  12.320  0.00  0.00     0.274 HD
ATOM     16  H17 ZIN A   1      20.879   1.160  12.194  0.00  0.00     0.274 HD
ENDBRANCH  11  13
ENDBRANCH  10  11
ENDBRANCH   9  10
ENDBRANCH   8   9
TORSDOF 4
ENDMDL
MODEL 6
REMARK VINA RESULT:      -5.2      4.037      6.927
REMARK  4 active torsions:
REMARK  status: ('A' for Active; 'I' for Inactive)
REMARK    1  A    between atoms: C8_8  and  O9_9 
REMARK    2  A    between atoms: O9_9  and  C10_10 
REMARK    3  A    between atoms: C10_10  and  C11_11 
REMARK    4  A    between atoms: C11_11  and  N14_13 
ROOT
ATOM      1  C1  ZIN A   1      19.126   2.718  15.808  0.00  0.00     0.051 C 
ATOM      2  C2  ZIN A   1      18.876   1.231  15.794  0.00  0.00    -0.028 A 
ATOM      3  C3  ZIN A   1      18.368   0.606  16.916  0.00  0.00     0.009 A 
ATOM      4  C4  ZIN A   1      18.137  -0.757  16.904  0.00  0.00     0.001 A 
ATOM      5  C5  ZIN A   1      18.413  -1.498  15.769  0.00  0.00     0.009 A 
ATOM      6  C6  ZIN A   1      18.921  -0.877  14.645  0.00  0.00    -0.028 A 
ATOM      7  C7  ZIN A   1      19.221  -1.684  13.408  0.00  0.00     0.051 C 
ATOM      8  C8  ZIN A   1      19.148   0.491  14.653  0.00  0.00     0.080 A 
ENDROOT
BRANCH   8   9
ATOM      9  O9  ZIN A   1      19.648   1.105  13.547  0.00  0.00    -0.348 OA
BRANCH   9  10
ATOM     10  C10 ZIN A   1      18.702   1.585  12.588  0.00  0.00     0.208 C 
BRANCH  10  11
ATOM     11  C11 ZIN A   1      19.445   2.093  11.351  0.00  0.00     0.203 C 
ATOM     12  C13 ZIN A   1      18.557   3.084  10.596  0.00  0.00     0.042 C 
BRANCH  11  13
ATOM     13  N14 ZIN A   1      20.685   2.762  11.764  0.00  0.00    -0.073 N 
ATOM     14  H15 ZIN A   1      20.652   3.733  11.490  0.00  0.00     0.274 HD
ATOM     15  H16 ZIN A   1      20.783   2.700  12.767  0.00  0.00     0.274 HD
ATOM     16  H17 ZIN A   1      21.473   2.315  11.320  0.00  0.00     0.274 HD
ENDBRANCH  11  13
ENDBRANCH  10  11
ENDBRANCH   9  10
ENDBRANCH   8   9
TORSDOF 4
ENDMDL
MODEL 7
REMARK VINA RESULT:      -5.2      2.631      4.051
REMARK  4 active torsions:
REMARK  status: ('A' for Active; 'I' for Inactive)
REMARK    1  A    between atoms: C8_8  and  O9_9 
REMARK    2  A    between atoms: O9_9  and  C10_10 
REMARK    3  A    between atoms: C10_10  and  C11_11 
REMARK    4  A    between atoms: C11_11  and  N14_13 
ROOT
ATOM      1  C1  ZIN A   1      17.463  -0.941  10.642  0.00  0.00     0.051 C 
ATOM      2  C2  ZIN A   1      17.955   0.328   9.994  0.00  0.00    -0.028 A 
ATOM      3  C3  ZIN A   1      18.572   0.279   8.759  0.00  0.00     0.009 A 
ATOM      4  C4  ZIN A   1      19.024   1.442   8.165  0.00  0.00     0.001 A 
ATOM      5  C5  ZIN A   1      18.859   2.657   8.803  0.00  0.00     0.009 A 
ATOM      6  C6  ZIN A   1      18.243   2.711  10.038  0.00  0.00    -0.028 A 
ATOM      7  C7  ZIN A   1      18.063   4.036  10.734  0.00  0.00     0.051 C 
ATOM      8  C8  ZIN A   1      17.784   1.546  10.635  0.00  0.00     0.080 A 
ENDROOT
BRANCH   8   9
ATOM      9  O9  ZIN A   1      17.177   1.596  11.851  0.00  0.00    -0.348 OA
BRANCH   9  10
ATOM     10  C10 ZIN A   1      18.028   1.629  12.999  0.00  0.00     0.208 C 
BRANCH  10  11
ATOM     11  C11 ZIN A   1      17.579   0.560  13.996  0.00  0.00     0.203 C 
ATOM     12  C13 ZIN A   1      18.649  -0.530  14.091  0.00  0.00     0.042 C 
BRANCH  11  13
ATOM     13  N14 ZIN A   1      17.385   1.172  15.317  0.00  0.00    -0.073 N 
ATOM     14  H15 ZIN A   1      17.308   2.173  15.216  0.00  0.00     0.274 HD
ATOM     15  H16 ZIN A   1      16.540   0.811  15.735  0.00  0.00     0.274 HD
ATOM     16  H17 ZIN A   1      18.173   0.954  15.908  0.00  0.00     0.274 HD
ENDBRANCH  11  13
ENDBRANCH  10  11
ENDBRANCH   9  10
ENDBRANCH   8   9
TORSDOF 4
ENDMDL
MODEL 8
REMARK VINA RESULT:      -5.2      2.723      4.230
REMARK  4 active torsions:
REMARK  status: ('A' for Active; 'I' for Inactive)
REMARK    1  A    between atoms: C8_8  and  O9_9 
REMARK    2  A    between atoms: O9_9  and  C10_10 
REMARK    3  A    between atoms: C10_10  and  C11_11 
REMARK    4  A    between atoms: C11_11  and  N14_13 
ROOT
ATOM      1  C1  ZIN A   1      16.844  -0.023  11.928  0.00  0.00     0.051 C 
ATOM      2  C2  ZIN A   1      17.504   1.025  11.070  0.00  0.00    -0.028 A 
ATOM      3  C3  ZIN A   1      17.623   2.322  11.532  0.00  0.00     0.009 A 
ATOM      4  C4  ZIN A   1      18.229   3.284  10.746  0.00  0.00     0.001 A 
ATOM      5  C5  ZIN A   1      18.720   2.952   9.497  0.00  0.00     0.009 A 
ATOM      6  C6  ZIN A   1      18.603   1.657   9.030  0.00  0.00    -0.028 A 
ATOM      7  C7  ZIN A   1      19.137   1.295   7.668  0.00  0.00     0.051 C 
ATOM      8  C8  ZIN A   1      18.000   0.688   9.819  0.00  0.00     0.080 A 
ENDROOT
BRANCH   8   9
ATOM      9  O9  ZIN A   1      17.884  -0.587   9.362  0.00  0.00    -0.348 OA
BRANCH   9  10
ATOM     10  C10 ZIN A   1      18.940  -1.492   9.692  0.00  0.00     0.208 C 
BRANCH  10  11
ATOM     11  C11 ZIN A   1      18.465  -2.930   9.475  0.00  0.00     0.203 C 
ATOM     12  C13 ZIN A   1      17.593  -3.362  10.655  0.00  0.00     0.042 C 
BRANCH  11  13
ATOM     13  N14 ZIN A   1      17.683  -3.005   8.234  0.00  0.00    -0.073 N 
ATOM     14  H15 ZIN A   1      17.620  -2.087   7.819  0.00  0.00     0.274 HD
ATOM     15  H16 ZIN A   1      18.135  -3.635   7.588  0.00  0.00     0.274 HD
ATOM     16  H17 ZIN A   1      16.755  -3.344   8.441  0.00  0.00     0.274 HD
ENDBRANCH  11  13
ENDBRANCH  10  11
ENDBRANCH   9  10
ENDBRANCH   8   9
TORSDOF 4
ENDMDL
MODEL 9
REMARK VINA RESULT:      -5.1      2.249      3.914
REMARK  4 active torsions:
REMARK  status: ('A' for Active; 'I' for Inactive)
REMARK    1  A    between atoms: C8_8  and  O9_9 
REMARK    2  A    between atoms: O9_9  and  C10_10 
REMARK    3  A    between atoms: C10_10  and  C11_11 
REMARK    4  A    between atoms: C11_11  and  N14_13 
ROOT
ATOM      1  C1  ZIN A   1      19.543   0.313   8.399  0.00  0.00     0.051 C 
ATOM      2  C2  ZIN A   1      18.895   1.164   9.460  0.00  0.00    -0.028 A 
ATOM      3  C3  ZIN A   1      18.736   2.522   9.256  0.00  0.00     0.009 A 
ATOM      4  C4  ZIN A   1      18.141   3.303  10.229  0.00  0.00     0.001 A 
ATOM      5  C5  ZIN A   1      17.702   2.729  11.408  0.00  0.00     0.009 A 
ATOM      6  C6  ZIN A   1      17.859   1.373  11.617  0.00  0.00    -0.028 A 
ATOM      7  C7  ZIN A   1      17.381   0.747  12.902  0.00  0.00     0.051 C 
ATOM      8  C8  ZIN A   1      18.451   0.585  10.640  0.00  0.00     0.080 A 
ENDROOT
BRANCH   8   9
ATOM      9  O9  ZIN A   1      18.607  -0.750  10.843  0.00  0.00    -0.348 OA
BRANCH   9  10
ATOM     10  C10 ZIN A   1      19.797  -1.170  11.514  0.00  0.00     0.208 C 
BRANCH  10  11
ATOM     11  C11 ZIN A   1      19.597  -2.579  12.073  0.00  0.00     0.203 C 
ATOM     12  C13 ZIN A   1      18.212  -3.094  11.674  0.00  0.00     0.042 C 
BRANCH  11  13
ATOM     13  N14 ZIN A   1      20.627  -3.474  11.529  0.00  0.00    -0.073 N 
ATOM     14  H15 ZIN A   1      21.521  -3.005  11.542  0.00  0.00     0.274 HD
ATOM     15  H16 ZIN A   1      20.679  -4.309  12.092  0.00  0.00     0.274 HD
ATOM     16  H17 ZIN A   1      20.391  -3.720  10.580  0.00  0.00     0.274 HD
ENDBRANCH  11  13
ENDBRANCH  10  11
ENDBRANCH   9  10
ENDBRANCH   8   9
TORSDOF 4
ENDMDL
