MODEL 1
REMARK VINA RESULT:     -10.7      0.000      0.000
REMARK  7 active torsions:
REMARK  status: ('A' for Active; 'I' for Inactive)
REMARK    1  A    between atoms: C5_5  and  N6_6 
REMARK       I    between atoms: N6_6  and  C7_7 
REMARK    2  A    between atoms: C7_7  and  C9_9 
REMARK    3  A    between atoms: C12_12  and  C13_13 
REMARK    4  A    between atoms: C13_13  and  N14_14 
REMARK    5  A    between atoms: C25_25  and  N26_26 
REMARK    6  A    between atoms: N26_26  and  C27_27 
REMARK    7  A    between atoms: C31_31  and  C32_32 
ROOT
ATOM      1  C1  ZIN A   1      18.156  -6.128   7.600  0.00  0.00     0.050 C 
ATOM      2  C2  ZIN A   1      18.324  -5.303   8.849  0.00  0.00    -0.035 A 
ATOM      3  C3  ZIN A   1      17.758  -5.725  10.036  0.00  0.00     0.011 A 
ATOM      4  C4  ZIN A   1      17.908  -4.970  11.183  0.00  0.00     0.030 A 
ATOM      5  C5  ZIN A   1      18.631  -3.784  11.148  0.00  0.00     0.037 A 
ATOM      6  C24 ZIN A   1      19.201  -3.357   9.956  0.00  0.00     0.060 A 
ATOM      7  C25 ZIN A   1      19.053  -4.120   8.807  0.00  0.00     0.057 A 
ENDROOT
BRANCH   5   8
ATOM      8  N6  ZIN A   1      18.783  -3.022  12.310  0.00  0.00    -0.323 N 
ATOM      9  C7  ZIN A   1      17.937  -2.005  12.565  0.00  0.00     0.256 C 
ATOM     10  O8  ZIN A   1      16.984  -1.810  11.836  0.00  0.00    -0.267 OA
ATOM     11  H44 ZIN A   1      19.499  -3.225  12.933  0.00  0.00     0.169 HD
BRANCH   9  12
ATOM     12  C9  ZIN A   1      18.166  -1.127  13.732  0.00  0.00     0.032 A 
ATOM     13  C23 ZIN A   1      17.553   0.125  13.799  0.00  0.00     0.017 A 
ATOM     14  C22 ZIN A   1      17.768   0.938  14.893  0.00  0.00     0.010 A 
ATOM     15  C12 ZIN A   1      18.595   0.517  15.919  0.00  0.00    -0.033 A 
ATOM     16  C11 ZIN A   1      19.210  -0.721  15.856  0.00  0.00     0.010 A 
ATOM     17  C10 ZIN A   1      19.000  -1.546  14.771  0.00  0.00     0.017 A 
BRANCH  15  18
ATOM     18  C13 ZIN A   1      18.829   1.412  17.108  0.00  0.00     0.273 C 
BRANCH  18  19
ATOM     19  N14 ZIN A   1      18.365   2.771  16.797  0.00  0.00    -0.064 N 
ATOM     20  H15 ZIN A   1      17.556   2.721  16.197  0.00  0.00     0.280 HD
ATOM     21  C21 ZIN A   1      18.008   3.463  18.043  0.00  0.00     0.265 C 
ATOM     22  C20 ZIN A   1      17.507   4.872  17.718  0.00  0.00     0.299 C 
ATOM     23  N18 ZIN A   1      18.561   5.613  17.011  0.00  0.00     0.087 N 
ATOM     24  C17 ZIN A   1      18.948   4.919  15.775  0.00  0.00     0.299 C 
ATOM     25  C19 ZIN A   1      18.139   6.991  16.732  0.00  0.00     0.310 C 
ATOM     26  C16 ZIN A   1      19.436   3.509  16.115  0.00  0.00     0.265 C 
ENDBRANCH  18  19
ENDBRANCH  15  18
ENDBRANCH   9  12
ENDBRANCH   5   8
BRANCH   7  27
ATOM     27  N26 ZIN A   1      19.627  -3.693   7.605  0.00  0.00    -0.188 N 
ATOM     28  H63 ZIN A   1      20.180  -4.301   7.090  0.00  0.00     0.184 HD
BRANCH  27  29
ATOM     29  C27 ZIN A   1      19.404  -2.404   7.151  0.00  0.00     0.727 A 
ATOM     30  N38 ZIN A   1      19.083  -1.460   8.021  0.00  0.00    -0.062 NA
ATOM     31  C31 ZIN A   1      18.867  -0.210   7.617  0.00  0.00     0.089 A 
ATOM     32  C30 ZIN A   1      18.974   0.089   6.255  0.00  0.00     0.053 A 
ATOM     33  C29 ZIN A   1      19.307  -0.930   5.381  0.00  0.00     0.139 A 
ATOM     34  N28 ZIN A   1      19.513  -2.148   5.855  0.00  0.00    -0.075 NA
BRANCH  31  35
ATOM     35  C32 ZIN A   1      18.511   0.847   8.594  0.00  0.00     0.011 A 
ATOM     36  C37 ZIN A   1      17.593   0.592   9.611  0.00  0.00     0.130 A 
ATOM     37  N36 ZIN A   1      17.281   1.529  10.483  0.00  0.00    -0.272 NA
ATOM     38  C35 ZIN A   1      17.809   2.737  10.426  0.00  0.00     0.116 A 
ATOM     39  C34 ZIN A   1      18.723   3.069   9.443  0.00  0.00     0.020 A 
ATOM     40  C33 ZIN A   1      19.087   2.117   8.507  0.00  0.00     0.017 A 
ENDBRANCH  31  35
ENDBRANCH  27  29
ENDBRANCH   7  27
TORSDOF 7
ENDMDL
MODEL 2
REMARK VINA RESULT:     -10.5      2.029      9.101
REMARK  7 active torsions:
REMARK  status: ('A' for Active; 'I' for Inactive)
REMARK    1  A    between atoms: C5_5  and  N6_6 
REMARK       I    between atoms: N6_6  and  C7_7 
REMARK    2  A    between atoms: C7_7  and  C9_9 
REMARK    3  A    between atoms: C12_12  and  C13_13 
REMARK    4  A    between atoms: C13_13  and  N14_14 
REMARK    5  A    between atoms: C25_25  and  N26_26 
REMARK    6  A    between atoms: N26_26  and  C27_27 
REMARK    7  A    between atoms: C31_31  and  C32_32 
ROOT
ATOM      1  C1  ZIN A   1      18.835   2.084  17.483  0.00  0.00     0.050 C 
ATOM      2  C2  ZIN A   1      18.988   1.020  16.427  0.00  0.00    -0.035 A 
ATOM      3  C3  ZIN A   1      18.908  -0.314  16.775  0.00  0.00     0.011 A 
ATOM      4  C4  ZIN A   1      19.049  -1.292  15.809  0.00  0.00     0.030 A 
ATOM      5  C5  ZIN A   1      19.271  -0.937  14.484  0.00  0.00     0.037 A 
ATOM      6  C24 ZIN A   1      19.352   0.403  14.132  0.00  0.00     0.060 A 
ATOM      7  C25 ZIN A   1      19.205   1.383  15.102  0.00  0.00     0.057 A 
ENDROOT
BRANCH   5   8
ATOM      8  N6  ZIN A   1      19.413  -1.928  13.508  0.00  0.00    -0.323 N 
ATOM      9  C7  ZIN A   1      18.434  -2.129  12.604  0.00  0.00     0.256 C 
ATOM     10  O8  ZIN A   1      17.471  -1.388  12.576  0.00  0.00    -0.267 OA
ATOM     11  H44 ZIN A   1      20.216  -2.472  13.482  0.00  0.00     0.169 HD
BRANCH   9  12
ATOM     12  C9  ZIN A   1      18.530  -3.251  11.646  0.00  0.00     0.032 A 
ATOM     13  C23 ZIN A   1      19.780  -3.706  11.223  0.00  0.00     0.017 A 
ATOM     14  C22 ZIN A   1      19.863  -4.756  10.333  0.00  0.00     0.010 A 
ATOM     15  C12 ZIN A   1      18.711  -5.352   9.852  0.00  0.00    -0.033 A 
ATOM     16  C11 ZIN A   1      17.469  -4.902  10.263  0.00  0.00     0.010 A 
ATOM     17  C10 ZIN A   1      17.371  -3.856  11.157  0.00  0.00     0.017 A 
BRANCH  15  18
ATOM     18  C13 ZIN A   1      18.809  -6.496   8.875  0.00  0.00     0.273 C 
BRANCH  18  19
ATOM     19  N14 ZIN A   1      18.094  -6.147   7.640  0.00  0.00    -0.064 N 
ATOM     20  H15 ZIN A   1      17.296  -5.572   7.864  0.00  0.00     0.280 HD
ATOM     21  C21 ZIN A   1      18.995  -5.408   6.745  0.00  0.00     0.265 C 
ATOM     22  C20 ZIN A   1      18.245  -5.028   5.466  0.00  0.00     0.299 C 
ATOM     23  N18 ZIN A   1      17.763  -6.249   4.805  0.00  0.00     0.087 N 
ATOM     24  C17 ZIN A   1      16.880  -7.013   5.697  0.00  0.00     0.299 C 
ATOM     25  C19 ZIN A   1      17.085  -5.931   3.541  0.00  0.00     0.310 C 
ATOM     26  C16 ZIN A   1      17.640  -7.376   6.975  0.00  0.00     0.265 C 
ENDBRANCH  18  19
ENDBRANCH  15  18
ENDBRANCH   9  12
ENDBRANCH   5   8
BRANCH   7  27
ATOM     27  N26 ZIN A   1      19.285   2.734  14.751  0.00  0.00    -0.188 N 
ATOM     28  H63 ZIN A   1      19.792   3.350  15.303  0.00  0.00     0.184 HD
BRANCH  27  29
ATOM     29  C27 ZIN A   1      18.640   3.193  13.614  0.00  0.00     0.727 A 
ATOM     30  N38 ZIN A   1      18.727   2.490  12.495  0.00  0.00    -0.062 NA
ATOM     31  C31 ZIN A   1      18.115   2.902  11.387  0.00  0.00     0.089 A 
ATOM     32  C30 ZIN A   1      17.388   4.095  11.419  0.00  0.00     0.053 A 
ATOM     33  C29 ZIN A   1      17.329   4.800  12.608  0.00  0.00     0.139 A 
ATOM     34  N28 ZIN A   1      17.958   4.327  13.672  0.00  0.00    -0.075 NA
BRANCH  31  35
ATOM     35  C32 ZIN A   1      18.210   2.111  10.137  0.00  0.00     0.011 A 
ATOM     36  C37 ZIN A   1      17.470   0.939   9.982  0.00  0.00     0.130 A 
ATOM     37  N36 ZIN A   1      17.550   0.239   8.869  0.00  0.00    -0.272 NA
ATOM     38  C35 ZIN A   1      18.330   0.604   7.870  0.00  0.00     0.116 A 
ATOM     39  C34 ZIN A   1      19.099   1.751   7.949  0.00  0.00     0.020 A 
ATOM     40  C33 ZIN A   1      19.046   2.524   9.096  0.00  0.00     0.017 A 
ENDBRANCH  31  35
ENDBRANCH  27  29
ENDBRANCH   7  27
TORSDOF 7
ENDMDL
MODEL 3
REMARK VINA RESULT:     -10.4      2.004     10.028
REMARK  7 active torsions:
REMARK  status: ('A' for Active; 'I' for Inactive)
REMARK    1  A    between atoms: C5_5  and  N6_6 
REMARK       I    between atoms: N6_6  and  C7_7 
REMARK    2  A    between atoms: C7_7  and  C9_9 
REMARK    3  A    between atoms: C12_12  and  C13_13 
REMARK    4  A    between atoms: C13_13  and  N14_14 
REMARK    5  A    between atoms: C25_25  and  N26_26 
REMARK    6  A    between atoms: N26_26  and  C27_27 
REMARK    7  A    between atoms: C31_31  and  C32_32 
ROOT
ATOM      1  C1  ZIN A   1      18.146   5.354  15.829  0.00  0.00     0.050 C 
ATOM      2  C2  ZIN A   1      18.260   4.761  14.449  0.00  0.00    -0.035 A 
ATOM      3  C3  ZIN A   1      17.742   5.438  13.362  0.00  0.00     0.011 A 
ATOM      4  C4  ZIN A   1      17.842   4.898  12.095  0.00  0.00     0.030 A 
ATOM      5  C5  ZIN A   1      18.467   3.670  11.908  0.00  0.00     0.037 A 
ATOM      6  C24 ZIN A   1      18.989   2.987  12.998  0.00  0.00     0.060 A 
ATOM      7  C25 ZIN A   1      18.890   3.535  14.269  0.00  0.00     0.057 A 
ENDROOT
BRANCH   5   8
ATOM      8  N6  ZIN A   1      18.569   3.125  10.625  0.00  0.00    -0.323 N 
ATOM      9  C7  ZIN A   1      17.877   2.013  10.308  0.00  0.00     0.256 C 
ATOM     10  O8  ZIN A   1      17.092   1.538  11.105  0.00  0.00    -0.267 OA
ATOM     11  H44 ZIN A   1      19.139   3.547   9.963  0.00  0.00     0.169 HD
BRANCH   9  12
ATOM     12  C9  ZIN A   1      18.073   1.370   8.992  0.00  0.00     0.032 A 
ATOM     13  C23 ZIN A   1      17.382   0.200   8.673  0.00  0.00     0.017 A 
ATOM     14  C22 ZIN A   1      17.566  -0.392   7.440  0.00  0.00     0.010 A 
ATOM     15  C12 ZIN A   1      18.440   0.166   6.525  0.00  0.00    -0.033 A 
ATOM     16  C11 ZIN A   1      19.132   1.323   6.837  0.00  0.00     0.010 A 
ATOM     17  C10 ZIN A   1      18.953   1.929   8.063  0.00  0.00     0.017 A 
BRANCH  15  18
ATOM     18  C13 ZIN A   1      18.640  -0.489   5.183  0.00  0.00     0.273 C 
BRANCH  18  19
ATOM     19  N14 ZIN A   1      18.080  -1.847   5.213  0.00  0.00    -0.064 N 
ATOM     20  H15 ZIN A   1      17.486  -1.947   6.021  0.00  0.00     0.280 HD
ATOM     21  C21 ZIN A   1      17.293  -2.078   3.994  0.00  0.00     0.265 C 
ATOM     22  C20 ZIN A   1      16.694  -3.486   4.033  0.00  0.00     0.299 C 
ATOM     23  N18 ZIN A   1      17.778  -4.474   4.132  0.00  0.00     0.087 N 
ATOM     24  C17 ZIN A   1      18.591  -4.239   5.333  0.00  0.00     0.299 C 
ATOM     25  C19 ZIN A   1      17.247  -5.843   4.115  0.00  0.00     0.310 C 
ATOM     26  C16 ZIN A   1      19.174  -2.825   5.284  0.00  0.00     0.265 C 
ENDBRANCH  18  19
ENDBRANCH  15  18
ENDBRANCH   9  12
ENDBRANCH   5   8
BRANCH   7  27
ATOM     27  N26 ZIN A   1      19.415   2.850  15.369  0.00  0.00    -0.188 N 
ATOM     28  H63 ZIN A   1      19.959   3.322  16.020  0.00  0.00     0.184 HD
BRANCH  27  29
ATOM     29  C27 ZIN A   1      19.159   1.499  15.530  0.00  0.00     0.727 A 
ATOM     30  N38 ZIN A   1      18.991   0.742  14.457  0.00  0.00    -0.062 NA
ATOM     31  C31 ZIN A   1      18.748  -0.561  14.578  0.00  0.00     0.089 A 
ATOM     32  C30 ZIN A   1      18.661  -1.118  15.857  0.00  0.00     0.053 A 
ATOM     33  C29 ZIN A   1      18.838  -0.289  16.950  0.00  0.00     0.139 A 
ATOM     34  N28 ZIN A   1      19.082   0.997  16.754  0.00  0.00    -0.075 NA
BRANCH  31  35
ATOM     35  C32 ZIN A   1      18.565  -1.408  13.374  0.00  0.00     0.011 A 
ATOM     36  C37 ZIN A   1      17.390  -1.335  12.628  0.00  0.00     0.130 A 
ATOM     37  N36 ZIN A   1      17.229  -2.083  11.556  0.00  0.00    -0.272 NA
ATOM     38  C35 ZIN A   1      18.156  -2.931  11.152  0.00  0.00     0.116 A 
ATOM     39  C34 ZIN A   1      19.347  -3.066  11.842  0.00  0.00     0.020 A 
ATOM     40  C33 ZIN A   1      19.566  -2.297  12.973  0.00  0.00     0.017 A 
ENDBRANCH  31  35
ENDBRANCH  27  29
ENDBRANCH   7  27
TORSDOF 7
ENDMDL
MODEL 4
REMARK VINA RESULT:     -10.0      1.718      4.694
REMARK  7 active torsions:
REMARK  status: ('A' for Active; 'I' for Inactive)
REMARK    1  A    between atoms: C5_5  and  N6_6 
REMARK       I    between atoms: N6_6  and  C7_7 
REMARK    2  A    between atoms: C7_7  and  C9_9 
REMARK    3  A    between atoms: C12_12  and  C13_13 
REMARK    4  A    between atoms: C13_13  and  N14_14 
REMARK    5  A    between atoms: C25_25  and  N26_26 
REMARK    6  A    between atoms: N26_26  and  C27_27 
REMARK    7  A    between atoms: C31_31  and  C32_32 
ROOT
ATOM      1  C1  ZIN A   1      19.036  -2.699   4.355  0.00  0.00     0.050 C 
ATOM      2  C2  ZIN A   1      18.876  -1.594   5.365  0.00  0.00    -0.035 A 
ATOM      3  C3  ZIN A   1      19.233  -0.301   5.036  0.00  0.00     0.011 A 
ATOM      4  C4  ZIN A   1      19.090   0.716   5.960  0.00  0.00     0.030 A 
ATOM      5  C5  ZIN A   1      18.584   0.441   7.225  0.00  0.00     0.037 A 
ATOM      6  C24 ZIN A   1      18.224  -0.857   7.559  0.00  0.00     0.060 A 
ATOM      7  C25 ZIN A   1      18.365  -1.875   6.627  0.00  0.00     0.057 A 
ENDROOT
BRANCH   5   8
ATOM      8  N6  ZIN A   1      18.439   1.471   8.160  0.00  0.00    -0.323 N 
ATOM      9  C7  ZIN A   1      19.138   1.440   9.312  0.00  0.00     0.256 C 
ATOM     10  O8  ZIN A   1      19.965   0.569   9.498  0.00  0.00    -0.267 OA
ATOM     11  H44 ZIN A   1      17.834   2.208   7.979  0.00  0.00     0.169 HD
BRANCH   9  12
ATOM     12  C9  ZIN A   1      18.899   2.465  10.349  0.00  0.00     0.032 A 
ATOM     13  C23 ZIN A   1      19.905   2.788  11.261  0.00  0.00     0.017 A 
ATOM     14  C22 ZIN A   1      19.677   3.750  12.224  0.00  0.00     0.010 A 
ATOM     15  C12 ZIN A   1      18.451   4.387  12.292  0.00  0.00    -0.033 A 
ATOM     16  C11 ZIN A   1      17.447   4.068  11.395  0.00  0.00     0.010 A 
ATOM     17  C10 ZIN A   1      17.664   3.113  10.424  0.00  0.00     0.017 A 
BRANCH  15  18
ATOM     18  C13 ZIN A   1      18.207   5.432  13.350  0.00  0.00     0.273 C 
BRANCH  18  19
ATOM     19  N14 ZIN A   1      18.668   4.929  14.651  0.00  0.00    -0.064 N 
ATOM     20  H15 ZIN A   1      19.676   4.886  14.657  0.00  0.00     0.280 HD
ATOM     21  C21 ZIN A   1      18.211   5.833  15.715  0.00  0.00     0.265 C 
ATOM     22  C20 ZIN A   1      18.707   5.321  17.069  0.00  0.00     0.299 C 
ATOM     23  N18 ZIN A   1      18.186   3.965  17.296  0.00  0.00     0.087 N 
ATOM     24  C17 ZIN A   1      18.614   3.054  16.226  0.00  0.00     0.299 C 
ATOM     25  C19 ZIN A   1      18.594   3.458  18.613  0.00  0.00     0.310 C 
ATOM     26  C16 ZIN A   1      18.120   3.586  14.879  0.00  0.00     0.265 C 
ENDBRANCH  18  19
ENDBRANCH  15  18
ENDBRANCH   9  12
ENDBRANCH   5   8
BRANCH   7  27
ATOM     27  N26 ZIN A   1      18.003  -3.183   6.960  0.00  0.00    -0.188 N 
ATOM     28  H63 ZIN A   1      17.670  -3.784   6.274  0.00  0.00     0.184 HD
BRANCH  27  29
ATOM     29  C27 ZIN A   1      18.119  -3.623   8.268  0.00  0.00     0.727 A 
ATOM     30  N38 ZIN A   1      18.028  -2.744   9.254  0.00  0.00    -0.062 NA
ATOM     31  C31 ZIN A   1      18.131  -3.135  10.522  0.00  0.00     0.089 A 
ATOM     32  C30 ZIN A   1      18.348  -4.489  10.798  0.00  0.00     0.053 A 
ATOM     33  C29 ZIN A   1      18.442  -5.371   9.736  0.00  0.00     0.139 A 
ATOM     34  N28 ZIN A   1      18.324  -4.911   8.501  0.00  0.00    -0.075 NA
BRANCH  31  35
ATOM     35  C32 ZIN A   1      18.025  -2.150  11.625  0.00  0.00     0.011 A 
ATOM     36  C37 ZIN A   1      18.684  -2.366  12.835  0.00  0.00     0.130 A 
ATOM     37  N36 ZIN A   1      18.594  -1.489  13.813  0.00  0.00    -0.272 NA
ATOM     38  C35 ZIN A   1      17.878  -0.387  13.697  0.00  0.00     0.116 A 
ATOM     39  C34 ZIN A   1      17.190  -0.104  12.531  0.00  0.00     0.020 A 
ATOM     40  C33 ZIN A   1      17.257  -0.992  11.472  0.00  0.00     0.017 A 
ENDBRANCH  31  35
ENDBRANCH  27  29
ENDBRANCH   7  27
TORSDOF 7
ENDMDL
MODEL 5
REMARK VINA RESULT:     -10.0      2.744     10.405
REMARK  7 active torsions:
REMARK  status: ('A' for Active; 'I' for Inactive)
REMARK    1  A    between atoms: C5_5  and  N6_6 
REMARK       I    between atoms: N6_6  and  C7_7 
REMARK    2  A    between atoms: C7_7  and  C9_9 
REMARK    3  A    between atoms: C12_12  and  C13_13 
REMARK    4  A    between atoms: C13_13  and  N14_14 
REMARK    5  A    between atoms: C25_25  and  N26_26 
REMARK    6  A    between atoms: N26_26  and  C27_27 
REMARK    7  A    between atoms: C31_31  and  C32_32 
ROOT
ATOM      1  C1  ZIN A   1      18.555   4.894  13.180  0.00  0.00     0.050 C 
ATOM      2  C2  ZIN A   1      18.624   3.990  11.977  0.00  0.00    -0.035 A 
ATOM      3  C3  ZIN A   1      18.132   4.422  10.760  0.00  0.00     0.011 A 
ATOM      4  C4  ZIN A   1      18.191   3.595   9.655  0.00  0.00     0.030 A 
ATOM      5  C5  ZIN A   1      18.749   2.326   9.762  0.00  0.00     0.037 A 
ATOM      6  C24 ZIN A   1      19.244   1.890  10.983  0.00  0.00     0.060 A 
ATOM      7  C25 ZIN A   1      19.187   2.724  12.090  0.00  0.00     0.057 A 
ENDROOT
BRANCH   5   8
ATOM      8  N6  ZIN A   1      18.810   1.491   8.643  0.00  0.00    -0.323 N 
ATOM      9  C7  ZIN A   1      17.985   0.430   8.547  0.00  0.00     0.256 C 
ATOM     10  O8  ZIN A   1      17.124   0.252   9.387  0.00  0.00    -0.267 OA
ATOM     11  H44 ZIN A   1      19.446   1.676   7.934  0.00  0.00     0.169 HD
BRANCH   9  12
ATOM     12  C9  ZIN A   1      18.127  -0.518   7.422  0.00  0.00     0.032 A 
ATOM     13  C23 ZIN A   1      18.909  -1.665   7.566  0.00  0.00     0.017 A 
ATOM     14  C22 ZIN A   1      19.034  -2.548   6.514  0.00  0.00     0.010 A 
ATOM     15  C12 ZIN A   1      18.392  -2.294   5.314  0.00  0.00    -0.033 A 
ATOM     16  C11 ZIN A   1      17.620  -1.157   5.163  0.00  0.00     0.010 A 
ATOM     17  C10 ZIN A   1      17.482  -0.268   6.209  0.00  0.00     0.017 A 
BRANCH  15  18
ATOM     18  C13 ZIN A   1      18.537  -3.261   4.167  0.00  0.00     0.273 C 
BRANCH  18  19
ATOM     19  N14 ZIN A   1      17.232  -3.870   3.872  0.00  0.00    -0.064 N 
ATOM     20  H15 ZIN A   1      16.515  -3.162   3.913  0.00  0.00     0.280 HD
ATOM     21  C21 ZIN A   1      17.262  -4.461   2.528  0.00  0.00     0.265 C 
ATOM     22  C20 ZIN A   1      15.898  -5.079   2.212  0.00  0.00     0.299 C 
ATOM     23  N18 ZIN A   1      15.587  -6.109   3.213  0.00  0.00     0.087 N 
ATOM     24  C17 ZIN A   1      15.579  -5.537   4.567  0.00  0.00     0.299 C 
ATOM     25  C19 ZIN A   1      14.308  -6.767   2.913  0.00  0.00     0.310 C 
ATOM     26  C16 ZIN A   1      16.946  -4.915   4.863  0.00  0.00     0.265 C 
ENDBRANCH  18  19
ENDBRANCH  15  18
ENDBRANCH   9  12
ENDBRANCH   5   8
BRANCH   7  27
ATOM     27  N26 ZIN A   1      19.686   2.288  13.321  0.00  0.00    -0.188 N 
ATOM     28  H63 ZIN A   1      20.241   2.878  13.856  0.00  0.00     0.184 HD
BRANCH  27  29
ATOM     29  C27 ZIN A   1      19.387   1.015  13.778  0.00  0.00     0.727 A 
ATOM     30  N38 ZIN A   1      19.243   0.033  12.902  0.00  0.00    -0.062 NA
ATOM     31  C31 ZIN A   1      18.961  -1.202  13.309  0.00  0.00     0.089 A 
ATOM     32  C30 ZIN A   1      18.807  -1.446  14.678  0.00  0.00     0.053 A 
ATOM     33  C29 ZIN A   1      18.961  -0.388  15.557  0.00  0.00     0.139 A 
ATOM     34  N28 ZIN A   1      19.247   0.813  15.080  0.00  0.00    -0.075 NA
BRANCH  31  35
ATOM     35  C32 ZIN A   1      18.805  -2.302  12.327  0.00  0.00     0.011 A 
ATOM     36  C37 ZIN A   1      19.874  -3.148  12.035  0.00  0.00     0.130 A 
ATOM     37  N36 ZIN A   1      19.735  -4.128  11.166  0.00  0.00    -0.272 NA
ATOM     38  C35 ZIN A   1      18.596  -4.343  10.535  0.00  0.00     0.116 A 
ATOM     39  C34 ZIN A   1      17.491  -3.544  10.766  0.00  0.00     0.020 A 
ATOM     40  C33 ZIN A   1      17.586  -2.504  11.675  0.00  0.00     0.017 A 
ENDBRANCH  31  35
ENDBRANCH  27  29
ENDBRANCH   7  27
TORSDOF 7
ENDMDL
MODEL 6
REMARK VINA RESULT:      -9.9      1.779      4.787
REMARK  7 active torsions:
REMARK  status: ('A' for Active; 'I' for Inactive)
REMARK    1  A    between atoms: C5_5  and  N6_6 
REMARK       I    between atoms: N6_6  and  C7_7 
REMARK    2  A    between atoms: C7_7  and  C9_9 
REMARK    3  A    between atoms: C12_12  and  C13_13 
REMARK    4  A    between atoms: C13_13  and  N14_14 
REMARK    5  A    between atoms: C25_25  and  N26_26 
REMARK    6  A    between atoms: N26_26  and  C27_27 
REMARK    7  A    between atoms: C31_31  and  C32_32 
ROOT
ATOM      1  C1  ZIN A   1      18.806  -2.070   5.091  0.00  0.00     0.050 C 
ATOM      2  C2  ZIN A   1      18.703  -0.967   6.112  0.00  0.00    -0.035 A 
ATOM      3  C3  ZIN A   1      19.074   0.320   5.776  0.00  0.00     0.011 A 
ATOM      4  C4  ZIN A   1      18.983   1.335   6.709  0.00  0.00     0.030 A 
ATOM      5  C5  ZIN A   1      18.515   1.064   7.989  0.00  0.00     0.037 A 
ATOM      6  C24 ZIN A   1      18.140  -0.228   8.330  0.00  0.00     0.060 A 
ATOM      7  C25 ZIN A   1      18.229  -1.244   7.389  0.00  0.00     0.057 A 
ENDROOT
BRANCH   5   8
ATOM      8  N6  ZIN A   1      18.421   2.092   8.932  0.00  0.00    -0.323 N 
ATOM      9  C7  ZIN A   1      19.036   1.971  10.125  0.00  0.00     0.256 C 
ATOM     10  O8  ZIN A   1      19.749   1.012  10.347  0.00  0.00    -0.267 OA
ATOM     11  H44 ZIN A   1      17.914   2.893   8.728  0.00  0.00     0.169 HD
BRANCH   9  12
ATOM     12  C9  ZIN A   1      18.843   3.003  11.166  0.00  0.00     0.032 A 
ATOM     13  C23 ZIN A   1      19.947   3.616  11.759  0.00  0.00     0.017 A 
ATOM     14  C22 ZIN A   1      19.759   4.582  12.725  0.00  0.00     0.010 A 
ATOM     15  C12 ZIN A   1      18.480   4.938  13.114  0.00  0.00    -0.033 A 
ATOM     16  C11 ZIN A   1      17.381   4.330  12.533  0.00  0.00     0.010 A 
ATOM     17  C10 ZIN A   1      17.554   3.366  11.562  0.00  0.00     0.017 A 
BRANCH  15  18
ATOM     18  C13 ZIN A   1      18.283   5.990  14.174  0.00  0.00     0.273 C 
BRANCH  18  19
ATOM     19  N14 ZIN A   1      17.769   5.361  15.399  0.00  0.00    -0.064 N 
ATOM     20  H15 ZIN A   1      17.209   4.559  15.155  0.00  0.00     0.280 HD
ATOM     21  C21 ZIN A   1      18.897   4.934  16.239  0.00  0.00     0.265 C 
ATOM     22  C20 ZIN A   1      18.363   4.262  17.505  0.00  0.00     0.299 C 
ATOM     23  N18 ZIN A   1      17.515   5.212  18.240  0.00  0.00     0.087 N 
ATOM     24  C17 ZIN A   1      16.396   5.668  17.403  0.00  0.00     0.299 C 
ATOM     25  C19 ZIN A   1      17.028   4.623  19.494  0.00  0.00     0.310 C 
ATOM     26  C16 ZIN A   1      16.946   6.328  16.136  0.00  0.00     0.265 C 
ENDBRANCH  18  19
ENDBRANCH  15  18
ENDBRANCH   9  12
ENDBRANCH   5   8
BRANCH   7  27
ATOM     27  N26 ZIN A   1      17.852  -2.547   7.728  0.00  0.00    -0.188 N 
ATOM     28  H63 ZIN A   1      17.396  -3.105   7.078  0.00  0.00     0.184 HD
BRANCH  27  29
ATOM     29  C27 ZIN A   1      18.129  -3.041   8.992  0.00  0.00     0.727 A 
ATOM     30  N38 ZIN A   1      18.119  -2.213  10.025  0.00  0.00    -0.062 NA
ATOM     31  C31 ZIN A   1      18.377  -2.658  11.253  0.00  0.00     0.089 A 
ATOM     32  C30 ZIN A   1      18.670  -4.013  11.435  0.00  0.00     0.053 A 
ATOM     33  C29 ZIN A   1      18.674  -4.841  10.326  0.00  0.00     0.139 A 
ATOM     34  N28 ZIN A   1      18.403  -4.329   9.136  0.00  0.00    -0.075 NA
BRANCH  31  35
ATOM     35  C32 ZIN A   1      18.360  -1.729  12.409  0.00  0.00     0.011 A 
ATOM     36  C37 ZIN A   1      19.218  -1.929  13.490  0.00  0.00     0.130 A 
ATOM     37  N36 ZIN A   1      19.208  -1.102  14.515  0.00  0.00    -0.272 NA
ATOM     38  C35 ZIN A   1      18.389  -0.068  14.568  0.00  0.00     0.116 A 
ATOM     39  C34 ZIN A   1      17.504   0.194  13.537  0.00  0.00     0.020 A 
ATOM     40  C33 ZIN A   1      17.481  -0.644  12.435  0.00  0.00     0.017 A 
ENDBRANCH  31  35
ENDBRANCH  27  29
ENDBRANCH   7  27
TORSDOF 7
ENDMDL
MODEL 7
REMARK VINA RESULT:      -9.7      1.835      8.741
REMARK  7 active torsions:
REMARK  status: ('A' for Active; 'I' for Inactive)
REMARK    1  A    between atoms: C5_5  and  N6_6 
REMARK       I    between atoms: N6_6  and  C7_7 
REMARK    2  A    between atoms: C7_7  and  C9_9 
REMARK    3  A    between atoms: C12_12  and  C13_13 
REMARK    4  A    between atoms: C13_13  and  N14_14 
REMARK    5  A    between atoms: C25_25  and  N26_26 
REMARK    6  A    between atoms: N26_26  and  C27_27 
REMARK    7  A    between atoms: C31_31  and  C32_32 
ROOT
ATOM      1  C1  ZIN A   1      18.653   2.182  18.599  0.00  0.00     0.050 C 
ATOM      2  C2  ZIN A   1      18.486   1.198  17.471  0.00  0.00    -0.035 A 
ATOM      3  C3  ZIN A   1      18.576  -0.158  17.719  0.00  0.00     0.011 A 
ATOM      4  C4  ZIN A   1      18.426  -1.064  16.687  0.00  0.00     0.030 A 
ATOM      5  C5  ZIN A   1      18.181  -0.615  15.395  0.00  0.00     0.037 A 
ATOM      6  C24 ZIN A   1      18.090   0.747  15.143  0.00  0.00     0.060 A 
ATOM      7  C25 ZIN A   1      18.237   1.654  16.182  0.00  0.00     0.057 A 
ENDROOT
BRANCH   5   8
ATOM      8  N6  ZIN A   1      18.028  -1.533  14.352  0.00  0.00    -0.323 N 
ATOM      9  C7  ZIN A   1      19.088  -1.875  13.593  0.00  0.00     0.256 C 
ATOM     10  O8  ZIN A   1      20.195  -1.460  13.874  0.00  0.00    -0.267 OA
ATOM     11  H44 ZIN A   1      17.158  -1.924  14.174  0.00  0.00     0.169 HD
BRANCH   9  12
ATOM     12  C9  ZIN A   1      18.904  -2.755  12.420  0.00  0.00     0.032 A 
ATOM     13  C23 ZIN A   1      19.997  -3.420  11.864  0.00  0.00     0.017 A 
ATOM     14  C22 ZIN A   1      19.818  -4.243  10.772  0.00  0.00     0.010 A 
ATOM     15  C12 ZIN A   1      18.559  -4.403  10.222  0.00  0.00    -0.033 A 
ATOM     16  C11 ZIN A   1      17.471  -3.742  10.764  0.00  0.00     0.010 A 
ATOM     17  C10 ZIN A   1      17.636  -2.920  11.860  0.00  0.00     0.017 A 
BRANCH  15  18
ATOM     18  C13 ZIN A   1      18.371  -5.300   9.025  0.00  0.00     0.273 C 
BRANCH  18  19
ATOM     19  N14 ZIN A   1      18.138  -4.478   7.829  0.00  0.00    -0.064 N 
ATOM     20  H15 ZIN A   1      17.154  -4.274   7.749  0.00  0.00     0.280 HD
ATOM     21  C21 ZIN A   1      18.891  -3.222   7.945  0.00  0.00     0.265 C 
ATOM     22  C20 ZIN A   1      18.634  -2.358   6.708  0.00  0.00     0.299 C 
ATOM     23  N18 ZIN A   1      19.053  -3.091   5.506  0.00  0.00     0.087 N 
ATOM     24  C17 ZIN A   1      18.327  -4.364   5.390  0.00  0.00     0.299 C 
ATOM     25  C19 ZIN A   1      18.875  -2.272   4.300  0.00  0.00     0.310 C 
ATOM     26  C16 ZIN A   1      18.586  -5.211   6.638  0.00  0.00     0.265 C 
ENDBRANCH  18  19
ENDBRANCH  15  18
ENDBRANCH   9  12
ENDBRANCH   5   8
BRANCH   7  27
ATOM     27  N26 ZIN A   1      18.145   3.026  15.931  0.00  0.00    -0.188 N 
ATOM     28  H63 ZIN A   1      17.727   3.612  16.583  0.00  0.00     0.184 HD
BRANCH  27  29
ATOM     29  C27 ZIN A   1      18.649   3.550  14.753  0.00  0.00     0.727 A 
ATOM     30  N38 ZIN A   1      18.690   2.786  13.672  0.00  0.00    -0.062 NA
ATOM     31  C31 ZIN A   1      19.165   3.262  12.523  0.00  0.00     0.089 A 
ATOM     32  C30 ZIN A   1      19.632   4.579  12.476  0.00  0.00     0.053 A 
ATOM     33  C29 ZIN A   1      19.575   5.339  13.631  0.00  0.00     0.139 A 
ATOM     34  N28 ZIN A   1      19.085   4.802  14.736  0.00  0.00    -0.075 NA
BRANCH  31  35
ATOM     35  C32 ZIN A   1      19.205   2.406  11.313  0.00  0.00     0.011 A 
ATOM     36  C37 ZIN A   1      18.831   2.917  10.071  0.00  0.00     0.130 A 
ATOM     37  N36 ZIN A   1      18.872   2.158   8.995  0.00  0.00    -0.272 NA
ATOM     38  C35 ZIN A   1      19.253   0.896   9.046  0.00  0.00     0.116 A 
ATOM     39  C34 ZIN A   1      19.633   0.314  10.241  0.00  0.00     0.020 A 
ATOM     40  C33 ZIN A   1      19.613   1.072  11.400  0.00  0.00     0.017 A 
ENDBRANCH  31  35
ENDBRANCH  27  29
ENDBRANCH   7  27
TORSDOF 7
ENDMDL
MODEL 8
REMARK VINA RESULT:      -9.6      3.850     11.353
REMARK  7 active torsions:
REMARK  status: ('A' for Active; 'I' for Inactive)
REMARK    1  A    between atoms: C5_5  and  N6_6 
REMARK       I    between atoms: N6_6  and  C7_7 
REMARK    2  A    between atoms: C7_7  and  C9_9 
REMARK    3  A    between atoms: C12_12  and  C13_13 
REMARK    4  A    between atoms: C13_13  and  N14_14 
REMARK    5  A    between atoms: C25_25  and  N26_26 
REMARK    6  A    between atoms: N26_26  and  C27_27 
REMARK    7  A    between atoms: C31_31  and  C32_32 
ROOT
ATOM      1  C1  ZIN A   1      19.160   3.008  10.943  0.00  0.00     0.050 C 
ATOM      2  C2  ZIN A   1      18.734   2.033   9.877  0.00  0.00    -0.035 A 
ATOM      3  C3  ZIN A   1      19.257   2.134   8.602  0.00  0.00     0.011 A 
ATOM      4  C4  ZIN A   1      18.868   1.242   7.621  0.00  0.00     0.030 A 
ATOM      5  C5  ZIN A   1      17.951   0.240   7.914  0.00  0.00     0.037 A 
ATOM      6  C24 ZIN A   1      17.425   0.136   9.194  0.00  0.00     0.060 A 
ATOM      7  C25 ZIN A   1      17.821   1.030  10.178  0.00  0.00     0.057 A 
ENDROOT
BRANCH   5   8
ATOM      8  N6  ZIN A   1      17.559  -0.663   6.920  0.00  0.00    -0.323 N 
ATOM      9  C7  ZIN A   1      18.362  -1.694   6.591  0.00  0.00     0.256 C 
ATOM     10  O8  ZIN A   1      19.381  -1.895   7.221  0.00  0.00    -0.267 OA
ATOM     11  H44 ZIN A   1      16.709  -0.546   6.467  0.00  0.00     0.169 HD
BRANCH   9  12
ATOM     12  C9  ZIN A   1      18.004  -2.579   5.463  0.00  0.00     0.032 A 
ATOM     13  C23 ZIN A   1      17.327  -2.066   4.356  0.00  0.00     0.017 A 
ATOM     14  C22 ZIN A   1      16.999  -2.897   3.305  0.00  0.00     0.010 A 
ATOM     15  C12 ZIN A   1      17.333  -4.239   3.350  0.00  0.00    -0.033 A 
ATOM     16  C11 ZIN A   1      18.000  -4.756   4.447  0.00  0.00     0.010 A 
ATOM     17  C10 ZIN A   1      18.338  -3.935   5.502  0.00  0.00     0.017 A 
BRANCH  15  18
ATOM     18  C13 ZIN A   1      16.968  -5.142   2.200  0.00  0.00     0.273 C 
BRANCH  18  19
ATOM     19  N14 ZIN A   1      15.654  -5.750   2.453  0.00  0.00    -0.064 N 
ATOM     20  H15 ZIN A   1      15.448  -5.706   3.439  0.00  0.00     0.280 HD
ATOM     21  C21 ZIN A   1      14.624  -5.016   1.704  0.00  0.00     0.265 C 
ATOM     22  C20 ZIN A   1      13.253  -5.636   1.982  0.00  0.00     0.299 C 
ATOM     23  N18 ZIN A   1      13.266  -7.049   1.575  0.00  0.00     0.087 N 
ATOM     24  C17 ZIN A   1      14.309  -7.790   2.298  0.00  0.00     0.299 C 
ATOM     25  C19 ZIN A   1      11.948  -7.666   1.773  0.00  0.00     0.310 C 
ATOM     26  C16 ZIN A   1      15.672  -7.152   2.018  0.00  0.00     0.265 C 
ENDBRANCH  18  19
ENDBRANCH  15  18
ENDBRANCH   9  12
ENDBRANCH   5   8
BRANCH   7  27
ATOM     27  N26 ZIN A   1      17.293   0.928  11.469  0.00  0.00    -0.188 N 
ATOM     28  H63 ZIN A   1      16.508   1.442  11.714  0.00  0.00     0.184 HD
BRANCH  27  29
ATOM     29  C27 ZIN A   1      17.891   0.092  12.397  0.00  0.00     0.727 A 
ATOM     30  N38 ZIN A   1      18.083   0.532  13.631  0.00  0.00    -0.062 NA
ATOM     31  C31 ZIN A   1      18.651  -0.249  14.548  0.00  0.00     0.089 A 
ATOM     32  C30 ZIN A   1      19.053  -1.538  14.185  0.00  0.00     0.053 A 
ATOM     33  C29 ZIN A   1      18.837  -1.954  12.883  0.00  0.00     0.139 A 
ATOM     34  N28 ZIN A   1      18.262  -1.125  12.026  0.00  0.00    -0.075 NA
BRANCH  31  35
ATOM     35  C32 ZIN A   1      18.861   0.244  15.931  0.00  0.00     0.011 A 
ATOM     36  C37 ZIN A   1      19.048   1.604  16.178  0.00  0.00     0.130 A 
ATOM     37  N36 ZIN A   1      19.229   2.042  17.406  0.00  0.00    -0.272 NA
ATOM     38  C35 ZIN A   1      19.251   1.225  18.442  0.00  0.00     0.116 A 
ATOM     39  C34 ZIN A   1      19.079  -0.137  18.278  0.00  0.00     0.020 A 
ATOM     40  C33 ZIN A   1      18.880  -0.647  17.007  0.00  0.00     0.017 A 
ENDBRANCH  31  35
ENDBRANCH  27  29
ENDBRANCH   7  27
TORSDOF 7
ENDMDL
MODEL 9
REMARK VINA RESULT:      -9.4      2.531      5.869
REMARK  7 active torsions:
REMARK  status: ('A' for Active; 'I' for Inactive)
REMARK    1  A    between atoms: C5_5  and  N6_6 
REMARK       I    between atoms: N6_6  and  C7_7 
REMARK    2  A    between atoms: C7_7  and  C9_9 
REMARK    3  A    between atoms: C12_12  and  C13_13 
REMARK    4  A    between atoms: C13_13  and  N14_14 
REMARK    5  A    between atoms: C25_25  and  N26_26 
REMARK    6  A    between atoms: N26_26  and  C27_27 
REMARK    7  A    between atoms: C31_31  and  C32_32 
ROOT
ATOM      1  C1  ZIN A   1      18.723  -1.752   5.820  0.00  0.00     0.050 C 
ATOM      2  C2  ZIN A   1      18.941  -0.778   6.949  0.00  0.00    -0.035 A 
ATOM      3  C3  ZIN A   1      18.705   0.569   6.754  0.00  0.00     0.011 A 
ATOM      4  C4  ZIN A   1      18.906   1.465   7.786  0.00  0.00     0.030 A 
ATOM      5  C5  ZIN A   1      19.343   1.014   9.026  0.00  0.00     0.037 A 
ATOM      6  C24 ZIN A   1      19.580  -0.339   9.225  0.00  0.00     0.060 A 
ATOM      7  C25 ZIN A   1      19.373  -1.237   8.188  0.00  0.00     0.057 A 
ENDROOT
BRANCH   5   8
ATOM      8  N6  ZIN A   1      19.544   1.922  10.070  0.00  0.00    -0.323 N 
ATOM      9  C7  ZIN A   1      18.520   2.256  10.879  0.00  0.00     0.256 C 
ATOM     10  O8  ZIN A   1      17.446   1.699  10.763  0.00  0.00    -0.267 OA
ATOM     11  H44 ZIN A   1      20.421   2.311  10.211  0.00  0.00     0.169 HD
BRANCH   9  12
ATOM     12  C9  ZIN A   1      18.702   3.301  11.909  0.00  0.00     0.032 A 
ATOM     13  C23 ZIN A   1      19.837   4.112  11.892  0.00  0.00     0.017 A 
ATOM     14  C22 ZIN A   1      19.998   5.089  12.852  0.00  0.00     0.010 A 
ATOM     15  C12 ZIN A   1      19.041   5.260  13.837  0.00  0.00    -0.033 A 
ATOM     16  C11 ZIN A   1      17.916   4.455  13.863  0.00  0.00     0.010 A 
ATOM     17  C10 ZIN A   1      17.740   3.479  12.905  0.00  0.00     0.017 A 
BRANCH  15  18
ATOM     18  C13 ZIN A   1      19.226   6.325  14.886  0.00  0.00     0.273 C 
BRANCH  18  19
ATOM     19  N14 ZIN A   1      17.914   6.737  15.403  0.00  0.00    -0.064 N 
ATOM     20  H15 ZIN A   1      17.239   6.009  15.226  0.00  0.00     0.280 HD
ATOM     21  C21 ZIN A   1      18.010   6.975  16.849  0.00  0.00     0.265 C 
ATOM     22  C20 ZIN A   1      16.639   7.386  17.391  0.00  0.00     0.299 C 
ATOM     23  N18 ZIN A   1      16.191   8.606  16.705  0.00  0.00     0.087 N 
ATOM     24  C17 ZIN A   1      16.114   8.392  15.253  0.00  0.00     0.299 C 
ATOM     25  C19 ZIN A   1      14.902   9.067  17.238  0.00  0.00     0.310 C 
ATOM     26  C16 ZIN A   1      17.489   7.971  14.729  0.00  0.00     0.265 C 
ENDBRANCH  18  19
ENDBRANCH  15  18
ENDBRANCH   9  12
ENDBRANCH   5   8
BRANCH   7  27
ATOM     27  N26 ZIN A   1      19.610  -2.601   8.386  0.00  0.00    -0.188 N 
ATOM     28  H63 ZIN A   1      20.385  -3.022   7.981  0.00  0.00     0.184 HD
BRANCH  27  29
ATOM     29  C27 ZIN A   1      18.740  -3.349   9.160  0.00  0.00     0.727 A 
ATOM     30  N38 ZIN A   1      17.963  -4.246   8.573  0.00  0.00    -0.062 NA
ATOM     31  C31 ZIN A   1      17.119  -4.985   9.290  0.00  0.00     0.089 A 
ATOM     32  C30 ZIN A   1      17.057  -4.792  10.673  0.00  0.00     0.053 A 
ATOM     33  C29 ZIN A   1      17.884  -3.841  11.244  0.00  0.00     0.139 A 
ATOM     34  N28 ZIN A   1      18.702  -3.146  10.469  0.00  0.00    -0.075 NA
BRANCH  31  35
ATOM     35  C32 ZIN A   1      16.252  -5.992   8.631  0.00  0.00     0.011 A 
ATOM     36  C37 ZIN A   1      14.886  -5.759   8.477  0.00  0.00     0.130 A 
ATOM     37  N36 ZIN A   1      14.117  -6.650   7.887  0.00  0.00    -0.272 NA
ATOM     38  C35 ZIN A   1      14.597  -7.792   7.430  0.00  0.00     0.116 A 
ATOM     39  C34 ZIN A   1      15.940  -8.099   7.550  0.00  0.00     0.020 A 
ATOM     40  C33 ZIN A   1      16.791  -7.192   8.159  0.00  0.00     0.017 A 
ENDBRANCH  31  35
ENDBRANCH  27  29
ENDBRANCH   7  27
TORSDOF 7
ENDMDL
