MODEL 1
REMARK VINA RESULT:      -7.2      0.000      0.000
REMARK  2 active torsions:
REMARK  status: ('A' for Active; 'I' for Inactive)
REMARK    1  A    between atoms: C8_8  and  N9_9 
REMARK       I    between atoms: N9_9  and  C10_10 
REMARK    2  A    between atoms: C10_10  and  C12_12 
ROOT
ATOM      1  N9  <0> d   1      18.030   0.527  12.095  0.00  0.00    -0.324 N 
ATOM      2  C10 <0> d   1      18.903   0.505  13.122  0.00  0.00     0.255 C 
ATOM      3  O11 <0> d   1      20.073   0.762  12.929  0.00  0.00    -0.271 OA
ATOM      4  H29 <0> d   1      17.113   0.244  12.232  0.00  0.00     0.169 HD
ENDROOT
BRANCH   1   5
ATOM      5  C8  <0> d   1      18.448   0.956  10.830  0.00  0.00     0.046 A 
ATOM      6  C2  <0> d   1      18.306   2.289  10.466  0.00  0.00    -0.035 A 
ATOM      7  C1  <0> d   1      17.705   3.276  11.435  0.00  0.00     0.050 C 
ATOM      8  C3  <0> d   1      18.720   2.710   9.218  0.00  0.00     0.009 A 
ATOM      9  C4  <0> d   1      19.270   1.806   8.328  0.00  0.00     0.001 A 
ATOM     10  C5  <0> d   1      19.408   0.477   8.686  0.00  0.00     0.009 A 
ATOM     11  C6  <0> d   1      18.996   0.049   9.933  0.00  0.00    -0.035 A 
ATOM     12  C7  <0> d   1      19.148  -1.399  10.322  0.00  0.00     0.050 C 
ENDBRANCH   1   5
BRANCH   2  13
ATOM     13  C12 <0> d   1      18.426   0.161  14.509  0.00  0.00     0.314 C 
ATOM     14  N18 <0> d   1      18.889   1.186  15.453  0.00  0.00     0.098 N 
ATOM     15  C17 <0> d   1      18.409   0.910  16.814  0.00  0.00     0.273 C 
ATOM     16  C19 <0> d   1      18.483   2.528  15.014  0.00  0.00     0.310 C 
ATOM     17  C16 <0> d   1      18.970  -0.431  17.291  0.00  0.00     0.030 C 
ATOM     18  C15 <0> d   1      18.517  -1.538  16.336  0.00  0.00     0.004 C 
ATOM     19  C14 <0> d   1      18.988  -1.203  14.918  0.00  0.00     0.046 C 
ENDBRANCH   2  13
TORSDOF 2
ENDMDL
MODEL 2
REMARK VINA RESULT:      -7.2      0.011      2.019
REMARK  2 active torsions:
REMARK  status: ('A' for Active; 'I' for Inactive)
REMARK    1  A    between atoms: C8_8  and  N9_9 
REMARK       I    between atoms: N9_9  and  C10_10 
REMARK    2  A    between atoms: C10_10  and  C12_12 
ROOT
ATOM      1  N9  <0> d   1      18.035   0.522  12.098  0.00  0.00    -0.324 N 
ATOM      2  C10 <0> d   1      18.908   0.504  13.125  0.00  0.00     0.255 C 
ATOM      3  O11 <0> d   1      20.077   0.763  12.931  0.00  0.00    -0.271 OA
ATOM      4  H29 <0> d   1      17.118   0.238  12.237  0.00  0.00     0.169 HD
ENDROOT
BRANCH   1   5
ATOM      5  C8  <0> d   1      18.451   0.951  10.833  0.00  0.00     0.046 A 
ATOM      6  C2  <0> d   1      19.011   0.046   9.941  0.00  0.00    -0.035 A 
ATOM      7  C1  <0> d   1      19.167  -1.401  10.333  0.00  0.00     0.050 C 
ATOM      8  C3  <0> d   1      19.419   0.473   8.693  0.00  0.00     0.009 A 
ATOM      9  C4  <0> d   1      19.277   1.800   8.332  0.00  0.00     0.001 A 
ATOM     10  C5  <0> d   1      18.725   2.705   9.221  0.00  0.00     0.009 A 
ATOM     11  C6  <0> d   1      18.313   2.285  10.471  0.00  0.00    -0.035 A 
ATOM     12  C7  <0> d   1      17.711   3.271  11.438  0.00  0.00     0.050 C 
ENDBRANCH   1   5
BRANCH   2  13
ATOM     13  C12 <0> d   1      18.432   0.160  14.513  0.00  0.00     0.314 C 
ATOM     14  N18 <0> d   1      18.899   1.184  15.457  0.00  0.00     0.098 N 
ATOM     15  C17 <0> d   1      18.421   0.908  16.818  0.00  0.00     0.273 C 
ATOM     16  C19 <0> d   1      18.496   2.527  15.018  0.00  0.00     0.310 C 
ATOM     17  C16 <0> d   1      18.980  -0.434  17.294  0.00  0.00     0.030 C 
ATOM     18  C15 <0> d   1      18.522  -1.539  16.339  0.00  0.00     0.004 C 
ATOM     19  C14 <0> d   1      18.991  -1.205  14.921  0.00  0.00     0.046 C 
ENDBRANCH   2  13
TORSDOF 2
ENDMDL
MODEL 3
REMARK VINA RESULT:      -7.1      1.317      2.422
REMARK  2 active torsions:
REMARK  status: ('A' for Active; 'I' for Inactive)
REMARK    1  A    between atoms: C8_8  and  N9_9 
REMARK       I    between atoms: N9_9  and  C10_10 
REMARK    2  A    between atoms: C10_10  and  C12_12 
ROOT
ATOM      1  N9  <0> d   1      18.943   0.608  11.546  0.00  0.00    -0.324 N 
ATOM      2  C10 <0> d   1      17.753   0.547  12.177  0.00  0.00     0.255 C 
ATOM      3  O11 <0> d   1      16.725   0.684  11.547  0.00  0.00    -0.271 OA
ATOM      4  H29 <0> d   1      19.765   0.579  12.059  0.00  0.00     0.169 HD
ENDROOT
BRANCH   1   5
ATOM      5  C8  <0> d   1      18.991   0.713  10.152  0.00  0.00     0.046 A 
ATOM      6  C2  <0> d   1      19.112  -0.429   9.371  0.00  0.00    -0.035 A 
ATOM      7  C1  <0> d   1      19.187  -1.785  10.025  0.00  0.00     0.050 C 
ATOM      8  C3  <0> d   1      19.159  -0.321   7.995  0.00  0.00     0.009 A 
ATOM      9  C4  <0> d   1      19.091   0.922   7.394  0.00  0.00     0.001 A 
ATOM     10  C5  <0> d   1      18.976   2.062   8.169  0.00  0.00     0.009 A 
ATOM     11  C6  <0> d   1      18.928   1.961   9.546  0.00  0.00    -0.035 A 
ATOM     12  C7  <0> d   1      18.802   3.204  10.389  0.00  0.00     0.050 C 
ENDBRANCH   1   5
BRANCH   2  13
ATOM     13  C12 <0> d   1      17.700   0.310  13.664  0.00  0.00     0.314 C 
ATOM     14  N18 <0> d   1      18.453   1.365  14.354  0.00  0.00     0.098 N 
ATOM     15  C17 <0> d   1      18.391   1.195  15.811  0.00  0.00     0.273 C 
ATOM     16  C19 <0> d   1      17.974   2.697  13.959  0.00  0.00     0.310 C 
ATOM     17  C16 <0> d   1      19.030  -0.141  16.197  0.00  0.00     0.030 C 
ATOM     18  C15 <0> d   1      18.281  -1.279  15.500  0.00  0.00     0.004 C 
ATOM     19  C14 <0> d   1      18.318  -1.053  13.986  0.00  0.00     0.046 C 
ENDBRANCH   2  13
TORSDOF 2
ENDMDL
MODEL 4
REMARK VINA RESULT:      -7.1      3.148      5.299
REMARK  2 active torsions:
REMARK  status: ('A' for Active; 'I' for Inactive)
REMARK    1  A    between atoms: C8_8  and  N9_9 
REMARK       I    between atoms: N9_9  and  C10_10 
REMARK    2  A    between atoms: C10_10  and  C12_12 
ROOT
ATOM      1  N9  <0> d   1      17.708  -0.857   9.785  0.00  0.00    -0.324 N 
ATOM      2  C10 <0> d   1      18.644  -1.753  10.158  0.00  0.00     0.255 C 
ATOM      3  O11 <0> d   1      19.749  -1.376  10.486  0.00  0.00    -0.271 OA
ATOM      4  H29 <0> d   1      16.853  -1.163   9.446  0.00  0.00     0.169 HD
ENDROOT
BRANCH   1   5
ATOM      5  C8  <0> d   1      17.972   0.513   9.887  0.00  0.00     0.046 A 
ATOM      6  C2  <0> d   1      17.659   1.197  11.054  0.00  0.00    -0.035 A 
ATOM      7  C1  <0> d   1      17.037   0.463  12.215  0.00  0.00     0.050 C 
ATOM      8  C3  <0> d   1      17.921   2.549  11.152  0.00  0.00     0.009 A 
ATOM      9  C4  <0> d   1      18.490   3.224  10.087  0.00  0.00     0.001 A 
ATOM     10  C5  <0> d   1      18.798   2.547   8.921  0.00  0.00     0.009 A 
ATOM     11  C6  <0> d   1      18.539   1.194   8.817  0.00  0.00    -0.035 A 
ATOM     12  C7  <0> d   1      18.875   0.457   7.547  0.00  0.00     0.050 C 
ENDBRANCH   1   5
BRANCH   2  13
ATOM     13  C12 <0> d   1      18.318  -3.224  10.164  0.00  0.00     0.314 C 
ATOM     14  N18 <0> d   1      17.768  -3.609   8.858  0.00  0.00     0.098 N 
ATOM     15  C17 <0> d   1      17.475  -5.047   8.808  0.00  0.00     0.273 C 
ATOM     16  C19 <0> d   1      18.675  -3.219   7.770  0.00  0.00     0.310 C 
ATOM     17  C16 <0> d   1      16.419  -5.390   9.861  0.00  0.00     0.030 C 
ATOM     18  C15 <0> d   1      16.943  -5.005  11.247  0.00  0.00     0.004 C 
ATOM     19  C14 <0> d   1      17.286  -3.513  11.258  0.00  0.00     0.046 C 
ENDBRANCH   2  13
TORSDOF 2
ENDMDL
MODEL 5
REMARK VINA RESULT:      -7.0      3.120      5.396
REMARK  2 active torsions:
REMARK  status: ('A' for Active; 'I' for Inactive)
REMARK    1  A    between atoms: C8_8  and  N9_9 
REMARK       I    between atoms: N9_9  and  C10_10 
REMARK    2  A    between atoms: C10_10  and  C12_12 
ROOT
ATOM      1  N9  <0> d   1      17.715  -0.862   9.827  0.00  0.00    -0.324 N 
ATOM      2  C10 <0> d   1      18.654  -1.752  10.207  0.00  0.00     0.255 C 
ATOM      3  O11 <0> d   1      19.755  -1.367  10.540  0.00  0.00    -0.271 OA
ATOM      4  H29 <0> d   1      16.863  -1.174   9.485  0.00  0.00     0.169 HD
ENDROOT
BRANCH   1   5
ATOM      5  C8  <0> d   1      17.971   0.510   9.925  0.00  0.00     0.046 A 
ATOM      6  C2  <0> d   1      18.541   1.189   8.856  0.00  0.00    -0.035 A 
ATOM      7  C1  <0> d   1      18.883   0.450   7.588  0.00  0.00     0.050 C 
ATOM      8  C3  <0> d   1      18.792   2.544   8.956  0.00  0.00     0.009 A 
ATOM      9  C4  <0> d   1      18.480   3.223  10.120  0.00  0.00     0.001 A 
ATOM     10  C5  <0> d   1      17.917   2.547  11.187  0.00  0.00     0.009 A 
ATOM     11  C6  <0> d   1      17.664   1.193  11.094  0.00  0.00    -0.035 A 
ATOM     12  C7  <0> d   1      17.049   0.459  12.258  0.00  0.00     0.050 C 
ENDBRANCH   1   5
BRANCH   2  13
ATOM     13  C12 <0> d   1      18.336  -3.225  10.219  0.00  0.00     0.314 C 
ATOM     14  N18 <0> d   1      17.819  -3.623   8.903  0.00  0.00     0.098 N 
ATOM     15  C17 <0> d   1      17.535  -5.063   8.858  0.00  0.00     0.273 C 
ATOM     16  C19 <0> d   1      18.749  -3.236   7.833  0.00  0.00     0.310 C 
ATOM     17  C16 <0> d   1      16.456  -5.404   9.888  0.00  0.00     0.030 C 
ATOM     18  C15 <0> d   1      16.946  -5.005  11.283  0.00  0.00     0.004 C 
ATOM     19  C14 <0> d   1      17.281  -3.511  11.290  0.00  0.00     0.046 C 
ENDBRANCH   2  13
TORSDOF 2
ENDMDL
MODEL 6
REMARK VINA RESULT:      -7.0      1.475      5.982
REMARK  2 active torsions:
REMARK  status: ('A' for Active; 'I' for Inactive)
REMARK    1  A    between atoms: C8_8  and  N9_9 
REMARK       I    between atoms: N9_9  and  C10_10 
REMARK    2  A    between atoms: C10_10  and  C12_12 
ROOT
ATOM      1  N9  <0> d   1      18.562   0.500  12.535  0.00  0.00    -0.324 N 
ATOM      2  C10 <0> d   1      17.507   0.518  11.696  0.00  0.00     0.255 C 
ATOM      3  O11 <0> d   1      16.421   0.138  12.078  0.00  0.00    -0.271 OA
ATOM      4  H29 <0> d   1      19.446   0.727  12.207  0.00  0.00     0.169 HD
ENDROOT
BRANCH   1   5
ATOM      5  C8  <0> d   1      18.381   0.154  13.879  0.00  0.00     0.046 A 
ATOM      6  C2  <0> d   1      18.106   1.137  14.820  0.00  0.00    -0.035 A 
ATOM      7  C1  <0> d   1      17.999   2.579  14.396  0.00  0.00     0.050 C 
ATOM      8  C3  <0> d   1      17.928   0.791  16.145  0.00  0.00     0.009 A 
ATOM      9  C4  <0> d   1      18.027  -0.532  16.536  0.00  0.00     0.001 A 
ATOM     10  C5  <0> d   1      18.307  -1.513  15.601  0.00  0.00     0.009 A 
ATOM     11  C6  <0> d   1      18.486  -1.173  14.274  0.00  0.00    -0.035 A 
ATOM     12  C7  <0> d   1      18.788  -2.243  13.257  0.00  0.00     0.050 C 
ENDBRANCH   1   5
BRANCH   2  13
ATOM     13  C12 <0> d   1      17.678   1.010  10.281  0.00  0.00     0.314 C 
ATOM     14  N18 <0> d   1      18.466   0.034   9.517  0.00  0.00     0.098 N 
ATOM     15  C17 <0> d   1      18.620   0.455   8.119  0.00  0.00     0.273 C 
ATOM     16  C19 <0> d   1      17.867  -1.306   9.600  0.00  0.00     0.310 C 
ATOM     17  C16 <0> d   1      19.376   1.784   8.067  0.00  0.00     0.030 C 
ATOM     18  C15 <0> d   1      18.596   2.841   8.853  0.00  0.00     0.004 C 
ATOM     19  C14 <0> d   1      18.406   2.356  10.293  0.00  0.00     0.046 C 
ENDBRANCH   2  13
TORSDOF 2
ENDMDL
MODEL 7
REMARK VINA RESULT:      -6.9      1.873      6.387
REMARK  2 active torsions:
REMARK  status: ('A' for Active; 'I' for Inactive)
REMARK    1  A    between atoms: C8_8  and  N9_9 
REMARK       I    between atoms: N9_9  and  C10_10 
REMARK    2  A    between atoms: C10_10  and  C12_12 
ROOT
ATOM      1  N9  <0> d   1      19.530   1.569  14.543  0.00  0.00    -0.324 N 
ATOM      2  C10 <0> d   1      18.510   1.960  13.755  0.00  0.00     0.255 C 
ATOM      3  O11 <0> d   1      17.367   1.703  14.069  0.00  0.00    -0.271 OA
ATOM      4  H29 <0> d   1      20.446   1.703  14.254  0.00  0.00     0.169 HD
ENDROOT
BRANCH   1   5
ATOM      5  C8  <0> d   1      19.269   0.968  15.780  0.00  0.00     0.046 A 
ATOM      6  C2  <0> d   1      19.051  -0.402  15.856  0.00  0.00    -0.035 A 
ATOM      7  C1  <0> d   1      19.100  -1.243  14.606  0.00  0.00     0.050 C 
ATOM      8  C3  <0> d   1      18.794  -0.991  17.078  0.00  0.00     0.009 A 
ATOM      9  C4  <0> d   1      18.748  -0.219  18.224  0.00  0.00     0.001 A 
ATOM     10  C5  <0> d   1      18.958   1.146  18.151  0.00  0.00     0.009 A 
ATOM     11  C6  <0> d   1      19.217   1.742  16.932  0.00  0.00    -0.035 A 
ATOM     12  C7  <0> d   1      19.447   3.229  16.853  0.00  0.00     0.050 C 
ENDBRANCH   1   5
BRANCH   2  13
ATOM     13  C12 <0> d   1      18.789   2.717  12.482  0.00  0.00     0.314 C 
ATOM     14  N18 <0> d   1      18.024   3.971  12.481  0.00  0.00     0.098 N 
ATOM     15  C17 <0> d   1      18.301   4.760  11.274  0.00  0.00     0.273 C 
ATOM     16  C19 <0> d   1      18.296   4.753  13.695  0.00  0.00     0.310 C 
ATOM     17  C16 <0> d   1      17.871   3.969  10.037  0.00  0.00     0.030 C 
ATOM     18  C15 <0> d   1      18.640   2.646   9.990  0.00  0.00     0.004 C 
ATOM     19  C14 <0> d   1      18.374   1.865  11.280  0.00  0.00     0.046 C 
ENDBRANCH   2  13
TORSDOF 2
ENDMDL
MODEL 8
REMARK VINA RESULT:      -6.9      1.045      1.841
REMARK  2 active torsions:
REMARK  status: ('A' for Active; 'I' for Inactive)
REMARK    1  A    between atoms: C8_8  and  N9_9 
REMARK       I    between atoms: N9_9  and  C10_10 
REMARK    2  A    between atoms: C10_10  and  C12_12 
ROOT
ATOM      1  N9  <0> d   1      18.741   0.653  11.780  0.00  0.00    -0.324 N 
ATOM      2  C10 <0> d   1      19.829   0.578  12.572  0.00  0.00     0.255 C 
ATOM      3  O11 <0> d   1      20.938   0.654  12.088  0.00  0.00    -0.271 OA
ATOM      4  H29 <0> d   1      17.858   0.512  12.155  0.00  0.00     0.169 HD
ENDROOT
BRANCH   1   5
ATOM      5  C8  <0> d   1      18.886   0.934  10.417  0.00  0.00     0.046 A 
ATOM      6  C2  <0> d   1      18.865   2.250   9.972  0.00  0.00    -0.035 A 
ATOM      7  C1  <0> d   1      18.691   3.377  10.957  0.00  0.00     0.050 C 
ATOM      8  C3  <0> d   1      19.009   2.523   8.626  0.00  0.00     0.009 A 
ATOM      9  C4  <0> d   1      19.168   1.490   7.721  0.00  0.00     0.001 A 
ATOM     10  C5  <0> d   1      19.183   0.178   8.161  0.00  0.00     0.009 A 
ATOM     11  C6  <0> d   1      19.041  -0.102   9.506  0.00  0.00    -0.035 A 
ATOM     12  C7  <0> d   1      19.058  -1.531   9.984  0.00  0.00     0.050 C 
ENDBRANCH   1   5
BRANCH   2  13
ATOM     13  C12 <0> d   1      19.667   0.398  14.059  0.00  0.00     0.314 C 
ATOM     14  N18 <0> d   1      18.807  -0.764  14.320  0.00  0.00     0.098 N 
ATOM     15  C17 <0> d   1      18.657  -1.001  15.762  0.00  0.00     0.273 C 
ATOM     16  C19 <0> d   1      19.321  -1.961  13.641  0.00  0.00     0.310 C 
ATOM     17  C16 <0> d   1      17.987   0.212  16.411  0.00  0.00     0.030 C 
ATOM     18  C15 <0> d   1      18.845   1.456  16.166  0.00  0.00     0.004 C 
ATOM     19  C14 <0> d   1      19.027   1.652  14.659  0.00  0.00     0.046 C 
ENDBRANCH   2  13
TORSDOF 2
ENDMDL
MODEL 9
REMARK VINA RESULT:      -6.9      1.895      3.019
REMARK  2 active torsions:
REMARK  status: ('A' for Active; 'I' for Inactive)
REMARK    1  A    between atoms: C8_8  and  N9_9 
REMARK       I    between atoms: N9_9  and  C10_10 
REMARK    2  A    between atoms: C10_10  and  C12_12 
ROOT
ATOM      1  N9  <0> d   1      18.572  -0.103  10.197  0.00  0.00    -0.324 N 
ATOM      2  C10 <0> d   1      19.711  -0.331  10.882  0.00  0.00     0.255 C 
ATOM      3  O11 <0> d   1      20.752  -0.510  10.287  0.00  0.00    -0.271 OA
ATOM      4  H29 <0> d   1      17.727  -0.041  10.669  0.00  0.00     0.169 HD
ENDROOT
BRANCH   1   5
ATOM      5  C8  <0> d   1      18.610   0.041   8.806  0.00  0.00     0.046 A 
ATOM      6  C2  <0> d   1      18.840   1.290   8.242  0.00  0.00    -0.035 A 
ATOM      7  C1  <0> d   1      19.053   2.490   9.129  0.00  0.00     0.050 C 
ATOM      8  C3  <0> d   1      18.877   1.428   6.869  0.00  0.00     0.009 A 
ATOM      9  C4  <0> d   1      18.681   0.328   6.055  0.00  0.00     0.001 A 
ATOM     10  C5  <0> d   1      18.446  -0.915   6.614  0.00  0.00     0.009 A 
ATOM     11  C6  <0> d   1      18.408  -1.061   7.987  0.00  0.00    -0.035 A 
ATOM     12  C7  <0> d   1      18.153  -2.416   8.594  0.00  0.00     0.050 C 
ENDBRANCH   1   5
BRANCH   2  13
ATOM     13  C12 <0> d   1      19.689  -0.364  12.389  0.00  0.00     0.314 C 
ATOM     14  N18 <0> d   1      18.757  -1.405  12.842  0.00  0.00     0.098 N 
ATOM     15  C17 <0> d   1      18.738  -1.499  14.307  0.00  0.00     0.273 C 
ATOM     16  C19 <0> d   1      19.083  -2.703  12.235  0.00  0.00     0.310 C 
ATOM     17  C16 <0> d   1      18.255  -0.173  14.898  0.00  0.00     0.030 C 
ATOM     18  C15 <0> d   1      19.195   0.951  14.453  0.00  0.00     0.004 C 
ATOM     19  C14 <0> d   1      19.235   0.996  12.923  0.00  0.00     0.046 C 
ENDBRANCH   2  13
TORSDOF 2
ENDMDL
