MODEL 1
REMARK VINA RESULT:      -7.0      0.000      0.000
REMARK  20 active torsions:
REMARK  status: ('A' for Active; 'I' for Inactive)
REMARK    1  A    between atoms: C2_2  and  O3_3 
REMARK    2  A    between atoms: O3_3  and  C4_4 
REMARK    3  A    between atoms: C7_7  and  C8_8 
REMARK    4  A    between atoms: C8_8  and  C9_9 
REMARK    5  A    between atoms: C9_9  and  C11_10 
REMARK    6  A    between atoms: C9_9  and  N29_28 
REMARK    7  A    between atoms: C11_10  and  N12_11 
REMARK    8  A    between atoms: N12_11  and  C14_13 
REMARK    9  A    between atoms: N12_11  and  C25_24 
REMARK   10  A    between atoms: C14_13  and  C15_14 
REMARK   11  A    between atoms: C15_14  and  N16_15 
REMARK   12  A    between atoms: N16_15  and  C17_16 
REMARK   13  A    between atoms: N16_15  and  C21_20 
REMARK   14  A    between atoms: C17_16  and  C18_17 
REMARK   15  A    between atoms: C21_20  and  C22_21 
REMARK   16  A    between atoms: C25_24  and  C26_25 
REMARK   17  A    between atoms: N29_28  and  C30_29 
REMARK   18  A    between atoms: N29_28  and  C34_33 
REMARK   19  A    between atoms: C30_29  and  C31_30 
REMARK   20  A    between atoms: C34_33  and  C35_34 
ROOT
ATOM      1  C9  ZIN A   1      19.063   1.130  11.423  0.00  0.00     0.254 C 
ENDROOT
BRANCH   1   2
ATOM      2  C8  ZIN A   1      17.766   1.379  10.650  0.00  0.00     0.076 C 
BRANCH   2   3
ATOM      3  C7  ZIN A   1      17.981   1.064   9.192  0.00  0.00    -0.056 A 
ATOM      4  C6  ZIN A   1      17.300   0.012   8.605  0.00  0.00     0.010 A 
ATOM      5  C5  ZIN A   1      17.495  -0.279   7.270  0.00  0.00     0.037 A 
ATOM      6  C4  ZIN A   1      18.375   0.485   6.516  0.00  0.00     0.068 A 
ATOM      7  C39 ZIN A   1      19.061   1.534   7.108  0.00  0.00     0.037 A 
ATOM      8  C38 ZIN A   1      18.858   1.825   8.443  0.00  0.00     0.010 A 
BRANCH   6   9
ATOM      9  O3  ZIN A   1      18.568   0.200   5.201  0.00  0.00    -0.352 OA
BRANCH   9  10
ATOM     10  C2  ZIN A   1      17.968  -0.997   4.701  0.00  0.00     0.171 C 
ATOM     11  C1  ZIN A   1      19.044  -2.069   4.516  0.00  0.00     0.034 C 
ENDBRANCH   9  10
ENDBRANCH   6   9
ENDBRANCH   2   3
ENDBRANCH   1   2
BRANCH   1  12
ATOM     12  C11 ZIN A   1      19.410   2.369  12.250  0.00  0.00     0.271 C 
BRANCH  12  13
ATOM     13  N12 ZIN A   1      18.197   3.170  12.462  0.00  0.00    -0.058 N 
ATOM     14  H13 ZIN A   1      17.419   2.734  11.992  0.00  0.00     0.280 HD
BRANCH  13  15
ATOM     15  C14 ZIN A   1      17.915   3.258  13.901  0.00  0.00     0.265 C 
BRANCH  15  16
ATOM     16  C15 ZIN A   1      19.219   3.505  14.662  0.00  0.00     0.301 C 
BRANCH  16  17
ATOM     17  N16 ZIN A   1      18.913   4.010  16.008  0.00  0.00     0.110 N 
BRANCH  17  18
ATOM     18  C17 ZIN A   1      18.098   5.229  15.939  0.00  0.00     0.385 C 
BRANCH  18  19
ATOM     19  C18 ZIN A   1      18.971   6.432  16.187  0.00  0.00     0.202 C 
ATOM     20  O19 ZIN A   1      18.476   7.546  16.234  0.00  0.00    -0.647 OA
ATOM     21  O20 ZIN A   1      20.173   6.292  16.340  0.00  0.00    -0.647 OA
ENDBRANCH  18  19
ENDBRANCH  17  18
BRANCH  17  22
ATOM     22  C21 ZIN A   1      18.252   2.978  16.819  0.00  0.00     0.385 C 
BRANCH  22  23
ATOM     23  C22 ZIN A   1      18.857   2.961  18.199  0.00  0.00     0.202 C 
ATOM     24  O23 ZIN A   1      19.782   2.209  18.450  0.00  0.00    -0.647 OA
ATOM     25  O24 ZIN A   1      18.421   3.701  19.064  0.00  0.00    -0.647 OA
ENDBRANCH  22  23
ENDBRANCH  17  22
ENDBRANCH  16  17
ENDBRANCH  15  16
ENDBRANCH  13  15
BRANCH  13  26
ATOM     26  C25 ZIN A   1      18.403   4.521  11.920  0.00  0.00     0.347 C 
BRANCH  26  27
ATOM     27  C26 ZIN A   1      17.349   4.811  10.882  0.00  0.00     0.199 C 
ATOM     28  O27 ZIN A   1      16.172   4.825  11.196  0.00  0.00    -0.647 OA
ATOM     29  O28 ZIN A   1      17.677   5.031   9.728  0.00  0.00    -0.647 OA
ENDBRANCH  26  27
ENDBRANCH  13  26
ENDBRANCH  12  13
ENDBRANCH   1  12
BRANCH   1  30
ATOM     30  N29 ZIN A   1      18.887  -0.023  12.316  0.00  0.00     0.115 N 
BRANCH  30  31
ATOM     31  C30 ZIN A   1      19.226  -1.277  11.631  0.00  0.00     0.386 C 
BRANCH  31  32
ATOM     32  C31 ZIN A   1      18.088  -2.254  11.780  0.00  0.00     0.202 C 
ATOM     33  O32 ZIN A   1      18.319  -3.446  11.894  0.00  0.00    -0.647 OA
ATOM     34  O33 ZIN A   1      16.936  -1.853  11.787  0.00  0.00    -0.647 OA
ENDBRANCH  31  32
ENDBRANCH  30  31
BRANCH  30  35
ATOM     35  C34 ZIN A   1      19.679   0.137  13.543  0.00  0.00     0.386 C 
BRANCH  35  36
ATOM     36  C35 ZIN A   1      18.895  -0.384  14.720  0.00  0.00     0.202 C 
ATOM     37  O36 ZIN A   1      19.456  -1.035  15.585  0.00  0.00    -0.647 OA
ATOM     38  O37 ZIN A   1      17.701  -0.156  14.806  0.00  0.00    -0.647 OA
ENDBRANCH  35  36
ENDBRANCH  30  35
ENDBRANCH   1  30
TORSDOF 20
ENDMDL
MODEL 2
REMARK VINA RESULT:      -7.0      0.680      2.027
REMARK  20 active torsions:
REMARK  status: ('A' for Active; 'I' for Inactive)
REMARK    1  A    between atoms: C2_2  and  O3_3 
REMARK    2  A    between atoms: O3_3  and  C4_4 
REMARK    3  A    between atoms: C7_7  and  C8_8 
REMARK    4  A    between atoms: C8_8  and  C9_9 
REMARK    5  A    between atoms: C9_9  and  C11_10 
REMARK    6  A    between atoms: C9_9  and  N29_28 
REMARK    7  A    between atoms: C11_10  and  N12_11 
REMARK    8  A    between atoms: N12_11  and  C14_13 
REMARK    9  A    between atoms: N12_11  and  C25_24 
REMARK   10  A    between atoms: C14_13  and  C15_14 
REMARK   11  A    between atoms: C15_14  and  N16_15 
REMARK   12  A    between atoms: N16_15  and  C17_16 
REMARK   13  A    between atoms: N16_15  and  C21_20 
REMARK   14  A    between atoms: C17_16  and  C18_17 
REMARK   15  A    between atoms: C21_20  and  C22_21 
REMARK   16  A    between atoms: C25_24  and  C26_25 
REMARK   17  A    between atoms: N29_28  and  C30_29 
REMARK   18  A    between atoms: N29_28  and  C34_33 
REMARK   19  A    between atoms: C30_29  and  C31_30 
REMARK   20  A    between atoms: C34_33  and  C35_34 
ROOT
ATOM      1  C9  ZIN A   1      19.114   1.054  11.167  0.00  0.00     0.254 C 
ENDROOT
BRANCH   1   2
ATOM      2  C8  ZIN A   1      17.808   1.327  10.417  0.00  0.00     0.076 C 
BRANCH   2   3
ATOM      3  C7  ZIN A   1      17.993   1.010   8.955  0.00  0.00    -0.056 A 
ATOM      4  C6  ZIN A   1      17.260  -0.008   8.372  0.00  0.00     0.010 A 
ATOM      5  C5  ZIN A   1      17.426  -0.300   7.033  0.00  0.00     0.037 A 
ATOM      6  C4  ZIN A   1      18.331   0.427   6.272  0.00  0.00     0.068 A 
ATOM      7  C39 ZIN A   1      19.069   1.443   6.861  0.00  0.00     0.037 A 
ATOM      8  C38 ZIN A   1      18.894   1.736   8.200  0.00  0.00     0.010 A 
BRANCH   6   9
ATOM      9  O3  ZIN A   1      18.497   0.140   4.955  0.00  0.00    -0.352 OA
BRANCH   9  10
ATOM     10  C2  ZIN A   1      18.732  -1.227   4.612  0.00  0.00     0.171 C 
ATOM     11  C1  ZIN A   1      17.454  -1.835   4.029  0.00  0.00     0.034 C 
ENDBRANCH   9  10
ENDBRANCH   6   9
ENDBRANCH   2   3
ENDBRANCH   1   2
BRANCH   1  12
ATOM     12  C11 ZIN A   1      19.461   2.260  12.042  0.00  0.00     0.271 C 
BRANCH  12  13
ATOM     13  N12 ZIN A   1      18.269   3.103  12.208  0.00  0.00    -0.058 N 
ATOM     14  H13 ZIN A   1      17.481   2.664  11.757  0.00  0.00     0.280 HD
BRANCH  13  15
ATOM     15  C14 ZIN A   1      17.985   3.273  13.639  0.00  0.00     0.265 C 
BRANCH  15  16
ATOM     16  C15 ZIN A   1      19.299   3.286  14.422  0.00  0.00     0.301 C 
BRANCH  16  17
ATOM     17  N16 ZIN A   1      19.035   3.662  15.817  0.00  0.00     0.110 N 
BRANCH  17  18
ATOM     18  C17 ZIN A   1      18.952   2.473  16.675  0.00  0.00     0.385 C 
BRANCH  18  19
ATOM     19  C18 ZIN A   1      18.779   2.899  18.110  0.00  0.00     0.202 C 
ATOM     20  O19 ZIN A   1      17.824   3.585  18.432  0.00  0.00    -0.647 OA
ATOM     21  O20 ZIN A   1      19.595   2.558  18.950  0.00  0.00    -0.647 OA
ENDBRANCH  18  19
ENDBRANCH  17  18
BRANCH  17  22
ATOM     22  C21 ZIN A   1      20.052   4.599  16.312  0.00  0.00     0.385 C 
BRANCH  22  23
ATOM     23  C22 ZIN A   1      19.558   6.012  16.140  0.00  0.00     0.202 C 
ATOM     24  O23 ZIN A   1      18.862   6.524  17.000  0.00  0.00    -0.647 OA
ATOM     25  O24 ZIN A   1      19.855   6.644  15.141  0.00  0.00    -0.647 OA
ENDBRANCH  22  23
ENDBRANCH  17  22
ENDBRANCH  16  17
ENDBRANCH  15  16
ENDBRANCH  13  15
BRANCH  13  26
ATOM     26  C25 ZIN A   1      18.513   4.418  11.598  0.00  0.00     0.347 C 
BRANCH  26  27
ATOM     27  C26 ZIN A   1      17.371   4.763  10.676  0.00  0.00     0.199 C 
ATOM     28  O27 ZIN A   1      16.224   4.723  11.085  0.00  0.00    -0.647 OA
ATOM     29  O28 ZIN A   1      17.597   5.081   9.521  0.00  0.00    -0.647 OA
ENDBRANCH  26  27
ENDBRANCH  13  26
ENDBRANCH  12  13
ENDBRANCH   1  12
BRANCH   1  30
ATOM     30  N29 ZIN A   1      18.952  -0.136  12.014  0.00  0.00     0.115 N 
BRANCH  30  31
ATOM     31  C30 ZIN A   1      19.286  -1.359  11.272  0.00  0.00     0.386 C 
BRANCH  31  32
ATOM     32  C31 ZIN A   1      18.055  -2.219  11.142  0.00  0.00     0.202 C 
ATOM     33  O32 ZIN A   1      18.080  -3.217  10.440  0.00  0.00    -0.647 OA
ATOM     34  O33 ZIN A   1      17.035  -1.919  11.738  0.00  0.00    -0.647 OA
ENDBRANCH  31  32
ENDBRANCH  30  31
BRANCH  30  35
ATOM     35  C34 ZIN A   1      19.758  -0.025  13.237  0.00  0.00     0.386 C 
BRANCH  35  36
ATOM     36  C35 ZIN A   1      18.965  -0.536  14.411  0.00  0.00     0.202 C 
ATOM     37  O36 ZIN A   1      17.805  -0.190  14.560  0.00  0.00    -0.647 OA
ATOM     38  O37 ZIN A   1      19.482  -1.296  15.212  0.00  0.00    -0.647 OA
ENDBRANCH  35  36
ENDBRANCH  30  35
ENDBRANCH   1  30
TORSDOF 20
ENDMDL
MODEL 3
REMARK VINA RESULT:      -6.9      2.912      7.715
REMARK  20 active torsions:
REMARK  status: ('A' for Active; 'I' for Inactive)
REMARK    1  A    between atoms: C2_2  and  O3_3 
REMARK    2  A    between atoms: O3_3  and  C4_4 
REMARK    3  A    between atoms: C7_7  and  C8_8 
REMARK    4  A    between atoms: C8_8  and  C9_9 
REMARK    5  A    between atoms: C9_9  and  C11_10 
REMARK    6  A    between atoms: C9_9  and  N29_28 
REMARK    7  A    between atoms: C11_10  and  N12_11 
REMARK    8  A    between atoms: N12_11  and  C14_13 
REMARK    9  A    between atoms: N12_11  and  C25_24 
REMARK   10  A    between atoms: C14_13  and  C15_14 
REMARK   11  A    between atoms: C15_14  and  N16_15 
REMARK   12  A    between atoms: N16_15  and  C17_16 
REMARK   13  A    between atoms: N16_15  and  C21_20 
REMARK   14  A    between atoms: C17_16  and  C18_17 
REMARK   15  A    between atoms: C21_20  and  C22_21 
REMARK   16  A    between atoms: C25_24  and  C26_25 
REMARK   17  A    between atoms: N29_28  and  C30_29 
REMARK   18  A    between atoms: N29_28  and  C34_33 
REMARK   19  A    between atoms: C30_29  and  C31_30 
REMARK   20  A    between atoms: C34_33  and  C35_34 
ROOT
ATOM      1  C9  ZIN A   1      18.513   1.570   9.494  0.00  0.00     0.254 C 
ENDROOT
BRANCH   1   2
ATOM      2  C8  ZIN A   1      19.229   1.965   8.200  0.00  0.00     0.076 C 
BRANCH   2   3
ATOM      3  C7  ZIN A   1      18.752   1.084   7.074  0.00  0.00    -0.056 A 
ATOM      4  C6  ZIN A   1      17.491   0.517   7.127  0.00  0.00     0.010 A 
ATOM      5  C5  ZIN A   1      17.051  -0.289   6.097  0.00  0.00     0.037 A 
ATOM      6  C4  ZIN A   1      17.875  -0.531   5.006  0.00  0.00     0.068 A 
ATOM      7  C39 ZIN A   1      19.141   0.034   4.958  0.00  0.00     0.037 A 
ATOM      8  C38 ZIN A   1      19.574   0.845   5.989  0.00  0.00     0.010 A 
BRANCH   6   9
ATOM      9  O3  ZIN A   1      17.444  -1.325   3.991  0.00  0.00    -0.352 OA
BRANCH   9  10
ATOM     10  C2  ZIN A   1      17.209  -2.701   4.298  0.00  0.00     0.171 C 
ATOM     11  C1  ZIN A   1      18.496  -3.499   4.087  0.00  0.00     0.034 C 
ENDBRANCH   9  10
ENDBRANCH   6   9
ENDBRANCH   2   3
ENDBRANCH   1   2
BRANCH   1  12
ATOM     12  C11 ZIN A   1      19.270   0.423  10.166  0.00  0.00     0.271 C 
BRANCH  12  13
ATOM     13  N12 ZIN A   1      18.377  -0.736  10.306  0.00  0.00    -0.058 N 
ATOM     14  H13 ZIN A   1      17.488  -0.529   9.877  0.00  0.00     0.280 HD
BRANCH  13  15
ATOM     15  C14 ZIN A   1      18.981  -1.901   9.646  0.00  0.00     0.265 C 
BRANCH  15  16
ATOM     16  C15 ZIN A   1      17.917  -2.628   8.821  0.00  0.00     0.301 C 
BRANCH  16  17
ATOM     17  N16 ZIN A   1      18.100  -4.080   8.955  0.00  0.00     0.110 N 
BRANCH  17  18
ATOM     18  C17 ZIN A   1      16.842  -4.736   9.333  0.00  0.00     0.385 C 
BRANCH  18  19
ATOM     19  C18 ZIN A   1      16.877  -5.084  10.799  0.00  0.00     0.202 C 
ATOM     20  O19 ZIN A   1      16.512  -4.269  11.629  0.00  0.00    -0.647 OA
ATOM     21  O20 ZIN A   1      17.270  -6.182  11.155  0.00  0.00    -0.647 OA
ENDBRANCH  18  19
ENDBRANCH  17  18
BRANCH  17  22
ATOM     22  C21 ZIN A   1      18.645  -4.657   7.719  0.00  0.00     0.385 C 
BRANCH  22  23
ATOM     23  C22 ZIN A   1      19.087  -6.075   7.981  0.00  0.00     0.202 C 
ATOM     24  O23 ZIN A   1      20.013  -6.295   8.741  0.00  0.00    -0.647 OA
ATOM     25  O24 ZIN A   1      18.516  -7.001   7.432  0.00  0.00    -0.647 OA
ENDBRANCH  22  23
ENDBRANCH  17  22
ENDBRANCH  16  17
ENDBRANCH  15  16
ENDBRANCH  13  15
BRANCH  13  26
ATOM     26  C25 ZIN A   1      18.178  -1.029  11.732  0.00  0.00     0.347 C 
BRANCH  26  27
ATOM     27  C26 ZIN A   1      17.059  -0.173  12.269  0.00  0.00     0.199 C 
ATOM     28  O27 ZIN A   1      17.163   0.348  13.365  0.00  0.00    -0.647 OA
ATOM     29  O28 ZIN A   1      16.050  -0.004  11.605  0.00  0.00    -0.647 OA
ENDBRANCH  26  27
ENDBRANCH  13  26
ENDBRANCH  12  13
ENDBRANCH   1  12
BRANCH   1  30
ATOM     30  N29 ZIN A   1      18.469   2.725  10.401  0.00  0.00     0.115 N 
BRANCH  30  31
ATOM     31  C30 ZIN A   1      19.695   2.811  11.204  0.00  0.00     0.386 C 
BRANCH  31  32
ATOM     32  C31 ZIN A   1      19.435   3.646  12.432  0.00  0.00     0.202 C 
ATOM     33  O32 ZIN A   1      18.662   3.249  13.288  0.00  0.00    -0.647 OA
ATOM     34  O33 ZIN A   1      19.997   4.720  12.570  0.00  0.00    -0.647 OA
ENDBRANCH  31  32
ENDBRANCH  30  31
BRANCH  30  35
ATOM     35  C34 ZIN A   1      18.237   3.970   9.657  0.00  0.00     0.386 C 
BRANCH  35  36
ATOM     36  C35 ZIN A   1      17.201   4.798  10.370  0.00  0.00     0.202 C 
ATOM     37  O36 ZIN A   1      16.383   4.258  11.096  0.00  0.00    -0.647 OA
ATOM     38  O37 ZIN A   1      17.178   6.008  10.222  0.00  0.00    -0.647 OA
ENDBRANCH  35  36
ENDBRANCH  30  35
ENDBRANCH   1  30
TORSDOF 20
ENDMDL
MODEL 4
REMARK VINA RESULT:      -6.9      2.965     10.126
REMARK  20 active torsions:
REMARK  status: ('A' for Active; 'I' for Inactive)
REMARK    1  A    between atoms: C2_2  and  O3_3 
REMARK    2  A    between atoms: O3_3  and  C4_4 
REMARK    3  A    between atoms: C7_7  and  C8_8 
REMARK    4  A    between atoms: C8_8  and  C9_9 
REMARK    5  A    between atoms: C9_9  and  C11_10 
REMARK    6  A    between atoms: C9_9  and  N29_28 
REMARK    7  A    between atoms: C11_10  and  N12_11 
REMARK    8  A    between atoms: N12_11  and  C14_13 
REMARK    9  A    between atoms: N12_11  and  C25_24 
REMARK   10  A    between atoms: C14_13  and  C15_14 
REMARK   11  A    between atoms: C15_14  and  N16_15 
REMARK   12  A    between atoms: N16_15  and  C17_16 
REMARK   13  A    between atoms: N16_15  and  C21_20 
REMARK   14  A    between atoms: C17_16  and  C18_17 
REMARK   15  A    between atoms: C21_20  and  C22_21 
REMARK   16  A    between atoms: C25_24  and  C26_25 
REMARK   17  A    between atoms: N29_28  and  C30_29 
REMARK   18  A    between atoms: N29_28  and  C34_33 
REMARK   19  A    between atoms: C30_29  and  C31_30 
REMARK   20  A    between atoms: C34_33  and  C35_34 
ROOT
ATOM      1  C9  ZIN A   1      19.029  -0.603  11.247  0.00  0.00     0.254 C 
ENDROOT
BRANCH   1   2
ATOM      2  C8  ZIN A   1      17.738  -0.876  12.022  0.00  0.00     0.076 C 
BRANCH   2   3
ATOM      3  C7  ZIN A   1      17.973  -0.634  13.491  0.00  0.00    -0.056 A 
ATOM      4  C6  ZIN A   1      18.674  -1.562  14.240  0.00  0.00     0.010 A 
ATOM      5  C5  ZIN A   1      18.891  -1.343  15.585  0.00  0.00     0.037 A 
ATOM      6  C4  ZIN A   1      18.406  -0.190  16.187  0.00  0.00     0.068 A 
ATOM      7  C39 ZIN A   1      17.698   0.735  15.435  0.00  0.00     0.037 A 
ATOM      8  C38 ZIN A   1      17.488   0.514  14.088  0.00  0.00     0.010 A 
BRANCH   6   9
ATOM      9  O3  ZIN A   1      18.617   0.027  17.511  0.00  0.00    -0.352 OA
BRANCH   9  10
ATOM     10  C2  ZIN A   1      18.667   1.387  17.947  0.00  0.00     0.171 C 
ATOM     11  C1  ZIN A   1      17.510   1.657  18.911  0.00  0.00     0.034 C 
ENDBRANCH   9  10
ENDBRANCH   6   9
ENDBRANCH   2   3
ENDBRANCH   1   2
BRANCH   1  12
ATOM     12  C11 ZIN A   1      19.420  -1.850  10.452  0.00  0.00     0.271 C 
BRANCH  12  13
ATOM     13  N12 ZIN A   1      18.260  -2.745  10.346  0.00  0.00    -0.058 N 
ATOM     14  H13 ZIN A   1      17.475  -2.340  10.834  0.00  0.00     0.280 HD
BRANCH  13  15
ATOM     15  C14 ZIN A   1      17.914  -2.932   8.930  0.00  0.00     0.265 C 
BRANCH  15  16
ATOM     16  C15 ZIN A   1      19.196  -3.015   8.099  0.00  0.00     0.301 C 
BRANCH  16  17
ATOM     17  N16 ZIN A   1      18.890  -3.594   6.784  0.00  0.00     0.110 N 
BRANCH  17  18
ATOM     18  C17 ZIN A   1      18.082  -4.812   6.920  0.00  0.00     0.385 C 
BRANCH  18  19
ATOM     19  C18 ZIN A   1      18.938  -6.017   6.623  0.00  0.00     0.202 C 
ATOM     20  O19 ZIN A   1      20.139  -5.978   6.826  0.00  0.00    -0.647 OA
ATOM     21  O20 ZIN A   1      18.427  -7.032   6.179  0.00  0.00    -0.647 OA
ENDBRANCH  18  19
ENDBRANCH  17  18
BRANCH  17  22
ATOM     22  C21 ZIN A   1      18.221  -2.612   5.920  0.00  0.00     0.385 C 
BRANCH  22  23
ATOM     23  C22 ZIN A   1      18.957  -2.513   4.609  0.00  0.00     0.202 C 
ATOM     24  O23 ZIN A   1      18.814  -3.378   3.762  0.00  0.00    -0.647 OA
ATOM     25  O24 ZIN A   1      19.696  -1.568   4.394  0.00  0.00    -0.647 OA
ENDBRANCH  22  23
ENDBRANCH  17  22
ENDBRANCH  16  17
ENDBRANCH  15  16
ENDBRANCH  13  15
BRANCH  13  26
ATOM     26  C25 ZIN A   1      18.589  -4.046  10.944  0.00  0.00     0.347 C 
BRANCH  26  27
ATOM     27  C26 ZIN A   1      17.355  -4.911  10.978  0.00  0.00     0.199 C 
ATOM     28  O27 ZIN A   1      17.369  -6.013  10.459  0.00  0.00    -0.647 OA
ATOM     29  O28 ZIN A   1      16.344  -4.506  11.526  0.00  0.00    -0.647 OA
ENDBRANCH  26  27
ENDBRANCH  13  26
ENDBRANCH  12  13
ENDBRANCH   1  12
BRANCH   1  30
ATOM     30  N29 ZIN A   1      18.819   0.521  10.324  0.00  0.00     0.115 N 
BRANCH  30  31
ATOM     31  C30 ZIN A   1      19.124   1.801  10.975  0.00  0.00     0.386 C 
BRANCH  31  32
ATOM     32  C31 ZIN A   1      18.052   2.805  10.635  0.00  0.00     0.202 C 
ATOM     33  O32 ZIN A   1      17.003   2.811  11.257  0.00  0.00    -0.647 OA
ATOM     34  O33 ZIN A   1      18.234   3.613   9.740  0.00  0.00    -0.647 OA
ENDBRANCH  31  32
ENDBRANCH  30  31
BRANCH  30  35
ATOM     35  C34 ZIN A   1      19.611   0.350   9.099  0.00  0.00     0.386 C 
BRANCH  35  36
ATOM     36  C35 ZIN A   1      18.745   0.621   7.897  0.00  0.00     0.202 C 
ATOM     37  O36 ZIN A   1      17.552   0.372   7.937  0.00  0.00    -0.647 OA
ATOM     38  O37 ZIN A   1      19.236   1.089   6.884  0.00  0.00    -0.647 OA
ENDBRANCH  35  36
ENDBRANCH  30  35
ENDBRANCH   1  30
TORSDOF 20
ENDMDL
MODEL 5
REMARK VINA RESULT:      -6.8      1.753      4.770
REMARK  20 active torsions:
REMARK  status: ('A' for Active; 'I' for Inactive)
REMARK    1  A    between atoms: C2_2  and  O3_3 
REMARK    2  A    between atoms: O3_3  and  C4_4 
REMARK    3  A    between atoms: C7_7  and  C8_8 
REMARK    4  A    between atoms: C8_8  and  C9_9 
REMARK    5  A    between atoms: C9_9  and  C11_10 
REMARK    6  A    between atoms: C9_9  and  N29_28 
REMARK    7  A    between atoms: C11_10  and  N12_11 
REMARK    8  A    between atoms: N12_11  and  C14_13 
REMARK    9  A    between atoms: N12_11  and  C25_24 
REMARK   10  A    between atoms: C14_13  and  C15_14 
REMARK   11  A    between atoms: C15_14  and  N16_15 
REMARK   12  A    between atoms: N16_15  and  C17_16 
REMARK   13  A    between atoms: N16_15  and  C21_20 
REMARK   14  A    between atoms: C17_16  and  C18_17 
REMARK   15  A    between atoms: C21_20  and  C22_21 
REMARK   16  A    between atoms: C25_24  and  C26_25 
REMARK   17  A    between atoms: N29_28  and  C30_29 
REMARK   18  A    between atoms: N29_28  and  C34_33 
REMARK   19  A    between atoms: C30_29  and  C31_30 
REMARK   20  A    between atoms: C34_33  and  C35_34 
ROOT
ATOM      1  C9  ZIN A   1      17.943   1.678  11.239  0.00  0.00     0.254 C 
ENDROOT
BRANCH   1   2
ATOM      2  C8  ZIN A   1      19.227   1.112  10.630  0.00  0.00     0.076 C 
BRANCH   2   3
ATOM      3  C7  ZIN A   1      18.893   0.334   9.384  0.00  0.00    -0.056 A 
ATOM      4  C6  ZIN A   1      19.810  -0.559   8.861  0.00  0.00     0.010 A 
ATOM      5  C5  ZIN A   1      19.506  -1.274   7.719  0.00  0.00     0.037 A 
ATOM      6  C4  ZIN A   1      18.278  -1.095   7.096  0.00  0.00     0.068 A 
ATOM      7  C39 ZIN A   1      17.363  -0.193   7.619  0.00  0.00     0.037 A 
ATOM      8  C38 ZIN A   1      17.670   0.515   8.765  0.00  0.00     0.010 A 
BRANCH   6   9
ATOM      9  O3  ZIN A   1      17.977  -1.796   5.972  0.00  0.00    -0.352 OA
BRANCH   9  10
ATOM     10  C2  ZIN A   1      18.836  -1.616   4.844  0.00  0.00     0.171 C 
ATOM     11  C1  ZIN A   1      18.684  -0.191   4.309  0.00  0.00     0.034 C 
ENDBRANCH   9  10
ENDBRANCH   6   9
ENDBRANCH   2   3
ENDBRANCH   1   2
BRANCH   1  12
ATOM     12  C11 ZIN A   1      17.660   0.981  12.571  0.00  0.00     0.271 C 
BRANCH  12  13
ATOM     13  N12 ZIN A   1      18.409  -0.282  12.631  0.00  0.00    -0.058 N 
ATOM     14  H13 ZIN A   1      19.093  -0.303  11.890  0.00  0.00     0.280 HD
BRANCH  13  15
ATOM     15  C14 ZIN A   1      19.087  -0.387  13.929  0.00  0.00     0.265 C 
BRANCH  15  16
ATOM     16  C15 ZIN A   1      19.414   1.014  14.449  0.00  0.00     0.301 C 
BRANCH  16  17
ATOM     17  N16 ZIN A   1      19.185   1.064  15.900  0.00  0.00     0.110 N 
BRANCH  17  18
ATOM     18  C17 ZIN A   1      18.572   2.340  16.292  0.00  0.00     0.385 C 
BRANCH  18  19
ATOM     19  C18 ZIN A   1      19.527   3.105  17.172  0.00  0.00     0.202 C 
ATOM     20  O19 ZIN A   1      19.494   2.957  18.382  0.00  0.00    -0.647 OA
ATOM     21  O20 ZIN A   1      20.333   3.873  16.674  0.00  0.00    -0.647 OA
ENDBRANCH  18  19
ENDBRANCH  17  18
BRANCH  17  22
ATOM     22  C21 ZIN A   1      18.365  -0.072  16.342  0.00  0.00     0.385 C 
BRANCH  22  23
ATOM     23  C22 ZIN A   1      19.078  -0.804  17.450  0.00  0.00     0.202 C 
ATOM     24  O23 ZIN A   1      19.610  -1.877  17.229  0.00  0.00    -0.647 OA
ATOM     25  O24 ZIN A   1      19.123  -0.321  18.569  0.00  0.00    -0.647 OA
ENDBRANCH  22  23
ENDBRANCH  17  22
ENDBRANCH  16  17
ENDBRANCH  15  16
ENDBRANCH  13  15
BRANCH  13  26
ATOM     26  C25 ZIN A   1      17.480  -1.409  12.471  0.00  0.00     0.347 C 
BRANCH  26  27
ATOM     27  C26 ZIN A   1      18.101  -2.448  11.573  0.00  0.00     0.199 C 
ATOM     28  O27 ZIN A   1      17.573  -2.729  10.511  0.00  0.00    -0.647 OA
ATOM     29  O28 ZIN A   1      19.130  -3.007  11.910  0.00  0.00    -0.647 OA
ENDBRANCH  26  27
ENDBRANCH  13  26
ENDBRANCH  12  13
ENDBRANCH   1  12
BRANCH   1  30
ATOM     30  N29 ZIN A   1      18.102   3.121  11.465  0.00  0.00     0.115 N 
BRANCH  30  31
ATOM     31  C30 ZIN A   1      19.429   3.425  12.016  0.00  0.00     0.386 C 
BRANCH  31  32
ATOM     32  C31 ZIN A   1      19.302   4.486  13.078  0.00  0.00     0.202 C 
ATOM     33  O32 ZIN A   1      18.282   4.566  13.742  0.00  0.00    -0.647 OA
ATOM     34  O33 ZIN A   1      20.219   5.265  13.275  0.00  0.00    -0.647 OA
ENDBRANCH  31  32
ENDBRANCH  30  31
BRANCH  30  35
ATOM     35  C34 ZIN A   1      17.858   3.877  10.230  0.00  0.00     0.386 C 
BRANCH  35  36
ATOM     36  C35 ZIN A   1      16.978   5.063  10.530  0.00  0.00     0.202 C 
ATOM     37  O36 ZIN A   1      15.962   4.917  11.188  0.00  0.00    -0.647 OA
ATOM     38  O37 ZIN A   1      17.282   6.168  10.116  0.00  0.00    -0.647 OA
ENDBRANCH  35  36
ENDBRANCH  30  35
ENDBRANCH   1  30
TORSDOF 20
ENDMDL
MODEL 6
REMARK VINA RESULT:      -6.7      2.984      9.965
REMARK  20 active torsions:
REMARK  status: ('A' for Active; 'I' for Inactive)
REMARK    1  A    between atoms: C2_2  and  O3_3 
REMARK    2  A    between atoms: O3_3  and  C4_4 
REMARK    3  A    between atoms: C7_7  and  C8_8 
REMARK    4  A    between atoms: C8_8  and  C9_9 
REMARK    5  A    between atoms: C9_9  and  C11_10 
REMARK    6  A    between atoms: C9_9  and  N29_28 
REMARK    7  A    between atoms: C11_10  and  N12_11 
REMARK    8  A    between atoms: N12_11  and  C14_13 
REMARK    9  A    between atoms: N12_11  and  C25_24 
REMARK   10  A    between atoms: C14_13  and  C15_14 
REMARK   11  A    between atoms: C15_14  and  N16_15 
REMARK   12  A    between atoms: N16_15  and  C17_16 
REMARK   13  A    between atoms: N16_15  and  C21_20 
REMARK   14  A    between atoms: C17_16  and  C18_17 
REMARK   15  A    between atoms: C21_20  and  C22_21 
REMARK   16  A    between atoms: C25_24  and  C26_25 
REMARK   17  A    between atoms: N29_28  and  C30_29 
REMARK   18  A    between atoms: N29_28  and  C34_33 
REMARK   19  A    between atoms: C30_29  and  C31_30 
REMARK   20  A    between atoms: C34_33  and  C35_34 
ROOT
ATOM      1  C9  ZIN A   1      18.993  -0.866  11.149  0.00  0.00     0.254 C 
ENDROOT
BRANCH   1   2
ATOM      2  C8  ZIN A   1      17.706  -1.046  11.956  0.00  0.00     0.076 C 
BRANCH   2   3
ATOM      3  C7  ZIN A   1      17.997  -0.836  13.420  0.00  0.00    -0.056 A 
ATOM      4  C6  ZIN A   1      18.949  -1.615  14.053  0.00  0.00     0.010 A 
ATOM      5  C5  ZIN A   1      19.218  -1.425  15.394  0.00  0.00     0.037 A 
ATOM      6  C4  ZIN A   1      18.532  -0.451  16.107  0.00  0.00     0.068 A 
ATOM      7  C39 ZIN A   1      17.573   0.323  15.471  0.00  0.00     0.037 A 
ATOM      8  C38 ZIN A   1      17.312   0.133  14.128  0.00  0.00     0.010 A 
BRANCH   6   9
ATOM      9  O3  ZIN A   1      18.794  -0.263  17.426  0.00  0.00    -0.352 OA
BRANCH   9  10
ATOM     10  C2  ZIN A   1      18.138   0.831  18.070  0.00  0.00     0.171 C 
ATOM     11  C1  ZIN A   1      19.152   1.944  18.345  0.00  0.00     0.034 C 
ENDBRANCH   9  10
ENDBRANCH   6   9
ENDBRANCH   2   3
ENDBRANCH   1   2
BRANCH   1  12
ATOM     12  C11 ZIN A   1      19.342  -2.179  10.445  0.00  0.00     0.271 C 
BRANCH  12  13
ATOM     13  N12 ZIN A   1      18.165  -3.059  10.442  0.00  0.00    -0.058 N 
ATOM     14  H13 ZIN A   1      17.371  -2.561  10.816  0.00  0.00     0.280 HD
BRANCH  13  15
ATOM     15  C14 ZIN A   1      17.875  -3.483   9.066  0.00  0.00     0.265 C 
BRANCH  15  16
ATOM     16  C15 ZIN A   1      19.085  -4.225   8.496  0.00  0.00     0.301 C 
BRANCH  16  17
ATOM     17  N16 ZIN A   1      19.007  -4.235   7.028  0.00  0.00     0.110 N 
BRANCH  17  18
ATOM     18  C17 ZIN A   1      19.858  -3.188   6.449  0.00  0.00     0.385 C 
BRANCH  18  19
ATOM     19  C18 ZIN A   1      19.105  -2.476   5.355  0.00  0.00     0.202 C 
ATOM     20  O19 ZIN A   1      17.905  -2.650   5.227  0.00  0.00    -0.647 OA
ATOM     21  O20 ZIN A   1      19.696  -1.724   4.598  0.00  0.00    -0.647 OA
ENDBRANCH  18  19
ENDBRANCH  17  18
BRANCH  17  22
ATOM     22  C21 ZIN A   1      19.359  -5.557   6.492  0.00  0.00     0.385 C 
BRANCH  22  23
ATOM     23  C22 ZIN A   1      18.106  -6.373   6.308  0.00  0.00     0.202 C 
ATOM     24  O23 ZIN A   1      17.043  -5.819   6.089  0.00  0.00    -0.647 OA
ATOM     25  O24 ZIN A   1      18.155  -7.590   6.380  0.00  0.00    -0.647 OA
ENDBRANCH  22  23
ENDBRANCH  17  22
ENDBRANCH  16  17
ENDBRANCH  15  16
ENDBRANCH  13  15
BRANCH  13  26
ATOM     26  C25 ZIN A   1      18.438  -4.241  11.271  0.00  0.00     0.347 C 
BRANCH  26  27
ATOM     27  C26 ZIN A   1      17.201  -5.099  11.343  0.00  0.00     0.199 C 
ATOM     28  O27 ZIN A   1      17.265  -6.286  11.074  0.00  0.00    -0.647 OA
ATOM     29  O28 ZIN A   1      16.135  -4.605  11.672  0.00  0.00    -0.647 OA
ENDBRANCH  26  27
ENDBRANCH  13  26
ENDBRANCH  12  13
ENDBRANCH   1  12
BRANCH   1  30
ATOM     30  N29 ZIN A   1      18.799   0.191  10.147  0.00  0.00     0.115 N 
BRANCH  30  31
ATOM     31  C30 ZIN A   1      19.371   1.463  10.608  0.00  0.00     0.386 C 
BRANCH  31  32
ATOM     32  C31 ZIN A   1      18.282   2.316  11.206  0.00  0.00     0.202 C 
ATOM     33  O32 ZIN A   1      17.221   2.451  10.620  0.00  0.00    -0.647 OA
ATOM     34  O33 ZIN A   1      18.461   2.872  12.277  0.00  0.00    -0.647 OA
ENDBRANCH  31  32
ENDBRANCH  30  31
BRANCH  30  35
ATOM     35  C34 ZIN A   1      19.366  -0.203   8.851  0.00  0.00     0.386 C 
BRANCH  35  36
ATOM     36  C35 ZIN A   1      18.444   0.239   7.744  0.00  0.00     0.202 C 
ATOM     37  O36 ZIN A   1      18.859   0.969   6.860  0.00  0.00    -0.647 OA
ATOM     38  O37 ZIN A   1      17.283  -0.135   7.731  0.00  0.00    -0.647 OA
ENDBRANCH  35  36
ENDBRANCH  30  35
ENDBRANCH   1  30
TORSDOF 20
ENDMDL
MODEL 7
REMARK VINA RESULT:      -6.7      2.791      7.690
REMARK  20 active torsions:
REMARK  status: ('A' for Active; 'I' for Inactive)
REMARK    1  A    between atoms: C2_2  and  O3_3 
REMARK    2  A    between atoms: O3_3  and  C4_4 
REMARK    3  A    between atoms: C7_7  and  C8_8 
REMARK    4  A    between atoms: C8_8  and  C9_9 
REMARK    5  A    between atoms: C9_9  and  C11_10 
REMARK    6  A    between atoms: C9_9  and  N29_28 
REMARK    7  A    between atoms: C11_10  and  N12_11 
REMARK    8  A    between atoms: N12_11  and  C14_13 
REMARK    9  A    between atoms: N12_11  and  C25_24 
REMARK   10  A    between atoms: C14_13  and  C15_14 
REMARK   11  A    between atoms: C15_14  and  N16_15 
REMARK   12  A    between atoms: N16_15  and  C17_16 
REMARK   13  A    between atoms: N16_15  and  C21_20 
REMARK   14  A    between atoms: C17_16  and  C18_17 
REMARK   15  A    between atoms: C21_20  and  C22_21 
REMARK   16  A    between atoms: C25_24  and  C26_25 
REMARK   17  A    between atoms: N29_28  and  C30_29 
REMARK   18  A    between atoms: N29_28  and  C34_33 
REMARK   19  A    between atoms: C30_29  and  C31_30 
REMARK   20  A    between atoms: C34_33  and  C35_34 
ROOT
ATOM      1  C9  ZIN A   1      18.550   1.240   9.564  0.00  0.00     0.254 C 
ENDROOT
BRANCH   1   2
ATOM      2  C8  ZIN A   1      19.152   1.753   8.254  0.00  0.00     0.076 C 
BRANCH   2   3
ATOM      3  C7  ZIN A   1      18.688   0.884   7.114  0.00  0.00    -0.056 A 
ATOM      4  C6  ZIN A   1      19.472   0.755   5.981  0.00  0.00     0.010 A 
ATOM      5  C5  ZIN A   1      19.050  -0.040   4.935  0.00  0.00     0.037 A 
ATOM      6  C4  ZIN A   1      17.838  -0.711   5.020  0.00  0.00     0.068 A 
ATOM      7  C39 ZIN A   1      17.051  -0.575   6.154  0.00  0.00     0.037 A 
ATOM      8  C38 ZIN A   1      17.481   0.217   7.200  0.00  0.00     0.010 A 
BRANCH   6   9
ATOM      9  O3  ZIN A   1      17.420  -1.494   3.991  0.00  0.00    -0.352 OA
BRANCH   9  10
ATOM     10  C2  ZIN A   1      17.576  -2.906   4.143  0.00  0.00     0.171 C 
ATOM     11  C1  ZIN A   1      16.368  -3.623   3.538  0.00  0.00     0.034 C 
ENDBRANCH   9  10
ENDBRANCH   6   9
ENDBRANCH   2   3
ENDBRANCH   1   2
BRANCH   1  12
ATOM     12  C11 ZIN A   1      19.493   0.210  10.190  0.00  0.00     0.271 C 
BRANCH  12  13
ATOM     13  N12 ZIN A   1      18.710  -0.763  10.963  0.00  0.00    -0.058 N 
ATOM     14  H13 ZIN A   1      18.024  -0.277  11.520  0.00  0.00     0.280 HD
BRANCH  13  15
ATOM     15  C14 ZIN A   1      18.031  -1.687  10.045  0.00  0.00     0.265 C 
BRANCH  15  16
ATOM     16  C15 ZIN A   1      19.066  -2.596   9.379  0.00  0.00     0.301 C 
BRANCH  16  17
ATOM     17  N16 ZIN A   1      18.626  -3.994   9.480  0.00  0.00     0.110 N 
BRANCH  17  18
ATOM     18  C17 ZIN A   1      19.760  -4.883   9.764  0.00  0.00     0.385 C 
BRANCH  18  19
ATOM     19  C18 ZIN A   1      20.047  -5.734   8.554  0.00  0.00     0.202 C 
ATOM     20  O19 ZIN A   1      19.150  -6.373   8.030  0.00  0.00    -0.647 OA
ATOM     21  O20 ZIN A   1      21.177  -5.783   8.097  0.00  0.00    -0.647 OA
ENDBRANCH  18  19
ENDBRANCH  17  18
BRANCH  17  22
ATOM     22  C21 ZIN A   1      17.574  -4.143  10.494  0.00  0.00     0.385 C 
BRANCH  22  23
ATOM     23  C22 ZIN A   1      16.776  -5.390  10.210  0.00  0.00     0.202 C 
ATOM     24  O23 ZIN A   1      15.795  -5.336   9.489  0.00  0.00    -0.647 OA
ATOM     25  O24 ZIN A   1      17.113  -6.453  10.701  0.00  0.00    -0.647 OA
ENDBRANCH  22  23
ENDBRANCH  17  22
ENDBRANCH  16  17
ENDBRANCH  15  16
ENDBRANCH  13  15
BRANCH  13  26
ATOM     26  C25 ZIN A   1      19.608  -1.522  11.845  0.00  0.00     0.347 C 
BRANCH  26  27
ATOM     27  C26 ZIN A   1      19.068  -1.498  13.252  0.00  0.00     0.199 C 
ATOM     28  O27 ZIN A   1      17.865  -1.529  13.445  0.00  0.00    -0.647 OA
ATOM     29  O28 ZIN A   1      19.837  -1.447  14.198  0.00  0.00    -0.647 OA
ENDBRANCH  26  27
ENDBRANCH  13  26
ENDBRANCH  12  13
ENDBRANCH   1  12
BRANCH   1  30
ATOM     30  N29 ZIN A   1      18.366   2.364  10.493  0.00  0.00     0.115 N 
BRANCH  30  31
ATOM     31  C30 ZIN A   1      19.382   2.342  11.553  0.00  0.00     0.386 C 
BRANCH  31  32
ATOM     32  C31 ZIN A   1      18.707   2.213  12.894  0.00  0.00     0.202 C 
ATOM     33  O32 ZIN A   1      17.614   1.677  12.978  0.00  0.00    -0.647 OA
ATOM     34  O33 ZIN A   1      19.252   2.644  13.896  0.00  0.00    -0.647 OA
ENDBRANCH  31  32
ENDBRANCH  30  31
BRANCH  30  35
ATOM     35  C34 ZIN A   1      18.380   3.645   9.776  0.00  0.00     0.386 C 
BRANCH  35  36
ATOM     36  C35 ZIN A   1      17.338   4.561  10.363  0.00  0.00     0.202 C 
ATOM     37  O36 ZIN A   1      16.491   4.116  11.119  0.00  0.00    -0.647 OA
ATOM     38  O37 ZIN A   1      17.341   5.748  10.083  0.00  0.00    -0.647 OA
ENDBRANCH  35  36
ENDBRANCH  30  35
ENDBRANCH   1  30
TORSDOF 20
ENDMDL
MODEL 8
REMARK VINA RESULT:      -6.6      1.051      2.257
REMARK  20 active torsions:
REMARK  status: ('A' for Active; 'I' for Inactive)
REMARK    1  A    between atoms: C2_2  and  O3_3 
REMARK    2  A    between atoms: O3_3  and  C4_4 
REMARK    3  A    between atoms: C7_7  and  C8_8 
REMARK    4  A    between atoms: C8_8  and  C9_9 
REMARK    5  A    between atoms: C9_9  and  C11_10 
REMARK    6  A    between atoms: C9_9  and  N29_28 
REMARK    7  A    between atoms: C11_10  and  N12_11 
REMARK    8  A    between atoms: N12_11  and  C14_13 
REMARK    9  A    between atoms: N12_11  and  C25_24 
REMARK   10  A    between atoms: C14_13  and  C15_14 
REMARK   11  A    between atoms: C15_14  and  N16_15 
REMARK   12  A    between atoms: N16_15  and  C17_16 
REMARK   13  A    between atoms: N16_15  and  C21_20 
REMARK   14  A    between atoms: C17_16  and  C18_17 
REMARK   15  A    between atoms: C21_20  and  C22_21 
REMARK   16  A    between atoms: C25_24  and  C26_25 
REMARK   17  A    between atoms: N29_28  and  C30_29 
REMARK   18  A    between atoms: N29_28  and  C34_33 
REMARK   19  A    between atoms: C30_29  and  C31_30 
REMARK   20  A    between atoms: C34_33  and  C35_34 
ROOT
ATOM      1  C9  ZIN A   1      19.117   1.318  11.786  0.00  0.00     0.254 C 
ENDROOT
BRANCH   1   2
ATOM      2  C8  ZIN A   1      17.805   1.331  10.999  0.00  0.00     0.076 C 
BRANCH   2   3
ATOM      3  C7  ZIN A   1      18.091   1.072   9.542  0.00  0.00    -0.056 A 
ATOM      4  C6  ZIN A   1      18.892   1.946   8.830  0.00  0.00     0.010 A 
ATOM      5  C5  ZIN A   1      19.156   1.712   7.495  0.00  0.00     0.037 A 
ATOM      6  C4  ZIN A   1      18.616   0.597   6.868  0.00  0.00     0.068 A 
ATOM      7  C39 ZIN A   1      17.808  -0.274   7.582  0.00  0.00     0.037 A 
ATOM      8  C38 ZIN A   1      17.552  -0.038   8.919  0.00  0.00     0.010 A 
BRANCH   6   9
ATOM      9  O3  ZIN A   1      18.874   0.365   5.554  0.00  0.00    -0.352 OA
BRANCH   9  10
ATOM     10  C2  ZIN A   1      18.914  -0.999   5.131  0.00  0.00     0.171 C 
ATOM     11  C1  ZIN A   1      17.689  -1.301   4.264  0.00  0.00     0.034 C 
ENDBRANCH   9  10
ENDBRANCH   6   9
ENDBRANCH   2   3
ENDBRANCH   1   2
BRANCH   1  12
ATOM     12  C11 ZIN A   1      19.291   2.655  12.508  0.00  0.00     0.271 C 
BRANCH  12  13
ATOM     13  N12 ZIN A   1      18.056   3.442  12.384  0.00  0.00    -0.058 N 
ATOM     14  H13 ZIN A   1      17.369   2.912  11.869  0.00  0.00     0.280 HD
BRANCH  13  15
ATOM     15  C14 ZIN A   1      17.536   3.751  13.722  0.00  0.00     0.265 C 
BRANCH  15  16
ATOM     16  C15 ZIN A   1      18.142   5.067  14.214  0.00  0.00     0.301 C 
BRANCH  16  17
ATOM     17  N16 ZIN A   1      18.252   5.039  15.679  0.00  0.00     0.110 N 
BRANCH  17  18
ATOM     18  C17 ZIN A   1      17.139   5.763  16.304  0.00  0.00     0.385 C 
BRANCH  18  19
ATOM     19  C18 ZIN A   1      17.592   6.343  17.619  0.00  0.00     0.202 C 
ATOM     20  O19 ZIN A   1      18.491   7.166  17.646  0.00  0.00    -0.647 OA
ATOM     21  O20 ZIN A   1      17.058   5.989  18.657  0.00  0.00    -0.647 OA
ENDBRANCH  18  19
ENDBRANCH  17  18
BRANCH  17  22
ATOM     22  C21 ZIN A   1      18.326   3.657  16.174  0.00  0.00     0.385 C 
BRANCH  22  23
ATOM     23  C22 ZIN A   1      19.639   3.449  16.885  0.00  0.00     0.202 C 
ATOM     24  O23 ZIN A   1      20.618   4.098  16.560  0.00  0.00    -0.647 OA
ATOM     25  O24 ZIN A   1      19.721   2.632  17.786  0.00  0.00    -0.647 OA
ENDBRANCH  22  23
ENDBRANCH  17  22
ENDBRANCH  16  17
ENDBRANCH  15  16
ENDBRANCH  13  15
BRANCH  13  26
ATOM     26  C25 ZIN A   1      18.345   4.694  11.670  0.00  0.00     0.347 C 
BRANCH  26  27
ATOM     27  C26 ZIN A   1      17.301   4.917  10.605  0.00  0.00     0.199 C 
ATOM     28  O27 ZIN A   1      17.632   5.317   9.503  0.00  0.00    -0.647 OA
ATOM     29  O28 ZIN A   1      16.127   4.696  10.849  0.00  0.00    -0.647 OA
ENDBRANCH  26  27
ENDBRANCH  13  26
ENDBRANCH  12  13
ENDBRANCH   1  12
BRANCH   1  30
ATOM     30  N29 ZIN A   1      19.086   0.229  12.772  0.00  0.00     0.115 N 
BRANCH  30  31
ATOM     31  C30 ZIN A   1      19.435   0.721  14.111  0.00  0.00     0.386 C 
BRANCH  31  32
ATOM     32  C31 ZIN A   1      18.840  -0.191  15.153  0.00  0.00     0.202 C 
ATOM     33  O32 ZIN A   1      19.400  -1.236  15.440  0.00  0.00    -0.647 OA
ATOM     34  O33 ZIN A   1      17.799   0.115  15.709  0.00  0.00    -0.647 OA
ENDBRANCH  31  32
ENDBRANCH  30  31
BRANCH  30  35
ATOM     35  C34 ZIN A   1      17.777  -0.437  12.780  0.00  0.00     0.386 C 
BRANCH  35  36
ATOM     36  C35 ZIN A   1      17.920  -1.833  12.231  0.00  0.00     0.202 C 
ATOM     37  O36 ZIN A   1      18.913  -2.491  12.490  0.00  0.00    -0.647 OA
ATOM     38  O37 ZIN A   1      17.042  -2.305  11.528  0.00  0.00    -0.647 OA
ENDBRANCH  35  36
ENDBRANCH  30  35
ENDBRANCH   1  30
TORSDOF 20
ENDMDL
MODEL 9
REMARK VINA RESULT:      -6.6      2.254      5.138
REMARK  20 active torsions:
REMARK  status: ('A' for Active; 'I' for Inactive)
REMARK    1  A    between atoms: C2_2  and  O3_3 
REMARK    2  A    between atoms: O3_3  and  C4_4 
REMARK    3  A    between atoms: C7_7  and  C8_8 
REMARK    4  A    between atoms: C8_8  and  C9_9 
REMARK    5  A    between atoms: C9_9  and  C11_10 
REMARK    6  A    between atoms: C9_9  and  N29_28 
REMARK    7  A    between atoms: C11_10  and  N12_11 
REMARK    8  A    between atoms: N12_11  and  C14_13 
REMARK    9  A    between atoms: N12_11  and  C25_24 
REMARK   10  A    between atoms: C14_13  and  C15_14 
REMARK   11  A    between atoms: C15_14  and  N16_15 
REMARK   12  A    between atoms: N16_15  and  C17_16 
REMARK   13  A    between atoms: N16_15  and  C21_20 
REMARK   14  A    between atoms: C17_16  and  C18_17 
REMARK   15  A    between atoms: C21_20  and  C22_21 
REMARK   16  A    between atoms: C25_24  and  C26_25 
REMARK   17  A    between atoms: N29_28  and  C30_29 
REMARK   18  A    between atoms: N29_28  and  C34_33 
REMARK   19  A    between atoms: C30_29  and  C31_30 
REMARK   20  A    between atoms: C34_33  and  C35_34 
ROOT
ATOM      1  C9  ZIN A   1      17.719  -0.325  12.287  0.00  0.00     0.254 C 
ENDROOT
BRANCH   1   2
ATOM      2  C8  ZIN A   1      18.891  -1.247  12.631  0.00  0.00     0.076 C 
BRANCH   2   3
ATOM      3  C7  ZIN A   1      18.707  -2.573  11.940  0.00  0.00    -0.056 A 
ATOM      4  C6  ZIN A   1      17.436  -3.085  11.756  0.00  0.00     0.010 A 
ATOM      5  C5  ZIN A   1      17.263  -4.300  11.124  0.00  0.00     0.037 A 
ATOM      6  C4  ZIN A   1      18.368  -5.009  10.672  0.00  0.00     0.068 A 
ATOM      7  C39 ZIN A   1      19.643  -4.496  10.863  0.00  0.00     0.037 A 
ATOM      8  C38 ZIN A   1      19.809  -3.277  11.491  0.00  0.00     0.010 A 
BRANCH   6   9
ATOM      9  O3  ZIN A   1      18.201  -6.205  10.050  0.00  0.00    -0.352 OA
BRANCH   9  10
ATOM     10  C2  ZIN A   1      18.332  -6.221   8.627  0.00  0.00     0.171 C 
ATOM     11  C1  ZIN A   1      16.951  -6.377   7.988  0.00  0.00     0.034 C 
ENDBRANCH   9  10
ENDBRANCH   6   9
ENDBRANCH   2   3
ENDBRANCH   1   2
BRANCH   1  12
ATOM     12  C11 ZIN A   1      17.437   0.603  13.470  0.00  0.00     0.271 C 
BRANCH  12  13
ATOM     13  N12 ZIN A   1      18.440   0.377  14.519  0.00  0.00    -0.058 N 
ATOM     14  H13 ZIN A   1      19.066  -0.361  14.233  0.00  0.00     0.280 HD
BRANCH  13  15
ATOM     15  C14 ZIN A   1      19.206   1.612  14.737  0.00  0.00     0.265 C 
BRANCH  15  16
ATOM     16  C15 ZIN A   1      18.245   2.800  14.814  0.00  0.00     0.301 C 
BRANCH  16  17
ATOM     17  N16 ZIN A   1      18.840   3.858  15.642  0.00  0.00     0.110 N 
BRANCH  17  18
ATOM     18  C17 ZIN A   1      19.782   3.295  16.618  0.00  0.00     0.385 C 
BRANCH  18  19
ATOM     19  C18 ZIN A   1      19.113   3.203  17.966  0.00  0.00     0.202 C 
ATOM     20  O19 ZIN A   1      19.594   2.502  18.839  0.00  0.00    -0.647 OA
ATOM     21  O20 ZIN A   1      18.091   3.832  18.183  0.00  0.00    -0.647 OA
ENDBRANCH  18  19
ENDBRANCH  17  18
BRANCH  17  22
ATOM     22  C21 ZIN A   1      19.492   4.876  14.808  0.00  0.00     0.385 C 
BRANCH  22  23
ATOM     23  C22 ZIN A   1      20.009   5.987  15.685  0.00  0.00     0.202 C 
ATOM     24  O23 ZIN A   1      19.234   6.649  16.353  0.00  0.00    -0.647 OA
ATOM     25  O24 ZIN A   1      21.205   6.225  15.726  0.00  0.00    -0.647 OA
ENDBRANCH  22  23
ENDBRANCH  17  22
ENDBRANCH  16  17
ENDBRANCH  15  16
ENDBRANCH  13  15
BRANCH  13  26
ATOM     26  C25 ZIN A   1      17.765  -0.007  15.766  0.00  0.00     0.347 C 
BRANCH  26  27
ATOM     27  C26 ZIN A   1      18.731  -0.754  16.650  0.00  0.00     0.199 C 
ATOM     28  O27 ZIN A   1      18.900  -0.400  17.804  0.00  0.00    -0.647 OA
ATOM     29  O28 ZIN A   1      19.343  -1.712  16.209  0.00  0.00    -0.647 OA
ENDBRANCH  26  27
ENDBRANCH  13  26
ENDBRANCH  12  13
ENDBRANCH   1  12
BRANCH   1  30
ATOM     30  N29 ZIN A   1      18.056   0.477  11.103  0.00  0.00     0.115 N 
BRANCH  30  31
ATOM     31  C30 ZIN A   1      17.353  -0.020   9.914  0.00  0.00     0.386 C 
BRANCH  31  32
ATOM     32  C31 ZIN A   1      18.356  -0.357   8.840  0.00  0.00     0.202 C 
ATOM     33  O32 ZIN A   1      19.536  -0.482   9.126  0.00  0.00    -0.647 OA
ATOM     34  O33 ZIN A   1      17.990  -0.505   7.687  0.00  0.00    -0.647 OA
ENDBRANCH  31  32
ENDBRANCH  30  31
BRANCH  30  35
ATOM     35  C34 ZIN A   1      17.767   1.899  11.331  0.00  0.00     0.386 C 
BRANCH  35  36
ATOM     36  C35 ZIN A   1      18.885   2.736  10.767  0.00  0.00     0.202 C 
ATOM     37  O36 ZIN A   1      19.870   2.974  11.445  0.00  0.00    -0.647 OA
ATOM     38  O37 ZIN A   1      18.804   3.177   9.633  0.00  0.00    -0.647 OA
ENDBRANCH  35  36
ENDBRANCH  30  35
ENDBRANCH   1  30
TORSDOF 20
ENDMDL
