MODEL 1
REMARK VINA RESULT:      -5.2      0.000      0.000
REMARK  3 active torsions:
REMARK  status: ('A' for Active; 'I' for Inactive)
REMARK    1  A    between atoms: N1_1  and  C2_2 
REMARK    2  A    between atoms: C5_5  and  O6_6 
REMARK    3  A    between atoms: C7_7  and  C8_8 
ROOT
ATOM      1  C2  <0> d   1      18.777  -0.484  15.774  0.00  0.00     0.026 A 
ATOM      2  C3  <0> d   1      18.955  -1.016  17.046  0.00  0.00     0.032 A 
ATOM      3  C4  <0> d   1      19.233  -0.189  18.116  0.00  0.00     0.040 A 
ATOM      4  C5  <0> d   1      19.336   1.180  17.929  0.00  0.00     0.082 A 
ATOM      5  C7  <0> d   1      19.158   1.726  16.649  0.00  0.00     0.075 A 
ATOM      6  C11 <0> d   1      18.883   0.881  15.570  0.00  0.00     0.050 A 
ENDROOT
BRANCH   1   7
ATOM      7  N1  <0> d   1      18.496  -1.331  14.696  0.00  0.00    -0.399 N 
ATOM      8  H12 <0> d   1      18.917  -2.203  14.641  0.00  0.00     0.156 HD
ATOM      9  H13 <0> d   1      17.876  -1.049  14.006  0.00  0.00     0.156 HD
ENDBRANCH   1   7
BRANCH   5  10
ATOM     10  C8  <0> d   1      19.267   3.179  16.443  0.00  0.00     0.212 C 
ATOM     11  O9  <0> d   1      20.309   3.759  16.715  0.00  0.00    -0.644 OA
ATOM     12  O10 <0> d   1      18.315   3.807  15.999  0.00  0.00    -0.644 OA
ENDBRANCH   5  10
BRANCH   4  13
ATOM     13  O6  <0> d   1      19.609   1.992  18.982  0.00  0.00    -0.360 OA
ATOM     14  H16 <0> d   1      19.501   2.934  18.792  0.00  0.00     0.217 HD
ENDBRANCH   4  13
TORSDOF 3
ENDMDL
MODEL 2
REMARK VINA RESULT:      -5.2     10.157     11.401
REMARK  3 active torsions:
REMARK  status: ('A' for Active; 'I' for Inactive)
REMARK    1  A    between atoms: N1_1  and  C2_2 
REMARK    2  A    between atoms: C5_5  and  O6_6 
REMARK    3  A    between atoms: C7_7  and  C8_8 
ROOT
ATOM      1  C2  <0> d   1      18.822   0.473   7.522  0.00  0.00     0.026 A 
ATOM      2  C3  <0> d   1      18.965   1.095   6.286  0.00  0.00     0.032 A 
ATOM      3  C4  <0> d   1      19.221   0.346   5.154  0.00  0.00     0.040 A 
ATOM      4  C5  <0> d   1      19.335  -1.032   5.242  0.00  0.00     0.082 A 
ATOM      5  C7  <0> d   1      19.193  -1.667   6.485  0.00  0.00     0.075 A 
ATOM      6  C11 <0> d   1      18.940  -0.902   7.627  0.00  0.00     0.050 A 
ENDROOT
BRANCH   1   7
ATOM      7  N1  <0> d   1      18.564   1.241   8.663  0.00  0.00    -0.399 N 
ATOM      8  H12 <0> d   1      18.226   2.146   8.573  0.00  0.00     0.156 HD
ATOM      9  H13 <0> d   1      18.716   0.867   9.545  0.00  0.00     0.156 HD
ENDBRANCH   1   7
BRANCH   5  10
ATOM     10  C8  <0> d   1      19.313  -3.130   6.586  0.00  0.00     0.212 C 
ATOM     11  O9  <0> d   1      18.340  -3.804   6.894  0.00  0.00    -0.644 OA
ATOM     12  O10 <0> d   1      20.387  -3.673   6.363  0.00  0.00    -0.644 OA
ENDBRANCH   5  10
BRANCH   4  13
ATOM     13  O6  <0> d   1      19.587  -1.766   4.128  0.00  0.00    -0.360 OA
ATOM     14  H16 <0> d   1      19.807  -2.691   4.307  0.00  0.00     0.217 HD
ENDBRANCH   4  13
TORSDOF 3
ENDMDL
MODEL 3
REMARK VINA RESULT:      -5.0      9.536     10.604
REMARK  3 active torsions:
REMARK  status: ('A' for Active; 'I' for Inactive)
REMARK    1  A    between atoms: N1_1  and  C2_2 
REMARK    2  A    between atoms: C5_5  and  O6_6 
REMARK    3  A    between atoms: C7_7  and  C8_8 
ROOT
ATOM      1  C2  <0> d   1      18.700   1.271   8.236  0.00  0.00     0.026 A 
ATOM      2  C3  <0> d   1      18.048   0.280   8.964  0.00  0.00     0.032 A 
ATOM      3  C4  <0> d   1      17.755  -0.936   8.380  0.00  0.00     0.040 A 
ATOM      4  C5  <0> d   1      18.110  -1.180   7.063  0.00  0.00     0.082 A 
ATOM      5  C7  <0> d   1      18.767  -0.187   6.321  0.00  0.00     0.075 A 
ATOM      6  C11 <0> d   1      19.055   1.045   6.917  0.00  0.00     0.050 A 
ENDROOT
BRANCH   1   7
ATOM      7  N1  <0> d   1      18.992   2.500   8.837  0.00  0.00    -0.399 N 
ATOM      8  H12 <0> d   1      18.453   2.818   9.578  0.00  0.00     0.156 HD
ATOM      9  H13 <0> d   1      19.736   3.032   8.516  0.00  0.00     0.156 HD
ENDBRANCH   1   7
BRANCH   5  10
ATOM     10  C8  <0> d   1      19.147  -0.438   4.922  0.00  0.00     0.212 C 
ATOM     11  O9  <0> d   1      19.969  -1.304   4.657  0.00  0.00    -0.644 OA
ATOM     12  O10 <0> d   1      18.641   0.220   4.023  0.00  0.00    -0.644 OA
ENDBRANCH   5  10
BRANCH   4  13
ATOM     13  O6  <0> d   1      17.821  -2.376   6.490  0.00  0.00    -0.360 OA
ATOM     14  H16 <0> d   1      18.588  -2.827   6.112  0.00  0.00     0.217 HD
ENDBRANCH   4  13
TORSDOF 3
ENDMDL
MODEL 4
REMARK VINA RESULT:      -4.9      6.971      8.211
REMARK  3 active torsions:
REMARK  status: ('A' for Active; 'I' for Inactive)
REMARK    1  A    between atoms: N1_1  and  C2_2 
REMARK    2  A    between atoms: C5_5  and  O6_6 
REMARK    3  A    between atoms: C7_7  and  C8_8 
ROOT
ATOM      1  C2  <0> d   1      17.671   0.078   7.260  0.00  0.00     0.026 A 
ATOM      2  C3  <0> d   1      18.726   0.952   7.017  0.00  0.00     0.032 A 
ATOM      3  C4  <0> d   1      19.358   1.592   8.065  0.00  0.00     0.040 A 
ATOM      4  C5  <0> d   1      18.945   1.368   9.369  0.00  0.00     0.082 A 
ATOM      5  C7  <0> d   1      17.882   0.488   9.623  0.00  0.00     0.075 A 
ATOM      6  C11 <0> d   1      17.243  -0.152   8.556  0.00  0.00     0.050 A 
ENDROOT
BRANCH   1   7
ATOM      7  N1  <0> d   1      17.038  -0.565   6.191  0.00  0.00    -0.399 N 
ATOM      8  H12 <0> d   1      16.621  -1.431   6.324  0.00  0.00     0.156 HD
ATOM      9  H13 <0> d   1      17.011  -0.144   5.318  0.00  0.00     0.156 HD
ENDBRANCH   1   7
BRANCH   5  10
ATOM     10  C8  <0> d   1      17.437   0.245  11.005  0.00  0.00     0.212 C 
ATOM     11  O9  <0> d   1      16.243   0.143  11.254  0.00  0.00    -0.644 OA
ATOM     12  O10 <0> d   1      18.260   0.145  11.904  0.00  0.00    -0.644 OA
ENDBRANCH   5  10
BRANCH   4  13
ATOM     13  O6  <0> d   1      19.566   1.998  10.397  0.00  0.00    -0.360 OA
ATOM     14  H16 <0> d   1      18.974   2.527  10.951  0.00  0.00     0.217 HD
ENDBRANCH   4  13
TORSDOF 3
ENDMDL
MODEL 5
REMARK VINA RESULT:      -4.8      6.201      7.311
REMARK  3 active torsions:
REMARK  status: ('A' for Active; 'I' for Inactive)
REMARK    1  A    between atoms: N1_1  and  C2_2 
REMARK    2  A    between atoms: C5_5  and  O6_6 
REMARK    3  A    between atoms: C7_7  and  C8_8 
ROOT
ATOM      1  C2  <0> d   1      17.900   4.566  10.699  0.00  0.00     0.026 A 
ATOM      2  C3  <0> d   1      18.587   4.722  11.899  0.00  0.00     0.032 A 
ATOM      3  C4  <0> d   1      19.541   3.800  12.282  0.00  0.00     0.040 A 
ATOM      4  C5  <0> d   1      19.823   2.712  11.472  0.00  0.00     0.082 A 
ATOM      5  C7  <0> d   1      19.136   2.547  10.260  0.00  0.00     0.075 A 
ATOM      6  C11 <0> d   1      18.167   3.481   9.882  0.00  0.00     0.050 A 
ENDROOT
BRANCH   1   7
ATOM      7  N1  <0> d   1      16.935   5.505  10.320  0.00  0.00    -0.399 N 
ATOM      8  H12 <0> d   1      16.320   5.304   9.598  0.00  0.00     0.156 HD
ATOM      9  H13 <0> d   1      16.877   6.355  10.783  0.00  0.00     0.156 HD
ENDBRANCH   1   7
BRANCH   5  10
ATOM     10  C8  <0> d   1      19.430   1.394   9.394  0.00  0.00     0.212 C 
ATOM     11  O9  <0> d   1      19.436   0.264   9.862  0.00  0.00    -0.644 OA
ATOM     12  O10 <0> d   1      19.669   1.565   8.207  0.00  0.00    -0.644 OA
ENDBRANCH   5  10
BRANCH   4  13
ATOM     13  O6  <0> d   1      20.761   1.808  11.850  0.00  0.00    -0.360 OA
ATOM     14  H16 <0> d   1      20.414   0.916  11.991  0.00  0.00     0.217 HD
ENDBRANCH   4  13
TORSDOF 3
ENDMDL
MODEL 6
REMARK VINA RESULT:      -4.6      2.181      3.288
REMARK  3 active torsions:
REMARK  status: ('A' for Active; 'I' for Inactive)
REMARK    1  A    between atoms: N1_1  and  C2_2 
REMARK    2  A    between atoms: C5_5  and  O6_6 
REMARK    3  A    between atoms: C7_7  and  C8_8 
ROOT
ATOM      1  C2  <0> d   1      18.314   1.573  14.566  0.00  0.00     0.026 A 
ATOM      2  C3  <0> d   1      18.405   0.337  13.934  0.00  0.00     0.032 A 
ATOM      3  C4  <0> d   1      18.727  -0.795  14.657  0.00  0.00     0.040 A 
ATOM      4  C5  <0> d   1      18.961  -0.707  16.020  0.00  0.00     0.082 A 
ATOM      5  C7  <0> d   1      18.872   0.535  16.665  0.00  0.00     0.075 A 
ATOM      6  C11 <0> d   1      18.552   1.677  15.926  0.00  0.00     0.050 A 
ENDROOT
BRANCH   1   7
ATOM      7  N1  <0> d   1      17.988   2.713  13.825  0.00  0.00    -0.399 N 
ATOM      8  H12 <0> d   1      17.210   2.710  13.245  0.00  0.00     0.156 HD
ATOM      9  H13 <0> d   1      18.536   3.511  13.894  0.00  0.00     0.156 HD
ENDBRANCH   1   7
BRANCH   5  10
ATOM     10  C8  <0> d   1      19.121   0.636  18.113  0.00  0.00     0.212 C 
ATOM     11  O9  <0> d   1      19.910   1.466  18.541  0.00  0.00    -0.644 OA
ATOM     12  O10 <0> d   1      18.538  -0.110  18.887  0.00  0.00    -0.644 OA
ENDBRANCH   5  10
BRANCH   4  13
ATOM     13  O6  <0> d   1      19.278  -1.821  16.728  0.00  0.00    -0.360 OA
ATOM     14  H16 <0> d   1      18.546  -2.174  17.254  0.00  0.00     0.217 HD
ENDBRANCH   4  13
TORSDOF 3
ENDMDL
MODEL 7
REMARK VINA RESULT:      -4.6      3.681      4.219
REMARK  3 active torsions:
REMARK  status: ('A' for Active; 'I' for Inactive)
REMARK    1  A    between atoms: N1_1  and  C2_2 
REMARK    2  A    between atoms: C5_5  and  O6_6 
REMARK    3  A    between atoms: C7_7  and  C8_8 
ROOT
ATOM      1  C2  <0> d   1      17.571  -0.078  15.893  0.00  0.00     0.026 A 
ATOM      2  C3  <0> d   1      18.514  -1.098  15.970  0.00  0.00     0.032 A 
ATOM      3  C4  <0> d   1      19.317  -1.390  14.884  0.00  0.00     0.040 A 
ATOM      4  C5  <0> d   1      19.188  -0.667  13.709  0.00  0.00     0.082 A 
ATOM      5  C7  <0> d   1      18.240   0.363  13.623  0.00  0.00     0.075 A 
ATOM      6  C11 <0> d   1      17.427   0.649  14.724  0.00  0.00     0.050 A 
ENDROOT
BRANCH   1   7
ATOM      7  N1  <0> d   1      16.763   0.209  16.998  0.00  0.00    -0.399 N 
ATOM      8  H12 <0> d   1      17.167   0.466  17.841  0.00  0.00     0.156 HD
ATOM      9  H13 <0> d   1      15.798   0.158  16.920  0.00  0.00     0.156 HD
ENDBRANCH   1   7
BRANCH   5  10
ATOM     10  C8  <0> d   1      18.097   1.135  12.378  0.00  0.00     0.212 C 
ATOM     11  O9  <0> d   1      17.008   1.209  11.826  0.00  0.00    -0.644 OA
ATOM     12  O10 <0> d   1      19.067   1.701  11.894  0.00  0.00    -0.644 OA
ENDBRANCH   5  10
BRANCH   4  13
ATOM     13  O6  <0> d   1      19.978  -0.955  12.644  0.00  0.00    -0.360 OA
ATOM     14  H16 <0> d   1      20.255  -0.179  12.137  0.00  0.00     0.217 HD
ENDBRANCH   4  13
TORSDOF 3
ENDMDL
MODEL 8
REMARK VINA RESULT:      -4.6      4.595      5.983
REMARK  3 active torsions:
REMARK  status: ('A' for Active; 'I' for Inactive)
REMARK    1  A    between atoms: N1_1  and  C2_2 
REMARK    2  A    between atoms: C5_5  and  O6_6 
REMARK    3  A    between atoms: C7_7  and  C8_8 
ROOT
ATOM      1  C2  <0> d   1      19.673   2.468  11.580  0.00  0.00     0.026 A 
ATOM      2  C3  <0> d   1      18.877   2.437  10.440  0.00  0.00     0.032 A 
ATOM      3  C4  <0> d   1      17.730   1.668  10.410  0.00  0.00     0.040 A 
ATOM      4  C5  <0> d   1      17.364   0.920  11.517  0.00  0.00     0.082 A 
ATOM      5  C7  <0> d   1      18.161   0.945  12.672  0.00  0.00     0.075 A 
ATOM      6  C11 <0> d   1      19.324   1.722  12.693  0.00  0.00     0.050 A 
ENDROOT
BRANCH   1   7
ATOM      7  N1  <0> d   1      20.833   3.250  11.601  0.00  0.00    -0.399 N 
ATOM      8  H12 <0> d   1      20.853   4.101  11.135  0.00  0.00     0.156 HD
ATOM      9  H13 <0> d   1      21.615   2.946  12.085  0.00  0.00     0.156 HD
ENDBRANCH   1   7
BRANCH   5  10
ATOM     10  C8  <0> d   1      17.779   0.153  13.852  0.00  0.00     0.212 C 
ATOM     11  O9  <0> d   1      17.867  -1.067  13.825  0.00  0.00    -0.644 OA
ATOM     12  O10 <0> d   1      17.372   0.714  14.860  0.00  0.00    -0.644 OA
ENDBRANCH   5  10
BRANCH   4  13
ATOM     13  O6  <0> d   1      16.237   0.165  11.486  0.00  0.00    -0.360 OA
ATOM     14  H16 <0> d   1      16.400  -0.781  11.360  0.00  0.00     0.217 HD
ENDBRANCH   4  13
TORSDOF 3
ENDMDL
MODEL 9
REMARK VINA RESULT:      -4.5      4.477      5.797
REMARK  3 active torsions:
REMARK  status: ('A' for Active; 'I' for Inactive)
REMARK    1  A    between atoms: N1_1  and  C2_2 
REMARK    2  A    between atoms: C5_5  and  O6_6 
REMARK    3  A    between atoms: C7_7  and  C8_8 
ROOT
ATOM      1  C2  <0> d   1      19.623  -2.552  11.587  0.00  0.00     0.026 A 
ATOM      2  C3  <0> d   1      18.811  -2.346  10.476  0.00  0.00     0.032 A 
ATOM      3  C4  <0> d   1      17.694  -1.539  10.568  0.00  0.00     0.040 A 
ATOM      4  C5  <0> d   1      17.374  -0.927  11.769  0.00  0.00     0.082 A 
ATOM      5  C7  <0> d   1      18.187  -1.130  12.894  0.00  0.00     0.075 A 
ATOM      6  C11 <0> d   1      19.313  -1.953  12.795  0.00  0.00     0.050 A 
ENDROOT
BRANCH   1   7
ATOM      7  N1  <0> d   1      20.752  -3.372  11.483  0.00  0.00    -0.399 N 
ATOM      8  H12 <0> d   1      21.522  -3.076  10.972  0.00  0.00     0.156 HD
ATOM      9  H13 <0> d   1      20.768  -4.234  11.926  0.00  0.00     0.156 HD
ENDBRANCH   1   7
BRANCH   5  10
ATOM     10  C8  <0> d   1      17.854  -0.484  14.174  0.00  0.00     0.212 C 
ATOM     11  O9  <0> d   1      17.404   0.654  14.186  0.00  0.00    -0.644 OA
ATOM     12  O10 <0> d   1      18.026  -1.084  15.226  0.00  0.00    -0.644 OA
ENDBRANCH   5  10
BRANCH   4  13
ATOM     13  O6  <0> d   1      16.276  -0.135  11.858  0.00  0.00    -0.360 OA
ATOM     14  H16 <0> d   1      16.474   0.812  11.868  0.00  0.00     0.217 HD
ENDBRANCH   4  13
TORSDOF 3
ENDMDL
