MODEL 1
REMARK VINA RESULT:      -8.8      0.000      0.000
REMARK  6 active torsions:
REMARK  status: ('A' for Active; 'I' for Inactive)
REMARK    1  A    between atoms: C3_3  and  C4_4 
REMARK    2  A    between atoms: C12_12  and  C13_13 
REMARK    3  A    between atoms: C13_13  and  O15_15 
REMARK    4  A    between atoms: O15_15  and  C16_16 
REMARK    5  A    between atoms: C16_16  and  C17_17 
REMARK    6  A    between atoms: C17_17  and  N18_18 
ROOT
ATOM      1  C1  <0> d   1      18.116   3.096   9.916  0.00  0.00     0.055 C 
ATOM      2  C2  <0> d   1      18.404   1.849  10.709  0.00  0.00     0.024 A 
ATOM      3  C3  <0> d   1      18.508   0.646  10.081  0.00  0.00     0.096 A 
ATOM      4  O10 <0> d   1      18.763  -0.494  10.743  0.00  0.00    -0.307 OA
ATOM      5  C11 <0> d   1      18.936  -0.529  12.078  0.00  0.00     0.106 A 
ATOM      6  C12 <0> d   1      19.203  -1.738  12.737  0.00  0.00     0.074 A 
ATOM      7  C24 <0> d   1      19.378  -1.744  14.122  0.00  0.00     0.020 A 
ATOM      8  C25 <0> d   1      19.292  -0.568  14.845  0.00  0.00     0.002 A 
ATOM      9  C26 <0> d   1      19.030   0.628  14.208  0.00  0.00     0.018 A 
ATOM     10  C27 <0> d   1      18.852   0.655  12.826  0.00  0.00     0.050 A 
ATOM     11  C28 <0> d   1      18.576   1.919  12.111  0.00  0.00     0.193 A 
ATOM     12  O29 <0> d   1      18.496   2.980  12.708  0.00  0.00    -0.287 OA
ENDROOT
BRANCH   6  13
ATOM     13  C13 <0> d   1      19.298  -2.994  11.973  0.00  0.00     0.296 C 
ATOM     14  O14 <0> d   1      20.370  -3.359  11.533  0.00  0.00    -0.259 OA
BRANCH  13  15
ATOM     15  O15 <0> d   1      18.195  -3.739  11.760  0.00  0.00    -0.316 OA
BRANCH  15  16
ATOM     16  C16 <0> d   1      17.599  -3.672  10.438  0.00  0.00     0.209 C 
BRANCH  16  17
ATOM     17  C17 <0> d   1      17.906  -4.960   9.673  0.00  0.00     0.299 C 
BRANCH  17  18
ATOM     18  N18 <0> d   1      18.533  -4.629   8.387  0.00  0.00     0.090 N 
ATOM     19  C23 <0> d   1      17.714  -5.104   7.264  0.00  0.00     0.272 C 
ATOM     20  C22 <0> d   1      18.463  -4.871   5.950  0.00  0.00     0.030 C 
ATOM     21  C21 <0> d   1      18.759  -3.376   5.795  0.00  0.00     0.003 C 
ATOM     22  C20 <0> d   1      19.573  -2.897   7.001  0.00  0.00     0.030 C 
ATOM     23  C19 <0> d   1      18.791  -3.186   8.284  0.00  0.00     0.272 C 
ENDBRANCH  17  18
ENDBRANCH  16  17
ENDBRANCH  15  16
ENDBRANCH  13  15
ENDBRANCH   6  13
BRANCH   3  24
ATOM     24  C4  <0> d   1      18.331   0.592   8.616  0.00  0.00    -0.002 A 
ATOM     25  C9  <0> d   1      17.223  -0.055   8.066  0.00  0.00     0.014 A 
ATOM     26  C8  <0> d   1      17.062  -0.096   6.697  0.00  0.00     0.001 A 
ATOM     27  C7  <0> d   1      18.002   0.492   5.869  0.00  0.00     0.000 A 
ATOM     28  C6  <0> d   1      19.106   1.129   6.406  0.00  0.00     0.001 A 
ATOM     29  C5  <0> d   1      19.276   1.183   7.774  0.00  0.00     0.014 A 
ENDBRANCH   3  24
TORSDOF 6
ENDMDL
MODEL 2
REMARK VINA RESULT:      -8.7      2.002      5.347
REMARK  6 active torsions:
REMARK  status: ('A' for Active; 'I' for Inactive)
REMARK    1  A    between atoms: C3_3  and  C4_4 
REMARK    2  A    between atoms: C12_12  and  C13_13 
REMARK    3  A    between atoms: C13_13  and  O15_15 
REMARK    4  A    between atoms: O15_15  and  C16_16 
REMARK    5  A    between atoms: C16_16  and  C17_17 
REMARK    6  A    between atoms: C17_17  and  N18_18 
ROOT
ATOM      1  C1  <0> d   1      18.660   2.056  10.549  0.00  0.00     0.055 C 
ATOM      2  C2  <0> d   1      18.802   1.107   9.389  0.00  0.00     0.024 A 
ATOM      3  C3  <0> d   1      18.843  -0.236   9.602  0.00  0.00     0.096 A 
ATOM      4  O10 <0> d   1      18.969  -1.123   8.603  0.00  0.00    -0.307 OA
ATOM      5  C11 <0> d   1      19.062  -0.746   7.313  0.00  0.00     0.106 A 
ATOM      6  C12 <0> d   1      19.192  -1.700   6.292  0.00  0.00     0.074 A 
ATOM      7  C24 <0> d   1      19.286  -1.280   4.964  0.00  0.00     0.020 A 
ATOM      8  C25 <0> d   1      19.252   0.066   4.651  0.00  0.00     0.002 A 
ATOM      9  C26 <0> d   1      19.125   1.015   5.645  0.00  0.00     0.018 A 
ATOM     10  C27 <0> d   1      19.029   0.616   6.978  0.00  0.00     0.050 A 
ATOM     11  C28 <0> d   1      18.887   1.604   8.067  0.00  0.00     0.193 A 
ATOM     12  O29 <0> d   1      18.847   2.801   7.835  0.00  0.00    -0.287 OA
ENDROOT
BRANCH   6  13
ATOM     13  C13 <0> d   1      19.227  -3.136   6.619  0.00  0.00     0.296 C 
ATOM     14  O14 <0> d   1      20.272  -3.752   6.547  0.00  0.00    -0.259 OA
BRANCH  13  15
ATOM     15  O15 <0> d   1      18.098  -3.769   6.998  0.00  0.00    -0.316 OA
BRANCH  15  16
ATOM     16  C16 <0> d   1      17.915  -5.130   6.527  0.00  0.00     0.209 C 
BRANCH  16  17
ATOM     17  C17 <0> d   1      17.670  -6.055   7.720  0.00  0.00     0.299 C 
BRANCH  17  18
ATOM     18  N18 <0> d   1      17.802  -5.291   8.967  0.00  0.00     0.090 N 
ATOM     19  C23 <0> d   1      16.687  -5.578   9.881  0.00  0.00     0.272 C 
ATOM     20  C22 <0> d   1      16.780  -4.662  11.103  0.00  0.00     0.030 C 
ATOM     21  C21 <0> d   1      18.118  -4.896  11.810  0.00  0.00     0.003 C 
ATOM     22  C20 <0> d   1      19.260  -4.637  10.824  0.00  0.00     0.030 C 
ATOM     23  C19 <0> d   1      19.097  -5.555   9.610  0.00  0.00     0.272 C 
ENDBRANCH  17  18
ENDBRANCH  16  17
ENDBRANCH  15  16
ENDBRANCH  13  15
ENDBRANCH   6  13
BRANCH   3  24
ATOM     24  C4  <0> d   1      18.747  -0.738  10.988  0.00  0.00    -0.002 A 
ATOM     25  C9  <0> d   1      19.905  -1.058  11.700  0.00  0.00     0.014 A 
ATOM     26  C8  <0> d   1      19.808  -1.521  12.996  0.00  0.00     0.001 A 
ATOM     27  C7  <0> d   1      18.566  -1.679  13.586  0.00  0.00     0.000 A 
ATOM     28  C6  <0> d   1      17.414  -1.369  12.884  0.00  0.00     0.001 A 
ATOM     29  C5  <0> d   1      17.497  -0.899  11.590  0.00  0.00     0.014 A 
ENDBRANCH   3  24
TORSDOF 6
ENDMDL
MODEL 3
REMARK VINA RESULT:      -8.6      2.254      7.088
REMARK  6 active torsions:
REMARK  status: ('A' for Active; 'I' for Inactive)
REMARK    1  A    between atoms: C3_3  and  C4_4 
REMARK    2  A    between atoms: C12_12  and  C13_13 
REMARK    3  A    between atoms: C13_13  and  O15_15 
REMARK    4  A    between atoms: O15_15  and  C16_16 
REMARK    5  A    between atoms: C16_16  and  C17_17 
REMARK    6  A    between atoms: C17_17  and  N18_18 
ROOT
ATOM      1  C1  <0> d   1      18.886  -5.121   7.196  0.00  0.00     0.055 C 
ATOM      2  C2  <0> d   1      18.872  -3.615   7.245  0.00  0.00     0.024 A 
ATOM      3  C3  <0> d   1      18.606  -2.970   8.413  0.00  0.00     0.096 A 
ATOM      4  O10 <0> d   1      18.581  -1.631   8.508  0.00  0.00    -0.307 OA
ATOM      5  C11 <0> d   1      18.818  -0.829   7.453  0.00  0.00     0.106 A 
ATOM      6  C12 <0> d   1      18.784   0.567   7.588  0.00  0.00     0.074 A 
ATOM      7  C24 <0> d   1      19.034   1.373   6.476  0.00  0.00     0.020 A 
ATOM      8  C25 <0> d   1      19.314   0.806   5.247  0.00  0.00     0.002 A 
ATOM      9  C26 <0> d   1      19.350  -0.566   5.101  0.00  0.00     0.018 A 
ATOM     10  C27 <0> d   1      19.104  -1.389   6.198  0.00  0.00     0.050 A 
ATOM     11  C28 <0> d   1      19.140  -2.861   6.079  0.00  0.00     0.193 A 
ATOM     12  O29 <0> d   1      19.388  -3.404   5.014  0.00  0.00    -0.287 OA
ENDROOT
BRANCH   6  13
ATOM     13  C13 <0> d   1      18.488   1.179   8.896  0.00  0.00     0.296 C 
ATOM     14  O14 <0> d   1      17.413   0.987   9.428  0.00  0.00    -0.259 OA
BRANCH  13  15
ATOM     15  O15 <0> d   1      19.410   1.953   9.502  0.00  0.00    -0.316 OA
BRANCH  15  16
ATOM     16  C16 <0> d   1      19.098   2.428  10.838  0.00  0.00     0.209 C 
BRANCH  16  17
ATOM     17  C17 <0> d   1      19.971   1.696  11.858  0.00  0.00     0.299 C 
BRANCH  17  18
ATOM     18  N18 <0> d   1      19.142   0.763  12.632  0.00  0.00     0.090 N 
ATOM     19  C23 <0> d   1      19.201  -0.590  12.064  0.00  0.00     0.272 C 
ATOM     20  C22 <0> d   1      18.218  -1.500  12.805  0.00  0.00     0.030 C 
ATOM     21  C21 <0> d   1      18.584  -1.534  14.292  0.00  0.00     0.003 C 
ATOM     22  C20 <0> d   1      18.562  -0.107  14.848  0.00  0.00     0.030 C 
ATOM     23  C19 <0> d   1      19.536   0.761  14.048  0.00  0.00     0.272 C 
ENDBRANCH  17  18
ENDBRANCH  16  17
ENDBRANCH  15  16
ENDBRANCH  13  15
ENDBRANCH   6  13
BRANCH   3  24
ATOM     24  C4  <0> d   1      18.335  -3.773   9.622  0.00  0.00    -0.002 A 
ATOM     25  C9  <0> d   1      19.378  -4.123  10.481  0.00  0.00     0.014 A 
ATOM     26  C8  <0> d   1      19.117  -4.868  11.611  0.00  0.00     0.001 A 
ATOM     27  C7  <0> d   1      17.825  -5.279  11.889  0.00  0.00     0.000 A 
ATOM     28  C6  <0> d   1      16.786  -4.942  11.038  0.00  0.00     0.001 A 
ATOM     29  C5  <0> d   1      17.033  -4.191   9.908  0.00  0.00     0.014 A 
ENDBRANCH   3  24
TORSDOF 6
ENDMDL
MODEL 4
REMARK VINA RESULT:      -8.6      3.182      8.239
REMARK  6 active torsions:
REMARK  status: ('A' for Active; 'I' for Inactive)
REMARK    1  A    between atoms: C3_3  and  C4_4 
REMARK    2  A    between atoms: C12_12  and  C13_13 
REMARK    3  A    between atoms: C13_13  and  O15_15 
REMARK    4  A    between atoms: O15_15  and  C16_16 
REMARK    5  A    between atoms: C16_16  and  C17_17 
REMARK    6  A    between atoms: C17_17  and  N18_18 
ROOT
ATOM      1  C1  <0> d   1      18.034  -2.904  12.407  0.00  0.00     0.055 C 
ATOM      2  C2  <0> d   1      18.304  -1.563  11.777  0.00  0.00     0.024 A 
ATOM      3  C3  <0> d   1      18.482  -0.462  12.556  0.00  0.00     0.096 A 
ATOM      4  O10 <0> d   1      18.724   0.755  12.043  0.00  0.00    -0.307 OA
ATOM      5  C11 <0> d   1      18.808   0.973  10.717  0.00  0.00     0.106 A 
ATOM      6  C12 <0> d   1      19.064   2.258  10.214  0.00  0.00     0.074 A 
ATOM      7  C24 <0> d   1      19.146   2.454   8.834  0.00  0.00     0.020 A 
ATOM      8  C25 <0> d   1      18.979   1.393   7.964  0.00  0.00     0.002 A 
ATOM      9  C26 <0> d   1      18.728   0.125   8.445  0.00  0.00     0.018 A 
ATOM     10  C27 <0> d   1      18.641  -0.093   9.820  0.00  0.00     0.050 A 
ATOM     11  C28 <0> d   1      18.379  -1.438  10.370  0.00  0.00     0.193 A 
ATOM     12  O29 <0> d   1      18.230  -2.404   9.638  0.00  0.00    -0.287 OA
ENDROOT
BRANCH   6  13
ATOM     13  C13 <0> d   1      19.245   3.393  11.136  0.00  0.00     0.296 C 
ATOM     14  O14 <0> d   1      20.324   3.584  11.661  0.00  0.00    -0.259 OA
BRANCH  13  15
ATOM     15  O15 <0> d   1      18.212   4.219  11.399  0.00  0.00    -0.316 OA
BRANCH  15  16
ATOM     16  C16 <0> d   1      17.565   4.076  12.691  0.00  0.00     0.209 C 
BRANCH  16  17
ATOM     17  C17 <0> d   1      17.950   5.253  13.588  0.00  0.00     0.299 C 
BRANCH  17  18
ATOM     18  N18 <0> d   1      18.508   4.746  14.849  0.00  0.00     0.090 N 
ATOM     19  C23 <0> d   1      17.677   5.148  15.992  0.00  0.00     0.272 C 
ATOM     20  C22 <0> d   1      18.362   4.728  17.294  0.00  0.00     0.030 C 
ATOM     21  C21 <0> d   1      18.564   3.210  17.293  0.00  0.00     0.003 C 
ATOM     22  C20 <0> d   1      19.392   2.814  16.068  0.00  0.00     0.030 C 
ATOM     23  C19 <0> d   1      18.676   3.287  14.801  0.00  0.00     0.272 C 
ENDBRANCH  17  18
ENDBRANCH  16  17
ENDBRANCH  15  16
ENDBRANCH  13  15
ENDBRANCH   6  13
BRANCH   3  24
ATOM     24  C4  <0> d   1      18.406  -0.611  14.023  0.00  0.00    -0.002 A 
ATOM     25  C9  <0> d   1      17.330  -0.067  14.729  0.00  0.00     0.014 A 
ATOM     26  C8  <0> d   1      17.263  -0.215  16.098  0.00  0.00     0.001 A 
ATOM     27  C7  <0> d   1      18.264  -0.890  16.775  0.00  0.00     0.000 A 
ATOM     28  C6  <0> d   1      19.336  -1.426  16.083  0.00  0.00     0.001 A 
ATOM     29  C5  <0> d   1      19.413  -1.291  14.712  0.00  0.00     0.014 A 
ENDBRANCH   3  24
TORSDOF 6
ENDMDL
MODEL 5
REMARK VINA RESULT:      -8.4      2.695      5.583
REMARK  6 active torsions:
REMARK  status: ('A' for Active; 'I' for Inactive)
REMARK    1  A    between atoms: C3_3  and  C4_4 
REMARK    2  A    between atoms: C12_12  and  C13_13 
REMARK    3  A    between atoms: C13_13  and  O15_15 
REMARK    4  A    between atoms: O15_15  and  C16_16 
REMARK    5  A    between atoms: C16_16  and  C17_17 
REMARK    6  A    between atoms: C17_17  and  N18_18 
ROOT
ATOM      1  C1  <0> d   1      19.184  -1.139  15.355  0.00  0.00     0.055 C 
ATOM      2  C2  <0> d   1      18.858   0.251  14.876  0.00  0.00     0.024 A 
ATOM      3  C3  <0> d   1      18.565   0.474  13.566  0.00  0.00     0.096 A 
ATOM      4  O10 <0> d   1      18.269   1.693  13.090  0.00  0.00    -0.307 OA
ATOM      5  C11 <0> d   1      18.240   2.786  13.877  0.00  0.00     0.106 A 
ATOM      6  C12 <0> d   1      17.926   4.046  13.346  0.00  0.00     0.074 A 
ATOM      7  C24 <0> d   1      17.903   5.161  14.185  0.00  0.00     0.020 A 
ATOM      8  C25 <0> d   1      18.188   5.031  15.532  0.00  0.00     0.002 A 
ATOM      9  C26 <0> d   1      18.498   3.797  16.066  0.00  0.00     0.018 A 
ATOM     10  C27 <0> d   1      18.526   2.671  15.245  0.00  0.00     0.050 A 
ATOM     11  C28 <0> d   1      18.849   1.335  15.785  0.00  0.00     0.193 A 
ATOM     12  O29 <0> d   1      19.101   1.173  16.968  0.00  0.00    -0.287 OA
ENDROOT
BRANCH   6  13
ATOM     13  C13 <0> d   1      17.620   4.192  11.912  0.00  0.00     0.296 C 
ATOM     14  O14 <0> d   1      16.469   4.321  11.545  0.00  0.00    -0.259 OA
BRANCH  13  15
ATOM     15  O15 <0> d   1      18.618   4.181  11.005  0.00  0.00    -0.316 OA
BRANCH  15  16
ATOM     16  C16 <0> d   1      18.449   3.319   9.849  0.00  0.00     0.209 C 
BRANCH  16  17
ATOM     17  C17 <0> d   1      19.333   2.081  10.001  0.00  0.00     0.299 C 
BRANCH  17  18
ATOM     18  N18 <0> d   1      19.012   1.116   8.942  0.00  0.00     0.090 N 
ATOM     19  C23 <0> d   1      17.690   0.513   9.161  0.00  0.00     0.272 C 
ATOM     20  C22 <0> d   1      17.451  -0.586   8.125  0.00  0.00     0.030 C 
ATOM     21  C21 <0> d   1      17.532   0.017   6.719  0.00  0.00     0.003 C 
ATOM     22  C20 <0> d   1      18.901   0.678   6.534  0.00  0.00     0.030 C 
ATOM     23  C19 <0> d   1      19.097   1.743   7.616  0.00  0.00     0.272 C 
ENDBRANCH  17  18
ENDBRANCH  16  17
ENDBRANCH  15  16
ENDBRANCH  13  15
ENDBRANCH   6  13
BRANCH   3  24
ATOM     24  C4  <0> d   1      18.573  -0.670  12.632  0.00  0.00    -0.002 A 
ATOM     25  C9  <0> d   1      19.754  -1.039  11.985  0.00  0.00     0.014 A 
ATOM     26  C8  <0> d   1      19.756  -2.111  11.118  0.00  0.00     0.001 A 
ATOM     27  C7  <0> d   1      18.588  -2.815  10.881  0.00  0.00     0.000 A 
ATOM     28  C6  <0> d   1      17.413  -2.452  11.514  0.00  0.00     0.001 A 
ATOM     29  C5  <0> d   1      17.398  -1.385  12.388  0.00  0.00     0.014 A 
ENDBRANCH   3  24
TORSDOF 6
ENDMDL
MODEL 6
REMARK VINA RESULT:      -8.2      2.833      4.636
REMARK  6 active torsions:
REMARK  status: ('A' for Active; 'I' for Inactive)
REMARK    1  A    between atoms: C3_3  and  C4_4 
REMARK    2  A    between atoms: C12_12  and  C13_13 
REMARK    3  A    between atoms: C13_13  and  O15_15 
REMARK    4  A    between atoms: O15_15  and  C16_16 
REMARK    5  A    between atoms: C16_16  and  C17_17 
REMARK    6  A    between atoms: C17_17  and  N18_18 
ROOT
ATOM      1  C1  <0> d   1      18.858   5.324  14.455  0.00  0.00     0.055 C 
ATOM      2  C2  <0> d   1      18.876   3.906  14.962  0.00  0.00     0.024 A 
ATOM      3  C3  <0> d   1      18.733   2.866  14.097  0.00  0.00     0.096 A 
ATOM      4  O10 <0> d   1      18.741   1.586  14.499  0.00  0.00    -0.307 OA
ATOM      5  C11 <0> d   1      18.894   1.237  15.791  0.00  0.00     0.106 A 
ATOM      6  C12 <0> d   1      18.899  -0.112  16.177  0.00  0.00     0.074 A 
ATOM      7  C24 <0> d   1      19.060  -0.443  17.524  0.00  0.00     0.020 A 
ATOM      8  C25 <0> d   1      19.213   0.548  18.476  0.00  0.00     0.002 A 
ATOM      9  C26 <0> d   1      19.210   1.879  18.109  0.00  0.00     0.018 A 
ATOM     10  C27 <0> d   1      19.051   2.230  16.770  0.00  0.00     0.050 A 
ATOM     11  C28 <0> d   1      19.049   3.644  16.342  0.00  0.00     0.193 A 
ATOM     12  O29 <0> d   1      19.186   4.550  17.147  0.00  0.00    -0.287 OA
ENDROOT
BRANCH   6  13
ATOM     13  C13 <0> d   1      18.737  -1.173  15.167  0.00  0.00     0.296 C 
ATOM     14  O14 <0> d   1      17.807  -1.950  15.244  0.00  0.00    -0.259 OA
BRANCH  13  15
ATOM     15  O15 <0> d   1      19.624  -1.283  14.157  0.00  0.00    -0.316 OA
BRANCH  15  16
ATOM     16  C16 <0> d   1      19.176  -1.969  12.959  0.00  0.00     0.209 C 
BRANCH  16  17
ATOM     17  C17 <0> d   1      20.026  -1.525  11.768  0.00  0.00     0.299 C 
BRANCH  17  18
ATOM     18  N18 <0> d   1      19.232  -0.649  10.898  0.00  0.00     0.090 N 
ATOM     19  C23 <0> d   1      19.544  -0.888   9.483  0.00  0.00     0.272 C 
ATOM     20  C22 <0> d   1      18.808   0.136   8.616  0.00  0.00     0.030 C 
ATOM     21  C21 <0> d   1      17.301   0.010   8.854  0.00  0.00     0.003 C 
ATOM     22  C20 <0> d   1      17.007   0.216  10.343  0.00  0.00     0.030 C 
ATOM     23  C19 <0> d   1      17.795  -0.812  11.159  0.00  0.00     0.272 C 
ENDBRANCH  17  18
ENDBRANCH  16  17
ENDBRANCH  15  16
ENDBRANCH  13  15
ENDBRANCH   6  13
BRANCH   3  24
ATOM     24  C4  <0> d   1      18.560   3.157  12.659  0.00  0.00    -0.002 A 
ATOM     25  C9  <0> d   1      19.554   2.800  11.747  0.00  0.00     0.014 A 
ATOM     26  C8  <0> d   1      19.384   3.070  10.405  0.00  0.00     0.001 A 
ATOM     27  C7  <0> d   1      18.235   3.704   9.965  0.00  0.00     0.000 A 
ATOM     28  C6  <0> d   1      17.248   4.067  10.864  0.00  0.00     0.001 A 
ATOM     29  C5  <0> d   1      17.403   3.798  12.208  0.00  0.00     0.014 A 
ENDBRANCH   3  24
TORSDOF 6
ENDMDL
MODEL 7
REMARK VINA RESULT:      -8.2      2.149      4.159
REMARK  6 active torsions:
REMARK  status: ('A' for Active; 'I' for Inactive)
REMARK    1  A    between atoms: C3_3  and  C4_4 
REMARK    2  A    between atoms: C12_12  and  C13_13 
REMARK    3  A    between atoms: C13_13  and  O15_15 
REMARK    4  A    between atoms: O15_15  and  C16_16 
REMARK    5  A    between atoms: C16_16  and  C17_17 
REMARK    6  A    between atoms: C17_17  and  N18_18 
ROOT
ATOM      1  C1  <0> d   1      18.385   4.780  14.830  0.00  0.00     0.055 C 
ATOM      2  C2  <0> d   1      18.391   3.281  14.685  0.00  0.00     0.024 A 
ATOM      3  C3  <0> d   1      18.143   2.708  13.476  0.00  0.00     0.096 A 
ATOM      4  O10 <0> d   1      18.137   1.378  13.295  0.00  0.00    -0.307 OA
ATOM      5  C11 <0> d   1      18.377   0.513  14.299  0.00  0.00     0.106 A 
ATOM      6  C12 <0> d   1      18.363  -0.872  14.075  0.00  0.00     0.074 A 
ATOM      7  C24 <0> d   1      18.616  -1.744  15.135  0.00  0.00     0.020 A 
ATOM      8  C25 <0> d   1      18.878  -1.253  16.401  0.00  0.00     0.002 A 
ATOM      9  C26 <0> d   1      18.895   0.108  16.634  0.00  0.00     0.018 A 
ATOM     10  C27 <0> d   1      18.645   0.996  15.589  0.00  0.00     0.050 A 
ATOM     11  C28 <0> d   1      18.660   2.457  15.803  0.00  0.00     0.193 A 
ATOM     12  O29 <0> d   1      18.892   2.934  16.902  0.00  0.00    -0.287 OA
ENDROOT
BRANCH   6  13
ATOM     13  C13 <0> d   1      18.086  -1.402  12.729  0.00  0.00     0.296 C 
ATOM     14  O14 <0> d   1      16.985  -1.260  12.233  0.00  0.00    -0.259 OA
BRANCH  13  15
ATOM     15  O15 <0> d   1      19.053  -2.047  12.046  0.00  0.00    -0.316 OA
BRANCH  15  16
ATOM     16  C16 <0> d   1      19.599  -1.374  10.881  0.00  0.00     0.209 C 
BRANCH  16  17
ATOM     17  C17 <0> d   1      18.932  -1.918   9.617  0.00  0.00     0.299 C 
BRANCH  17  18
ATOM     18  N18 <0> d   1      18.581  -0.803   8.728  0.00  0.00     0.090 N 
ATOM     19  C23 <0> d   1      19.627   0.229   8.741  0.00  0.00     0.272 C 
ATOM     20  C22 <0> d   1      19.165   1.435   7.920  0.00  0.00     0.030 C 
ATOM     21  C21 <0> d   1      18.877   0.989   6.483  0.00  0.00     0.003 C 
ATOM     22  C20 <0> d   1      17.820  -0.118   6.503  0.00  0.00     0.030 C 
ATOM     23  C19 <0> d   1      18.322  -1.280   7.363  0.00  0.00     0.272 C 
ENDBRANCH  17  18
ENDBRANCH  16  17
ENDBRANCH  15  16
ENDBRANCH  13  15
ENDBRANCH   6  13
BRANCH   3  24
ATOM     24  C4  <0> d   1      17.870   3.583  12.318  0.00  0.00    -0.002 A 
ATOM     25  C9  <0> d   1      17.002   4.669  12.449  0.00  0.00     0.014 A 
ATOM     26  C8  <0> d   1      16.755   5.485  11.365  0.00  0.00     0.001 A 
ATOM     27  C7  <0> d   1      17.358   5.223  10.147  0.00  0.00     0.000 A 
ATOM     28  C6  <0> d   1      18.215   4.145  10.008  0.00  0.00     0.001 A 
ATOM     29  C5  <0> d   1      18.475   3.324  11.086  0.00  0.00     0.014 A 
ENDBRANCH   3  24
TORSDOF 6
ENDMDL
MODEL 8
REMARK VINA RESULT:      -8.1      2.801      5.899
REMARK  6 active torsions:
REMARK  status: ('A' for Active; 'I' for Inactive)
REMARK    1  A    between atoms: C3_3  and  C4_4 
REMARK    2  A    between atoms: C12_12  and  C13_13 
REMARK    3  A    between atoms: C13_13  and  O15_15 
REMARK    4  A    between atoms: O15_15  and  C16_16 
REMARK    5  A    between atoms: C16_16  and  C17_17 
REMARK    6  A    between atoms: C17_17  and  N18_18 
ROOT
ATOM      1  C1  <0> d   1      19.050   2.873  16.337  0.00  0.00     0.055 C 
ATOM      2  C2  <0> d   1      18.717   2.689  14.880  0.00  0.00     0.024 A 
ATOM      3  C3  <0> d   1      18.322   1.473  14.415  0.00  0.00     0.096 A 
ATOM      4  O10 <0> d   1      18.015   1.258  13.126  0.00  0.00    -0.307 OA
ATOM      5  C11 <0> d   1      18.077   2.233  12.198  0.00  0.00     0.106 A 
ATOM      6  C12 <0> d   1      17.748   1.973  10.859  0.00  0.00     0.074 A 
ATOM      7  C24 <0> d   1      17.821   3.003   9.920  0.00  0.00     0.020 A 
ATOM      8  C25 <0> d   1      18.212   4.273  10.300  0.00  0.00     0.002 A 
ATOM      9  C26 <0> d   1      18.538   4.542  11.615  0.00  0.00     0.018 A 
ATOM     10  C27 <0> d   1      18.472   3.527  12.568  0.00  0.00     0.050 A 
ATOM     11  C28 <0> d   1      18.808   3.781  13.984  0.00  0.00     0.193 A 
ATOM     12  O29 <0> d   1      19.154   4.887  14.365  0.00  0.00    -0.287 OA
ENDROOT
BRANCH   6  13
ATOM     13  C13 <0> d   1      17.328   0.622  10.447  0.00  0.00     0.296 C 
ATOM     14  O14 <0> d   1      16.262   0.176  10.821  0.00  0.00    -0.259 OA
BRANCH  13  15
ATOM     15  O15 <0> d   1      18.128  -0.120   9.655  0.00  0.00    -0.316 OA
BRANCH  15  16
ATOM     16  C16 <0> d   1      19.465  -0.401  10.146  0.00  0.00     0.209 C 
BRANCH  16  17
ATOM     17  C17 <0> d   1      19.379  -1.332  11.356  0.00  0.00     0.299 C 
BRANCH  17  18
ATOM     18  N18 <0> d   1      18.852  -2.637  10.935  0.00  0.00     0.090 N 
ATOM     19  C23 <0> d   1      19.862  -3.691  11.097  0.00  0.00     0.272 C 
ATOM     20  C22 <0> d   1      19.329  -5.002  10.517  0.00  0.00     0.030 C 
ATOM     21  C21 <0> d   1      18.039  -5.390  11.244  0.00  0.00     0.003 C 
ATOM     22  C20 <0> d   1      17.020  -4.256  11.101  0.00  0.00     0.030 C 
ATOM     23  C19 <0> d   1      17.619  -2.966  11.665  0.00  0.00     0.272 C 
ENDBRANCH  17  18
ENDBRANCH  16  17
ENDBRANCH  15  16
ENDBRANCH  13  15
ENDBRANCH   6  13
BRANCH   3  24
ATOM     24  C4  <0> d   1      18.227   0.347  15.365  0.00  0.00    -0.002 A 
ATOM     25  C9  <0> d   1      19.255  -0.595  15.440  0.00  0.00     0.014 A 
ATOM     26  C8  <0> d   1      19.163  -1.642  16.334  0.00  0.00     0.001 A 
ATOM     27  C7  <0> d   1      18.049  -1.766  17.146  0.00  0.00     0.000 A 
ATOM     28  C6  <0> d   1      17.023  -0.840  17.071  0.00  0.00     0.001 A 
ATOM     29  C5  <0> d   1      17.106   0.215  16.187  0.00  0.00     0.014 A 
ENDBRANCH   3  24
TORSDOF 6
ENDMDL
MODEL 9
REMARK VINA RESULT:      -8.0      2.173      5.791
REMARK  6 active torsions:
REMARK  status: ('A' for Active; 'I' for Inactive)
REMARK    1  A    between atoms: C3_3  and  C4_4 
REMARK    2  A    between atoms: C12_12  and  C13_13 
REMARK    3  A    between atoms: C13_13  and  O15_15 
REMARK    4  A    between atoms: O15_15  and  C16_16 
REMARK    5  A    between atoms: C16_16  and  C17_17 
REMARK    6  A    between atoms: C17_17  and  N18_18 
ROOT
ATOM      1  C1  <0> d   1      18.268  -4.095   5.669  0.00  0.00     0.055 C 
ATOM      2  C2  <0> d   1      18.134  -3.957   7.163  0.00  0.00     0.024 A 
ATOM      3  C3  <0> d   1      18.261  -2.738   7.753  0.00  0.00     0.096 A 
ATOM      4  O10 <0> d   1      18.150  -2.563   9.079  0.00  0.00    -0.307 OA
ATOM      5  C11 <0> d   1      17.905  -3.584   9.922  0.00  0.00     0.106 A 
ATOM      6  C12 <0> d   1      17.794  -3.365  11.304  0.00  0.00     0.074 A 
ATOM      7  C24 <0> d   1      17.539  -4.443  12.154  0.00  0.00     0.020 A 
ATOM      8  C25 <0> d   1      17.394  -5.720  11.644  0.00  0.00     0.002 A 
ATOM      9  C26 <0> d   1      17.500  -5.948  10.287  0.00  0.00     0.018 A 
ATOM     10  C27 <0> d   1      17.755  -4.885   9.421  0.00  0.00     0.050 A 
ATOM     11  C28 <0> d   1      17.869  -5.093   7.963  0.00  0.00     0.193 A 
ATOM     12  O29 <0> d   1      17.743  -6.202   7.469  0.00  0.00    -0.287 OA
ENDROOT
BRANCH   6  13
ATOM     13  C13 <0> d   1      17.946  -2.007  11.855  0.00  0.00     0.296 C 
ATOM     14  O14 <0> d   1      17.002  -1.242  11.857  0.00  0.00    -0.259 OA
BRANCH  13  15
ATOM     15  O15 <0> d   1      19.134  -1.611  12.355  0.00  0.00    -0.316 OA
BRANCH  15  16
ATOM     16  C16 <0> d   1      19.977  -0.805  11.491  0.00  0.00     0.209 C 
BRANCH  16  17
ATOM     17  C17 <0> d   1      20.443   0.440  12.249  0.00  0.00     0.299 C 
BRANCH  17  18
ATOM     18  N18 <0> d   1      19.858   1.637  11.631  0.00  0.00     0.090 N 
ATOM     19  C23 <0> d   1      19.214   1.309  10.352  0.00  0.00     0.272 C 
ATOM     20  C22 <0> d   1      18.745   2.596   9.671  0.00  0.00     0.030 C 
ATOM     21  C21 <0> d   1      17.759   3.325  10.589  0.00  0.00     0.003 C 
ATOM     22  C20 <0> d   1      18.440   3.612  11.930  0.00  0.00     0.030 C 
ATOM     23  C19 <0> d   1      18.916   2.295  12.547  0.00  0.00     0.272 C 
ENDBRANCH  17  18
ENDBRANCH  16  17
ENDBRANCH  15  16
ENDBRANCH  13  15
ENDBRANCH   6  13
BRANCH   3  24
ATOM     24  C4  <0> d   1      18.531  -1.562   6.902  0.00  0.00    -0.002 A 
ATOM     25  C9  <0> d   1      18.067  -0.300   7.280  0.00  0.00     0.014 A 
ATOM     26  C8  <0> d   1      18.328   0.795   6.483  0.00  0.00     0.001 A 
ATOM     27  C7  <0> d   1      19.039   0.643   5.306  0.00  0.00     0.000 A 
ATOM     28  C6  <0> d   1      19.497  -0.605   4.921  0.00  0.00     0.001 A 
ATOM     29  C5  <0> d   1      19.248  -1.707   5.712  0.00  0.00     0.014 A 
ENDBRANCH   3  24
TORSDOF 6
ENDMDL
