MODEL 1
REMARK VINA RESULT:     -10.0      0.000      0.000
REMARK  14 active torsions:
REMARK  status: ('A' for Active; 'I' for Inactive)
REMARK    1  A    between atoms: C2_2  and  N5_5 
REMARK       I    between atoms: N5_5  and  C6_6 
REMARK    2  A    between atoms: C6_6  and  C8_8 
REMARK    3  A    between atoms: N20_17  and  C21_18 
REMARK    4  A    between atoms: C21_18  and  C22_19 
REMARK    5  A    between atoms: C22_19  and  O24_20 
REMARK    6  A    between atoms: C22_19  and  C25_21 
REMARK    7  A    between atoms: C25_21  and  C27_22 
REMARK    8  A    between atoms: C25_21  and  N34_29 
REMARK    9  A    between atoms: C27_22  and  C28_23 
REMARK       I    between atoms: N34_29  and  C35_30 
REMARK   10  A    between atoms: C35_30  and  C37_32 
REMARK   11  A    between atoms: C37_32  and  C39_33 
REMARK   12  A    between atoms: C37_32  and  N43_37 
REMARK   13  A    between atoms: C39_33  and  C40_34 
REMARK       I    between atoms: C40_34  and  N41_35 
REMARK       I    between atoms: N43_37  and  C44_38 
REMARK   14  A    between atoms: C44_38  and  C46_40 
ROOT
ATOM      1  C25 ZIN A   1      18.827  -3.506  10.373  0.00  0.00     0.119 C 
ENDROOT
BRANCH   1   2
ATOM      2  C22 ZIN A   1      19.903  -2.883  11.264  0.00  0.00     0.169 C 
BRANCH   2   3
ATOM      3  C21 ZIN A   1      19.245  -1.940  12.274  0.00  0.00     0.307 C 
BRANCH   3   4
ATOM      4  N20 ZIN A   1      19.531  -0.547  11.903  0.00  0.00     0.105 N 
ATOM      5  C8  ZIN A   1      20.346   0.113  12.929  0.00  0.00     0.314 C 
ATOM      6  C10 ZIN A   1      20.745   1.512  12.450  0.00  0.00     0.050 C 
ATOM      7  C11 ZIN A   1      19.479   2.323  12.170  0.00  0.00    -0.006 C 
ATOM      8  C17 ZIN A   1      18.635   1.590  11.124  0.00  0.00     0.018 C 
ATOM      9  C13 ZIN A   1      19.853   3.708  11.639  0.00  0.00     0.005 C 
ATOM     10  C16 ZIN A   1      17.355   2.383  10.861  0.00  0.00     0.007 C 
ATOM     11  C19 ZIN A   1      18.288   0.195  11.643  0.00  0.00     0.278 C 
ATOM     12  C15 ZIN A   1      17.720   3.774  10.335  0.00  0.00     0.000 C 
ATOM     13  C14 ZIN A   1      18.576   4.507  11.369  0.00  0.00     0.000 C 
BRANCH   5  14
ATOM     14  C6  ZIN A   1      19.552   0.226  14.205  0.00  0.00     0.252 C 
ATOM     15  N5  ZIN A   1      19.183  -0.885  14.870  0.00  0.00    -0.351 N 
ATOM     16  H65 ZIN A   1      19.428  -1.760  14.527  0.00  0.00     0.163 HD
ATOM     17  O7  ZIN A   1      19.247   1.319  14.633  0.00  0.00    -0.271 OA
BRANCH  15  18
ATOM     18  C2  ZIN A   1      18.412  -0.775  16.111  0.00  0.00     0.022 C 
ATOM     19  C1  ZIN A   1      17.868  -2.152  16.497  0.00  0.00     0.037 C 
ATOM     20  C3  ZIN A   1      17.246   0.194  15.902  0.00  0.00     0.037 C 
ATOM     21  C4  ZIN A   1      19.315  -0.252  17.229  0.00  0.00     0.037 C 
ENDBRANCH  15  18
ENDBRANCH   5  14
ENDBRANCH   3   4
ENDBRANCH   2   3
BRANCH   2  22
ATOM     22  O24 ZIN A   1      20.600  -3.916  11.962  0.00  0.00    -0.392 OA
ATOM     23  H80 ZIN A   1      21.545  -3.745  12.076  0.00  0.00     0.210 HD
ENDBRANCH   2  22
ENDBRANCH   1   2
BRANCH   1  24
ATOM     24  C27 ZIN A   1      18.747  -5.009  10.645  0.00  0.00     0.066 C 
BRANCH  24  25
ATOM     25  C28 ZIN A   1      17.737  -5.636   9.718  0.00  0.00    -0.056 A 
ATOM     26  C33 ZIN A   1      16.418  -5.229   9.758  0.00  0.00     0.007 A 
ATOM     27  C32 ZIN A   1      15.492  -5.801   8.905  0.00  0.00     0.001 A 
ATOM     28  C31 ZIN A   1      15.885  -6.787   8.020  0.00  0.00     0.000 A 
ATOM     29  C30 ZIN A   1      17.204  -7.198   7.984  0.00  0.00     0.001 A 
ATOM     30  C29 ZIN A   1      18.130  -6.623   8.833  0.00  0.00     0.007 A 
ENDBRANCH  24  25
ENDBRANCH   1  24
BRANCH   1  31
ATOM     31  N34 ZIN A   1      19.169  -3.282   8.966  0.00  0.00    -0.352 N 
ATOM     32  C35 ZIN A   1      18.481  -2.378   8.241  0.00  0.00     0.241 C 
ATOM     33  O36 ZIN A   1      17.579  -1.749   8.754  0.00  0.00    -0.271 OA
ATOM     34  H88 ZIN A   1      19.890  -3.784   8.556  0.00  0.00     0.163 HD
BRANCH  32  35
ATOM     35  C37 ZIN A   1      18.832  -2.147   6.795  0.00  0.00     0.185 C 
BRANCH  35  36
ATOM     36  C39 ZIN A   1      19.017  -0.649   6.546  0.00  0.00     0.137 C 
BRANCH  36  37
ATOM     37  C40 ZIN A   1      19.516  -0.431   5.140  0.00  0.00     0.217 C 
ATOM     38  N41 ZIN A   1      19.544   0.812   4.621  0.00  0.00    -0.370 N 
ATOM     39  H91 ZIN A   1      19.244   1.567   5.151  0.00  0.00     0.159 HD
ATOM     40  H92 ZIN A   1      19.865   0.952   3.717  0.00  0.00     0.159 HD
ATOM     41  O42 ZIN A   1      19.891  -1.375   4.477  0.00  0.00    -0.274 OA
ENDBRANCH  36  37
ENDBRANCH  35  36
BRANCH  35  42
ATOM     42  N43 ZIN A   1      17.753  -2.655   5.942  0.00  0.00    -0.342 N 
ATOM     43  C44 ZIN A   1      17.836  -3.892   5.415  0.00  0.00     0.271 C 
ATOM     44  O45 ZIN A   1      18.761  -4.620   5.716  0.00  0.00    -0.266 OA
ATOM     45  H93 ZIN A   1      16.980  -2.099   5.758  0.00  0.00     0.163 HD
BRANCH  43  46
ATOM     46  C46 ZIN A   1      16.799  -4.364   4.467  0.00  0.00     0.125 A 
ATOM     47  N55 ZIN A   1      16.001  -5.352   4.823  0.00  0.00    -0.243 NA
ATOM     48  C54 ZIN A   1      15.053  -5.806   4.005  0.00  0.00     0.068 A 
ATOM     49  C49 ZIN A   1      14.893  -5.232   2.717  0.00  0.00    -0.007 A 
ATOM     50  C53 ZIN A   1      14.201  -6.858   4.395  0.00  0.00     0.032 A 
ATOM     51  C48 ZIN A   1      15.743  -4.180   2.324  0.00  0.00     0.016 A 
ATOM     52  C50 ZIN A   1      13.894  -5.720   1.858  0.00  0.00     0.014 A 
ATOM     53  C47 ZIN A   1      16.692  -3.754   3.208  0.00  0.00     0.038 A 
ATOM     54  C51 ZIN A   1      13.091  -6.739   2.272  0.00  0.00     0.001 A 
ATOM     55  C52 ZIN A   1      13.245  -7.305   3.537  0.00  0.00     0.002 A 
ENDBRANCH  43  46
ENDBRANCH  35  42
ENDBRANCH  32  35
ENDBRANCH   1  31
TORSDOF 14
ENDMDL
MODEL 2
REMARK VINA RESULT:      -9.9      1.941     10.821
REMARK  14 active torsions:
REMARK  status: ('A' for Active; 'I' for Inactive)
REMARK    1  A    between atoms: C2_2  and  N5_5 
REMARK       I    between atoms: N5_5  and  C6_6 
REMARK    2  A    between atoms: C6_6  and  C8_8 
REMARK    3  A    between atoms: N20_17  and  C21_18 
REMARK    4  A    between atoms: C21_18  and  C22_19 
REMARK    5  A    between atoms: C22_19  and  O24_20 
REMARK    6  A    between atoms: C22_19  and  C25_21 
REMARK    7  A    between atoms: C25_21  and  C27_22 
REMARK    8  A    between atoms: C25_21  and  N34_29 
REMARK    9  A    between atoms: C27_22  and  C28_23 
REMARK       I    between atoms: N34_29  and  C35_30 
REMARK   10  A    between atoms: C35_30  and  C37_32 
REMARK   11  A    between atoms: C37_32  and  C39_33 
REMARK   12  A    between atoms: C37_32  and  N43_37 
REMARK   13  A    between atoms: C39_33  and  C40_34 
REMARK       I    between atoms: C40_34  and  N41_35 
REMARK       I    between atoms: N43_37  and  C44_38 
REMARK   14  A    between atoms: C44_38  and  C46_40 
ROOT
ATOM      1  C25 ZIN A   1      18.734   0.855   8.587  0.00  0.00     0.119 C 
ENDROOT
BRANCH   1   2
ATOM      2  C22 ZIN A   1      19.220   0.266   7.261  0.00  0.00     0.169 C 
BRANCH   2   3
ATOM      3  C21 ZIN A   1      18.237  -0.806   6.788  0.00  0.00     0.307 C 
BRANCH   3   4
ATOM      4  N20 ZIN A   1      18.645  -2.114   7.317  0.00  0.00     0.105 N 
ATOM      5  C8  ZIN A   1      19.413  -2.868   6.319  0.00  0.00     0.314 C 
ATOM      6  C10 ZIN A   1      19.944  -4.161   6.945  0.00  0.00     0.050 C 
ATOM      7  C11 ZIN A   1      18.763  -4.992   7.450  0.00  0.00    -0.006 C 
ATOM      8  C17 ZIN A   1      17.965  -4.166   8.461  0.00  0.00     0.018 C 
ATOM      9  C13 ZIN A   1      19.273  -6.265   8.127  0.00  0.00     0.005 C 
ATOM     10  C16 ZIN A   1      16.768  -4.982   8.948  0.00  0.00     0.007 C 
ATOM     11  C19 ZIN A   1      17.482  -2.879   7.790  0.00  0.00     0.278 C 
ATOM     12  C15 ZIN A   1      17.268  -6.261   9.622  0.00  0.00     0.000 C 
ATOM     13  C14 ZIN A   1      18.080  -7.086   8.623  0.00  0.00     0.000 C 
BRANCH   5  14
ATOM     14  C6  ZIN A   1      18.523  -3.205   5.150  0.00  0.00     0.252 C 
ATOM     15  N5  ZIN A   1      18.294  -4.492   4.826  0.00  0.00    -0.351 N 
ATOM     16  H65 ZIN A   1      18.703  -5.203   5.345  0.00  0.00     0.163 HD
ATOM     17  O7  ZIN A   1      18.012  -2.316   4.502  0.00  0.00    -0.271 OA
BRANCH  15  18
ATOM     18  C2  ZIN A   1      17.428  -4.819   3.691  0.00  0.00     0.022 C 
ATOM     19  C1  ZIN A   1      18.225  -4.697   2.390  0.00  0.00     0.037 C 
ATOM     20  C3  ZIN A   1      16.244  -3.851   3.657  0.00  0.00     0.037 C 
ATOM     21  C4  ZIN A   1      16.911  -6.252   3.839  0.00  0.00     0.037 C 
ENDBRANCH  15  18
ENDBRANCH   5  14
ENDBRANCH   3   4
ENDBRANCH   2   3
BRANCH   2  22
ATOM     22  O24 ZIN A   1      19.302   1.302   6.281  0.00  0.00    -0.392 OA
ATOM     23  H80 ZIN A   1      18.550   1.330   5.674  0.00  0.00     0.210 HD
ENDBRANCH   2  22
ENDBRANCH   1   2
BRANCH   1  24
ATOM     24  C27 ZIN A   1      19.210   2.304   8.706  0.00  0.00     0.066 C 
BRANCH  24  25
ATOM     25  C28 ZIN A   1      18.877   2.832  10.078  0.00  0.00    -0.056 A 
ATOM     26  C33 ZIN A   1      19.866   2.934  11.037  0.00  0.00     0.007 A 
ATOM     27  C32 ZIN A   1      19.561   3.422  12.295  0.00  0.00     0.001 A 
ATOM     28  C31 ZIN A   1      18.265   3.796  12.595  0.00  0.00     0.000 A 
ATOM     29  C30 ZIN A   1      17.275   3.688  11.638  0.00  0.00     0.001 A 
ATOM     30  C29 ZIN A   1      17.581   3.206  10.379  0.00  0.00     0.007 A 
ENDBRANCH  24  25
ENDBRANCH   1  24
BRANCH   1  31
ATOM     31  N34 ZIN A   1      19.276   0.070   9.698  0.00  0.00    -0.352 N 
ATOM     32  C35 ZIN A   1      18.441  -0.534  10.567  0.00  0.00     0.241 C 
ATOM     33  O36 ZIN A   1      17.241  -0.428  10.428  0.00  0.00    -0.271 OA
ATOM     34  H88 ZIN A   1      20.236  -0.016   9.808  0.00  0.00     0.163 HD
BRANCH  32  35
ATOM     35  C37 ZIN A   1      18.999  -1.342  11.709  0.00  0.00     0.185 C 
BRANCH  35  36
ATOM     36  C39 ZIN A   1      18.599  -2.809  11.541  0.00  0.00     0.137 C 
BRANCH  36  37
ATOM     37  C40 ZIN A   1      19.839  -3.664  11.480  0.00  0.00     0.217 C 
ATOM     38  N41 ZIN A   1      21.049  -3.086  11.355  0.00  0.00    -0.370 N 
ATOM     39  H91 ZIN A   1      21.124  -2.121  11.304  0.00  0.00     0.159 HD
ATOM     40  H92 ZIN A   1      21.847  -3.637  11.315  0.00  0.00     0.159 HD
ATOM     41  O42 ZIN A   1      19.746  -4.872  11.545  0.00  0.00    -0.274 OA
ENDBRANCH  36  37
ENDBRANCH  35  36
BRANCH  35  42
ATOM     42  N43 ZIN A   1      18.465  -0.832  12.975  0.00  0.00    -0.342 N 
ATOM     43  C44 ZIN A   1      19.254  -0.115  13.800  0.00  0.00     0.271 C 
ATOM     44  O45 ZIN A   1      20.380   0.184  13.456  0.00  0.00    -0.266 OA
ATOM     45  H93 ZIN A   1      17.543  -1.011  13.219  0.00  0.00     0.163 HD
BRANCH  43  46
ATOM     46  C46 ZIN A   1      18.748   0.308  15.128  0.00  0.00     0.125 A 
ATOM     47  N55 ZIN A   1      18.984   1.536  15.546  0.00  0.00    -0.243 NA
ATOM     48  C54 ZIN A   1      18.546   1.961  16.730  0.00  0.00     0.068 A 
ATOM     49  C49 ZIN A   1      17.817   1.081  17.573  0.00  0.00    -0.007 A 
ATOM     50  C53 ZIN A   1      18.798   3.275  17.169  0.00  0.00     0.032 A 
ATOM     51  C48 ZIN A   1      17.563  -0.233  17.138  0.00  0.00     0.016 A 
ATOM     52  C50 ZIN A   1      17.363   1.535  18.823  0.00  0.00     0.014 A 
ATOM     53  C47 ZIN A   1      18.034  -0.609  15.913  0.00  0.00     0.038 A 
ATOM     54  C51 ZIN A   1      17.627   2.813  19.210  0.00  0.00     0.001 A 
ATOM     55  C52 ZIN A   1      18.343   3.680  18.385  0.00  0.00     0.002 A 
ENDBRANCH  43  46
ENDBRANCH  35  42
ENDBRANCH  32  35
ENDBRANCH   1  31
TORSDOF 14
ENDMDL
MODEL 3
REMARK VINA RESULT:      -9.5      2.143     10.362
REMARK  14 active torsions:
REMARK  status: ('A' for Active; 'I' for Inactive)
REMARK    1  A    between atoms: C2_2  and  N5_5 
REMARK       I    between atoms: N5_5  and  C6_6 
REMARK    2  A    between atoms: C6_6  and  C8_8 
REMARK    3  A    between atoms: N20_17  and  C21_18 
REMARK    4  A    between atoms: C21_18  and  C22_19 
REMARK    5  A    between atoms: C22_19  and  O24_20 
REMARK    6  A    between atoms: C22_19  and  C25_21 
REMARK    7  A    between atoms: C25_21  and  C27_22 
REMARK    8  A    between atoms: C25_21  and  N34_29 
REMARK    9  A    between atoms: C27_22  and  C28_23 
REMARK       I    between atoms: N34_29  and  C35_30 
REMARK   10  A    between atoms: C35_30  and  C37_32 
REMARK   11  A    between atoms: C37_32  and  C39_33 
REMARK   12  A    between atoms: C37_32  and  N43_37 
REMARK   13  A    between atoms: C39_33  and  C40_34 
REMARK       I    between atoms: C40_34  and  N41_35 
REMARK       I    between atoms: N43_37  and  C44_38 
REMARK   14  A    between atoms: C44_38  and  C46_40 
ROOT
ATOM      1  C25 ZIN A   1      18.093  -2.773   8.274  0.00  0.00     0.119 C 
ENDROOT
BRANCH   1   2
ATOM      2  C22 ZIN A   1      18.125  -4.060   9.100  0.00  0.00     0.169 C 
BRANCH   2   3
ATOM      3  C21 ZIN A   1      18.431  -5.247   8.183  0.00  0.00     0.307 C 
BRANCH   3   4
ATOM      4  N20 ZIN A   1      17.353  -6.239   8.288  0.00  0.00     0.105 N 
ATOM      5  C8  ZIN A   1      17.651  -7.427   7.479  0.00  0.00     0.314 C 
ATOM      6  C10 ZIN A   1      16.582  -8.497   7.721  0.00  0.00     0.050 C 
ATOM      7  C11 ZIN A   1      15.212  -7.927   7.349  0.00  0.00    -0.006 C 
ATOM      8  C17 ZIN A   1      14.949  -6.672   8.184  0.00  0.00     0.018 C 
ATOM      9  C13 ZIN A   1      14.122  -8.962   7.632  0.00  0.00     0.005 C 
ATOM     10  C16 ZIN A   1      13.593  -6.082   7.796  0.00  0.00     0.007 C 
ATOM     11  C19 ZIN A   1      16.057  -5.650   7.923  0.00  0.00     0.278 C 
ATOM     12  C15 ZIN A   1      12.495  -7.113   8.071  0.00  0.00     0.000 C 
ATOM     13  C14 ZIN A   1      12.760  -8.377   7.252  0.00  0.00     0.000 C 
BRANCH   5  14
ATOM     14  C6  ZIN A   1      17.664  -7.050   6.021  0.00  0.00     0.252 C 
ATOM     15  N5  ZIN A   1      16.656  -7.439   5.215  0.00  0.00    -0.351 N 
ATOM     16  H65 ZIN A   1      15.922  -7.963   5.575  0.00  0.00     0.163 HD
ATOM     17  O7  ZIN A   1      18.580  -6.395   5.572  0.00  0.00    -0.271 OA
BRANCH  15  18
ATOM     18  C2  ZIN A   1      16.667  -7.072   3.797  0.00  0.00     0.022 C 
ATOM     19  C1  ZIN A   1      15.333  -7.463   3.159  0.00  0.00     0.037 C 
ATOM     20  C3  ZIN A   1      17.807  -7.808   3.089  0.00  0.00     0.037 C 
ATOM     21  C4  ZIN A   1      16.875  -5.562   3.662  0.00  0.00     0.037 C 
ENDBRANCH  15  18
ENDBRANCH   5  14
ENDBRANCH   3   4
ENDBRANCH   2   3
BRANCH   2  22
ATOM     22  O24 ZIN A   1      19.140  -3.960  10.101  0.00  0.00    -0.392 OA
ATOM     23  H80 ZIN A   1      19.843  -3.331   9.887  0.00  0.00     0.210 HD
ENDBRANCH   2  22
ENDBRANCH   1   2
BRANCH   1  24
ATOM     24  C27 ZIN A   1      19.244  -2.785   7.267  0.00  0.00     0.066 C 
BRANCH  24  25
ATOM     25  C28 ZIN A   1      18.873  -1.948   6.069  0.00  0.00    -0.056 A 
ATOM     26  C33 ZIN A   1      17.879  -2.376   5.209  0.00  0.00     0.007 A 
ATOM     27  C32 ZIN A   1      17.536  -1.606   4.112  0.00  0.00     0.001 A 
ATOM     28  C31 ZIN A   1      18.194  -0.415   3.871  0.00  0.00     0.000 A 
ATOM     29  C30 ZIN A   1      19.192   0.009   4.728  0.00  0.00     0.001 A 
ATOM     30  C29 ZIN A   1      19.532  -0.757   5.827  0.00  0.00     0.007 A 
ENDBRANCH  24  25
ENDBRANCH   1  24
BRANCH   1  31
ATOM     31  N34 ZIN A   1      18.236  -1.619   9.165  0.00  0.00    -0.352 N 
ATOM     32  C35 ZIN A   1      17.541  -0.490   8.921  0.00  0.00     0.241 C 
ATOM     33  O36 ZIN A   1      16.797  -0.430   7.965  0.00  0.00    -0.271 OA
ATOM     34  H88 ZIN A   1      18.830  -1.667   9.930  0.00  0.00     0.163 HD
BRANCH  32  35
ATOM     35  C37 ZIN A   1      17.687   0.697   9.837  0.00  0.00     0.185 C 
BRANCH  35  36
ATOM     36  C39 ZIN A   1      18.646   1.712   9.211  0.00  0.00     0.137 C 
BRANCH  36  37
ATOM     37  C40 ZIN A   1      18.829   2.876  10.150  0.00  0.00     0.217 C 
ATOM     38  N41 ZIN A   1      18.012   3.945  10.064  0.00  0.00    -0.370 N 
ATOM     39  H91 ZIN A   1      17.307   3.965   9.399  0.00  0.00     0.159 HD
ATOM     40  H92 ZIN A   1      18.131   4.694  10.669  0.00  0.00     0.159 HD
ATOM     41  O42 ZIN A   1      19.710   2.850  10.983  0.00  0.00    -0.274 OA
ENDBRANCH  36  37
ENDBRANCH  35  36
BRANCH  35  42
ATOM     42  N43 ZIN A   1      18.221   0.254  11.129  0.00  0.00    -0.342 N 
ATOM     43  C44 ZIN A   1      17.388   0.051  12.169  0.00  0.00     0.271 C 
ATOM     44  O45 ZIN A   1      16.187   0.149  12.013  0.00  0.00    -0.266 OA
ATOM     45  H93 ZIN A   1      19.174   0.108  11.235  0.00  0.00     0.163 HD
BRANCH  43  46
ATOM     46  C46 ZIN A   1      17.937  -0.290  13.502  0.00  0.00     0.125 A 
ATOM     47  N55 ZIN A   1      17.534   0.389  14.559  0.00  0.00    -0.243 NA
ATOM     48  C54 ZIN A   1      17.997   0.115  15.777  0.00  0.00     0.068 A 
ATOM     49  C49 ZIN A   1      18.952  -0.920  15.955  0.00  0.00    -0.007 A 
ATOM     50  C53 ZIN A   1      17.558   0.841  16.902  0.00  0.00     0.032 A 
ATOM     51  C48 ZIN A   1      19.393  -1.648  14.834  0.00  0.00     0.016 A 
ATOM     52  C50 ZIN A   1      19.440  -1.200  17.243  0.00  0.00     0.014 A 
ATOM     53  C47 ZIN A   1      18.878  -1.324  13.612  0.00  0.00     0.038 A 
ATOM     54  C51 ZIN A   1      18.990  -0.475  18.304  0.00  0.00     0.001 A 
ATOM     55  C52 ZIN A   1      18.052   0.542  18.133  0.00  0.00     0.002 A 
ENDBRANCH  43  46
ENDBRANCH  35  42
ENDBRANCH  32  35
ENDBRANCH   1  31
TORSDOF 14
ENDMDL
MODEL 4
REMARK VINA RESULT:      -9.5      3.425      5.929
REMARK  14 active torsions:
REMARK  status: ('A' for Active; 'I' for Inactive)
REMARK    1  A    between atoms: C2_2  and  N5_5 
REMARK       I    between atoms: N5_5  and  C6_6 
REMARK    2  A    between atoms: C6_6  and  C8_8 
REMARK    3  A    between atoms: N20_17  and  C21_18 
REMARK    4  A    between atoms: C21_18  and  C22_19 
REMARK    5  A    between atoms: C22_19  and  O24_20 
REMARK    6  A    between atoms: C22_19  and  C25_21 
REMARK    7  A    between atoms: C25_21  and  C27_22 
REMARK    8  A    between atoms: C25_21  and  N34_29 
REMARK    9  A    between atoms: C27_22  and  C28_23 
REMARK       I    between atoms: N34_29  and  C35_30 
REMARK   10  A    between atoms: C35_30  and  C37_32 
REMARK   11  A    between atoms: C37_32  and  C39_33 
REMARK   12  A    between atoms: C37_32  and  N43_37 
REMARK   13  A    between atoms: C39_33  and  C40_34 
REMARK       I    between atoms: C40_34  and  N41_35 
REMARK       I    between atoms: N43_37  and  C44_38 
REMARK   14  A    between atoms: C44_38  and  C46_40 
ROOT
ATOM      1  C25 ZIN A   1      18.939  -0.200  14.301  0.00  0.00     0.119 C 
ENDROOT
BRANCH   1   2
ATOM      2  C22 ZIN A   1      19.298   0.363  15.677  0.00  0.00     0.169 C 
BRANCH   2   3
ATOM      3  C21 ZIN A   1      18.228   1.367  16.112  0.00  0.00     0.307 C 
BRANCH   3   4
ATOM      4  N20 ZIN A   1      18.607   2.713  15.664  0.00  0.00     0.105 N 
ATOM      5  C8  ZIN A   1      19.461   3.377  16.656  0.00  0.00     0.314 C 
ATOM      6  C10 ZIN A   1      19.954   4.716  16.101  0.00  0.00     0.050 C 
ATOM      7  C11 ZIN A   1      18.746   5.592  15.764  0.00  0.00    -0.006 C 
ATOM      8  C17 ZIN A   1      17.860   4.857  14.755  0.00  0.00     0.018 C 
ATOM      9  C13 ZIN A   1      19.213   6.916  15.158  0.00  0.00     0.005 C 
ATOM     10  C16 ZIN A   1      16.636   5.717  14.437  0.00  0.00     0.007 C 
ATOM     11  C19 ZIN A   1      17.418   3.520  15.352  0.00  0.00     0.278 C 
ATOM     12  C15 ZIN A   1      17.095   7.047  13.835  0.00  0.00     0.000 C 
ATOM     13  C14 ZIN A   1      17.994   7.780  14.831  0.00  0.00     0.000 C 
BRANCH   5  14
ATOM     14  C6  ZIN A   1      18.672   3.617  17.917  0.00  0.00     0.252 C 
ATOM     15  N5  ZIN A   1      17.557   4.373  17.881  0.00  0.00    -0.351 N 
ATOM     16  H65 ZIN A   1      17.263   4.764  17.043  0.00  0.00     0.163 HD
ATOM     17  O7  ZIN A   1      19.038   3.128  18.964  0.00  0.00    -0.271 OA
BRANCH  15  18
ATOM     18  C2  ZIN A   1      16.789   4.605  19.106  0.00  0.00     0.022 C 
ATOM     19  C1  ZIN A   1      17.649   5.380  20.108  0.00  0.00     0.037 C 
ATOM     20  C3  ZIN A   1      16.381   3.262  19.715  0.00  0.00     0.037 C 
ATOM     21  C4  ZIN A   1      15.535   5.417  18.776  0.00  0.00     0.037 C 
ENDBRANCH  15  18
ENDBRANCH   5  14
ENDBRANCH   3   4
ENDBRANCH   2   3
BRANCH   2  22
ATOM     22  O24 ZIN A   1      19.364  -0.703  16.626  0.00  0.00    -0.392 OA
ATOM     23  H80 ZIN A   1      18.985  -0.486  17.489  0.00  0.00     0.210 HD
ENDBRANCH   2  22
ENDBRANCH   1   2
BRANCH   1  24
ATOM     24  C27 ZIN A   1      19.382  -1.662  14.218  0.00  0.00     0.066 C 
BRANCH  24  25
ATOM     25  C28 ZIN A   1      19.006  -2.226  12.871  0.00  0.00    -0.056 A 
ATOM     26  C33 ZIN A   1      17.760  -1.961  12.335  0.00  0.00     0.007 A 
ATOM     27  C32 ZIN A   1      17.416  -2.475  11.098  0.00  0.00     0.001 A 
ATOM     28  C31 ZIN A   1      18.315  -3.262  10.403  0.00  0.00     0.000 A 
ATOM     29  C30 ZIN A   1      19.559  -3.531  10.942  0.00  0.00     0.001 A 
ATOM     30  C29 ZIN A   1      19.904  -3.013  12.176  0.00  0.00     0.007 A 
ENDBRANCH  24  25
ENDBRANCH   1  24
BRANCH   1  31
ATOM     31  N34 ZIN A   1      19.622   0.576  13.263  0.00  0.00    -0.352 N 
ATOM     32  C35 ZIN A   1      18.918   1.415  12.477  0.00  0.00     0.241 C 
ATOM     33  O36 ZIN A   1      17.720   1.528  12.631  0.00  0.00    -0.271 OA
ATOM     34  H88 ZIN A   1      20.580   0.486  13.141  0.00  0.00     0.163 HD
BRANCH  32  35
ATOM     35  C37 ZIN A   1      19.619   2.214  11.410  0.00  0.00     0.185 C 
BRANCH  35  36
ATOM     36  C39 ZIN A   1      19.257   3.693  11.557  0.00  0.00     0.137 C 
BRANCH  36  37
ATOM     37  C40 ZIN A   1      18.075   4.011  10.677  0.00  0.00     0.217 C 
ATOM     38  N41 ZIN A   1      16.843   4.105  11.214  0.00  0.00    -0.370 N 
ATOM     39  H91 ZIN A   1      16.715   3.969  12.165  0.00  0.00     0.159 HD
ATOM     40  H92 ZIN A   1      16.082   4.309  10.647  0.00  0.00     0.159 HD
ATOM     41  O42 ZIN A   1      18.234   4.182   9.487  0.00  0.00    -0.274 OA
ENDBRANCH  36  37
ENDBRANCH  35  36
BRANCH  35  42
ATOM     42  N43 ZIN A   1      19.201   1.738  10.089  0.00  0.00    -0.342 N 
ATOM     43  C44 ZIN A   1      19.659   0.561   9.619  0.00  0.00     0.271 C 
ATOM     44  O45 ZIN A   1      20.349  -0.147  10.325  0.00  0.00    -0.266 OA
ATOM     45  H93 ZIN A   1      18.593   2.272   9.552  0.00  0.00     0.163 HD
BRANCH  43  46
ATOM     46  C46 ZIN A   1      19.324   0.132   8.241  0.00  0.00     0.125 A 
ATOM     47  N55 ZIN A   1      19.444  -1.141   7.915  0.00  0.00    -0.243 NA
ATOM     48  C54 ZIN A   1      19.150  -1.573   6.690  0.00  0.00     0.068 A 
ATOM     49  C49 ZIN A   1      18.707  -0.655   5.702  0.00  0.00    -0.007 A 
ATOM     50  C53 ZIN A   1      19.275  -2.934   6.350  0.00  0.00     0.032 A 
ATOM     51  C48 ZIN A   1      18.579   0.706   6.037  0.00  0.00     0.016 A 
ATOM     52  C50 ZIN A   1      18.403  -1.118   4.411  0.00  0.00     0.014 A 
ATOM     53  C47 ZIN A   1      18.891   1.088   7.311  0.00  0.00     0.038 A 
ATOM     54  C51 ZIN A   1      18.538  -2.442   4.122  0.00  0.00     0.001 A 
ATOM     55  C52 ZIN A   1      18.973  -3.346   5.090  0.00  0.00     0.002 A 
ENDBRANCH  43  46
ENDBRANCH  35  42
ENDBRANCH  32  35
ENDBRANCH   1  31
TORSDOF 14
ENDMDL
MODEL 5
REMARK VINA RESULT:      -9.4      3.782      7.421
REMARK  14 active torsions:
REMARK  status: ('A' for Active; 'I' for Inactive)
REMARK    1  A    between atoms: C2_2  and  N5_5 
REMARK       I    between atoms: N5_5  and  C6_6 
REMARK    2  A    between atoms: C6_6  and  C8_8 
REMARK    3  A    between atoms: N20_17  and  C21_18 
REMARK    4  A    between atoms: C21_18  and  C22_19 
REMARK    5  A    between atoms: C22_19  and  O24_20 
REMARK    6  A    between atoms: C22_19  and  C25_21 
REMARK    7  A    between atoms: C25_21  and  C27_22 
REMARK    8  A    between atoms: C25_21  and  N34_29 
REMARK    9  A    between atoms: C27_22  and  C28_23 
REMARK       I    between atoms: N34_29  and  C35_30 
REMARK   10  A    between atoms: C35_30  and  C37_32 
REMARK   11  A    between atoms: C37_32  and  C39_33 
REMARK   12  A    between atoms: C37_32  and  N43_37 
REMARK   13  A    between atoms: C39_33  and  C40_34 
REMARK       I    between atoms: C40_34  and  N41_35 
REMARK       I    between atoms: N43_37  and  C44_38 
REMARK   14  A    between atoms: C44_38  and  C46_40 
ROOT
ATOM      1  C25 ZIN A   1      18.331   2.715  11.936  0.00  0.00     0.119 C 
ENDROOT
BRANCH   1   2
ATOM      2  C22 ZIN A   1      17.643   3.902  12.612  0.00  0.00     0.169 C 
BRANCH   2   3
ATOM      3  C21 ZIN A   1      18.411   4.282  13.880  0.00  0.00     0.307 C 
BRANCH   3   4
ATOM      4  N20 ZIN A   1      17.857   5.524  14.435  0.00  0.00     0.105 N 
ATOM      5  C8  ZIN A   1      18.563   5.912  15.662  0.00  0.00     0.314 C 
ATOM      6  C10 ZIN A   1      18.060   7.279  16.137  0.00  0.00     0.050 C 
ATOM      7  C11 ZIN A   1      16.553   7.196  16.390  0.00  0.00    -0.006 C 
ATOM      8  C17 ZIN A   1      15.853   6.756  15.102  0.00  0.00     0.018 C 
ATOM      9  C13 ZIN A   1      16.020   8.565  16.814  0.00  0.00     0.005 C 
ATOM     10  C16 ZIN A   1      14.350   6.645  15.358  0.00  0.00     0.007 C 
ATOM     11  C19 ZIN A   1      16.410   5.401  14.663  0.00  0.00     0.278 C 
ATOM     12  C15 ZIN A   1      13.807   8.010  15.789  0.00  0.00     0.000 C 
ATOM     13  C14 ZIN A   1      14.514   8.464  17.067  0.00  0.00     0.000 C 
BRANCH   5  14
ATOM     14  C6  ZIN A   1      18.308   4.884  16.734  0.00  0.00     0.252 C 
ATOM     15  N5  ZIN A   1      18.126   5.272  18.011  0.00  0.00    -0.351 N 
ATOM     16  H65 ZIN A   1      18.160   6.215  18.241  0.00  0.00     0.163 HD
ATOM     17  O7  ZIN A   1      18.265   3.707  16.446  0.00  0.00    -0.271 OA
BRANCH  15  18
ATOM     18  C2  ZIN A   1      17.877   4.273  19.053  0.00  0.00     0.022 C 
ATOM     19  C1  ZIN A   1      18.027   4.923  20.430  0.00  0.00     0.037 C 
ATOM     20  C3  ZIN A   1      18.887   3.130  18.915  0.00  0.00     0.037 C 
ATOM     21  C4  ZIN A   1      16.458   3.720  18.902  0.00  0.00     0.037 C 
ENDBRANCH  15  18
ENDBRANCH   5  14
ENDBRANCH   3   4
ENDBRANCH   2   3
BRANCH   2  22
ATOM     22  O24 ZIN A   1      17.624   5.016  11.717  0.00  0.00    -0.392 OA
ATOM     23  H80 ZIN A   1      16.934   4.966  11.041  0.00  0.00     0.210 HD
ENDBRANCH   2  22
ENDBRANCH   1   2
BRANCH   1  24
ATOM     24  C27 ZIN A   1      18.043   2.747  10.434  0.00  0.00     0.066 C 
BRANCH  24  25
ATOM     25  C28 ZIN A   1      18.451   1.435   9.815  0.00  0.00    -0.056 A 
ATOM     26  C33 ZIN A   1      19.738   0.961   9.987  0.00  0.00     0.007 A 
ATOM     27  C32 ZIN A   1      20.112  -0.245   9.423  0.00  0.00     0.001 A 
ATOM     28  C31 ZIN A   1      19.201  -0.971   8.678  0.00  0.00     0.000 A 
ATOM     29  C30 ZIN A   1      17.916  -0.494   8.501  0.00  0.00     0.001 A 
ATOM     30  C29 ZIN A   1      17.541   0.709   9.070  0.00  0.00     0.007 A 
ENDBRANCH  24  25
ENDBRANCH   1  24
BRANCH   1  31
ATOM     31  N34 ZIN A   1      17.821   1.466  12.505  0.00  0.00    -0.352 N 
ATOM     32  C35 ZIN A   1      18.599   0.731  13.324  0.00  0.00     0.241 C 
ATOM     33  O36 ZIN A   1      19.722   1.105  13.590  0.00  0.00    -0.271 OA
ATOM     34  H88 ZIN A   1      16.922   1.168  12.293  0.00  0.00     0.163 HD
BRANCH  32  35
ATOM     35  C37 ZIN A   1      18.074  -0.553  13.909  0.00  0.00     0.185 C 
BRANCH  35  36
ATOM     36  C39 ZIN A   1      18.681  -0.769  15.297  0.00  0.00     0.137 C 
BRANCH  36  37
ATOM     37  C40 ZIN A   1      17.647  -0.465  16.351  0.00  0.00     0.217 C 
ATOM     38  N41 ZIN A   1      17.330   0.814  16.634  0.00  0.00    -0.370 N 
ATOM     39  H91 ZIN A   1      17.767   1.539  16.161  0.00  0.00     0.159 HD
ATOM     40  H92 ZIN A   1      16.665   1.009  17.312  0.00  0.00     0.159 HD
ATOM     41  O42 ZIN A   1      17.100  -1.371  16.942  0.00  0.00    -0.274 OA
ENDBRANCH  36  37
ENDBRANCH  35  36
BRANCH  35  42
ATOM     42  N43 ZIN A   1      18.439  -1.674  13.037  0.00  0.00    -0.342 N 
ATOM     43  C44 ZIN A   1      17.654  -1.998  11.991  0.00  0.00     0.271 C 
ATOM     44  O45 ZIN A   1      16.692  -1.308  11.718  0.00  0.00    -0.266 OA
ATOM     45  H93 ZIN A   1      19.246  -2.182  13.215  0.00  0.00     0.163 HD
BRANCH  43  46
ATOM     46  C46 ZIN A   1      17.964  -3.196  11.175  0.00  0.00     0.125 A 
ATOM     47  N55 ZIN A   1      16.999  -3.772  10.483  0.00  0.00    -0.243 NA
ATOM     48  C54 ZIN A   1      17.232  -4.848   9.734  0.00  0.00     0.068 A 
ATOM     49  C49 ZIN A   1      18.537  -5.402   9.676  0.00  0.00    -0.007 A 
ATOM     50  C53 ZIN A   1      16.198  -5.455   8.994  0.00  0.00     0.032 A 
ATOM     51  C48 ZIN A   1      19.573  -4.798  10.414  0.00  0.00     0.016 A 
ATOM     52  C50 ZIN A   1      18.774  -6.540   8.886  0.00  0.00     0.014 A 
ATOM     53  C47 ZIN A   1      19.274  -3.695  11.160  0.00  0.00     0.038 A 
ATOM     54  C51 ZIN A   1      17.748  -7.097   8.186  0.00  0.00     0.001 A 
ATOM     55  C52 ZIN A   1      16.464  -6.555   8.240  0.00  0.00     0.002 A 
ENDBRANCH  43  46
ENDBRANCH  35  42
ENDBRANCH  32  35
ENDBRANCH   1  31
TORSDOF 14
ENDMDL
MODEL 6
REMARK VINA RESULT:      -9.4      3.116     10.605
REMARK  14 active torsions:
REMARK  status: ('A' for Active; 'I' for Inactive)
REMARK    1  A    between atoms: C2_2  and  N5_5 
REMARK       I    between atoms: N5_5  and  C6_6 
REMARK    2  A    between atoms: C6_6  and  C8_8 
REMARK    3  A    between atoms: N20_17  and  C21_18 
REMARK    4  A    between atoms: C21_18  and  C22_19 
REMARK    5  A    between atoms: C22_19  and  O24_20 
REMARK    6  A    between atoms: C22_19  and  C25_21 
REMARK    7  A    between atoms: C25_21  and  C27_22 
REMARK    8  A    between atoms: C25_21  and  N34_29 
REMARK    9  A    between atoms: C27_22  and  C28_23 
REMARK       I    between atoms: N34_29  and  C35_30 
REMARK   10  A    between atoms: C35_30  and  C37_32 
REMARK   11  A    between atoms: C37_32  and  C39_33 
REMARK   12  A    between atoms: C37_32  and  N43_37 
REMARK   13  A    between atoms: C39_33  and  C40_34 
REMARK       I    between atoms: C40_34  and  N41_35 
REMARK       I    between atoms: N43_37  and  C44_38 
REMARK   14  A    between atoms: C44_38  and  C46_40 
ROOT
ATOM      1  C25 ZIN A   1      19.253  -1.123  12.851  0.00  0.00     0.119 C 
ENDROOT
BRANCH   1   2
ATOM      2  C22 ZIN A   1      19.650  -2.086  11.731  0.00  0.00     0.169 C 
BRANCH   2   3
ATOM      3  C21 ZIN A   1      18.629  -1.994  10.594  0.00  0.00     0.307 C 
BRANCH   3   4
ATOM      4  N20 ZIN A   1      18.619  -3.256   9.841  0.00  0.00     0.105 N 
ATOM      5  C8  ZIN A   1      19.333  -3.114   8.567  0.00  0.00     0.314 C 
ATOM      6  C10 ZIN A   1      19.427  -4.476   7.873  0.00  0.00     0.050 C 
ATOM      7  C11 ZIN A   1      18.015  -5.015   7.638  0.00  0.00    -0.006 C 
ATOM      8  C17 ZIN A   1      17.287  -5.117   8.980  0.00  0.00     0.018 C 
ATOM      9  C13 ZIN A   1      18.086  -6.399   6.993  0.00  0.00     0.005 C 
ATOM     10  C16 ZIN A   1      15.866  -5.629   8.747  0.00  0.00     0.007 C 
ATOM     11  C19 ZIN A   1      17.245  -3.737   9.637  0.00  0.00     0.278 C 
ATOM     12  C15 ZIN A   1      15.926  -7.013   8.096  0.00  0.00     0.000 C 
ATOM     13  C14 ZIN A   1      16.666  -6.921   6.760  0.00  0.00     0.000 C 
BRANCH   5  14
ATOM     14  C6  ZIN A   1      18.589  -2.149   7.680  0.00  0.00     0.252 C 
ATOM     15  N5  ZIN A   1      19.018  -1.920   6.424  0.00  0.00    -0.351 N 
ATOM     16  H65 ZIN A   1      19.807  -2.377   6.090  0.00  0.00     0.163 HD
ATOM     17  O7  ZIN A   1      17.603  -1.580   8.097  0.00  0.00    -0.271 OA
BRANCH  15  18
ATOM     18  C2  ZIN A   1      18.295  -0.983   5.561  0.00  0.00     0.022 C 
ATOM     19  C1  ZIN A   1      17.419  -1.766   4.579  0.00  0.00     0.037 C 
ATOM     20  C3  ZIN A   1      19.297  -0.129   4.782  0.00  0.00     0.037 C 
ATOM     21  C4  ZIN A   1      17.411  -0.076   6.420  0.00  0.00     0.037 C 
ENDBRANCH  15  18
ENDBRANCH   5  14
ENDBRANCH   3   4
ENDBRANCH   2   3
BRANCH   2  22
ATOM     22  O24 ZIN A   1      20.944  -1.735  11.237  0.00  0.00    -0.392 OA
ATOM     23  H80 ZIN A   1      20.928  -1.122  10.490  0.00  0.00     0.210 HD
ENDBRANCH   2  22
ENDBRANCH   1   2
BRANCH   1  24
ATOM     24  C27 ZIN A   1      18.348  -1.848  13.849  0.00  0.00     0.066 C 
BRANCH  24  25
ATOM     25  C28 ZIN A   1      18.395  -1.138  15.178  0.00  0.00    -0.056 A 
ATOM     26  C33 ZIN A   1      19.202  -1.620  16.190  0.00  0.00     0.007 A 
ATOM     27  C32 ZIN A   1      19.248  -0.967  17.408  0.00  0.00     0.001 A 
ATOM     28  C31 ZIN A   1      18.478   0.162  17.616  0.00  0.00     0.000 A 
ATOM     29  C30 ZIN A   1      17.666   0.641  16.605  0.00  0.00     0.001 A 
ATOM     30  C29 ZIN A   1      17.624  -0.009  15.386  0.00  0.00     0.007 A 
ENDBRANCH  24  25
ENDBRANCH   1  24
BRANCH   1  31
ATOM     31  N34 ZIN A   1      18.535   0.019  12.281  0.00  0.00    -0.352 N 
ATOM     32  C35 ZIN A   1      19.197   1.160  12.001  0.00  0.00     0.241 C 
ATOM     33  O36 ZIN A   1      20.387   1.239  12.221  0.00  0.00    -0.271 OA
ATOM     34  H88 ZIN A   1      17.583  -0.045  12.104  0.00  0.00     0.163 HD
BRANCH  32  35
ATOM     35  C37 ZIN A   1      18.459   2.334  11.414  0.00  0.00     0.185 C 
BRANCH  35  36
ATOM     36  C39 ZIN A   1      19.339   3.020  10.368  0.00  0.00     0.137 C 
BRANCH  36  37
ATOM     37  C40 ZIN A   1      19.312   2.223   9.088  0.00  0.00     0.217 C 
ATOM     38  N41 ZIN A   1      19.920   1.022   9.031  0.00  0.00    -0.370 N 
ATOM     39  H91 ZIN A   1      20.374   0.669   9.812  0.00  0.00     0.159 HD
ATOM     40  H92 ZIN A   1      19.902   0.510   8.207  0.00  0.00     0.159 HD
ATOM     41  O42 ZIN A   1      18.744   2.664   8.112  0.00  0.00    -0.274 OA
ENDBRANCH  36  37
ENDBRANCH  35  36
BRANCH  35  42
ATOM     42  N43 ZIN A   1      18.132   3.288  12.478  0.00  0.00    -0.342 N 
ATOM     43  C44 ZIN A   1      17.191   4.230  12.274  0.00  0.00     0.271 C 
ATOM     44  O45 ZIN A   1      16.551   4.235  11.241  0.00  0.00    -0.266 OA
ATOM     45  H93 ZIN A   1      18.595   3.240  13.330  0.00  0.00     0.163 HD
BRANCH  43  46
ATOM     46  C46 ZIN A   1      16.937   5.261  13.308  0.00  0.00     0.125 A 
ATOM     47  N55 ZIN A   1      15.695   5.523  13.666  0.00  0.00    -0.243 NA
ATOM     48  C54 ZIN A   1      15.420   6.438  14.594  0.00  0.00     0.068 A 
ATOM     49  C49 ZIN A   1      16.474   7.161  15.211  0.00  0.00    -0.007 A 
ATOM     50  C53 ZIN A   1      14.091   6.709  14.975  0.00  0.00     0.032 A 
ATOM     51  C48 ZIN A   1      17.803   6.893  14.833  0.00  0.00     0.016 A 
ATOM     52  C50 ZIN A   1      16.175   8.128  16.185  0.00  0.00     0.014 A 
ATOM     53  C47 ZIN A   1      18.023   5.940  13.880  0.00  0.00     0.038 A 
ATOM     54  C51 ZIN A   1      14.877   8.361  16.525  0.00  0.00     0.001 A 
ATOM     55  C52 ZIN A   1      13.839   7.652  15.922  0.00  0.00     0.002 A 
ENDBRANCH  43  46
ENDBRANCH  35  42
ENDBRANCH  32  35
ENDBRANCH   1  31
TORSDOF 14
ENDMDL
MODEL 7
REMARK VINA RESULT:      -9.3      2.017      5.115
REMARK  14 active torsions:
REMARK  status: ('A' for Active; 'I' for Inactive)
REMARK    1  A    between atoms: C2_2  and  N5_5 
REMARK       I    between atoms: N5_5  and  C6_6 
REMARK    2  A    between atoms: C6_6  and  C8_8 
REMARK    3  A    between atoms: N20_17  and  C21_18 
REMARK    4  A    between atoms: C21_18  and  C22_19 
REMARK    5  A    between atoms: C22_19  and  O24_20 
REMARK    6  A    between atoms: C22_19  and  C25_21 
REMARK    7  A    between atoms: C25_21  and  C27_22 
REMARK    8  A    between atoms: C25_21  and  N34_29 
REMARK    9  A    between atoms: C27_22  and  C28_23 
REMARK       I    between atoms: N34_29  and  C35_30 
REMARK   10  A    between atoms: C35_30  and  C37_32 
REMARK   11  A    between atoms: C37_32  and  C39_33 
REMARK   12  A    between atoms: C37_32  and  N43_37 
REMARK   13  A    between atoms: C39_33  and  C40_34 
REMARK       I    between atoms: C40_34  and  N41_35 
REMARK       I    between atoms: N43_37  and  C44_38 
REMARK   14  A    between atoms: C44_38  and  C46_40 
ROOT
ATOM      1  C25 ZIN A   1      18.532  -0.749   6.820  0.00  0.00     0.119 C 
ENDROOT
BRANCH   1   2
ATOM      2  C22 ZIN A   1      18.496   0.543   7.638  0.00  0.00     0.169 C 
BRANCH   2   3
ATOM      3  C21 ZIN A   1      19.541   0.471   8.753  0.00  0.00     0.307 C 
BRANCH   3   4
ATOM      4  N20 ZIN A   1      18.891   0.078  10.010  0.00  0.00     0.105 N 
ATOM      5  C8  ZIN A   1      17.663   0.851  10.231  0.00  0.00     0.314 C 
ATOM      6  C10 ZIN A   1      16.937   0.322  11.471  0.00  0.00     0.050 C 
ATOM      7  C11 ZIN A   1      17.866   0.437  12.681  0.00  0.00    -0.006 C 
ATOM      8  C17 ZIN A   1      19.149  -0.350  12.404  0.00  0.00     0.018 C 
ATOM      9  C13 ZIN A   1      17.179  -0.134  13.922  0.00  0.00     0.005 C 
ATOM     10  C16 ZIN A   1      20.092  -0.215  13.599  0.00  0.00     0.007 C 
ATOM     11  C19 ZIN A   1      19.817   0.203  11.145  0.00  0.00     0.278 C 
ATOM     12  C15 ZIN A   1      19.411  -0.779  14.848  0.00  0.00     0.000 C 
ATOM     13  C14 ZIN A   1      18.119  -0.008  15.123  0.00  0.00     0.000 C 
BRANCH   5  14
ATOM     14  C6  ZIN A   1      18.014   2.302  10.435  0.00  0.00     0.252 C 
ATOM     15  N5  ZIN A   1      17.401   3.014  11.400  0.00  0.00    -0.351 N 
ATOM     16  H65 ZIN A   1      16.733   2.593  11.964  0.00  0.00     0.163 HD
ATOM     17  O7  ZIN A   1      18.850   2.828   9.732  0.00  0.00    -0.271 OA
BRANCH  15  18
ATOM     18  C2  ZIN A   1      17.743   4.425  11.600  0.00  0.00     0.022 C 
ATOM     19  C1  ZIN A   1      19.186   4.535  12.096  0.00  0.00     0.037 C 
ATOM     20  C3  ZIN A   1      16.798   5.037  12.637  0.00  0.00     0.037 C 
ATOM     21  C4  ZIN A   1      17.600   5.177  10.275  0.00  0.00     0.037 C 
ENDBRANCH  15  18
ENDBRANCH   5  14
ENDBRANCH   3   4
ENDBRANCH   2   3
BRANCH   2  22
ATOM     22  O24 ZIN A   1      18.785   1.654   6.787  0.00  0.00    -0.392 OA
ATOM     23  H80 ZIN A   1      19.703   1.954   6.829  0.00  0.00     0.210 HD
ENDBRANCH   2  22
ENDBRANCH   1   2
BRANCH   1  24
ATOM     24  C27 ZIN A   1      17.855  -0.516   5.468  0.00  0.00     0.066 C 
BRANCH  24  25
ATOM     25  C28 ZIN A   1      17.746  -1.824   4.728  0.00  0.00    -0.056 A 
ATOM     26  C33 ZIN A   1      16.517  -2.257   4.269  0.00  0.00     0.007 A 
ATOM     27  C32 ZIN A   1      16.418  -3.456   3.586  0.00  0.00     0.001 A 
ATOM     28  C31 ZIN A   1      17.546  -4.225   3.373  0.00  0.00     0.000 A 
ATOM     29  C30 ZIN A   1      18.774  -3.795   3.837  0.00  0.00     0.001 A 
ATOM     30  C29 ZIN A   1      18.874  -2.594   4.515  0.00  0.00     0.007 A 
ENDBRANCH  24  25
ENDBRANCH   1  24
BRANCH   1  31
ATOM     31  N34 ZIN A   1      17.822  -1.805   7.546  0.00  0.00    -0.352 N 
ATOM     32  C35 ZIN A   1      18.495  -2.884   7.994  0.00  0.00     0.241 C 
ATOM     33  O36 ZIN A   1      19.688  -2.979   7.798  0.00  0.00    -0.271 OA
ATOM     34  H88 ZIN A   1      16.868  -1.729   7.703  0.00  0.00     0.163 HD
BRANCH  32  35
ATOM     35  C37 ZIN A   1      17.765  -3.969   8.740  0.00  0.00     0.185 C 
BRANCH  35  36
ATOM     36  C39 ZIN A   1      18.777  -4.954   9.330  0.00  0.00     0.137 C 
BRANCH  36  37
ATOM     37  C40 ZIN A   1      19.157  -4.511  10.721  0.00  0.00     0.217 C 
ATOM     38  N41 ZIN A   1      20.221  -3.706  10.904  0.00  0.00    -0.370 N 
ATOM     39  H91 ZIN A   1      20.743  -3.410  10.142  0.00  0.00     0.159 HD
ATOM     40  H92 ZIN A   1      20.465  -3.422  11.798  0.00  0.00     0.159 HD
ATOM     41  O42 ZIN A   1      18.503  -4.881  11.673  0.00  0.00    -0.274 OA
ENDBRANCH  36  37
ENDBRANCH  35  36
BRANCH  35  42
ATOM     42  N43 ZIN A   1      16.872  -4.680   7.820  0.00  0.00    -0.342 N 
ATOM     43  C44 ZIN A   1      15.871  -5.440   8.305  0.00  0.00     0.271 C 
ATOM     44  O45 ZIN A   1      15.652  -5.467   9.500  0.00  0.00    -0.266 OA
ATOM     45  H93 ZIN A   1      17.003  -4.603   6.862  0.00  0.00     0.163 HD
BRANCH  43  46
ATOM     46  C46 ZIN A   1      15.036  -6.244   7.381  0.00  0.00     0.125 A 
ATOM     47  N55 ZIN A   1      15.192  -6.097   6.079  0.00  0.00    -0.243 NA
ATOM     48  C54 ZIN A   1      14.467  -6.801   5.211  0.00  0.00     0.068 A 
ATOM     49  C49 ZIN A   1      13.497  -7.724   5.682  0.00  0.00    -0.007 A 
ATOM     50  C53 ZIN A   1      14.641  -6.642   3.822  0.00  0.00     0.032 A 
ATOM     51  C48 ZIN A   1      13.320  -7.885   7.069  0.00  0.00     0.016 A 
ATOM     52  C50 ZIN A   1      12.733  -8.459   4.760  0.00  0.00     0.014 A 
ATOM     53  C47 ZIN A   1      14.096  -7.140   7.909  0.00  0.00     0.038 A 
ATOM     54  C51 ZIN A   1      12.932  -8.277   3.425  0.00  0.00     0.001 A 
ATOM     55  C52 ZIN A   1      13.884  -7.371   2.959  0.00  0.00     0.002 A 
ENDBRANCH  43  46
ENDBRANCH  35  42
ENDBRANCH  32  35
ENDBRANCH   1  31
TORSDOF 14
ENDMDL
MODEL 8
REMARK VINA RESULT:      -9.2      2.264     10.247
REMARK  14 active torsions:
REMARK  status: ('A' for Active; 'I' for Inactive)
REMARK    1  A    between atoms: C2_2  and  N5_5 
REMARK       I    between atoms: N5_5  and  C6_6 
REMARK    2  A    between atoms: C6_6  and  C8_8 
REMARK    3  A    between atoms: N20_17  and  C21_18 
REMARK    4  A    between atoms: C21_18  and  C22_19 
REMARK    5  A    between atoms: C22_19  and  O24_20 
REMARK    6  A    between atoms: C22_19  and  C25_21 
REMARK    7  A    between atoms: C25_21  and  C27_22 
REMARK    8  A    between atoms: C25_21  and  N34_29 
REMARK    9  A    between atoms: C27_22  and  C28_23 
REMARK       I    between atoms: N34_29  and  C35_30 
REMARK   10  A    between atoms: C35_30  and  C37_32 
REMARK   11  A    between atoms: C37_32  and  C39_33 
REMARK   12  A    between atoms: C37_32  and  N43_37 
REMARK   13  A    between atoms: C39_33  and  C40_34 
REMARK       I    between atoms: C40_34  and  N41_35 
REMARK       I    between atoms: N43_37  and  C44_38 
REMARK   14  A    between atoms: C44_38  and  C46_40 
ROOT
ATOM      1  C25 ZIN A   1      18.441  -2.693  11.007  0.00  0.00     0.119 C 
ENDROOT
BRANCH   1   2
ATOM      2  C22 ZIN A   1      17.646  -3.813  10.333  0.00  0.00     0.169 C 
BRANCH   2   3
ATOM      3  C21 ZIN A   1      18.493  -4.445   9.226  0.00  0.00     0.307 C 
BRANCH   3   4
ATOM      4  N20 ZIN A   1      17.768  -5.582   8.642  0.00  0.00     0.105 N 
ATOM      5  C8  ZIN A   1      18.356  -5.976   7.356  0.00  0.00     0.314 C 
ATOM      6  C10 ZIN A   1      17.671  -7.246   6.843  0.00  0.00     0.050 C 
ATOM      7  C11 ZIN A   1      16.173  -6.977   6.686  0.00  0.00    -0.006 C 
ATOM      8  C17 ZIN A   1      15.599  -6.535   8.034  0.00  0.00     0.018 C 
ATOM      9  C13 ZIN A   1      15.460  -8.249   6.224  0.00  0.00     0.005 C 
ATOM     10  C16 ZIN A   1      14.108  -6.238   7.876  0.00  0.00     0.007 C 
ATOM     11  C19 ZIN A   1      16.335  -5.281   8.509  0.00  0.00     0.278 C 
ATOM     12  C15 ZIN A   1      13.387  -7.504   7.408  0.00  0.00     0.000 C 
ATOM     13  C14 ZIN A   1      13.965  -7.961   6.069  0.00  0.00     0.000 C 
BRANCH   5  14
ATOM     14  C6  ZIN A   1      18.166  -4.865   6.357  0.00  0.00     0.252 C 
ATOM     15  N5  ZIN A   1      18.155  -5.139   5.038  0.00  0.00    -0.351 N 
ATOM     16  H65 ZIN A   1      18.270  -6.053   4.731  0.00  0.00     0.163 HD
ATOM     17  O7  ZIN A   1      18.022  -3.723   6.739  0.00  0.00    -0.271 OA
BRANCH  15  18
ATOM     18  C2  ZIN A   1      17.970  -4.059   4.066  0.00  0.00     0.022 C 
ATOM     19  C1  ZIN A   1      18.941  -2.918   4.380  0.00  0.00     0.037 C 
ATOM     20  C3  ZIN A   1      16.532  -3.542   4.145  0.00  0.00     0.037 C 
ATOM     21  C4  ZIN A   1      18.245  -4.588   2.656  0.00  0.00     0.037 C 
ENDBRANCH  15  18
ENDBRANCH   5  14
ENDBRANCH   3   4
ENDBRANCH   2   3
BRANCH   2  22
ATOM     22  O24 ZIN A   1      17.310  -4.809  11.302  0.00  0.00    -0.392 OA
ATOM     23  H80 ZIN A   1      16.364  -4.870  11.492  0.00  0.00     0.210 HD
ENDBRANCH   2  22
ENDBRANCH   1   2
BRANCH   1  24
ATOM     24  C27 ZIN A   1      18.239  -2.765  12.521  0.00  0.00     0.066 C 
BRANCH  24  25
ATOM     25  C28 ZIN A   1      18.647  -1.455  13.146  0.00  0.00    -0.056 A 
ATOM     26  C33 ZIN A   1      17.767  -0.779  13.969  0.00  0.00     0.007 A 
ATOM     27  C32 ZIN A   1      18.143   0.422  14.544  0.00  0.00     0.001 A 
ATOM     28  C31 ZIN A   1      19.395   0.948  14.288  0.00  0.00     0.000 A 
ATOM     29  C30 ZIN A   1      20.273   0.274  13.461  0.00  0.00     0.001 A 
ATOM     30  C29 ZIN A   1      19.899  -0.928  12.889  0.00  0.00     0.007 A 
ENDBRANCH  24  25
ENDBRANCH   1  24
BRANCH   1  31
ATOM     31  N34 ZIN A   1      17.971  -1.397  10.512  0.00  0.00    -0.352 N 
ATOM     32  C35 ZIN A   1      18.690  -0.728   9.589  0.00  0.00     0.241 C 
ATOM     33  O36 ZIN A   1      19.724  -1.200   9.166  0.00  0.00    -0.271 OA
ATOM     34  H88 ZIN A   1      17.144  -1.020  10.849  0.00  0.00     0.163 HD
BRANCH  32  35
ATOM     35  C37 ZIN A   1      18.207   0.605   9.080  0.00  0.00     0.185 C 
BRANCH  35  36
ATOM     36  C39 ZIN A   1      18.787   0.862   7.687  0.00  0.00     0.137 C 
BRANCH  36  37
ATOM     37  C40 ZIN A   1      17.899   0.224   6.648  0.00  0.00     0.217 C 
ATOM     38  N41 ZIN A   1      16.932  -0.635   7.025  0.00  0.00    -0.370 N 
ATOM     39  H91 ZIN A   1      16.806  -0.843   7.964  0.00  0.00     0.159 HD
ATOM     40  H92 ZIN A   1      16.362  -1.045   6.356  0.00  0.00     0.159 HD
ATOM     41  O42 ZIN A   1      18.057   0.485   5.474  0.00  0.00    -0.274 OA
ENDBRANCH  36  37
ENDBRANCH  35  36
BRANCH  35  42
ATOM     42  N43 ZIN A   1      18.644   1.665   9.993  0.00  0.00    -0.342 N 
ATOM     43  C44 ZIN A   1      17.870   2.015  11.040  0.00  0.00     0.271 C 
ATOM     44  O45 ZIN A   1      16.853   1.394  11.277  0.00  0.00    -0.266 OA
ATOM     45  H93 ZIN A   1      19.491   2.114   9.844  0.00  0.00     0.163 HD
BRANCH  43  46
ATOM     46  C46 ZIN A   1      18.259   3.158  11.900  0.00  0.00     0.125 A 
ATOM     47  N55 ZIN A   1      17.364   3.688  12.711  0.00  0.00    -0.243 NA
ATOM     48  C54 ZIN A   1      17.670   4.714  13.504  0.00  0.00     0.068 A 
ATOM     49  C49 ZIN A   1      18.978   5.263  13.479  0.00  0.00    -0.007 A 
ATOM     50  C53 ZIN A   1      16.710   5.272  14.371  0.00  0.00     0.032 A 
ATOM     51  C48 ZIN A   1      19.940   4.708  12.614  0.00  0.00     0.016 A 
ATOM     52  C50 ZIN A   1      19.291   6.348  14.315  0.00  0.00     0.014 A 
ATOM     53  C47 ZIN A   1      19.568   3.655  11.828  0.00  0.00     0.038 A 
ATOM     54  C51 ZIN A   1      18.336   6.859  15.139  0.00  0.00     0.001 A 
ATOM     55  C52 ZIN A   1      17.049   6.322  15.166  0.00  0.00     0.002 A 
ENDBRANCH  43  46
ENDBRANCH  35  42
ENDBRANCH  32  35
ENDBRANCH   1  31
TORSDOF 14
ENDMDL
MODEL 9
REMARK VINA RESULT:      -9.1      2.274      5.285
REMARK  14 active torsions:
REMARK  status: ('A' for Active; 'I' for Inactive)
REMARK    1  A    between atoms: C2_2  and  N5_5 
REMARK       I    between atoms: N5_5  and  C6_6 
REMARK    2  A    between atoms: C6_6  and  C8_8 
REMARK    3  A    between atoms: N20_17  and  C21_18 
REMARK    4  A    between atoms: C21_18  and  C22_19 
REMARK    5  A    between atoms: C22_19  and  O24_20 
REMARK    6  A    between atoms: C22_19  and  C25_21 
REMARK    7  A    between atoms: C25_21  and  C27_22 
REMARK    8  A    between atoms: C25_21  and  N34_29 
REMARK    9  A    between atoms: C27_22  and  C28_23 
REMARK       I    between atoms: N34_29  and  C35_30 
REMARK   10  A    between atoms: C35_30  and  C37_32 
REMARK   11  A    between atoms: C37_32  and  C39_33 
REMARK   12  A    between atoms: C37_32  and  N43_37 
REMARK   13  A    between atoms: C39_33  and  C40_34 
REMARK       I    between atoms: C40_34  and  N41_35 
REMARK       I    between atoms: N43_37  and  C44_38 
REMARK   14  A    between atoms: C44_38  and  C46_40 
ROOT
ATOM      1  C25 ZIN A   1      18.069  -0.440   9.005  0.00  0.00     0.119 C 
ENDROOT
BRANCH   1   2
ATOM      2  C22 ZIN A   1      17.972   0.591  10.131  0.00  0.00     0.169 C 
BRANCH   2   3
ATOM      3  C21 ZIN A   1      19.084   0.337  11.152  0.00  0.00     0.307 C 
BRANCH   3   4
ATOM      4  N20 ZIN A   1      18.488  -0.020  12.446  0.00  0.00     0.105 N 
ATOM      5  C8  ZIN A   1      17.596   1.043  12.926  0.00  0.00     0.314 C 
ATOM      6  C10 ZIN A   1      16.884   0.582  14.201  0.00  0.00     0.050 C 
ATOM      7  C11 ZIN A   1      17.932   0.243  15.263  0.00  0.00    -0.006 C 
ATOM      8  C17 ZIN A   1      18.865  -0.841  14.719  0.00  0.00     0.018 C 
ATOM      9  C13 ZIN A   1      17.244  -0.270  16.529  0.00  0.00     0.005 C 
ATOM     10  C16 ZIN A   1      19.931  -1.163  15.766  0.00  0.00     0.007 C 
ATOM     11  C19 ZIN A   1      19.528  -0.337  13.436  0.00  0.00     0.278 C 
ATOM     12  C15 ZIN A   1      19.252  -1.672  17.040  0.00  0.00     0.000 C 
ATOM     13  C14 ZIN A   1      18.305  -0.600  17.582  0.00  0.00     0.000 C 
BRANCH   5  14
ATOM     14  C6  ZIN A   1      18.404   2.280  13.221  0.00  0.00     0.252 C 
ATOM     15  N5  ZIN A   1      17.784   3.460  13.412  0.00  0.00    -0.351 N 
ATOM     16  H65 ZIN A   1      16.816   3.514  13.359  0.00  0.00     0.163 HD
ATOM     17  O7  ZIN A   1      19.613   2.213  13.287  0.00  0.00    -0.271 OA
BRANCH  15  18
ATOM     18  C2  ZIN A   1      18.569   4.663  13.699  0.00  0.00     0.022 C 
ATOM     19  C1  ZIN A   1      19.626   4.855  12.610  0.00  0.00     0.037 C 
ATOM     20  C3  ZIN A   1      19.257   4.510  15.058  0.00  0.00     0.037 C 
ATOM     21  C4  ZIN A   1      17.643   5.881  13.731  0.00  0.00     0.037 C 
ENDBRANCH  15  18
ENDBRANCH   5  14
ENDBRANCH   3   4
ENDBRANCH   2   3
BRANCH   2  22
ATOM     22  O24 ZIN A   1      18.117   1.905   9.588  0.00  0.00    -0.392 OA
ATOM     23  H80 ZIN A   1      17.516   2.558   9.971  0.00  0.00     0.210 HD
ENDBRANCH   2  22
ENDBRANCH   1   2
BRANCH   1  24
ATOM     24  C27 ZIN A   1      17.008  -0.138   7.945  0.00  0.00     0.066 C 
BRANCH  24  25
ATOM     25  C28 ZIN A   1      17.646  -0.138   6.580  0.00  0.00    -0.056 A 
ATOM     26  C33 ZIN A   1      18.704   0.710   6.312  0.00  0.00     0.007 A 
ATOM     27  C32 ZIN A   1      19.292   0.707   5.060  0.00  0.00     0.001 A 
ATOM     28  C31 ZIN A   1      18.815  -0.136   4.075  0.00  0.00     0.000 A 
ATOM     29  C30 ZIN A   1      17.754  -0.981   4.341  0.00  0.00     0.001 A 
ATOM     30  C29 ZIN A   1      17.169  -0.981   5.594  0.00  0.00     0.007 A 
ENDBRANCH  24  25
ENDBRANCH   1  24
BRANCH   1  31
ATOM     31  N34 ZIN A   1      17.847  -1.780   9.551  0.00  0.00    -0.352 N 
ATOM     32  C35 ZIN A   1      18.515  -2.835   9.043  0.00  0.00     0.241 C 
ATOM     33  O36 ZIN A   1      19.302  -2.673   8.134  0.00  0.00    -0.271 OA
ATOM     34  H88 ZIN A   1      17.218  -1.910  10.279  0.00  0.00     0.163 HD
BRANCH  32  35
ATOM     35  C37 ZIN A   1      18.286  -4.213   9.605  0.00  0.00     0.185 C 
BRANCH  35  36
ATOM     36  C39 ZIN A   1      19.627  -4.829  10.011  0.00  0.00     0.137 C 
BRANCH  36  37
ATOM     37  C40 ZIN A   1      20.117  -5.736   8.910  0.00  0.00     0.217 C 
ATOM     38  N41 ZIN A   1      20.980  -5.269   7.987  0.00  0.00    -0.370 N 
ATOM     39  H91 ZIN A   1      21.287  -4.350   8.030  0.00  0.00     0.159 HD
ATOM     40  H92 ZIN A   1      21.295  -5.853   7.280  0.00  0.00     0.159 HD
ATOM     41  O42 ZIN A   1      19.734  -6.886   8.858  0.00  0.00    -0.274 OA
ENDBRANCH  36  37
ENDBRANCH  35  36
BRANCH  35  42
ATOM     42  N43 ZIN A   1      17.650  -5.056   8.588  0.00  0.00    -0.342 N 
ATOM     43  C44 ZIN A   1      16.461  -5.636   8.842  0.00  0.00     0.271 C 
ATOM     44  O45 ZIN A   1      15.873  -5.391   9.877  0.00  0.00    -0.266 OA
ATOM     45  H93 ZIN A   1      18.087  -5.197   7.733  0.00  0.00     0.163 HD
BRANCH  43  46
ATOM     46  C46 ZIN A   1      15.869  -6.575   7.858  0.00  0.00     0.125 A 
ATOM     47  N55 ZIN A   1      15.132  -6.097   6.874  0.00  0.00    -0.243 NA
ATOM     48  C54 ZIN A   1      14.584  -6.902   5.965  0.00  0.00     0.068 A 
ATOM     49  C49 ZIN A   1      14.780  -8.306   6.052  0.00  0.00    -0.007 A 
ATOM     50  C53 ZIN A   1      13.803  -6.385   4.914  0.00  0.00     0.032 A 
ATOM     51  C48 ZIN A   1      15.560  -8.826   7.101  0.00  0.00     0.016 A 
ATOM     52  C50 ZIN A   1      14.194  -9.148   5.092  0.00  0.00     0.014 A 
ATOM     53  C47 ZIN A   1      16.100  -7.951   7.999  0.00  0.00     0.038 A 
ATOM     54  C51 ZIN A   1      13.446  -8.609   4.091  0.00  0.00     0.001 A 
ATOM     55  C52 ZIN A   1      13.251  -7.231   4.003  0.00  0.00     0.002 A 
ENDBRANCH  43  46
ENDBRANCH  35  42
ENDBRANCH  32  35
ENDBRANCH   1  31
TORSDOF 14
ENDMDL
