MODEL 1
REMARK VINA RESULT:      -7.1      0.000      0.000
REMARK  6 active torsions:
REMARK  status: ('A' for Active; 'I' for Inactive)
REMARK    1  A    between atoms: N1_1  and  C2_2 
REMARK    2  A    between atoms: N6_6  and  C7_7 
REMARK    3  A    between atoms: C10_9  and  C12_10 
REMARK    4  A    between atoms: C12_10  and  O13_11 
REMARK    5  A    between atoms: C14_12  and  O16_13 
REMARK    6  A    between atoms: C17_14  and  O19_15 
ROOT
ATOM      1  C2  <0> d   1      18.335   1.375  16.849  0.00  0.00     0.159 A 
ATOM      2  C3  <0> d   1      18.389   1.689  15.480  0.00  0.00     0.149 A 
ATOM      3  N4  <0> d   1      18.160   2.808  14.750  0.00  0.00    -0.236 NA
ATOM      4  C5  <0> d   1      18.358   2.550  13.490  0.00  0.00     0.214 A 
ATOM      5  N6  <0> d   1      18.727   1.247  13.334  0.00  0.00    -0.294 N 
ATOM      6  C20 <0> d   1      18.755   0.675  14.580  0.00  0.00     0.170 A 
ATOM      7  N21 <0> d   1      19.036  -0.537  15.050  0.00  0.00    -0.182 NA
ATOM      8  C22 <0> d   1      18.971  -0.787  16.344  0.00  0.00     0.313 A 
ATOM      9  F23 <0> d   1      19.263  -2.031  16.781  0.00  0.00    -0.161 F 
ATOM     10  N24 <0> d   1      18.638   0.138  17.228  0.00  0.00    -0.183 NA
ENDROOT
BRANCH   5  11
ATOM     11  C7  <0> d   1      19.036   0.580  12.066  0.00  0.00     0.262 C 
ATOM     12  C17 <0> d   1      20.568   0.507  11.847  0.00  0.00     0.198 C 
ATOM     13  C14 <0> d   1      20.700  -0.711  10.896  0.00  0.00     0.182 C 
ATOM     14  C10 <0> d   1      19.389  -1.495  11.101  0.00  0.00     0.179 C 
ATOM     15  O9  <0> d   1      18.632  -0.806  12.109  0.00  0.00    -0.353 OA
BRANCH  12  16
ATOM     16  O19 <0> d   1      21.247   0.267  13.081  0.00  0.00    -0.388 OA
ATOM     17  H32 <0> d   1      20.660   0.202  13.847  0.00  0.00     0.210 HD
ENDBRANCH  12  16
BRANCH  13  18
ATOM     18  O16 <0> d   1      20.817  -0.276   9.541  0.00  0.00    -0.390 OA
ATOM     19  H31 <0> d   1      21.518   0.373   9.395  0.00  0.00     0.210 HD
ENDBRANCH  13  18
BRANCH  14  20
ATOM     20  C12 <0> d   1      19.700  -2.919  11.566  0.00  0.00     0.198 C 
BRANCH  20  21
ATOM     21  O13 <0> d   1      21.109  -3.150  11.485  0.00  0.00    -0.398 OA
ATOM     22  H30 <0> d   1      21.609  -2.404  11.128  0.00  0.00     0.209 HD
ENDBRANCH  20  21
ENDBRANCH  14  20
ENDBRANCH   5  11
BRANCH   1  23
ATOM     23  N1  <0> d   1      17.981   2.334  17.781  0.00  0.00    -0.382 N 
ATOM     24  H25 <0> d   1      17.867   2.087  18.713  0.00  0.00     0.157 HD
ATOM     25  H26 <0> d   1      17.851   3.255  17.505  0.00  0.00     0.157 HD
ENDBRANCH   1  23
TORSDOF 6
ENDMDL
MODEL 2
REMARK VINA RESULT:      -7.1      4.737      7.299
REMARK  6 active torsions:
REMARK  status: ('A' for Active; 'I' for Inactive)
REMARK    1  A    between atoms: N1_1  and  C2_2 
REMARK    2  A    between atoms: N6_6  and  C7_7 
REMARK    3  A    between atoms: C10_9  and  C12_10 
REMARK    4  A    between atoms: C12_10  and  O13_11 
REMARK    5  A    between atoms: C14_12  and  O16_13 
REMARK    6  A    between atoms: C17_14  and  O19_15 
ROOT
ATOM      1  C2  <0> d   1      18.204  -1.663   6.319  0.00  0.00     0.159 A 
ATOM      2  C3  <0> d   1      18.305  -1.916   7.698  0.00  0.00     0.149 A 
ATOM      3  N4  <0> d   1      18.126  -3.007   8.481  0.00  0.00    -0.236 NA
ATOM      4  C5  <0> d   1      18.354  -2.690   9.722  0.00  0.00     0.214 A 
ATOM      5  N6  <0> d   1      18.694  -1.373   9.812  0.00  0.00    -0.294 N 
ATOM      6  C20 <0> d   1      18.671  -0.855   8.542  0.00  0.00     0.170 A 
ATOM      7  N21 <0> d   1      18.907   0.342   8.013  0.00  0.00    -0.182 NA
ATOM      8  C22 <0> d   1      18.798   0.534   6.712  0.00  0.00     0.313 A 
ATOM      9  F23 <0> d   1      19.046   1.764   6.213  0.00  0.00    -0.161 F 
ATOM     10  N24 <0> d   1      18.464  -0.437   5.878  0.00  0.00    -0.183 NA
ENDROOT
BRANCH   5  11
ATOM     11  C7  <0> d   1      19.023  -0.644  11.040  0.00  0.00     0.262 C 
ATOM     12  C17 <0> d   1      20.558  -0.554  11.227  0.00  0.00     0.198 C 
ATOM     13  C14 <0> d   1      20.702   0.708  12.116  0.00  0.00     0.182 C 
ATOM     14  C10 <0> d   1      19.383   1.476  11.898  0.00  0.00     0.179 C 
ATOM     15  O9  <0> d   1      18.611   0.736  10.938  0.00  0.00    -0.353 OA
BRANCH  12  16
ATOM     16  O19 <0> d   1      21.213  -0.371   9.971  0.00  0.00    -0.388 OA
ATOM     17  H32 <0> d   1      21.351  -1.190   9.475  0.00  0.00     0.210 HD
ENDBRANCH  12  16
BRANCH  13  18
ATOM     18  O16 <0> d   1      20.845   0.340  13.488  0.00  0.00    -0.390 OA
ATOM     19  H31 <0> d   1      20.489  -0.533  13.700  0.00  0.00     0.210 HD
ENDBRANCH  13  18
BRANCH  14  20
ATOM     20  C12 <0> d   1      19.677   2.878  11.359  0.00  0.00     0.198 C 
BRANCH  20  21
ATOM     21  O13 <0> d   1      21.021   3.242  11.688  0.00  0.00    -0.398 OA
ATOM     22  H30 <0> d   1      21.290   4.103  11.341  0.00  0.00     0.209 HD
ENDBRANCH  20  21
ENDBRANCH  14  20
ENDBRANCH   5  11
BRANCH   1  23
ATOM     23  N1  <0> d   1      17.846  -2.670   5.440  0.00  0.00    -0.382 N 
ATOM     24  H25 <0> d   1      18.281  -3.536   5.492  0.00  0.00     0.157 HD
ATOM     25  H26 <0> d   1      17.158  -2.512   4.775  0.00  0.00     0.157 HD
ENDBRANCH   1  23
TORSDOF 6
ENDMDL
MODEL 3
REMARK VINA RESULT:      -6.9      4.380      6.734
REMARK  6 active torsions:
REMARK  status: ('A' for Active; 'I' for Inactive)
REMARK    1  A    between atoms: N1_1  and  C2_2 
REMARK    2  A    between atoms: N6_6  and  C7_7 
REMARK    3  A    between atoms: C10_9  and  C12_10 
REMARK    4  A    between atoms: C12_10  and  O13_11 
REMARK    5  A    between atoms: C14_12  and  O16_13 
REMARK    6  A    between atoms: C17_14  and  O19_15 
ROOT
ATOM      1  C2  <0> d   1      18.299  -3.670   7.381  0.00  0.00     0.159 A 
ATOM      2  C3  <0> d   1      18.244  -2.411   8.002  0.00  0.00     0.149 A 
ATOM      3  N4  <0> d   1      17.803  -1.184   7.631  0.00  0.00    -0.236 NA
ATOM      4  C5  <0> d   1      17.988  -0.345   8.607  0.00  0.00     0.214 A 
ATOM      5  N6  <0> d   1      18.560  -0.982   9.668  0.00  0.00    -0.294 N 
ATOM      6  C20 <0> d   1      18.735  -2.295   9.313  0.00  0.00     0.170 A 
ATOM      7  N21 <0> d   1      19.230  -3.372   9.916  0.00  0.00    -0.182 NA
ATOM      8  C22 <0> d   1      19.264  -4.534   9.293  0.00  0.00     0.313 A 
ATOM      9  F23 <0> d   1      19.775  -5.604   9.939  0.00  0.00    -0.161 F 
ATOM     10  N24 <0> d   1      18.806  -4.692   8.062  0.00  0.00    -0.183 NA
ENDROOT
BRANCH   5  11
ATOM     11  C7  <0> d   1      18.924  -0.374  10.951  0.00  0.00     0.262 C 
ATOM     12  C17 <0> d   1      20.458  -0.422  11.162  0.00  0.00     0.198 C 
ATOM     13  C14 <0> d   1      20.685   0.756  12.144  0.00  0.00     0.182 C 
ATOM     14  C10 <0> d   1      19.435   1.642  11.969  0.00  0.00     0.179 C 
ATOM     15  O9  <0> d   1      18.624   1.038  10.947  0.00  0.00    -0.353 OA
BRANCH  12  16
ATOM     16  O19 <0> d   1      21.147  -0.200   9.931  0.00  0.00    -0.388 OA
ATOM     17  H32 <0> d   1      21.384  -1.011   9.460  0.00  0.00     0.210 HD
ENDBRANCH  12  16
BRANCH  13  18
ATOM     18  O16 <0> d   1      20.774   0.277  13.487  0.00  0.00    -0.390 OA
ATOM     19  H31 <0> d   1      20.047  -0.304  13.746  0.00  0.00     0.210 HD
ENDBRANCH  13  18
BRANCH  14  20
ATOM     20  C12 <0> d   1      19.849   3.051  11.540  0.00  0.00     0.198 C 
BRANCH  20  21
ATOM     21  O13 <0> d   1      21.267   3.189  11.663  0.00  0.00    -0.398 OA
ATOM     22  H30 <0> d   1      21.715   3.399  10.833  0.00  0.00     0.209 HD
ENDBRANCH  20  21
ENDBRANCH  14  20
ENDBRANCH   5  11
BRANCH   1  23
ATOM     23  N1  <0> d   1      17.830  -3.844   6.091  0.00  0.00    -0.382 N 
ATOM     24  H25 <0> d   1      17.120  -4.481   5.914  0.00  0.00     0.157 HD
ATOM     25  H26 <0> d   1      18.206  -3.324   5.364  0.00  0.00     0.157 HD
ENDBRANCH   1  23
TORSDOF 6
ENDMDL
MODEL 4
REMARK VINA RESULT:      -6.8      4.984      7.340
REMARK  6 active torsions:
REMARK  status: ('A' for Active; 'I' for Inactive)
REMARK    1  A    between atoms: N1_1  and  C2_2 
REMARK    2  A    between atoms: N6_6  and  C7_7 
REMARK    3  A    between atoms: C10_9  and  C12_10 
REMARK    4  A    between atoms: C12_10  and  O13_11 
REMARK    5  A    between atoms: C14_12  and  O16_13 
REMARK    6  A    between atoms: C17_14  and  O19_15 
ROOT
ATOM      1  C2  <0> d   1      19.290  -0.676   5.439  0.00  0.00     0.159 A 
ATOM      2  C3  <0> d   1      19.063  -0.139   6.718  0.00  0.00     0.149 A 
ATOM      3  N4  <0> d   1      18.814   1.103   7.200  0.00  0.00    -0.236 NA
ATOM      4  C5  <0> d   1      18.679   1.046   8.492  0.00  0.00     0.214 A 
ATOM      5  N6  <0> d   1      18.833  -0.239   8.921  0.00  0.00    -0.294 N 
ATOM      6  C20 <0> d   1      19.079  -1.014   7.817  0.00  0.00     0.170 A 
ATOM      7  N21 <0> d   1      19.305  -2.308   7.611  0.00  0.00    -0.182 NA
ATOM      8  C22 <0> d   1      19.515  -2.767   6.392  0.00  0.00     0.313 A 
ATOM      9  F23 <0> d   1      19.741  -4.088   6.225  0.00  0.00    -0.161 F 
ATOM     10  N24 <0> d   1      19.502  -1.983   5.328  0.00  0.00    -0.183 NA
ENDROOT
BRANCH   5  11
ATOM     11  C7  <0> d   1      18.753  -0.705  10.309  0.00  0.00     0.262 C 
ATOM     12  C17 <0> d   1      20.148  -1.146  10.817  0.00  0.00     0.198 C 
ATOM     13  C14 <0> d   1      20.001  -0.972  12.351  0.00  0.00     0.182 C 
ATOM     14  C10 <0> d   1      18.822   0.008  12.511  0.00  0.00     0.179 C 
ATOM     15  O9  <0> d   1      18.396   0.382  11.190  0.00  0.00    -0.353 OA
BRANCH  12  16
ATOM     16  O19 <0> d   1      21.170  -0.289  10.303  0.00  0.00    -0.388 OA
ATOM     17  H32 <0> d   1      21.867  -0.081  10.941  0.00  0.00     0.210 HD
ENDBRANCH  12  16
BRANCH  13  18
ATOM     18  O16 <0> d   1      19.699  -2.224  12.969  0.00  0.00    -0.390 OA
ATOM     19  H31 <0> d   1      19.362  -2.146  13.871  0.00  0.00     0.210 HD
ENDBRANCH  13  18
BRANCH  14  20
ATOM     20  C12 <0> d   1      19.274   1.249  13.283  0.00  0.00     0.198 C 
BRANCH  20  21
ATOM     21  O13 <0> d   1      20.298   1.921  12.546  0.00  0.00    -0.398 OA
ATOM     22  H30 <0> d   1      20.300   1.718  11.601  0.00  0.00     0.209 HD
ENDBRANCH  20  21
ENDBRANCH  14  20
ENDBRANCH   5  11
BRANCH   1  23
ATOM     23  N1  <0> d   1      19.287   0.138   4.320  0.00  0.00    -0.382 N 
ATOM     24  H25 <0> d   1      19.609   1.052   4.384  0.00  0.00     0.157 HD
ATOM     25  H26 <0> d   1      18.968  -0.205   3.471  0.00  0.00     0.157 HD
ENDBRANCH   1  23
TORSDOF 6
ENDMDL
MODEL 5
REMARK VINA RESULT:      -6.6      2.053      2.713
REMARK  6 active torsions:
REMARK  status: ('A' for Active; 'I' for Inactive)
REMARK    1  A    between atoms: N1_1  and  C2_2 
REMARK    2  A    between atoms: N6_6  and  C7_7 
REMARK    3  A    between atoms: C10_9  and  C12_10 
REMARK    4  A    between atoms: C12_10  and  O13_11 
REMARK    5  A    between atoms: C14_12  and  O16_13 
REMARK    6  A    between atoms: C17_14  and  O19_15 
ROOT
ATOM      1  C2  <0> d   1      19.050   2.542  17.376  0.00  0.00     0.159 A 
ATOM      2  C3  <0> d   1      19.011   1.526  16.405  0.00  0.00     0.149 A 
ATOM      3  N4  <0> d   1      19.011   0.172  16.443  0.00  0.00    -0.236 NA
ATOM      4  C5  <0> d   1      18.962  -0.295  15.230  0.00  0.00     0.214 A 
ATOM      5  N6  <0> d   1      18.926   0.734  14.336  0.00  0.00    -0.294 N 
ATOM      6  C20 <0> d   1      18.956   1.902  15.053  0.00  0.00     0.170 A 
ATOM      7  N21 <0> d   1      18.944   3.195  14.741  0.00  0.00    -0.182 NA
ATOM      8  C22 <0> d   1      18.984   4.114  15.686  0.00  0.00     0.313 A 
ATOM      9  F23 <0> d   1      18.971   5.417  15.328  0.00  0.00    -0.161 F 
ATOM     10  N24 <0> d   1      19.029   3.807  16.971  0.00  0.00    -0.183 NA
ENDROOT
BRANCH   5  11
ATOM     11  C7  <0> d   1      18.868   0.612  12.876  0.00  0.00     0.262 C 
ATOM     12  C17 <0> d   1      20.264   0.861  12.252  0.00  0.00     0.198 C 
ATOM     13  C14 <0> d   1      20.158   0.092  10.910  0.00  0.00     0.182 C 
ATOM     14  C10 <0> d   1      19.007  -0.908  11.135  0.00  0.00     0.179 C 
ATOM     15  O9  <0> d   1      18.559  -0.744  12.491  0.00  0.00    -0.353 OA
BRANCH  12  16
ATOM     16  O19 <0> d   1      21.294   0.311  13.075  0.00  0.00    -0.388 OA
ATOM     17  H32 <0> d   1      21.963  -0.189  12.587  0.00  0.00     0.210 HD
ENDBRANCH  12  16
BRANCH  13  18
ATOM     18  O16 <0> d   1      19.840   0.989   9.844  0.00  0.00    -0.390 OA
ATOM     19  H31 <0> d   1      18.944   1.348   9.887  0.00  0.00     0.210 HD
ENDBRANCH  13  18
BRANCH  14  20
ATOM     20  C12 <0> d   1      19.508  -2.338  10.922  0.00  0.00     0.198 C 
BRANCH  20  21
ATOM     21  O13 <0> d   1      20.870  -2.434  11.348  0.00  0.00    -0.398 OA
ATOM     22  H30 <0> d   1      21.464  -2.807  10.683  0.00  0.00     0.209 HD
ENDBRANCH  20  21
ENDBRANCH  14  20
ENDBRANCH   5  11
BRANCH   1  23
ATOM     23  N1  <0> d   1      19.104   2.230  18.723  0.00  0.00    -0.382 N 
ATOM     24  H25 <0> d   1      19.636   1.476  19.025  0.00  0.00     0.157 HD
ATOM     25  H26 <0> d   1      18.617   2.768  19.365  0.00  0.00     0.157 HD
ENDBRANCH   1  23
TORSDOF 6
ENDMDL
MODEL 6
REMARK VINA RESULT:      -6.6      4.484      6.875
REMARK  6 active torsions:
REMARK  status: ('A' for Active; 'I' for Inactive)
REMARK    1  A    between atoms: N1_1  and  C2_2 
REMARK    2  A    between atoms: N6_6  and  C7_7 
REMARK    3  A    between atoms: C10_9  and  C12_10 
REMARK    4  A    between atoms: C12_10  and  O13_11 
REMARK    5  A    between atoms: C14_12  and  O16_13 
REMARK    6  A    between atoms: C17_14  and  O19_15 
ROOT
ATOM      1  C2  <0> d   1      19.256  -1.117   8.409  0.00  0.00     0.159 A 
ATOM      2  C3  <0> d   1      19.024  -0.684   9.726  0.00  0.00     0.149 A 
ATOM      3  N4  <0> d   1      19.039  -1.283  10.942  0.00  0.00    -0.236 NA
ATOM      4  C5  <0> d   1      18.747  -0.408  11.859  0.00  0.00     0.214 A 
ATOM      5  N6  <0> d   1      18.524   0.809  11.287  0.00  0.00    -0.294 N 
ATOM      6  C20 <0> d   1      18.693   0.665   9.934  0.00  0.00     0.170 A 
ATOM      7  N21 <0> d   1      18.611   1.479   8.886  0.00  0.00    -0.182 NA
ATOM      8  C22 <0> d   1      18.835   1.030   7.666  0.00  0.00     0.313 A 
ATOM      9  F23 <0> d   1      18.742   1.889   6.628  0.00  0.00    -0.161 F 
ATOM     10  N24 <0> d   1      19.157  -0.230   7.424  0.00  0.00    -0.183 NA
ENDROOT
BRANCH   5  11
ATOM     11  C7  <0> d   1      18.169   2.045  11.990  0.00  0.00     0.262 C 
ATOM     12  C17 <0> d   1      19.396   2.984  12.098  0.00  0.00     0.198 C 
ATOM     13  C14 <0> d   1      18.727   4.375  12.242  0.00  0.00     0.182 C 
ATOM     14  C10 <0> d   1      17.306   4.171  11.681  0.00  0.00     0.179 C 
ATOM     15  O9  <0> d   1      17.219   2.813  11.220  0.00  0.00    -0.353 OA
BRANCH  12  16
ATOM     16  O19 <0> d   1      20.190   2.921  10.911  0.00  0.00    -0.388 OA
ATOM     17  H32 <0> d   1      19.764   3.306  10.132  0.00  0.00     0.210 HD
ENDBRANCH  12  16
BRANCH  13  18
ATOM     18  O16 <0> d   1      18.672   4.763  13.615  0.00  0.00    -0.390 OA
ATOM     19  H31 <0> d   1      19.017   5.649  13.788  0.00  0.00     0.210 HD
ENDBRANCH  13  18
BRANCH  14  20
ATOM     20  C12 <0> d   1      17.060   5.133  10.516  0.00  0.00     0.198 C 
BRANCH  20  21
ATOM     21  O13 <0> d   1      17.825   4.713   9.383  0.00  0.00    -0.398 OA
ATOM     22  H30 <0> d   1      17.330   4.717   8.553  0.00  0.00     0.209 HD
ENDBRANCH  20  21
ENDBRANCH  14  20
ENDBRANCH   5  11
BRANCH   1  23
ATOM     23  N1  <0> d   1      19.585  -2.434   8.145  0.00  0.00    -0.382 N 
ATOM     24  H25 <0> d   1      19.377  -3.126   8.794  0.00  0.00     0.157 HD
ATOM     25  H26 <0> d   1      20.019  -2.668   7.310  0.00  0.00     0.157 HD
ENDBRANCH   1  23
TORSDOF 6
ENDMDL
MODEL 7
REMARK VINA RESULT:      -6.5      3.471      4.452
REMARK  6 active torsions:
REMARK  status: ('A' for Active; 'I' for Inactive)
REMARK    1  A    between atoms: N1_1  and  C2_2 
REMARK    2  A    between atoms: N6_6  and  C7_7 
REMARK    3  A    between atoms: C10_9  and  C12_10 
REMARK    4  A    between atoms: C12_10  and  O13_11 
REMARK    5  A    between atoms: C14_12  and  O16_13 
REMARK    6  A    between atoms: C17_14  and  O19_15 
ROOT
ATOM      1  C2  <0> d   1      19.133   3.624  12.607  0.00  0.00     0.159 A 
ATOM      2  C3  <0> d   1      19.123   2.235  12.391  0.00  0.00     0.149 A 
ATOM      3  N4  <0> d   1      19.508   1.156  13.114  0.00  0.00    -0.236 NA
ATOM      4  C5  <0> d   1      19.274   0.073  12.433  0.00  0.00     0.214 A 
ATOM      5  N6  <0> d   1      18.723   0.391  11.227  0.00  0.00    -0.294 N 
ATOM      6  C20 <0> d   1      18.616   1.757  11.172  0.00  0.00     0.170 A 
ATOM      7  N21 <0> d   1      18.166   2.626  10.272  0.00  0.00    -0.182 NA
ATOM      8  C22 <0> d   1      18.196   3.922  10.517  0.00  0.00     0.313 A 
ATOM      9  F23 <0> d   1      17.730   4.773   9.577  0.00  0.00    -0.161 F 
ATOM     10  N24 <0> d   1      18.658   4.418  11.653  0.00  0.00    -0.183 NA
ENDROOT
BRANCH   5  11
ATOM     11  C7  <0> d   1      18.321  -0.555  10.181  0.00  0.00     0.262 C 
ATOM     12  C17 <0> d   1      19.376  -0.593   9.047  0.00  0.00     0.198 C 
ATOM     13  C14 <0> d   1      19.144  -2.001   8.439  0.00  0.00     0.182 C 
ATOM     14  C10 <0> d   1      18.425  -2.782   9.557  0.00  0.00     0.179 C 
ATOM     15  O9  <0> d   1      18.320  -1.905  10.691  0.00  0.00    -0.353 OA
BRANCH  12  16
ATOM     16  O19 <0> d   1      20.697  -0.478   9.577  0.00  0.00    -0.388 OA
ATOM     17  H32 <0> d   1      21.246   0.179   9.126  0.00  0.00     0.210 HD
ENDBRANCH  12  16
BRANCH  13  18
ATOM     18  O16 <0> d   1      18.318  -1.914   7.278  0.00  0.00    -0.390 OA
ATOM     19  H31 <0> d   1      18.593  -1.233   6.650  0.00  0.00     0.210 HD
ENDBRANCH  13  18
BRANCH  14  20
ATOM     20  C12 <0> d   1      19.235  -4.024   9.932  0.00  0.00     0.198 C 
BRANCH  20  21
ATOM     21  O13 <0> d   1      20.393  -3.631  10.673  0.00  0.00    -0.398 OA
ATOM     22  H30 <0> d   1      20.546  -2.677  10.685  0.00  0.00     0.209 HD
ENDBRANCH  20  21
ENDBRANCH  14  20
ENDBRANCH   5  11
BRANCH   1  23
ATOM     23  N1  <0> d   1      19.621   4.152  13.789  0.00  0.00    -0.382 N 
ATOM     24  H25 <0> d   1      19.351   5.040  14.072  0.00  0.00     0.157 HD
ATOM     25  H26 <0> d   1      20.230   3.633  14.337  0.00  0.00     0.157 HD
ENDBRANCH   1  23
TORSDOF 6
ENDMDL
MODEL 8
REMARK VINA RESULT:      -6.5      3.071      4.184
REMARK  6 active torsions:
REMARK  status: ('A' for Active; 'I' for Inactive)
REMARK    1  A    between atoms: N1_1  and  C2_2 
REMARK    2  A    between atoms: N6_6  and  C7_7 
REMARK    3  A    between atoms: C10_9  and  C12_10 
REMARK    4  A    between atoms: C12_10  and  O13_11 
REMARK    5  A    between atoms: C14_12  and  O16_13 
REMARK    6  A    between atoms: C17_14  and  O19_15 
ROOT
ATOM      1  C2  <0> d   1      16.944   4.930  13.926  0.00  0.00     0.159 A 
ATOM      2  C3  <0> d   1      17.207   4.486  12.619  0.00  0.00     0.149 A 
ATOM      3  N4  <0> d   1      16.657   4.724  11.403  0.00  0.00    -0.236 NA
ATOM      4  C5  <0> d   1      17.296   4.042  10.499  0.00  0.00     0.214 A 
ATOM      5  N6  <0> d   1      18.298   3.322  11.079  0.00  0.00    -0.294 N 
ATOM      6  C20 <0> d   1      18.265   3.583  12.425  0.00  0.00     0.170 A 
ATOM      7  N21 <0> d   1      18.976   3.184  13.475  0.00  0.00    -0.182 NA
ATOM      8  C22 <0> d   1      18.693   3.626  14.685  0.00  0.00     0.313 A 
ATOM      9  F23 <0> d   1      19.438   3.196  15.727  0.00  0.00    -0.161 F 
ATOM     10  N24 <0> d   1      17.711   4.482  14.914  0.00  0.00    -0.183 NA
ENDROOT
BRANCH   5  11
ATOM     11  C7  <0> d   1      19.236   2.431  10.390  0.00  0.00     0.262 C 
ATOM     12  C17 <0> d   1      19.021   0.963  10.836  0.00  0.00     0.198 C 
ATOM     13  C14 <0> d   1      19.573   0.172   9.622  0.00  0.00     0.182 C 
ATOM     14  C10 <0> d   1      19.534   1.186   8.461  0.00  0.00     0.179 C 
ATOM     15  O9  <0> d   1      18.961   2.400   8.973  0.00  0.00    -0.353 OA
BRANCH  12  16
ATOM     16  O19 <0> d   1      17.632   0.690  11.032  0.00  0.00    -0.388 OA
ATOM     17  H32 <0> d   1      17.278   1.030  11.866  0.00  0.00     0.210 HD
ENDBRANCH  12  16
BRANCH  13  18
ATOM     18  O16 <0> d   1      20.915  -0.251   9.870  0.00  0.00    -0.390 OA
ATOM     19  H31 <0> d   1      21.573   0.176   9.306  0.00  0.00     0.210 HD
ENDBRANCH  13  18
BRANCH  14  20
ATOM     20  C12 <0> d   1      18.668   0.642   7.322  0.00  0.00     0.198 C 
BRANCH  20  21
ATOM     21  O13 <0> d   1      17.400   0.233   7.842  0.00  0.00    -0.398 OA
ATOM     22  H30 <0> d   1      16.760   0.952   7.928  0.00  0.00     0.209 HD
ENDBRANCH  20  21
ENDBRANCH  14  20
ENDBRANCH   5  11
BRANCH   1  23
ATOM     23  N1  <0> d   1      15.914   5.819  14.177  0.00  0.00    -0.382 N 
ATOM     24  H25 <0> d   1      15.767   6.150  15.078  0.00  0.00     0.157 HD
ATOM     25  H26 <0> d   1      15.342   6.116  13.452  0.00  0.00     0.157 HD
ENDBRANCH   1  23
TORSDOF 6
ENDMDL
MODEL 9
REMARK VINA RESULT:      -6.5      4.167      6.286
REMARK  6 active torsions:
REMARK  status: ('A' for Active; 'I' for Inactive)
REMARK    1  A    between atoms: N1_1  and  C2_2 
REMARK    2  A    between atoms: N6_6  and  C7_7 
REMARK    3  A    between atoms: C10_9  and  C12_10 
REMARK    4  A    between atoms: C12_10  and  O13_11 
REMARK    5  A    between atoms: C14_12  and  O16_13 
REMARK    6  A    between atoms: C17_14  and  O19_15 
ROOT
ATOM      1  C2  <0> d   1      18.372  -3.077   8.708  0.00  0.00     0.159 A 
ATOM      2  C3  <0> d   1      18.023  -1.744   8.989  0.00  0.00     0.149 A 
ATOM      3  N4  <0> d   1      17.375  -0.767   8.309  0.00  0.00    -0.236 NA
ATOM      4  C5  <0> d   1      17.318   0.305   9.044  0.00  0.00     0.214 A 
ATOM      5  N6  <0> d   1      17.927   0.082  10.243  0.00  0.00    -0.294 N 
ATOM      6  C20 <0> d   1      18.384  -1.211  10.236  0.00  0.00     0.170 A 
ATOM      7  N21 <0> d   1      19.040  -1.978  11.103  0.00  0.00    -0.182 NA
ATOM      8  C22 <0> d   1      19.348  -3.224  10.796  0.00  0.00     0.313 A 
ATOM      9  F23 <0> d   1      20.015  -3.971  11.704  0.00  0.00    -0.161 F 
ATOM     10  N24 <0> d   1      19.022  -3.770   9.637  0.00  0.00    -0.183 NA
ENDROOT
BRANCH   5  11
ATOM     11  C7  <0> d   1      18.068   1.047  11.337  0.00  0.00     0.262 C 
ATOM     12  C17 <0> d   1      19.461   1.724  11.291  0.00  0.00     0.198 C 
ATOM     13  C14 <0> d   1      19.193   3.062  12.026  0.00  0.00     0.182 C 
ATOM     14  C10 <0> d   1      17.666   3.249  11.930  0.00  0.00     0.179 C 
ATOM     15  O9  <0> d   1      17.149   2.147  11.165  0.00  0.00    -0.353 OA
BRANCH  12  16
ATOM     16  O19 <0> d   1      19.868   1.956   9.941  0.00  0.00    -0.388 OA
ATOM     17  H32 <0> d   1      19.413   2.696   9.514  0.00  0.00     0.210 HD
ENDBRANCH  12  16
BRANCH  13  18
ATOM     18  O16 <0> d   1      19.601   2.972  13.392  0.00  0.00    -0.390 OA
ATOM     19  H31 <0> d   1      19.711   2.066  13.710  0.00  0.00     0.210 HD
ENDBRANCH  13  18
BRANCH  14  20
ATOM     20  C12 <0> d   1      17.344   4.568  11.225  0.00  0.00     0.198 C 
BRANCH  20  21
ATOM     21  O13 <0> d   1      17.861   4.534   9.892  0.00  0.00    -0.398 OA
ATOM     22  H30 <0> d   1      17.504   5.223   9.315  0.00  0.00     0.209 HD
ENDBRANCH  20  21
ENDBRANCH  14  20
ENDBRANCH   5  11
BRANCH   1  23
ATOM     23  N1  <0> d   1      18.042  -3.654   7.496  0.00  0.00    -0.382 N 
ATOM     24  H25 <0> d   1      18.675  -4.238   7.048  0.00  0.00     0.157 HD
ATOM     25  H26 <0> d   1      17.176  -3.480   7.095  0.00  0.00     0.157 HD
ENDBRANCH   1  23
TORSDOF 6
ENDMDL
