MODEL 1
REMARK VINA RESULT:      -8.0      0.000      0.000
REMARK  3 active torsions:
REMARK  status: ('A' for Active; 'I' for Inactive)
REMARK    1  A    between atoms: O2_2  and  C3_3 
REMARK    2  A    between atoms: C6_6  and  C7_7 
REMARK    3  A    between atoms: C21_21  and  O22_22 
ROOT
ATOM      1  C7  <0> d   1      18.606   0.932   8.774  0.00  0.00     0.090 A 
ATOM      2  C8  <0> d   1      18.900   1.426   7.542  0.00  0.00     0.094 A 
ATOM      3  C9  <0> d   1      19.170   0.533   6.478  0.00  0.00     0.190 A 
ATOM      4  O10 <0> d   1      19.438   0.941   5.360  0.00  0.00    -0.287 OA
ATOM      5  C11 <0> d   1      19.116  -0.909   6.773  0.00  0.00     0.085 A 
ATOM      6  C12 <0> d   1      19.370  -1.864   5.782  0.00  0.00     0.127 A 
ATOM      7  O13 <0> d   1      19.673  -1.474   4.518  0.00  0.00    -0.191 OA
ATOM      8  C14 <0> d   1      19.309  -3.209   6.100  0.00  0.00     0.081 A 
ATOM      9  C15 <0> d   1      18.999  -3.607   7.395  0.00  0.00     0.112 A 
ATOM     10  O16 <0> d   1      18.942  -4.929   7.698  0.00  0.00    -0.192 OA
ATOM     11  C17 <0> d   1      18.745  -2.666   8.382  0.00  0.00     0.078 A 
ATOM     12  C18 <0> d   1      18.802  -1.314   8.082  0.00  0.00     0.096 A 
ATOM     13  O19 <0> d   1      18.564  -0.385   9.032  0.00  0.00    -0.309 OA
ENDROOT
BRANCH   1  14
ATOM     14  C6  <0> d   1      18.328   1.879   9.870  0.00  0.00     0.001 A 
ATOM     15  C5  <0> d   1      18.265   3.251   9.612  0.00  0.00     0.017 A 
ATOM     16  C4  <0> d   1      18.005   4.134  10.637  0.00  0.00     0.040 A 
ATOM     17  C3  <0> d   1      17.805   3.665  11.928  0.00  0.00     0.101 A 
ATOM     18  C21 <0> d   1      17.871   2.298  12.194  0.00  0.00     0.099 A 
ATOM     19  C20 <0> d   1      18.126   1.406  11.171  0.00  0.00     0.053 A 
BRANCH  17  20
ATOM     20  O2  <0> d   1      17.548   4.540  12.935  0.00  0.00    -0.353 OA
ATOM     21  C1  <0> d   1      16.500   5.487  12.721  0.00  0.00     0.210 C 
ENDBRANCH  17  20
BRANCH  18  22
ATOM     22  O22 <0> d   1      17.675   1.841  13.460  0.00  0.00    -0.358 OA
ATOM     23  H32 <0> d   1      17.060   1.097  13.519  0.00  0.00     0.217 HD
ENDBRANCH  18  22
ENDBRANCH   1  14
TORSDOF 3
ENDMDL
MODEL 2
REMARK VINA RESULT:      -7.8      1.872      7.484
REMARK  3 active torsions:
REMARK  status: ('A' for Active; 'I' for Inactive)
REMARK    1  A    between atoms: O2_2  and  C3_3 
REMARK    2  A    between atoms: C6_6  and  C7_7 
REMARK    3  A    between atoms: C21_21  and  O22_22 
ROOT
ATOM      1  C7  <0> d   1      18.140   2.204  10.693  0.00  0.00     0.090 A 
ATOM      2  C8  <0> d   1      17.538   3.423  10.659  0.00  0.00     0.094 A 
ATOM      3  C9  <0> d   1      17.386   4.160  11.857  0.00  0.00     0.190 A 
ATOM      4  O10 <0> d   1      16.850   5.256  11.864  0.00  0.00    -0.287 OA
ATOM      5  C11 <0> d   1      17.902   3.553  13.096  0.00  0.00     0.085 A 
ATOM      6  C12 <0> d   1      17.796   4.211  14.327  0.00  0.00     0.127 A 
ATOM      7  O13 <0> d   1      17.209   5.433  14.401  0.00  0.00    -0.191 OA
ATOM      8  C14 <0> d   1      18.293   3.606  15.468  0.00  0.00     0.081 A 
ATOM      9  C15 <0> d   1      18.892   2.355  15.391  0.00  0.00     0.112 A 
ATOM     10  O16 <0> d   1      19.376   1.770  16.516  0.00  0.00    -0.192 OA
ATOM     11  C17 <0> d   1      19.001   1.698  14.174  0.00  0.00     0.078 A 
ATOM     12  C18 <0> d   1      18.509   2.287  13.020  0.00  0.00     0.096 A 
ATOM     13  O19 <0> d   1      18.602   1.659  11.829  0.00  0.00    -0.309 OA
ENDROOT
BRANCH   1  14
ATOM     14  C6  <0> d   1      18.288   1.451   9.433  0.00  0.00     0.001 A 
ATOM     15  C5  <0> d   1      18.955   2.025   8.348  0.00  0.00     0.017 A 
ATOM     16  C4  <0> d   1      19.091   1.319   7.172  0.00  0.00     0.040 A 
ATOM     17  C3  <0> d   1      18.569   0.038   7.062  0.00  0.00     0.101 A 
ATOM     18  C21 <0> d   1      17.897  -0.538   8.139  0.00  0.00     0.099 A 
ATOM     19  C20 <0> d   1      17.760   0.161   9.323  0.00  0.00     0.053 A 
BRANCH  17  20
ATOM     20  O2  <0> d   1      18.706  -0.653   5.901  0.00  0.00    -0.353 OA
ATOM     21  C1  <0> d   1      19.379   0.009   4.827  0.00  0.00     0.210 C 
ENDBRANCH  17  20
BRANCH  18  22
ATOM     22  O22 <0> d   1      17.385  -1.793   8.028  0.00  0.00    -0.358 OA
ATOM     23  H32 <0> d   1      17.446  -2.167   7.138  0.00  0.00     0.217 HD
ENDBRANCH  18  22
ENDBRANCH   1  14
TORSDOF 3
ENDMDL
MODEL 3
REMARK VINA RESULT:      -7.7      1.591      7.230
REMARK  3 active torsions:
REMARK  status: ('A' for Active; 'I' for Inactive)
REMARK    1  A    between atoms: O2_2  and  C3_3 
REMARK    2  A    between atoms: C6_6  and  C7_7 
REMARK    3  A    between atoms: C21_21  and  O22_22 
ROOT
ATOM      1  C7  <0> d   1      18.911   1.083   9.150  0.00  0.00     0.090 A 
ATOM      2  C8  <0> d   1      18.512   2.374   9.000  0.00  0.00     0.094 A 
ATOM      3  C9  <0> d   1      18.343   3.190  10.144  0.00  0.00     0.190 A 
ATOM      4  O10 <0> d   1      17.986   4.352  10.046  0.00  0.00    -0.287 OA
ATOM      5  C11 <0> d   1      18.616   2.581  11.457  0.00  0.00     0.085 A 
ATOM      6  C12 <0> d   1      18.476   3.313  12.641  0.00  0.00     0.127 A 
ATOM      7  O13 <0> d   1      18.081   4.612  12.600  0.00  0.00    -0.191 OA
ATOM      8  C14 <0> d   1      18.742   2.704  13.855  0.00  0.00     0.081 A 
ATOM      9  C15 <0> d   1      19.145   1.375  13.895  0.00  0.00     0.112 A 
ATOM     10  O16 <0> d   1      19.402   0.786  15.091  0.00  0.00    -0.192 OA
ATOM     11  C17 <0> d   1      19.287   0.643  12.726  0.00  0.00     0.078 A 
ATOM     12  C18 <0> d   1      19.024   1.236  11.501  0.00  0.00     0.096 A 
ATOM     13  O19 <0> d   1      19.152   0.537  10.353  0.00  0.00    -0.309 OA
ENDROOT
BRANCH   1  14
ATOM     14  C6  <0> d   1      19.080   0.248   7.946  0.00  0.00     0.001 A 
ATOM     15  C5  <0> d   1      19.225  -1.136   8.068  0.00  0.00     0.017 A 
ATOM     16  C4  <0> d   1      19.384  -1.914   6.941  0.00  0.00     0.040 A 
ATOM     17  C3  <0> d   1      19.399  -1.327   5.684  0.00  0.00     0.101 A 
ATOM     18  C21 <0> d   1      19.261   0.054   5.555  0.00  0.00     0.099 A 
ATOM     19  C20 <0> d   1      19.097   0.840   6.679  0.00  0.00     0.053 A 
BRANCH  17  20
ATOM     20  O2  <0> d   1      19.555  -2.099   4.577  0.00  0.00    -0.353 OA
ATOM     21  C1  <0> d   1      18.593  -3.135   4.368  0.00  0.00     0.210 C 
ENDBRANCH  17  20
BRANCH  18  22
ATOM     22  O22 <0> d   1      19.278   0.627   4.322  0.00  0.00    -0.358 OA
ATOM     23  H32 <0> d   1      20.076   1.140   4.137  0.00  0.00     0.217 HD
ENDBRANCH  18  22
ENDBRANCH   1  14
TORSDOF 3
ENDMDL
MODEL 4
REMARK VINA RESULT:      -7.7      1.379      2.781
REMARK  3 active torsions:
REMARK  status: ('A' for Active; 'I' for Inactive)
REMARK    1  A    between atoms: O2_2  and  C3_3 
REMARK    2  A    between atoms: C6_6  and  C7_7 
REMARK    3  A    between atoms: C21_21  and  O22_22 
ROOT
ATOM      1  C7  <0> d   1      18.705   1.332   9.834  0.00  0.00     0.090 A 
ATOM      2  C8  <0> d   1      18.870   0.087  10.356  0.00  0.00     0.094 A 
ATOM      3  C9  <0> d   1      19.069  -1.013   9.488  0.00  0.00     0.190 A 
ATOM      4  O10 <0> d   1      19.220  -2.143   9.921  0.00  0.00    -0.287 OA
ATOM      5  C11 <0> d   1      19.085  -0.740   8.041  0.00  0.00     0.085 A 
ATOM      6  C12 <0> d   1      19.275  -1.767   7.109  0.00  0.00     0.127 A 
ATOM      7  O13 <0> d   1      19.449  -3.046   7.528  0.00  0.00    -0.191 OA
ATOM      8  C14 <0> d   1      19.284  -1.469   5.758  0.00  0.00     0.081 A 
ATOM      9  C15 <0> d   1      19.105  -0.158   5.331  0.00  0.00     0.112 A 
ATOM     10  O16 <0> d   1      19.114   0.124   4.004  0.00  0.00    -0.192 OA
ATOM     11  C17 <0> d   1      18.917   0.864   6.249  0.00  0.00     0.078 A 
ATOM     12  C18 <0> d   1      18.905   0.585   7.606  0.00  0.00     0.096 A 
ATOM     13  O19 <0> d   1      18.717   1.568   8.513  0.00  0.00    -0.309 OA
ENDROOT
BRANCH   1  14
ATOM     14  C6  <0> d   1      18.499   2.466  10.755  0.00  0.00     0.001 A 
ATOM     15  C5  <0> d   1      17.752   3.573  10.346  0.00  0.00     0.017 A 
ATOM     16  C4  <0> d   1      17.561   4.632  11.208  0.00  0.00     0.040 A 
ATOM     17  C3  <0> d   1      18.108   4.601  12.483  0.00  0.00     0.101 A 
ATOM     18  C21 <0> d   1      18.859   3.501  12.896  0.00  0.00     0.099 A 
ATOM     19  C20 <0> d   1      19.051   2.434  12.039  0.00  0.00     0.053 A 
BRANCH  17  20
ATOM     20  O2  <0> d   1      17.916   5.646  13.329  0.00  0.00    -0.353 OA
ATOM     21  C1  <0> d   1      16.621   5.774  13.918  0.00  0.00     0.210 C 
ENDBRANCH  17  20
BRANCH  18  22
ATOM     22  O22 <0> d   1      19.395   3.474  14.145  0.00  0.00    -0.358 OA
ATOM     23  H32 <0> d   1      20.167   4.045  14.255  0.00  0.00     0.217 HD
ENDBRANCH  18  22
ENDBRANCH   1  14
TORSDOF 3
ENDMDL
MODEL 5
REMARK VINA RESULT:      -7.6      2.964      4.725
REMARK  3 active torsions:
REMARK  status: ('A' for Active; 'I' for Inactive)
REMARK    1  A    between atoms: O2_2  and  C3_3 
REMARK    2  A    between atoms: C6_6  and  C7_7 
REMARK    3  A    between atoms: C21_21  and  O22_22 
ROOT
ATOM      1  C7  <0> d   1      18.747  -0.972  11.942  0.00  0.00     0.090 A 
ATOM      2  C8  <0> d   1      18.938  -2.280  11.625  0.00  0.00     0.094 A 
ATOM      3  C9  <0> d   1      19.087  -2.655  10.268  0.00  0.00     0.190 A 
ATOM      4  O10 <0> d   1      19.259  -3.819   9.948  0.00  0.00    -0.287 OA
ATOM      5  C11 <0> d   1      19.027  -1.584   9.259  0.00  0.00     0.085 A 
ATOM      6  C12 <0> d   1      19.165  -1.863   7.894  0.00  0.00     0.127 A 
ATOM      7  O13 <0> d   1      19.358  -3.139   7.473  0.00  0.00    -0.191 OA
ATOM      8  C14 <0> d   1      19.102  -0.828   6.978  0.00  0.00     0.081 A 
ATOM      9  C15 <0> d   1      18.903   0.477   7.410  0.00  0.00     0.112 A 
ATOM     10  O16 <0> d   1      18.842   1.485   6.503  0.00  0.00    -0.192 OA
ATOM     11  C17 <0> d   1      18.766   0.761   8.761  0.00  0.00     0.078 A 
ATOM     12  C18 <0> d   1      18.826  -0.262   9.694  0.00  0.00     0.096 A 
ATOM     13  O19 <0> d   1      18.689  -0.005  11.013  0.00  0.00    -0.309 OA
ENDROOT
BRANCH   1  14
ATOM     14  C6  <0> d   1      18.593  -0.601  13.361  0.00  0.00     0.001 A 
ATOM     15  C5  <0> d   1      18.845  -1.543  14.362  0.00  0.00     0.017 A 
ATOM     16  C4  <0> d   1      18.700  -1.195  15.688  0.00  0.00     0.040 A 
ATOM     17  C3  <0> d   1      18.305   0.090  16.033  0.00  0.00     0.101 A 
ATOM     18  C21 <0> d   1      18.047   1.033  15.039  0.00  0.00     0.099 A 
ATOM     19  C20 <0> d   1      18.195   0.694  13.708  0.00  0.00     0.053 A 
BRANCH  17  20
ATOM     20  O2  <0> d   1      18.164   0.428  17.341  0.00  0.00    -0.353 OA
ATOM     21  C1  <0> d   1      19.315   0.283  18.176  0.00  0.00     0.210 C 
ENDBRANCH  17  20
BRANCH  18  22
ATOM     22  O22 <0> d   1      17.659   2.291  15.380  0.00  0.00    -0.358 OA
ATOM     23  H32 <0> d   1      16.772   2.527  15.074  0.00  0.00     0.217 HD
ENDBRANCH  18  22
ENDBRANCH   1  14
TORSDOF 3
ENDMDL
MODEL 6
REMARK VINA RESULT:      -7.5      4.202      9.198
REMARK  3 active torsions:
REMARK  status: ('A' for Active; 'I' for Inactive)
REMARK    1  A    between atoms: O2_2  and  C3_3 
REMARK    2  A    between atoms: C6_6  and  C7_7 
REMARK    3  A    between atoms: C21_21  and  O22_22 
ROOT
ATOM      1  C7  <0> d   1      18.839  -0.595  14.181  0.00  0.00     0.090 A 
ATOM      2  C8  <0> d   1      19.045  -1.169  15.396  0.00  0.00     0.094 A 
ATOM      3  C9  <0> d   1      19.185  -0.348  16.541  0.00  0.00     0.190 A 
ATOM      4  O10 <0> d   1      19.373  -0.828  17.646  0.00  0.00    -0.287 OA
ATOM      5  C11 <0> d   1      19.096   1.109  16.344  0.00  0.00     0.085 A 
ATOM      6  C12 <0> d   1      19.222   1.997  17.419  0.00  0.00     0.127 A 
ATOM      7  O13 <0> d   1      19.432   1.524  18.675  0.00  0.00    -0.191 OA
ATOM      8  C14 <0> d   1      19.132   3.358  17.193  0.00  0.00     0.081 A 
ATOM      9  C15 <0> d   1      18.919   3.840  15.907  0.00  0.00     0.112 A 
ATOM     10  O16 <0> d   1      18.833   5.178  15.695  0.00  0.00    -0.192 OA
ATOM     11  C17 <0> d   1      18.792   2.966  14.837  0.00  0.00     0.078 A 
ATOM     12  C18 <0> d   1      18.879   1.599  15.044  0.00  0.00     0.096 A 
ATOM     13  O19 <0> d   1      18.764   0.734  14.013  0.00  0.00    -0.309 OA
ENDROOT
BRANCH   1  14
ATOM     14  C6  <0> d   1      18.696  -1.468  13.000  0.00  0.00     0.001 A 
ATOM     15  C5  <0> d   1      17.519  -1.442  12.248  0.00  0.00     0.017 A 
ATOM     16  C4  <0> d   1      17.388  -2.258  11.145  0.00  0.00     0.040 A 
ATOM     17  C3  <0> d   1      18.422  -3.107  10.778  0.00  0.00     0.101 A 
ATOM     18  C21 <0> d   1      19.597  -3.142  11.527  0.00  0.00     0.099 A 
ATOM     19  C20 <0> d   1      19.739  -2.324  12.631  0.00  0.00     0.053 A 
BRANCH  17  20
ATOM     20  O2  <0> d   1      18.288  -3.909   9.690  0.00  0.00    -0.353 OA
ATOM     21  C1  <0> d   1      17.026  -4.556   9.513  0.00  0.00     0.210 C 
ENDBRANCH  17  20
BRANCH  18  22
ATOM     22  O22 <0> d   1      20.610  -3.976  11.166  0.00  0.00    -0.358 OA
ATOM     23  H32 <0> d   1      21.481  -3.693  11.475  0.00  0.00     0.217 HD
ENDBRANCH  18  22
ENDBRANCH   1  14
TORSDOF 3
ENDMDL
MODEL 7
REMARK VINA RESULT:      -7.5      2.131      7.096
REMARK  3 active torsions:
REMARK  status: ('A' for Active; 'I' for Inactive)
REMARK    1  A    between atoms: O2_2  and  C3_3 
REMARK    2  A    between atoms: C6_6  and  C7_7 
REMARK    3  A    between atoms: C21_21  and  O22_22 
ROOT
ATOM      1  C7  <0> d   1      18.257   0.016   9.821  0.00  0.00     0.090 A 
ATOM      2  C8  <0> d   1      17.785   1.280   9.987  0.00  0.00     0.094 A 
ATOM      3  C9  <0> d   1      17.693   1.825  11.289  0.00  0.00     0.190 A 
ATOM      4  O10 <0> d   1      17.273   2.955  11.476  0.00  0.00    -0.287 OA
ATOM      5  C11 <0> d   1      18.123   0.974  12.412  0.00  0.00     0.085 A 
ATOM      6  C12 <0> d   1      18.066   1.431  13.734  0.00  0.00     0.127 A 
ATOM      7  O13 <0> d   1      17.609   2.680  14.007  0.00  0.00    -0.191 OA
ATOM      8  C14 <0> d   1      18.480   0.601  14.760  0.00  0.00     0.081 A 
ATOM      9  C15 <0> d   1      18.947  -0.677  14.479  0.00  0.00     0.112 A 
ATOM     10  O16 <0> d   1      19.350  -1.484  15.493  0.00  0.00    -0.192 OA
ATOM     11  C17 <0> d   1      19.007  -1.136  13.172  0.00  0.00     0.078 A 
ATOM     12  C18 <0> d   1      18.597  -0.319  12.131  0.00  0.00     0.096 A 
ATOM     13  O19 <0> d   1      18.642  -0.752  10.853  0.00  0.00    -0.309 OA
ENDROOT
BRANCH   1  14
ATOM     14  C6  <0> d   1      18.345  -0.535   8.455  0.00  0.00     0.001 A 
ATOM     15  C5  <0> d   1      17.550  -0.008   7.435  0.00  0.00     0.017 A 
ATOM     16  C4  <0> d   1      17.633  -0.525   6.160  0.00  0.00     0.040 A 
ATOM     17  C3  <0> d   1      18.506  -1.567   5.885  0.00  0.00     0.101 A 
ATOM     18  C21 <0> d   1      19.299  -2.102   6.899  0.00  0.00     0.099 A 
ATOM     19  C20 <0> d   1      19.225  -1.587   8.179  0.00  0.00     0.053 A 
BRANCH  17  20
ATOM     20  O2  <0> d   1      18.585  -2.072   4.626  0.00  0.00    -0.353 OA
ATOM     21  C1  <0> d   1      17.489  -2.873   4.179  0.00  0.00     0.210 C 
ENDBRANCH  17  20
BRANCH  18  22
ATOM     22  O22 <0> d   1      20.153  -3.125   6.628  0.00  0.00    -0.358 OA
ATOM     23  H32 <0> d   1      19.956  -3.595   5.806  0.00  0.00     0.217 HD
ENDBRANCH  18  22
ENDBRANCH   1  14
TORSDOF 3
ENDMDL
MODEL 8
REMARK VINA RESULT:      -7.3      2.679      7.884
REMARK  3 active torsions:
REMARK  status: ('A' for Active; 'I' for Inactive)
REMARK    1  A    between atoms: O2_2  and  C3_3 
REMARK    2  A    between atoms: C6_6  and  C7_7 
REMARK    3  A    between atoms: C21_21  and  O22_22 
ROOT
ATOM      1  C7  <0> d   1      18.158  -0.180  11.714  0.00  0.00     0.090 A 
ATOM      2  C8  <0> d   1      18.168  -0.011  13.063  0.00  0.00     0.094 A 
ATOM      3  C9  <0> d   1      18.035   1.289  13.605  0.00  0.00     0.190 A 
ATOM      4  O10 <0> d   1      18.041   1.478  14.810  0.00  0.00    -0.287 OA
ATOM      5  C11 <0> d   1      17.889   2.407  12.656  0.00  0.00     0.085 A 
ATOM      6  C12 <0> d   1      17.751   3.726  13.103  0.00  0.00     0.127 A 
ATOM      7  O13 <0> d   1      17.750   4.001  14.432  0.00  0.00    -0.191 OA
ATOM      8  C14 <0> d   1      17.616   4.747  12.179  0.00  0.00     0.081 A 
ATOM      9  C15 <0> d   1      17.619   4.464  10.819  0.00  0.00     0.112 A 
ATOM     10  O16 <0> d   1      17.487   5.473   9.921  0.00  0.00    -0.192 OA
ATOM     11  C17 <0> d   1      17.754   3.159  10.369  0.00  0.00     0.078 A 
ATOM     12  C18 <0> d   1      17.890   2.122  11.279  0.00  0.00     0.096 A 
ATOM     13  O19 <0> d   1      18.029   0.847  10.859  0.00  0.00    -0.309 OA
ENDROOT
BRANCH   1  14
ATOM     14  C6  <0> d   1      18.299  -1.543  11.168  0.00  0.00     0.001 A 
ATOM     15  C5  <0> d   1      18.784  -2.575  11.977  0.00  0.00     0.017 A 
ATOM     16  C4  <0> d   1      18.916  -3.847  11.466  0.00  0.00     0.040 A 
ATOM     17  C3  <0> d   1      18.567  -4.109  10.149  0.00  0.00     0.101 A 
ATOM     18  C21 <0> d   1      18.088  -3.085   9.334  0.00  0.00     0.099 A 
ATOM     19  C20 <0> d   1      17.949  -1.807   9.841  0.00  0.00     0.053 A 
BRANCH  17  20
ATOM     20  O2  <0> d   1      18.698  -5.366   9.649  0.00  0.00    -0.353 OA
ATOM     21  C1  <0> d   1      20.005  -5.767   9.234  0.00  0.00     0.210 C 
ENDBRANCH  17  20
BRANCH  18  22
ATOM     22  O22 <0> d   1      17.748  -3.344   8.043  0.00  0.00    -0.358 OA
ATOM     23  H32 <0> d   1      18.502  -3.389   7.439  0.00  0.00     0.217 HD
ENDBRANCH  18  22
ENDBRANCH   1  14
TORSDOF 3
ENDMDL
MODEL 9
REMARK VINA RESULT:      -7.2      2.410      3.341
REMARK  3 active torsions:
REMARK  status: ('A' for Active; 'I' for Inactive)
REMARK    1  A    between atoms: O2_2  and  C3_3 
REMARK    2  A    between atoms: C6_6  and  C7_7 
REMARK    3  A    between atoms: C21_21  and  O22_22 
ROOT
ATOM      1  C7  <0> d   1      17.790  -0.724  10.717  0.00  0.00     0.090 A 
ATOM      2  C8  <0> d   1      17.972  -0.896   9.381  0.00  0.00     0.094 A 
ATOM      3  C9  <0> d   1      18.009  -2.205   8.844  0.00  0.00     0.190 A 
ATOM      4  O10 <0> d   1      18.171  -2.397   7.650  0.00  0.00    -0.287 OA
ATOM      5  C11 <0> d   1      17.845  -3.328   9.784  0.00  0.00     0.085 A 
ATOM      6  C12 <0> d   1      17.868  -4.655   9.342  0.00  0.00     0.127 A 
ATOM      7  O13 <0> d   1      18.044  -4.935   8.025  0.00  0.00    -0.191 OA
ATOM      8  C14 <0> d   1      17.709  -5.681  10.256  0.00  0.00     0.081 A 
ATOM      9  C15 <0> d   1      17.530  -5.393  11.604  0.00  0.00     0.112 A 
ATOM     10  O16 <0> d   1      17.377  -6.407  12.494  0.00  0.00    -0.192 OA
ATOM     11  C17 <0> d   1      17.505  -4.080  12.049  0.00  0.00     0.078 A 
ATOM     12  C18 <0> d   1      17.662  -3.039  11.148  0.00  0.00     0.096 A 
ATOM     13  O19 <0> d   1      17.646  -1.755  11.565  0.00  0.00    -0.309 OA
ENDROOT
BRANCH   1  14
ATOM     14  C6  <0> d   1      17.755   0.648  11.257  0.00  0.00     0.001 A 
ATOM     15  C5  <0> d   1      17.735   1.742  10.389  0.00  0.00     0.017 A 
ATOM     16  C4  <0> d   1      17.703   3.024  10.896  0.00  0.00     0.040 A 
ATOM     17  C3  <0> d   1      17.689   3.231  12.267  0.00  0.00     0.101 A 
ATOM     18  C21 <0> d   1      17.715   2.145  13.140  0.00  0.00     0.099 A 
ATOM     19  C20 <0> d   1      17.742   0.857  12.640  0.00  0.00     0.053 A 
BRANCH  17  20
ATOM     20  O2  <0> d   1      17.657   4.496  12.761  0.00  0.00    -0.353 OA
ATOM     21  C1  <0> d   1      16.600   5.344  12.306  0.00  0.00     0.210 C 
ENDBRANCH  17  20
BRANCH  18  22
ATOM     22  O22 <0> d   1      17.703   2.351  14.484  0.00  0.00    -0.358 OA
ATOM     23  H32 <0> d   1      18.346   3.006  14.788  0.00  0.00     0.217 HD
ENDBRANCH  18  22
ENDBRANCH   1  14
TORSDOF 3
ENDMDL
