MODEL 1
REMARK VINA RESULT:      -8.9      0.000      0.000
REMARK  16 active torsions:
REMARK  status: ('A' for Active; 'I' for Inactive)
REMARK    1  A    between atoms: C2_2  and  C3_3 
REMARK    2  A    between atoms: C3_3  and  C4_4 
REMARK    3  A    between atoms: C4_4  and  C5_5 
REMARK    4  A    between atoms: C5_5  and  O7_7 
REMARK    5  A    between atoms: O7_7  and  C8_8 
REMARK    6  A    between atoms: C8_8  and  C9_9 
REMARK    7  A    between atoms: C9_9  and  C11_11 
REMARK    8  A    between atoms: C11_11  and  O12_12 
REMARK    9  A    between atoms: C15_15  and  O16_16 
REMARK   10  A    between atoms: C22_22  and  O23_23 
REMARK   11  A    between atoms: C31_31  and  O32_32 
REMARK   12  A    between atoms: C34_34  and  O36_35 
REMARK   13  A    between atoms: O36_35  and  C37_36 
REMARK   14  A    between atoms: C40_38  and  N42_39 
REMARK       I    between atoms: N42_39  and  C43_40 
REMARK   15  A    between atoms: C43_40  and  C45_42 
REMARK   16  A    between atoms: C49_46  and  O51_47 
ROOT
ATOM      1  C11 ZIN A   1      19.086   3.934  12.111  0.00  0.00     0.127 C 
ATOM      2  C13 ZIN A   1      19.599   3.244  10.850  0.00  0.00     0.088 C 
ATOM      3  C14 ZIN A   1      19.257   1.776  10.869  0.00  0.00    -0.009 A 
ATOM      4  C15 ZIN A   1      19.311   1.087   9.649  0.00  0.00     0.088 A 
ATOM      5  C17 ZIN A   1      19.014  -0.272   9.594  0.00  0.00     0.066 A 
ATOM      6  C18 ZIN A   1      18.657  -0.953  10.777  0.00  0.00     0.066 A 
ATOM      7  C19 ZIN A   1      18.346  -2.393  10.725  0.00  0.00     0.200 C 
ATOM      8  O20 ZIN A   1      17.803  -2.940  11.666  0.00  0.00    -0.286 OA
ATOM      9  C21 ZIN A   1      18.703  -3.164   9.518  0.00  0.00     0.062 A 
ATOM     10  C22 ZIN A   1      18.693  -4.561   9.537  0.00  0.00     0.083 A 
ATOM     11  C25 ZIN A   1      19.034  -5.267   8.386  0.00  0.00     0.038 A 
ATOM     12  C26 ZIN A   1      19.378  -4.596   7.230  0.00  0.00     0.004 A 
ATOM     13  C27 ZIN A   1      19.391  -3.210   7.198  0.00  0.00     0.017 A 
ATOM     14  C28 ZIN A   1      19.057  -2.485   8.335  0.00  0.00     0.032 A 
ATOM     15  C29 ZIN A   1      19.069  -1.007   8.316  0.00  0.00     0.197 C 
ATOM     16  O30 ZIN A   1      19.124  -0.405   7.262  0.00  0.00    -0.286 OA
ATOM     17  C31 ZIN A   1      18.604  -0.253  11.979  0.00  0.00     0.090 A 
ATOM     18  C33 ZIN A   1      18.904   1.116  12.018  0.00  0.00     0.014 A 
ATOM     19  C34 ZIN A   1      18.812   1.804  13.356  0.00  0.00     0.164 C 
ATOM     20  C56 ZIN A   1      19.564   3.134  13.329  0.00  0.00     0.083 C 
ENDROOT
BRANCH  19  21
ATOM     21  O36 ZIN A   1      19.381   0.963  14.360  0.00  0.00    -0.351 OA
BRANCH  21  22
ATOM     22  C37 ZIN A   1      18.602   0.875  15.555  0.00  0.00     0.263 C 
ATOM     23  O55 ZIN A   1      19.005  -0.275  16.302  0.00  0.00    -0.354 OA
ATOM     24  C52 ZIN A   1      18.268  -0.474  17.510  0.00  0.00     0.151 C 
ATOM     25  C49 ZIN A   1      18.472   0.730  18.434  0.00  0.00     0.169 C 
ATOM     26  C54 ZIN A   1      16.780  -0.618  17.182  0.00  0.00     0.042 C 
ATOM     27  C40 ZIN A   1      18.030   2.004  17.707  0.00  0.00     0.120 C 
ATOM     28  C39 ZIN A   1      18.820   2.133  16.400  0.00  0.00     0.088 C 
BRANCH  25  29
ATOM     29  O51 ZIN A   1      17.691   0.562  19.619  0.00  0.00    -0.391 OA
ATOM     30  H82 ZIN A   1      17.506  -0.361  19.840  0.00  0.00     0.210 HD
ENDBRANCH  25  29
BRANCH  27  31
ATOM     31  N42 ZIN A   1      18.290   3.170  18.554  0.00  0.00    -0.346 N 
ATOM     32  C43 ZIN A   1      17.288   3.724  19.264  0.00  0.00     0.325 C 
ATOM     33  O44 ZIN A   1      16.171   3.257  19.202  0.00  0.00    -0.263 OA
ATOM     34  H81 ZIN A   1      19.185   3.543  18.603  0.00  0.00     0.163 HD
BRANCH  32  35
ATOM     35  C45 ZIN A   1      17.557   4.924  20.136  0.00  0.00     0.472 C 
ATOM     36  F46 ZIN A   1      17.751   6.052  19.331  0.00  0.00    -0.162 F 
ATOM     37  F47 ZIN A   1      16.466   5.138  20.985  0.00  0.00    -0.162 F 
ATOM     38  F48 ZIN A   1      18.706   4.695  20.902  0.00  0.00    -0.162 F 
ENDBRANCH  32  35
ENDBRANCH  27  31
ENDBRANCH  21  22
ENDBRANCH  19  21
BRANCH  17  39
ATOM     39  O32 ZIN A   1      18.261  -0.900  13.120  0.00  0.00    -0.359 OA
ATOM     40  H78 ZIN A   1      17.691  -0.386  13.709  0.00  0.00     0.217 HD
ENDBRANCH  17  39
BRANCH   1  41
ATOM     41  C9  ZIN A   1      17.580   3.975  12.091  0.00  0.00     0.185 C 
ATOM     42  O10 ZIN A   1      16.976   3.530  11.144  0.00  0.00    -0.292 OA
BRANCH  41  43
ATOM     43  C8  ZIN A   1      16.826   4.572  13.251  0.00  0.00     0.260 C 
BRANCH  43  44
ATOM     44  O7  ZIN A   1      16.995   6.014  13.249  0.00  0.00    -0.314 OA
BRANCH  44  45
ATOM     45  C5  ZIN A   1      17.268   6.596  14.428  0.00  0.00     0.259 C 
ATOM     46  O6  ZIN A   1      17.169   7.793  14.548  0.00  0.00    -0.265 OA
BRANCH  45  47
ATOM     47  C4  ZIN A   1      17.696   5.753  15.602  0.00  0.00     0.111 C 
BRANCH  47  48
ATOM     48  C3  ZIN A   1      18.910   6.398  16.275  0.00  0.00     0.009 C 
BRANCH  48  49
ATOM     49  C2  ZIN A   1      20.114   5.462  16.159  0.00  0.00    -0.004 C 
ATOM     50  C1  ZIN A   1      21.139   6.065  15.197  0.00  0.00     0.005 C 
ENDBRANCH  48  49
ENDBRANCH  47  48
ENDBRANCH  45  47
ENDBRANCH  44  45
ENDBRANCH  43  44
ENDBRANCH  41  43
ENDBRANCH   1  41
BRANCH   1  51
ATOM     51  O12 ZIN A   1      19.602   5.265  12.177  0.00  0.00    -0.382 OA
ATOM     52  H68 ZIN A   1      19.533   5.755  11.347  0.00  0.00     0.211 HD
ENDBRANCH   1  51
BRANCH   4  53
ATOM     53  O16 ZIN A   1      19.655   1.748   8.518  0.00  0.00    -0.359 OA
ATOM     54  H71 ZIN A   1      20.539   2.141   8.543  0.00  0.00     0.217 HD
ENDBRANCH   4  53
BRANCH  10  55
ATOM     55  O23 ZIN A   1      18.354  -5.225  10.669  0.00  0.00    -0.355 OA
ATOM     56  C24 ZIN A   1      17.286  -6.170  10.571  0.00  0.00     0.210 C 
ENDBRANCH  10  55
TORSDOF 16
ENDMDL
MODEL 2
REMARK VINA RESULT:      -8.6      5.922     11.852
REMARK  16 active torsions:
REMARK  status: ('A' for Active; 'I' for Inactive)
REMARK    1  A    between atoms: C2_2  and  C3_3 
REMARK    2  A    between atoms: C3_3  and  C4_4 
REMARK    3  A    between atoms: C4_4  and  C5_5 
REMARK    4  A    between atoms: C5_5  and  O7_7 
REMARK    5  A    between atoms: O7_7  and  C8_8 
REMARK    6  A    between atoms: C8_8  and  C9_9 
REMARK    7  A    between atoms: C9_9  and  C11_11 
REMARK    8  A    between atoms: C11_11  and  O12_12 
REMARK    9  A    between atoms: C15_15  and  O16_16 
REMARK   10  A    between atoms: C22_22  and  O23_23 
REMARK   11  A    between atoms: C31_31  and  O32_32 
REMARK   12  A    between atoms: C34_34  and  O36_35 
REMARK   13  A    between atoms: O36_35  and  C37_36 
REMARK   14  A    between atoms: C40_38  and  N42_39 
REMARK       I    between atoms: N42_39  and  C43_40 
REMARK   15  A    between atoms: C43_40  and  C45_42 
REMARK   16  A    between atoms: C49_46  and  O51_47 
ROOT
ATOM      1  C11 ZIN A   1      19.097  -4.220  10.846  0.00  0.00     0.127 C 
ATOM      2  C13 ZIN A   1      19.523  -3.490  12.117  0.00  0.00     0.088 C 
ATOM      3  C14 ZIN A   1      19.102  -2.043  12.066  0.00  0.00    -0.009 A 
ATOM      4  C15 ZIN A   1      19.071  -1.339  13.278  0.00  0.00     0.088 A 
ATOM      5  C17 ZIN A   1      18.698   0.002  13.304  0.00  0.00     0.066 A 
ATOM      6  C18 ZIN A   1      18.351   0.649  12.100  0.00  0.00     0.066 A 
ATOM      7  C19 ZIN A   1      17.960   2.071  12.121  0.00  0.00     0.200 C 
ATOM      8  O20 ZIN A   1      17.424   2.577  11.153  0.00  0.00    -0.286 OA
ATOM      9  C21 ZIN A   1      18.227   2.874  13.330  0.00  0.00     0.062 A 
ATOM     10  C22 ZIN A   1      18.141   4.268  13.293  0.00  0.00     0.083 A 
ATOM     11  C25 ZIN A   1      18.398   5.003  14.447  0.00  0.00     0.038 A 
ATOM     12  C26 ZIN A   1      18.734   4.365  15.623  0.00  0.00     0.004 A 
ATOM     13  C27 ZIN A   1      18.822   2.982  15.674  0.00  0.00     0.017 A 
ATOM     14  C28 ZIN A   1      18.572   2.228  14.535  0.00  0.00     0.032 A 
ATOM     15  C29 ZIN A   1      18.664   0.752  14.573  0.00  0.00     0.197 C 
ATOM     16  O30 ZIN A   1      18.711   0.166  15.637  0.00  0.00    -0.286 OA
ATOM     17  C31 ZIN A   1      18.382  -0.066  10.905  0.00  0.00     0.090 A 
ATOM     18  C33 ZIN A   1      18.758  -1.416  10.895  0.00  0.00     0.014 A 
ATOM     19  C34 ZIN A   1      18.755  -2.123   9.564  0.00  0.00     0.164 C 
ATOM     20  C56 ZIN A   1      19.577  -3.409   9.637  0.00  0.00     0.083 C 
ENDROOT
BRANCH  19  21
ATOM     21  O36 ZIN A   1      19.316  -1.263   8.572  0.00  0.00    -0.351 OA
BRANCH  21  22
ATOM     22  C37 ZIN A   1      18.536  -1.166   7.378  0.00  0.00     0.263 C 
ATOM     23  O55 ZIN A   1      18.910   0.010   6.659  0.00  0.00    -0.354 OA
ATOM     24  C52 ZIN A   1      18.169   0.219   5.454  0.00  0.00     0.151 C 
ATOM     25  C49 ZIN A   1      18.405  -0.958   4.502  0.00  0.00     0.169 C 
ATOM     26  C54 ZIN A   1      16.679   0.318   5.783  0.00  0.00     0.042 C 
ATOM     27  C40 ZIN A   1      17.995  -2.259   5.200  0.00  0.00     0.120 C 
ATOM     28  C39 ZIN A   1      18.787  -2.398   6.504  0.00  0.00     0.088 C 
BRANCH  25  29
ATOM     29  O51 ZIN A   1      17.621  -0.782   3.321  0.00  0.00    -0.391 OA
ATOM     30  H82 ZIN A   1      16.680  -0.640   3.492  0.00  0.00     0.210 HD
ENDBRANCH  25  29
BRANCH  27  31
ATOM     31  N42 ZIN A   1      18.285  -3.399   4.326  0.00  0.00    -0.346 N 
ATOM     32  C43 ZIN A   1      17.290  -3.990   3.637  0.00  0.00     0.325 C 
ATOM     33  O44 ZIN A   1      16.154  -3.579   3.740  0.00  0.00    -0.263 OA
ATOM     34  H81 ZIN A   1      19.194  -3.726   4.244  0.00  0.00     0.163 HD
BRANCH  32  35
ATOM     35  C45 ZIN A   1      17.589  -5.162   2.737  0.00  0.00     0.472 C 
ATOM     36  F46 ZIN A   1      16.457  -5.464   1.973  0.00  0.00    -0.162 F 
ATOM     37  F47 ZIN A   1      18.653  -4.839   1.889  0.00  0.00    -0.162 F 
ATOM     38  F48 ZIN A   1      17.934  -6.272   3.518  0.00  0.00    -0.162 F 
ENDBRANCH  32  35
ENDBRANCH  27  31
ENDBRANCH  21  22
ENDBRANCH  19  21
BRANCH  17  39
ATOM     39  O32 ZIN A   1      18.048   0.550   9.744  0.00  0.00    -0.359 OA
ATOM     40  H78 ZIN A   1      17.733   1.458   9.856  0.00  0.00     0.217 HD
ENDBRANCH  17  39
BRANCH   1  41
ATOM     41  C9  ZIN A   1      17.596  -4.345  10.810  0.00  0.00     0.185 C 
ATOM     42  O10 ZIN A   1      16.950  -4.155  11.813  0.00  0.00    -0.292 OA
BRANCH  41  43
ATOM     43  C8  ZIN A   1      16.899  -4.705   9.523  0.00  0.00     0.260 C 
BRANCH  43  44
ATOM     44  O7  ZIN A   1      17.153  -6.100   9.210  0.00  0.00    -0.314 OA
BRANCH  44  45
ATOM     45  C5  ZIN A   1      17.856  -6.355   8.095  0.00  0.00     0.259 C 
ATOM     46  O6  ZIN A   1      18.923  -6.915   8.168  0.00  0.00    -0.265 OA
BRANCH  45  47
ATOM     47  C4  ZIN A   1      17.311  -5.943   6.751  0.00  0.00     0.111 C 
BRANCH  47  48
ATOM     48  C3  ZIN A   1      16.241  -6.943   6.308  0.00  0.00     0.009 C 
BRANCH  48  49
ATOM     49  C2  ZIN A   1      14.913  -6.212   6.105  0.00  0.00    -0.004 C 
ATOM     50  C1  ZIN A   1      14.038  -6.388   7.348  0.00  0.00     0.005 C 
ENDBRANCH  48  49
ENDBRANCH  47  48
ENDBRANCH  45  47
ENDBRANCH  44  45
ENDBRANCH  43  44
ENDBRANCH  41  43
ENDBRANCH   1  41
BRANCH   1  51
ATOM     51  O12 ZIN A   1      19.687  -5.522  10.817  0.00  0.00    -0.382 OA
ATOM     52  H68 ZIN A   1      20.499  -5.598  11.337  0.00  0.00     0.211 HD
ENDBRANCH   1  51
BRANCH   4  53
ATOM     53  O16 ZIN A   1      19.407  -1.968  14.430  0.00  0.00    -0.359 OA
ATOM     54  H71 ZIN A   1      19.025  -1.568  15.224  0.00  0.00     0.217 HD
ENDBRANCH   4  53
BRANCH  10  55
ATOM     55  O23 ZIN A   1      17.810   4.899  12.141  0.00  0.00    -0.355 OA
ATOM     56  C24 ZIN A   1      16.615   5.681  12.151  0.00  0.00     0.210 C 
ENDBRANCH  10  55
TORSDOF 16
ENDMDL
MODEL 3
REMARK VINA RESULT:      -7.8      2.049      5.454
REMARK  16 active torsions:
REMARK  status: ('A' for Active; 'I' for Inactive)
REMARK    1  A    between atoms: C2_2  and  C3_3 
REMARK    2  A    between atoms: C3_3  and  C4_4 
REMARK    3  A    between atoms: C4_4  and  C5_5 
REMARK    4  A    between atoms: C5_5  and  O7_7 
REMARK    5  A    between atoms: O7_7  and  C8_8 
REMARK    6  A    between atoms: C8_8  and  C9_9 
REMARK    7  A    between atoms: C9_9  and  C11_11 
REMARK    8  A    between atoms: C11_11  and  O12_12 
REMARK    9  A    between atoms: C15_15  and  O16_16 
REMARK   10  A    between atoms: C22_22  and  O23_23 
REMARK   11  A    between atoms: C31_31  and  O32_32 
REMARK   12  A    between atoms: C34_34  and  O36_35 
REMARK   13  A    between atoms: O36_35  and  C37_36 
REMARK   14  A    between atoms: C40_38  and  N42_39 
REMARK       I    between atoms: N42_39  and  C43_40 
REMARK   15  A    between atoms: C43_40  and  C45_42 
REMARK   16  A    between atoms: C49_46  and  O51_47 
ROOT
ATOM      1  C11 ZIN A   1      17.836   0.307  13.631  0.00  0.00     0.127 C 
ATOM      2  C13 ZIN A   1      17.123  -0.916  13.059  0.00  0.00     0.088 C 
ATOM      3  C14 ZIN A   1      17.674  -1.265  11.700  0.00  0.00    -0.009 A 
ATOM      4  C15 ZIN A   1      17.411  -2.552  11.211  0.00  0.00     0.088 A 
ATOM      5  C17 ZIN A   1      17.883  -2.940   9.959  0.00  0.00     0.066 A 
ATOM      6  C18 ZIN A   1      18.630  -2.027   9.186  0.00  0.00     0.066 A 
ATOM      7  C19 ZIN A   1      19.128  -2.431   7.858  0.00  0.00     0.200 C 
ATOM      8  O20 ZIN A   1      19.971  -1.764   7.287  0.00  0.00    -0.286 OA
ATOM      9  C21 ZIN A   1      18.592  -3.653   7.229  0.00  0.00     0.062 A 
ATOM     10  C22 ZIN A   1      18.815  -3.914   5.874  0.00  0.00     0.083 A 
ATOM     11  C25 ZIN A   1      18.298  -5.073   5.303  0.00  0.00     0.038 A 
ATOM     12  C26 ZIN A   1      17.572  -5.965   6.065  0.00  0.00     0.004 A 
ATOM     13  C27 ZIN A   1      17.344  -5.720   7.410  0.00  0.00     0.017 A 
ATOM     14  C28 ZIN A   1      17.848  -4.568   8.001  0.00  0.00     0.032 A 
ATOM     15  C29 ZIN A   1      17.611  -4.291   9.434  0.00  0.00     0.197 C 
ATOM     16  O30 ZIN A   1      17.197  -5.166  10.170  0.00  0.00    -0.286 OA
ATOM     17  C31 ZIN A   1      18.886  -0.754   9.688  0.00  0.00     0.090 A 
ATOM     18  C33 ZIN A   1      18.406  -0.379  10.950  0.00  0.00     0.014 A 
ATOM     19  C34 ZIN A   1      18.735   1.012  11.429  0.00  0.00     0.164 C 
ATOM     20  C56 ZIN A   1      17.812   1.419  12.576  0.00  0.00     0.083 C 
ENDROOT
BRANCH  19  21
ATOM     21  O36 ZIN A   1      18.576   1.932  10.348  0.00  0.00    -0.351 OA
BRANCH  21  22
ATOM     22  C37 ZIN A   1      18.351   3.282  10.763  0.00  0.00     0.263 C 
ATOM     23  O55 ZIN A   1      16.956   3.480  11.002  0.00  0.00    -0.354 OA
ATOM     24  C52 ZIN A   1      16.615   4.810  11.398  0.00  0.00     0.151 C 
ATOM     25  C49 ZIN A   1      17.326   5.148  12.712  0.00  0.00     0.169 C 
ATOM     26  C54 ZIN A   1      17.054   5.795  10.313  0.00  0.00     0.042 C 
ATOM     27  C40 ZIN A   1      18.838   4.986  12.521  0.00  0.00     0.120 C 
ATOM     28  C39 ZIN A   1      19.132   3.558  12.050  0.00  0.00     0.088 C 
BRANCH  25  29
ATOM     29  O51 ZIN A   1      17.034   6.496  13.081  0.00  0.00    -0.391 OA
ATOM     30  H82 ZIN A   1      16.335   6.579  13.745  0.00  0.00     0.210 HD
ENDBRANCH  25  29
BRANCH  27  31
ATOM     31  N42 ZIN A   1      19.524   5.234  13.791  0.00  0.00    -0.346 N 
ATOM     32  C43 ZIN A   1      19.183   4.532  14.889  0.00  0.00     0.325 C 
ATOM     33  O44 ZIN A   1      18.307   3.696  14.827  0.00  0.00    -0.263 OA
ATOM     34  H81 ZIN A   1      20.225   5.903  13.841  0.00  0.00     0.163 HD
BRANCH  32  35
ATOM     35  C45 ZIN A   1      19.890   4.787  16.197  0.00  0.00     0.472 C 
ATOM     36  F46 ZIN A   1      20.948   5.679  15.988  0.00  0.00    -0.162 F 
ATOM     37  F47 ZIN A   1      18.990   5.337  17.115  0.00  0.00    -0.162 F 
ATOM     38  F48 ZIN A   1      20.391   3.580  16.698  0.00  0.00    -0.162 F 
ENDBRANCH  32  35
ENDBRANCH  27  31
ENDBRANCH  21  22
ENDBRANCH  19  21
BRANCH  17  39
ATOM     39  O32 ZIN A   1      19.605   0.128   8.951  0.00  0.00    -0.359 OA
ATOM     40  H78 ZIN A   1      19.596  -0.053   8.001  0.00  0.00     0.217 HD
ENDBRANCH  17  39
BRANCH   1  41
ATOM     41  C9  ZIN A   1      19.262  -0.045  13.966  0.00  0.00     0.185 C 
ATOM     42  O10 ZIN A   1      20.123   0.800  13.903  0.00  0.00    -0.292 OA
BRANCH  41  43
ATOM     43  C8  ZIN A   1      19.615  -1.451  14.379  0.00  0.00     0.260 C 
BRANCH  43  44
ATOM     44  O7  ZIN A   1      19.985  -1.464  15.783  0.00  0.00    -0.314 OA
BRANCH  44  45
ATOM     45  C5  ZIN A   1      18.993  -1.313  16.675  0.00  0.00     0.259 C 
ATOM     46  O6  ZIN A   1      17.894  -1.753  16.437  0.00  0.00    -0.265 OA
BRANCH  45  47
ATOM     47  C4  ZIN A   1      19.252  -0.593  17.974  0.00  0.00     0.111 C 
BRANCH  47  48
ATOM     48  C3  ZIN A   1      18.966   0.899  17.795  0.00  0.00     0.009 C 
BRANCH  48  49
ATOM     49  C2  ZIN A   1      17.688   1.266  18.553  0.00  0.00    -0.004 C 
ATOM     50  C1  ZIN A   1      17.648   2.778  18.782  0.00  0.00     0.005 C 
ENDBRANCH  48  49
ENDBRANCH  47  48
ENDBRANCH  45  47
ENDBRANCH  44  45
ENDBRANCH  43  44
ENDBRANCH  41  43
ENDBRANCH   1  41
BRANCH   1  51
ATOM     51  O12 ZIN A   1      17.161   0.750  14.811  0.00  0.00    -0.382 OA
ATOM     52  H68 ZIN A   1      16.395   0.211  15.053  0.00  0.00     0.211 HD
ENDBRANCH   1  51
BRANCH   4  53
ATOM     53  O16 ZIN A   1      16.692  -3.423  11.959  0.00  0.00    -0.359 OA
ATOM     54  H71 ZIN A   1      16.579  -3.151  12.881  0.00  0.00     0.217 HD
ENDBRANCH   4  53
BRANCH  10  55
ATOM     55  O23 ZIN A   1      19.529  -3.042   5.122  0.00  0.00    -0.355 OA
ATOM     56  C24 ZIN A   1      18.803  -2.257   4.175  0.00  0.00     0.210 C 
ENDBRANCH  10  55
TORSDOF 16
ENDMDL
MODEL 4
REMARK VINA RESULT:      -7.8      4.838     10.155
REMARK  16 active torsions:
REMARK  status: ('A' for Active; 'I' for Inactive)
REMARK    1  A    between atoms: C2_2  and  C3_3 
REMARK    2  A    between atoms: C3_3  and  C4_4 
REMARK    3  A    between atoms: C4_4  and  C5_5 
REMARK    4  A    between atoms: C5_5  and  O7_7 
REMARK    5  A    between atoms: O7_7  and  C8_8 
REMARK    6  A    between atoms: C8_8  and  C9_9 
REMARK    7  A    between atoms: C9_9  and  C11_11 
REMARK    8  A    between atoms: C11_11  and  O12_12 
REMARK    9  A    between atoms: C15_15  and  O16_16 
REMARK   10  A    between atoms: C22_22  and  O23_23 
REMARK   11  A    between atoms: C31_31  and  O32_32 
REMARK   12  A    between atoms: C34_34  and  O36_35 
REMARK   13  A    between atoms: O36_35  and  C37_36 
REMARK   14  A    between atoms: C40_38  and  N42_39 
REMARK       I    between atoms: N42_39  and  C43_40 
REMARK   15  A    between atoms: C43_40  and  C45_42 
REMARK   16  A    between atoms: C49_46  and  O51_47 
ROOT
ATOM      1  C11 ZIN A   1      17.757   0.700   9.522  0.00  0.00     0.127 C 
ATOM      2  C13 ZIN A   1      17.328   1.954  10.280  0.00  0.00     0.088 C 
ATOM      3  C14 ZIN A   1      17.720   1.858  11.732  0.00  0.00    -0.009 A 
ATOM      4  C15 ZIN A   1      17.748   3.048  12.471  0.00  0.00     0.088 A 
ATOM      5  C17 ZIN A   1      18.093   3.032  13.820  0.00  0.00     0.066 A 
ATOM      6  C18 ZIN A   1      18.416   1.807  14.439  0.00  0.00     0.066 A 
ATOM      7  C19 ZIN A   1      18.778   1.784  15.868  0.00  0.00     0.200 C 
ATOM      8  O20 ZIN A   1      19.295   0.797  16.357  0.00  0.00    -0.286 OA
ATOM      9  C21 ZIN A   1      18.507   2.973  16.700  0.00  0.00     0.062 A 
ATOM     10  C22 ZIN A   1      18.564   2.896  18.094  0.00  0.00     0.083 A 
ATOM     11  C25 ZIN A   1      18.303   4.030  18.857  0.00  0.00     0.038 A 
ATOM     12  C26 ZIN A   1      17.991   5.227  18.246  0.00  0.00     0.004 A 
ATOM     13  C27 ZIN A   1      17.932   5.319  16.864  0.00  0.00     0.017 A 
ATOM     14  C28 ZIN A   1      18.186   4.199  16.082  0.00  0.00     0.032 A 
ATOM     15  C29 ZIN A   1      18.124   4.280  14.607  0.00  0.00     0.197 C 
ATOM     16  O30 ZIN A   1      18.099   5.360  14.050  0.00  0.00    -0.286 OA
ATOM     17  C31 ZIN A   1      18.388   0.634  13.690  0.00  0.00     0.090 A 
ATOM     18  C33 ZIN A   1      18.039   0.666  12.333  0.00  0.00     0.014 A 
ATOM     19  C34 ZIN A   1      18.044  -0.644  11.588  0.00  0.00     0.164 C 
ATOM     20  C56 ZIN A   1      17.249  -0.526  10.289  0.00  0.00     0.083 C 
ENDROOT
BRANCH  19  21
ATOM     21  O36 ZIN A   1      17.456  -1.655  12.408  0.00  0.00    -0.351 OA
BRANCH  21  22
ATOM     22  C37 ZIN A   1      17.702  -2.988  11.954  0.00  0.00     0.263 C 
ATOM     23  O55 ZIN A   1      16.457  -3.658  11.748  0.00  0.00    -0.354 OA
ATOM     24  C52 ZIN A   1      16.587  -5.014  11.316  0.00  0.00     0.151 C 
ATOM     25  C49 ZIN A   1      17.320  -5.050   9.972  0.00  0.00     0.169 C 
ATOM     26  C54 ZIN A   1      17.385  -5.805  12.353  0.00  0.00     0.042 C 
ATOM     27  C40 ZIN A   1      18.685  -4.372  10.125  0.00  0.00     0.120 C 
ATOM     28  C39 ZIN A   1      18.479  -2.943  10.636  0.00  0.00     0.088 C 
BRANCH  25  29
ATOM     29  O51 ZIN A   1      17.504  -6.407   9.564  0.00  0.00    -0.391 OA
ATOM     30  H82 ZIN A   1      18.340  -6.795   9.856  0.00  0.00     0.210 HD
ENDBRANCH  25  29
BRANCH  27  31
ATOM     31  N42 ZIN A   1      19.365  -4.335   8.827  0.00  0.00    -0.346 N 
ATOM     32  C43 ZIN A   1      20.169  -5.351   8.459  0.00  0.00     0.325 C 
ATOM     33  O44 ZIN A   1      20.330  -6.297   9.201  0.00  0.00    -0.263 OA
ATOM     34  H81 ZIN A   1      19.235  -3.579   8.234  0.00  0.00     0.163 HD
BRANCH  32  35
ATOM     35  C45 ZIN A   1      20.867  -5.313   7.123  0.00  0.00     0.472 C 
ATOM     36  F46 ZIN A   1      22.147  -5.864   7.250  0.00  0.00    -0.162 F 
ATOM     37  F47 ZIN A   1      20.131  -6.051   6.190  0.00  0.00    -0.162 F 
ATOM     38  F48 ZIN A   1      20.972  -3.987   6.690  0.00  0.00    -0.162 F 
ENDBRANCH  32  35
ENDBRANCH  27  31
ENDBRANCH  21  22
ENDBRANCH  19  21
BRANCH  17  39
ATOM     39  O32 ZIN A   1      18.698  -0.547  14.278  0.00  0.00    -0.359 OA
ATOM     40  H78 ZIN A   1      19.199  -1.151  13.711  0.00  0.00     0.217 HD
ENDBRANCH  17  39
BRANCH   1  41
ATOM     41  C9  ZIN A   1      19.260   0.652   9.426  0.00  0.00     0.185 C 
ATOM     42  O10 ZIN A   1      19.927   1.491   9.984  0.00  0.00    -0.292 OA
BRANCH  41  43
ATOM     43  C8  ZIN A   1      19.932  -0.442   8.637  0.00  0.00     0.260 C 
BRANCH  43  44
ATOM     44  O7  ZIN A   1      19.581  -0.311   7.234  0.00  0.00    -0.314 OA
BRANCH  44  45
ATOM     45  C5  ZIN A   1      18.987  -1.367   6.654  0.00  0.00     0.259 C 
ATOM     46  O6  ZIN A   1      18.295  -2.107   7.311  0.00  0.00    -0.265 OA
BRANCH  45  47
ATOM     47  C4  ZIN A   1      19.184  -1.626   5.182  0.00  0.00     0.111 C 
BRANCH  47  48
ATOM     48  C3  ZIN A   1      17.887  -1.313   4.433  0.00  0.00     0.009 C 
BRANCH  48  49
ATOM     49  C2  ZIN A   1      17.186  -2.620   4.060  0.00  0.00    -0.004 C 
ATOM     50  C1  ZIN A   1      18.220  -3.742   3.956  0.00  0.00     0.005 C 
ENDBRANCH  48  49
ENDBRANCH  47  48
ENDBRANCH  45  47
ENDBRANCH  44  45
ENDBRANCH  43  44
ENDBRANCH  41  43
ENDBRANCH   1  41
BRANCH   1  51
ATOM     51  O12 ZIN A   1      17.193   0.714   8.208  0.00  0.00    -0.382 OA
ATOM     52  H68 ZIN A   1      16.382   0.194   8.123  0.00  0.00     0.211 HD
ENDBRANCH   1  51
BRANCH   4  53
ATOM     53  O16 ZIN A   1      17.435   4.221  11.869  0.00  0.00    -0.359 OA
ATOM     54  H71 ZIN A   1      17.101   4.125  10.967  0.00  0.00     0.217 HD
ENDBRANCH   4  53
BRANCH  10  55
ATOM     55  O23 ZIN A   1      18.871   1.722  18.698  0.00  0.00    -0.355 OA
ATOM     56  C24 ZIN A   1      17.781   0.951  19.209  0.00  0.00     0.210 C 
ENDBRANCH  10  55
TORSDOF 16
ENDMDL
MODEL 5
REMARK VINA RESULT:      -7.7      4.878      8.529
REMARK  16 active torsions:
REMARK  status: ('A' for Active; 'I' for Inactive)
REMARK    1  A    between atoms: C2_2  and  C3_3 
REMARK    2  A    between atoms: C3_3  and  C4_4 
REMARK    3  A    between atoms: C4_4  and  C5_5 
REMARK    4  A    between atoms: C5_5  and  O7_7 
REMARK    5  A    between atoms: O7_7  and  C8_8 
REMARK    6  A    between atoms: C8_8  and  C9_9 
REMARK    7  A    between atoms: C9_9  and  C11_11 
REMARK    8  A    between atoms: C11_11  and  O12_12 
REMARK    9  A    between atoms: C15_15  and  O16_16 
REMARK   10  A    between atoms: C22_22  and  O23_23 
REMARK   11  A    between atoms: C31_31  and  O32_32 
REMARK   12  A    between atoms: C34_34  and  O36_35 
REMARK   13  A    between atoms: O36_35  and  C37_36 
REMARK   14  A    between atoms: C40_38  and  N42_39 
REMARK       I    between atoms: N42_39  and  C43_40 
REMARK   15  A    between atoms: C43_40  and  C45_42 
REMARK   16  A    between atoms: C49_46  and  O51_47 
ROOT
ATOM      1  C11 ZIN A   1      19.062  -1.778   5.109  0.00  0.00     0.127 C 
ATOM      2  C13 ZIN A   1      18.945  -2.681   3.883  0.00  0.00     0.088 C 
ATOM      3  C14 ZIN A   1      18.136  -3.911   4.205  0.00  0.00    -0.009 A 
ATOM      4  C15 ZIN A   1      17.617  -4.640   3.125  0.00  0.00     0.088 A 
ATOM      5  C17 ZIN A   1      16.867  -5.791   3.349  0.00  0.00     0.066 A 
ATOM      6  C18 ZIN A   1      16.632  -6.221   4.671  0.00  0.00     0.066 A 
ATOM      7  C19 ZIN A   1      15.842  -7.443   4.913  0.00  0.00     0.200 C 
ATOM      8  O20 ZIN A   1      15.420  -7.693   6.026  0.00  0.00    -0.286 OA
ATOM      9  C21 ZIN A   1      15.570  -8.359   3.789  0.00  0.00     0.062 A 
ATOM     10  C22 ZIN A   1      15.085  -9.648   4.021  0.00  0.00     0.083 A 
ATOM     11  C25 ZIN A   1      14.836 -10.495   2.945  0.00  0.00     0.038 A 
ATOM     12  C26 ZIN A   1      15.064 -10.068   1.652  0.00  0.00     0.004 A 
ATOM     13  C27 ZIN A   1      15.544  -8.791   1.406  0.00  0.00     0.017 A 
ATOM     14  C28 ZIN A   1      15.801  -7.930   2.466  0.00  0.00     0.032 A 
ATOM     15  C29 ZIN A   1      16.317  -6.566   2.220  0.00  0.00     0.197 C 
ATOM     16  O30 ZIN A   1      16.288  -6.089   1.102  0.00  0.00    -0.286 OA
ATOM     17  C31 ZIN A   1      17.151  -5.484   5.732  0.00  0.00     0.090 A 
ATOM     18  C33 ZIN A   1      17.903  -4.326   5.491  0.00  0.00     0.014 A 
ATOM     19  C34 ZIN A   1      18.420  -3.577   6.693  0.00  0.00     0.164 C 
ATOM     20  C56 ZIN A   1      19.547  -2.627   6.290  0.00  0.00     0.083 C 
ENDROOT
BRANCH  19  21
ATOM     21  O36 ZIN A   1      18.914  -4.511   7.654  0.00  0.00    -0.351 OA
BRANCH  21  22
ATOM     22  C37 ZIN A   1      18.195  -4.508   8.890  0.00  0.00     0.263 C 
ATOM     23  O55 ZIN A   1      18.136  -5.838   9.409  0.00  0.00    -0.354 OA
ATOM     24  C52 ZIN A   1      17.413  -5.954  10.636  0.00  0.00     0.151 C 
ATOM     25  C49 ZIN A   1      18.097  -5.105  11.712  0.00  0.00     0.169 C 
ATOM     26  C54 ZIN A   1      15.979  -5.460  10.433  0.00  0.00     0.042 C 
ATOM     27  C40 ZIN A   1      18.170  -3.651  11.234  0.00  0.00     0.120 C 
ATOM     28  C39 ZIN A   1      18.911  -3.601   9.895  0.00  0.00     0.088 C 
BRANCH  25  29
ATOM     29  O51 ZIN A   1      17.346  -5.172  12.924  0.00  0.00    -0.391 OA
ATOM     30  H82 ZIN A   1      16.968  -4.326  13.200  0.00  0.00     0.210 HD
ENDBRANCH  25  29
BRANCH  27  31
ATOM     31  N42 ZIN A   1      18.889  -2.844  12.223  0.00  0.00    -0.346 N 
ATOM     32  C43 ZIN A   1      18.338  -1.708  12.694  0.00  0.00     0.325 C 
ATOM     33  O44 ZIN A   1      17.248  -1.354  12.300  0.00  0.00    -0.263 OA
ATOM     34  H81 ZIN A   1      19.761  -3.128  12.538  0.00  0.00     0.163 HD
BRANCH  32  35
ATOM     35  C45 ZIN A   1      19.079  -0.878  13.712  0.00  0.00     0.472 C 
ATOM     36  F46 ZIN A   1      18.212   0.077  14.253  0.00  0.00    -0.162 F 
ATOM     37  F47 ZIN A   1      19.556  -1.707  14.732  0.00  0.00    -0.162 F 
ATOM     38  F48 ZIN A   1      20.155  -0.232  13.093  0.00  0.00    -0.162 F 
ENDBRANCH  32  35
ENDBRANCH  27  31
ENDBRANCH  21  22
ENDBRANCH  19  21
BRANCH  17  39
ATOM     39  O32 ZIN A   1      16.928  -5.891   7.006  0.00  0.00    -0.359 OA
ATOM     40  H78 ZIN A   1      16.102  -5.561   7.386  0.00  0.00     0.217 HD
ENDBRANCH  17  39
BRANCH   1  41
ATOM     41  C9  ZIN A   1      17.717  -1.180   5.431  0.00  0.00     0.185 C 
ATOM     42  O10 ZIN A   1      16.809  -1.274   4.640  0.00  0.00    -0.292 OA
BRANCH  41  43
ATOM     43  C8  ZIN A   1      17.504  -0.464   6.740  0.00  0.00     0.260 C 
BRANCH  43  44
ATOM     44  O7  ZIN A   1      18.449   0.633   6.851  0.00  0.00    -0.314 OA
BRANCH  44  45
ATOM     45  C5  ZIN A   1      18.986   0.854   8.062  0.00  0.00     0.259 C 
ATOM     46  O6  ZIN A   1      19.578  -0.032   8.630  0.00  0.00    -0.265 OA
BRANCH  45  47
ATOM     47  C4  ZIN A   1      18.851   2.208   8.710  0.00  0.00     0.111 C 
BRANCH  47  48
ATOM     48  C3  ZIN A   1      18.084   2.068  10.026  0.00  0.00     0.009 C 
BRANCH  48  49
ATOM     49  C2  ZIN A   1      18.560   3.139  11.009  0.00  0.00    -0.004 C 
ATOM     50  C1  ZIN A   1      19.941   2.761  11.547  0.00  0.00     0.005 C 
ENDBRANCH  48  49
ENDBRANCH  47  48
ENDBRANCH  45  47
ENDBRANCH  44  45
ENDBRANCH  43  44
ENDBRANCH  41  43
ENDBRANCH   1  41
BRANCH   1  51
ATOM     51  O12 ZIN A   1      20.003  -0.733   4.850  0.00  0.00    -0.382 OA
ATOM     52  H68 ZIN A   1      20.516  -0.857   4.040  0.00  0.00     0.211 HD
ENDBRANCH   1  51
BRANCH   4  53
ATOM     53  O16 ZIN A   1      17.847  -4.221   1.857  0.00  0.00    -0.359 OA
ATOM     54  H71 ZIN A   1      17.245  -4.598   1.201  0.00  0.00     0.217 HD
ENDBRANCH   4  53
BRANCH  10  55
ATOM     55  O23 ZIN A   1      14.858 -10.072   5.289  0.00  0.00    -0.355 OA
ATOM     56  C24 ZIN A   1      13.574 -10.634   5.564  0.00  0.00     0.210 C 
ENDBRANCH  10  55
TORSDOF 16
ENDMDL
MODEL 6
REMARK VINA RESULT:      -7.6      3.710      8.082
REMARK  16 active torsions:
REMARK  status: ('A' for Active; 'I' for Inactive)
REMARK    1  A    between atoms: C2_2  and  C3_3 
REMARK    2  A    between atoms: C3_3  and  C4_4 
REMARK    3  A    between atoms: C4_4  and  C5_5 
REMARK    4  A    between atoms: C5_5  and  O7_7 
REMARK    5  A    between atoms: O7_7  and  C8_8 
REMARK    6  A    between atoms: C8_8  and  C9_9 
REMARK    7  A    between atoms: C9_9  and  C11_11 
REMARK    8  A    between atoms: C11_11  and  O12_12 
REMARK    9  A    between atoms: C15_15  and  O16_16 
REMARK   10  A    between atoms: C22_22  and  O23_23 
REMARK   11  A    between atoms: C31_31  and  O32_32 
REMARK   12  A    between atoms: C34_34  and  O36_35 
REMARK   13  A    between atoms: O36_35  and  C37_36 
REMARK   14  A    between atoms: C40_38  and  N42_39 
REMARK       I    between atoms: N42_39  and  C43_40 
REMARK   15  A    between atoms: C43_40  and  C45_42 
REMARK   16  A    between atoms: C49_46  and  O51_47 
ROOT
ATOM      1  C11 ZIN A   1      17.923  -4.722  10.999  0.00  0.00     0.127 C 
ATOM      2  C13 ZIN A   1      17.233  -5.833  10.211  0.00  0.00     0.088 C 
ATOM      3  C14 ZIN A   1      17.373  -5.598   8.729  0.00  0.00    -0.009 A 
ATOM      4  C15 ZIN A   1      17.140  -6.689   7.880  0.00  0.00     0.088 A 
ATOM      5  C17 ZIN A   1      17.244  -6.542   6.499  0.00  0.00     0.066 A 
ATOM      6  C18 ZIN A   1      17.585  -5.285   5.959  0.00  0.00     0.066 A 
ATOM      7  C19 ZIN A   1      17.692  -5.122   4.497  0.00  0.00     0.200 C 
ATOM      8  O20 ZIN A   1      18.219  -4.133   4.024  0.00  0.00    -0.286 OA
ATOM      9  C21 ZIN A   1      17.150  -6.173   3.614  0.00  0.00     0.062 A 
ATOM     10  C22 ZIN A   1      16.970  -5.934   2.249  0.00  0.00     0.083 A 
ATOM     11  C25 ZIN A   1      16.457  -6.941   1.437  0.00  0.00     0.038 A 
ATOM     12  C26 ZIN A   1      16.128  -8.171   1.970  0.00  0.00     0.004 A 
ATOM     13  C27 ZIN A   1      16.302  -8.422   3.322  0.00  0.00     0.017 A 
ATOM     14  C28 ZIN A   1      16.811  -7.431   4.152  0.00  0.00     0.032 A 
ATOM     15  C29 ZIN A   1      16.999  -7.683   5.597  0.00  0.00     0.197 C 
ATOM     16  O30 ZIN A   1      16.954  -8.816   6.035  0.00  0.00    -0.286 OA
ATOM     17  C31 ZIN A   1      17.817  -4.212   6.816  0.00  0.00     0.090 A 
ATOM     18  C33 ZIN A   1      17.710  -4.376   8.204  0.00  0.00     0.014 A 
ATOM     19  C34 ZIN A   1      17.989  -3.171   9.064  0.00  0.00     0.164 C 
ATOM     20  C56 ZIN A   1      17.426  -3.372  10.470  0.00  0.00     0.083 C 
ENDROOT
BRANCH  19  21
ATOM     21  O36 ZIN A   1      17.381  -2.020   8.475  0.00  0.00    -0.351 OA
BRANCH  21  22
ATOM     22  C37 ZIN A   1      18.034  -0.790   8.795  0.00  0.00     0.263 C 
ATOM     23  O55 ZIN A   1      17.694   0.197   7.820  0.00  0.00    -0.354 OA
ATOM     24  C52 ZIN A   1      18.318   1.466   8.030  0.00  0.00     0.151 C 
ATOM     25  C49 ZIN A   1      17.875   2.031   9.383  0.00  0.00     0.169 C 
ATOM     26  C54 ZIN A   1      19.838   1.295   8.022  0.00  0.00     0.042 C 
ATOM     27  C40 ZIN A   1      18.237   1.034  10.488  0.00  0.00     0.120 C 
ATOM     28  C39 ZIN A   1      17.580  -0.315  10.179  0.00  0.00     0.088 C 
BRANCH  25  29
ATOM     29  O51 ZIN A   1      18.541   3.272   9.624  0.00  0.00    -0.391 OA
ATOM     30  H82 ZIN A   1      18.360   3.951   8.959  0.00  0.00     0.210 HD
ENDBRANCH  25  29
BRANCH  27  31
ATOM     31  N42 ZIN A   1      17.752   1.530  11.778  0.00  0.00    -0.346 N 
ATOM     32  C43 ZIN A   1      18.614   2.081  12.655  0.00  0.00     0.325 C 
ATOM     33  O44 ZIN A   1      19.791   2.166  12.377  0.00  0.00    -0.263 OA
ATOM     34  H81 ZIN A   1      16.810   1.463  12.000  0.00  0.00     0.163 HD
BRANCH  32  35
ATOM     35  C45 ZIN A   1      18.114   2.593  13.983  0.00  0.00     0.472 C 
ATOM     36  F46 ZIN A   1      17.273   1.638  14.563  0.00  0.00    -0.162 F 
ATOM     37  F47 ZIN A   1      19.201   2.834  14.829  0.00  0.00    -0.162 F 
ATOM     38  F48 ZIN A   1      17.403   3.781  13.785  0.00  0.00    -0.162 F 
ENDBRANCH  32  35
ENDBRANCH  27  31
ENDBRANCH  21  22
ENDBRANCH  19  21
BRANCH  17  39
ATOM     39  O32 ZIN A   1      18.147  -3.001   6.303  0.00  0.00    -0.359 OA
ATOM     40  H78 ZIN A   1      19.086  -2.783   6.382  0.00  0.00     0.217 HD
ENDBRANCH  17  39
BRANCH   1  41
ATOM     41  C9  ZIN A   1      19.416  -4.821  10.817  0.00  0.00     0.185 C 
ATOM     42  O10 ZIN A   1      19.894  -5.780  10.259  0.00  0.00    -0.292 OA
BRANCH  41  43
ATOM     43  C8  ZIN A   1      20.312  -3.723  11.330  0.00  0.00     0.260 C 
BRANCH  43  44
ATOM     44  O7  ZIN A   1      19.826  -3.263  12.619  0.00  0.00    -0.314 OA
BRANCH  44  45
ATOM     45  C5  ZIN A   1      19.595  -1.947  12.747  0.00  0.00     0.259 C 
ATOM     46  O6  ZIN A   1      20.233  -1.155  12.097  0.00  0.00    -0.265 OA
BRANCH  45  47
ATOM     47  C4  ZIN A   1      18.537  -1.459  13.704  0.00  0.00     0.111 C 
BRANCH  47  48
ATOM     48  C3  ZIN A   1      19.207  -0.866  14.945  0.00  0.00     0.009 C 
BRANCH  48  49
ATOM     49  C2  ZIN A   1      18.740  -1.625  16.188  0.00  0.00    -0.004 C 
ATOM     50  C1  ZIN A   1      17.456  -0.988  16.723  0.00  0.00     0.005 C 
ENDBRANCH  48  49
ENDBRANCH  47  48
ENDBRANCH  45  47
ENDBRANCH  44  45
ENDBRANCH  43  44
ENDBRANCH  41  43
ENDBRANCH   1  41
BRANCH   1  51
ATOM     51  O12 ZIN A   1      17.600  -4.844  12.387  0.00  0.00    -0.382 OA
ATOM     52  H68 ZIN A   1      17.338  -5.736  12.653  0.00  0.00     0.211 HD
ENDBRANCH   1  51
BRANCH   4  53
ATOM     53  O16 ZIN A   1      16.811  -7.893   8.407  0.00  0.00    -0.359 OA
ATOM     54  H71 ZIN A   1      16.341  -8.476   7.795  0.00  0.00     0.217 HD
ENDBRANCH   4  53
BRANCH  10  55
ATOM     55  O23 ZIN A   1      17.293  -4.729   1.721  0.00  0.00    -0.355 OA
ATOM     56  C24 ZIN A   1      16.275  -4.051   0.983  0.00  0.00     0.210 C 
ENDBRANCH  10  55
TORSDOF 16
ENDMDL
MODEL 7
REMARK VINA RESULT:      -7.5      5.276     10.523
REMARK  16 active torsions:
REMARK  status: ('A' for Active; 'I' for Inactive)
REMARK    1  A    between atoms: C2_2  and  C3_3 
REMARK    2  A    between atoms: C3_3  and  C4_4 
REMARK    3  A    between atoms: C4_4  and  C5_5 
REMARK    4  A    between atoms: C5_5  and  O7_7 
REMARK    5  A    between atoms: O7_7  and  C8_8 
REMARK    6  A    between atoms: C8_8  and  C9_9 
REMARK    7  A    between atoms: C9_9  and  C11_11 
REMARK    8  A    between atoms: C11_11  and  O12_12 
REMARK    9  A    between atoms: C15_15  and  O16_16 
REMARK   10  A    between atoms: C22_22  and  O23_23 
REMARK   11  A    between atoms: C31_31  and  O32_32 
REMARK   12  A    between atoms: C34_34  and  O36_35 
REMARK   13  A    between atoms: O36_35  and  C37_36 
REMARK   14  A    between atoms: C40_38  and  N42_39 
REMARK       I    between atoms: N42_39  and  C43_40 
REMARK   15  A    between atoms: C43_40  and  C45_42 
REMARK   16  A    between atoms: C49_46  and  O51_47 
ROOT
ATOM      1  C11 ZIN A   1      17.734   0.092   8.178  0.00  0.00     0.127 C 
ATOM      2  C13 ZIN A   1      17.249   1.190   9.121  0.00  0.00     0.088 C 
ATOM      3  C14 ZIN A   1      17.790   0.974  10.511  0.00  0.00    -0.009 A 
ATOM      4  C15 ZIN A   1      17.762   2.067  11.389  0.00  0.00     0.088 A 
ATOM      5  C17 ZIN A   1      18.238   1.936  12.691  0.00  0.00     0.066 A 
ATOM      6  C18 ZIN A   1      18.750   0.695  13.122  0.00  0.00     0.066 A 
ATOM      7  C19 ZIN A   1      19.251   0.550  14.501  0.00  0.00     0.200 C 
ATOM      8  O20 ZIN A   1      19.917  -0.419  14.816  0.00  0.00    -0.286 OA
ATOM      9  C21 ZIN A   1      18.936   1.594  15.495  0.00  0.00     0.062 A 
ATOM     10  C22 ZIN A   1      19.138   1.364  16.859  0.00  0.00     0.083 A 
ATOM     11  C25 ZIN A   1      18.832   2.364  17.777  0.00  0.00     0.038 A 
ATOM     12  C26 ZIN A   1      18.335   3.578  17.351  0.00  0.00     0.004 A 
ATOM     13  C27 ZIN A   1      18.131   3.821  16.001  0.00  0.00     0.017 A 
ATOM     14  C28 ZIN A   1      18.427   2.836  15.066  0.00  0.00     0.032 A 
ATOM     15  C29 ZIN A   1      18.211   3.080  13.623  0.00  0.00     0.197 C 
ATOM     16  O30 ZIN A   1      18.016   4.206  13.211  0.00  0.00    -0.286 OA
ATOM     17  C31 ZIN A   1      18.775  -0.379  12.236  0.00  0.00     0.090 A 
ATOM     18  C33 ZIN A   1      18.293  -0.232  10.928  0.00  0.00     0.014 A 
ATOM     19  C34 ZIN A   1      18.366  -1.438  10.027  0.00  0.00     0.164 C 
ATOM     20  C56 ZIN A   1      17.439  -1.266   8.824  0.00  0.00     0.083 C 
ENDROOT
BRANCH  19  21
ATOM     21  O36 ZIN A   1      17.974  -2.599  10.760  0.00  0.00    -0.351 OA
BRANCH  21  22
ATOM     22  C37 ZIN A   1      17.856  -3.779   9.961  0.00  0.00     0.263 C 
ATOM     23  O55 ZIN A   1      18.510  -4.866  10.619  0.00  0.00    -0.354 OA
ATOM     24  C52 ZIN A   1      18.475  -6.095   9.890  0.00  0.00     0.151 C 
ATOM     25  C49 ZIN A   1      17.019  -6.527   9.692  0.00  0.00     0.169 C 
ATOM     26  C54 ZIN A   1      19.138  -5.899   8.526  0.00  0.00     0.042 C 
ATOM     27  C40 ZIN A   1      16.259  -5.416   8.961  0.00  0.00     0.120 C 
ATOM     28  C39 ZIN A   1      16.376  -4.117   9.766  0.00  0.00     0.088 C 
BRANCH  25  29
ATOM     29  O51 ZIN A   1      16.977  -7.725   8.915  0.00  0.00    -0.391 OA
ATOM     30  H82 ZIN A   1      17.635  -7.757   8.207  0.00  0.00     0.210 HD
ENDBRANCH  25  29
BRANCH  27  31
ATOM     31  N42 ZIN A   1      14.848  -5.787   8.832  0.00  0.00    -0.346 N 
ATOM     32  C43 ZIN A   1      14.382  -6.268   7.663  0.00  0.00     0.325 C 
ATOM     33  O44 ZIN A   1      15.131  -6.394   6.718  0.00  0.00    -0.263 OA
ATOM     34  H81 ZIN A   1      14.249  -5.686   9.589  0.00  0.00     0.163 HD
BRANCH  32  35
ATOM     35  C45 ZIN A   1      12.930  -6.650   7.530  0.00  0.00     0.472 C 
ATOM     36  F46 ZIN A   1      12.649  -6.961   6.196  0.00  0.00    -0.162 F 
ATOM     37  F47 ZIN A   1      12.665  -7.763   8.335  0.00  0.00    -0.162 F 
ATOM     38  F48 ZIN A   1      12.127  -5.579   7.938  0.00  0.00    -0.162 F 
ENDBRANCH  32  35
ENDBRANCH  27  31
ENDBRANCH  21  22
ENDBRANCH  19  21
BRANCH  17  39
ATOM     39  O32 ZIN A   1      19.267  -1.575  12.643  0.00  0.00    -0.359 OA
ATOM     40  H78 ZIN A   1      18.911  -1.881  13.488  0.00  0.00     0.217 HD
ENDBRANCH  17  39
BRANCH   1  41
ATOM     41  C9  ZIN A   1      19.217   0.235   7.950  0.00  0.00     0.185 C 
ATOM     42  O10 ZIN A   1      19.767   1.283   8.192  0.00  0.00    -0.292 OA
BRANCH  41  43
ATOM     43  C8  ZIN A   1      20.015  -0.930   7.423  0.00  0.00     0.260 C 
BRANCH  43  44
ATOM     44  O7  ZIN A   1      19.411  -1.413   6.194  0.00  0.00    -0.314 OA
BRANCH  44  45
ATOM     45  C5  ZIN A   1      19.353  -2.744   6.028  0.00  0.00     0.259 C 
ATOM     46  O6  ZIN A   1      20.304  -3.431   6.314  0.00  0.00    -0.265 OA
BRANCH  45  47
ATOM     47  C4  ZIN A   1      18.099  -3.381   5.484  0.00  0.00     0.111 C 
BRANCH  47  48
ATOM     48  C3  ZIN A   1      17.554  -2.530   4.336  0.00  0.00     0.009 C 
BRANCH  48  49
ATOM     49  C2  ZIN A   1      16.586  -3.366   3.497  0.00  0.00    -0.004 C 
ATOM     50  C1  ZIN A   1      17.343  -4.527   2.850  0.00  0.00     0.005 C 
ENDBRANCH  48  49
ENDBRANCH  47  48
ENDBRANCH  45  47
ENDBRANCH  44  45
ENDBRANCH  43  44
ENDBRANCH  41  43
ENDBRANCH   1  41
BRANCH   1  51
ATOM     51  O12 ZIN A   1      17.046   0.190   6.929  0.00  0.00    -0.382 OA
ATOM     52  H68 ZIN A   1      16.239  -0.341   6.881  0.00  0.00     0.211 HD
ENDBRANCH   1  51
BRANCH   4  53
ATOM     53  O16 ZIN A   1      17.267   3.256  10.968  0.00  0.00    -0.359 OA
ATOM     54  H71 ZIN A   1      17.639   4.022  11.427  0.00  0.00     0.217 HD
ENDBRANCH   4  53
BRANCH  10  55
ATOM     55  O23 ZIN A   1      19.628   0.174  17.283  0.00  0.00    -0.355 OA
ATOM     56  C24 ZIN A   1      19.038  -0.388  18.457  0.00  0.00     0.210 C 
ENDBRANCH  10  55
TORSDOF 16
ENDMDL
MODEL 8
REMARK VINA RESULT:      -7.1      1.696      2.405
REMARK  16 active torsions:
REMARK  status: ('A' for Active; 'I' for Inactive)
REMARK    1  A    between atoms: C2_2  and  C3_3 
REMARK    2  A    between atoms: C3_3  and  C4_4 
REMARK    3  A    between atoms: C4_4  and  C5_5 
REMARK    4  A    between atoms: C5_5  and  O7_7 
REMARK    5  A    between atoms: O7_7  and  C8_8 
REMARK    6  A    between atoms: C8_8  and  C9_9 
REMARK    7  A    between atoms: C9_9  and  C11_11 
REMARK    8  A    between atoms: C11_11  and  O12_12 
REMARK    9  A    between atoms: C15_15  and  O16_16 
REMARK   10  A    between atoms: C22_22  and  O23_23 
REMARK   11  A    between atoms: C31_31  and  O32_32 
REMARK   12  A    between atoms: C34_34  and  O36_35 
REMARK   13  A    between atoms: O36_35  and  C37_36 
REMARK   14  A    between atoms: C40_38  and  N42_39 
REMARK       I    between atoms: N42_39  and  C43_40 
REMARK   15  A    between atoms: C43_40  and  C45_42 
REMARK   16  A    between atoms: C49_46  and  O51_47 
ROOT
ATOM      1  C11 ZIN A   1      19.160   3.340  11.820  0.00  0.00     0.127 C 
ATOM      2  C13 ZIN A   1      19.574   2.940  10.406  0.00  0.00     0.088 C 
ATOM      3  C14 ZIN A   1      19.154   1.523  10.109  0.00  0.00    -0.009 A 
ATOM      4  C15 ZIN A   1      19.112   1.134   8.763  0.00  0.00     0.088 A 
ATOM      5  C17 ZIN A   1      18.741  -0.163   8.417  0.00  0.00     0.066 A 
ATOM      6  C18 ZIN A   1      18.406  -1.083   9.431  0.00  0.00     0.066 A 
ATOM      7  C19 ZIN A   1      18.016  -2.459   9.071  0.00  0.00     0.200 C 
ATOM      8  O20 ZIN A   1      17.490  -3.186   9.892  0.00  0.00    -0.286 OA
ATOM      9  C21 ZIN A   1      18.271  -2.944   7.700  0.00  0.00     0.062 A 
ATOM     10  C22 ZIN A   1      18.187  -4.306   7.399  0.00  0.00     0.083 A 
ATOM     11  C25 ZIN A   1      18.434  -4.739   6.100  0.00  0.00     0.038 A 
ATOM     12  C26 ZIN A   1      18.757  -3.834   5.110  0.00  0.00     0.004 A 
ATOM     13  C27 ZIN A   1      18.844  -2.480   5.394  0.00  0.00     0.017 A 
ATOM     14  C28 ZIN A   1      18.604  -2.025   6.685  0.00  0.00     0.032 A 
ATOM     15  C29 ZIN A   1      18.695  -0.584   7.004  0.00  0.00     0.197 C 
ATOM     16  O30 ZIN A   1      18.731   0.243   6.113  0.00  0.00    -0.286 OA
ATOM     17  C31 ZIN A   1      18.448  -0.679  10.763  0.00  0.00     0.090 A 
ATOM     18  C33 ZIN A   1      18.823   0.630  11.096  0.00  0.00     0.014 A 
ATOM     19  C34 ZIN A   1      18.833   0.994  12.558  0.00  0.00     0.164 C 
ATOM     20  C56 ZIN A   1      19.653   2.262  12.791  0.00  0.00     0.083 C 
ENDROOT
BRANCH  19  21
ATOM     21  O36 ZIN A   1      19.404  -0.079  13.308  0.00  0.00    -0.351 OA
BRANCH  21  22
ATOM     22  C37 ZIN A   1      18.813  -0.268  14.596  0.00  0.00     0.263 C 
ATOM     23  O55 ZIN A   1      19.711  -1.006  15.427  0.00  0.00    -0.354 OA
ATOM     24  C52 ZIN A   1      19.206  -1.276  16.737  0.00  0.00     0.151 C 
ATOM     25  C49 ZIN A   1      18.941   0.047  17.462  0.00  0.00     0.169 C 
ATOM     26  C54 ZIN A   1      17.901  -2.067  16.628  0.00  0.00     0.042 C 
ATOM     27  C40 ZIN A   1      17.956   0.884  16.638  0.00  0.00     0.120 C 
ATOM     28  C39 ZIN A   1      18.533   1.095  15.234  0.00  0.00     0.088 C 
BRANCH  25  29
ATOM     29  O51 ZIN A   1      18.381  -0.216  18.749  0.00  0.00    -0.391 OA
ATOM     30  H82 ZIN A   1      17.443  -0.451  18.730  0.00  0.00     0.210 HD
ENDBRANCH  25  29
BRANCH  27  31
ATOM     31  N42 ZIN A   1      17.753   2.183  17.284  0.00  0.00    -0.346 N 
ATOM     32  C43 ZIN A   1      18.554   3.221  16.975  0.00  0.00     0.325 C 
ATOM     33  O44 ZIN A   1      19.443   3.081  16.164  0.00  0.00    -0.263 OA
ATOM     34  H81 ZIN A   1      17.040   2.295  17.933  0.00  0.00     0.163 HD
BRANCH  32  35
ATOM     35  C45 ZIN A   1      18.342   4.559  17.640  0.00  0.00     0.472 C 
ATOM     36  F46 ZIN A   1      17.098   5.075  17.263  0.00  0.00    -0.162 F 
ATOM     37  F47 ZIN A   1      18.382   4.401  19.029  0.00  0.00    -0.162 F 
ATOM     38  F48 ZIN A   1      19.353   5.441  17.241  0.00  0.00    -0.162 F 
ENDBRANCH  32  35
ENDBRANCH  27  31
ENDBRANCH  21  22
ENDBRANCH  19  21
BRANCH  17  39
ATOM     39  O32 ZIN A   1      18.126  -1.558  11.744  0.00  0.00    -0.359 OA
ATOM     40  H78 ZIN A   1      18.868  -1.801  12.315  0.00  0.00     0.217 HD
ENDBRANCH  17  39
BRANCH   1  41
ATOM     41  C9  ZIN A   1      17.659   3.447  11.899  0.00  0.00     0.185 C 
ATOM     42  O10 ZIN A   1      16.976   3.036  10.992  0.00  0.00    -0.292 OA
BRANCH  41  43
ATOM     43  C8  ZIN A   1      17.010   4.066  13.110  0.00  0.00     0.260 C 
BRANCH  43  44
ATOM     44  O7  ZIN A   1      16.623   5.433  12.806  0.00  0.00    -0.314 OA
BRANCH  44  45
ATOM     45  C5  ZIN A   1      16.418   6.253  13.849  0.00  0.00     0.259 C 
ATOM     46  O6  ZIN A   1      17.033   7.289  13.934  0.00  0.00    -0.265 OA
BRANCH  45  47
ATOM     47  C4  ZIN A   1      15.418   5.881  14.914  0.00  0.00     0.111 C 
BRANCH  47  48
ATOM     48  C3  ZIN A   1      14.003   6.163  14.403  0.00  0.00     0.009 C 
BRANCH  48  49
ATOM     49  C2  ZIN A   1      13.045   6.270  15.591  0.00  0.00    -0.004 C 
ATOM     50  C1  ZIN A   1      13.719   7.048  16.722  0.00  0.00     0.005 C 
ENDBRANCH  48  49
ENDBRANCH  47  48
ENDBRANCH  45  47
ENDBRANCH  44  45
ENDBRANCH  43  44
ENDBRANCH  41  43
ENDBRANCH   1  41
BRANCH   1  51
ATOM     51  O12 ZIN A   1      19.749   4.598  12.157  0.00  0.00    -0.382 OA
ATOM     52  H68 ZIN A   1      19.455   4.955  13.007  0.00  0.00     0.211 HD
ENDBRANCH   1  51
BRANCH   4  53
ATOM     53  O16 ZIN A   1      19.437   2.023   7.794  0.00  0.00    -0.359 OA
ATOM     54  H71 ZIN A   1      18.829   2.773   7.727  0.00  0.00     0.217 HD
ENDBRANCH   4  53
BRANCH  10  55
ATOM     55  O23 ZIN A   1      17.868  -5.198   8.368  0.00  0.00    -0.355 OA
ATOM     56  C24 ZIN A   1      18.356  -6.532   8.206  0.00  0.00     0.210 C 
ENDBRANCH  10  55
TORSDOF 16
ENDMDL
MODEL 9
REMARK VINA RESULT:      -6.7      5.198     10.189
REMARK  16 active torsions:
REMARK  status: ('A' for Active; 'I' for Inactive)
REMARK    1  A    between atoms: C2_2  and  C3_3 
REMARK    2  A    between atoms: C3_3  and  C4_4 
REMARK    3  A    between atoms: C4_4  and  C5_5 
REMARK    4  A    between atoms: C5_5  and  O7_7 
REMARK    5  A    between atoms: O7_7  and  C8_8 
REMARK    6  A    between atoms: C8_8  and  C9_9 
REMARK    7  A    between atoms: C9_9  and  C11_11 
REMARK    8  A    between atoms: C11_11  and  O12_12 
REMARK    9  A    between atoms: C15_15  and  O16_16 
REMARK   10  A    between atoms: C22_22  and  O23_23 
REMARK   11  A    between atoms: C31_31  and  O32_32 
REMARK   12  A    between atoms: C34_34  and  O36_35 
REMARK   13  A    between atoms: O36_35  and  C37_36 
REMARK   14  A    between atoms: C40_38  and  N42_39 
REMARK       I    between atoms: N42_39  and  C43_40 
REMARK   15  A    between atoms: C43_40  and  C45_42 
REMARK   16  A    between atoms: C49_46  and  O51_47 
ROOT
ATOM      1  C11 ZIN A   1      17.669   0.352   8.752  0.00  0.00     0.127 C 
ATOM      2  C13 ZIN A   1      17.453   1.595   9.612  0.00  0.00     0.088 C 
ATOM      3  C14 ZIN A   1      17.861   1.332  11.039  0.00  0.00    -0.009 A 
ATOM      4  C15 ZIN A   1      18.086   2.446  11.859  0.00  0.00     0.088 A 
ATOM      5  C17 ZIN A   1      18.458   2.276  13.191  0.00  0.00     0.066 A 
ATOM      6  C18 ZIN A   1      18.607   0.973  13.709  0.00  0.00     0.066 A 
ATOM      7  C19 ZIN A   1      18.997   0.788  15.119  0.00  0.00     0.200 C 
ATOM      8  O20 ZIN A   1      19.370  -0.299  15.518  0.00  0.00    -0.286 OA
ATOM      9  C21 ZIN A   1      18.928   1.938  16.042  0.00  0.00     0.062 A 
ATOM     10  C22 ZIN A   1      19.006   1.747  17.424  0.00  0.00     0.083 A 
ATOM     11  C25 ZIN A   1      18.938   2.847  18.275  0.00  0.00     0.038 A 
ATOM     12  C26 ZIN A   1      18.795   4.120  17.762  0.00  0.00     0.004 A 
ATOM     13  C27 ZIN A   1      18.716   4.324  16.393  0.00  0.00     0.017 A 
ATOM     14  C28 ZIN A   1      18.780   3.241  15.525  0.00  0.00     0.032 A 
ATOM     15  C29 ZIN A   1      18.695   3.442  14.063  0.00  0.00     0.197 C 
ATOM     16  O30 ZIN A   1      18.819   4.553  13.586  0.00  0.00    -0.286 OA
ATOM     17  C31 ZIN A   1      18.384  -0.122  12.879  0.00  0.00     0.090 A 
ATOM     18  C33 ZIN A   1      18.012   0.064  11.541  0.00  0.00     0.014 A 
ATOM     19  C34 ZIN A   1      17.801  -1.172  10.705  0.00  0.00     0.164 C 
ATOM     20  C56 ZIN A   1      17.001  -0.840   9.447  0.00  0.00     0.083 C 
ENDROOT
BRANCH  19  21
ATOM     21  O36 ZIN A   1      17.088  -2.144  11.472  0.00  0.00    -0.351 OA
BRANCH  21  22
ATOM     22  C37 ZIN A   1      17.486  -3.493  11.215  0.00  0.00     0.263 C 
ATOM     23  O55 ZIN A   1      16.496  -4.387  11.726  0.00  0.00    -0.354 OA
ATOM     24  C52 ZIN A   1      16.808  -5.770  11.545  0.00  0.00     0.151 C 
ATOM     25  C49 ZIN A   1      16.927  -6.073  10.049  0.00  0.00     0.169 C 
ATOM     26  C54 ZIN A   1      18.135  -6.088  12.237  0.00  0.00     0.042 C 
ATOM     27  C40 ZIN A   1      18.000  -5.167   9.436  0.00  0.00     0.120 C 
ATOM     28  C39 ZIN A   1      17.632  -3.704   9.706  0.00  0.00     0.088 C 
BRANCH  25  29
ATOM     29  O51 ZIN A   1      17.296  -7.440   9.865  0.00  0.00    -0.391 OA
ATOM     30  H82 ZIN A   1      17.529  -7.665   8.954  0.00  0.00     0.210 HD
ENDBRANCH  25  29
BRANCH  27  31
ATOM     31  N42 ZIN A   1      18.070  -5.395   7.990  0.00  0.00    -0.346 N 
ATOM     32  C43 ZIN A   1      16.948  -5.664   7.295  0.00  0.00     0.325 C 
ATOM     33  O44 ZIN A   1      15.880  -5.718   7.866  0.00  0.00    -0.263 OA
ATOM     34  H81 ZIN A   1      18.926  -5.351   7.534  0.00  0.00     0.163 HD
BRANCH  32  35
ATOM     35  C45 ZIN A   1      17.022  -5.898   5.807  0.00  0.00     0.472 C 
ATOM     36  F46 ZIN A   1      16.502  -7.162   5.508  0.00  0.00    -0.162 F 
ATOM     37  F47 ZIN A   1      16.278  -4.918   5.144  0.00  0.00    -0.162 F 
ATOM     38  F48 ZIN A   1      18.356  -5.833   5.391  0.00  0.00    -0.162 F 
ENDBRANCH  32  35
ENDBRANCH  27  31
ENDBRANCH  21  22
ENDBRANCH  19  21
BRANCH  17  39
ATOM     39  O32 ZIN A   1      18.528  -1.378  13.371  0.00  0.00    -0.359 OA
ATOM     40  H78 ZIN A   1      18.968  -1.990  12.765  0.00  0.00     0.217 HD
ENDBRANCH  17  39
BRANCH   1  41
ATOM     41  C9  ZIN A   1      19.145   0.089   8.600  0.00  0.00     0.185 C 
ATOM     42  O10 ZIN A   1      19.945   0.947   8.894  0.00  0.00    -0.292 OA
BRANCH  41  43
ATOM     43  C8  ZIN A   1      19.625  -1.242   8.082  0.00  0.00     0.260 C 
BRANCH  43  44
ATOM     44  O7  ZIN A   1      18.619  -1.811   7.204  0.00  0.00    -0.314 OA
BRANCH  44  45
ATOM     45  C5  ZIN A   1      19.055  -2.593   6.204  0.00  0.00     0.259 C 
ATOM     46  O6  ZIN A   1      19.972  -3.357   6.390  0.00  0.00    -0.265 OA
BRANCH  45  47
ATOM     47  C4  ZIN A   1      18.399  -2.517   4.849  0.00  0.00     0.111 C 
BRANCH  47  48
ATOM     48  C3  ZIN A   1      18.057  -1.061   4.529  0.00  0.00     0.009 C 
BRANCH  48  49
ATOM     49  C2  ZIN A   1      19.349  -0.254   4.384  0.00  0.00    -0.004 C 
ATOM     50  C1  ZIN A   1      19.241   1.035   5.199  0.00  0.00     0.005 C 
ENDBRANCH  48  49
ENDBRANCH  47  48
ENDBRANCH  45  47
ENDBRANCH  44  45
ENDBRANCH  43  44
ENDBRANCH  41  43
ENDBRANCH   1  41
BRANCH   1  51
ATOM     51  O12 ZIN A   1      17.082   0.549   7.463  0.00  0.00    -0.382 OA
ATOM     52  H68 ZIN A   1      16.557   1.358   7.389  0.00  0.00     0.211 HD
ENDBRANCH   1  51
BRANCH   4  53
ATOM     53  O16 ZIN A   1      17.939   3.694  11.354  0.00  0.00    -0.359 OA
ATOM     54  H71 ZIN A   1      17.329   4.254  11.856  0.00  0.00     0.217 HD
ENDBRANCH   4  53
BRANCH  10  55
ATOM     55  O23 ZIN A   1      19.148   0.499  17.932  0.00  0.00    -0.355 OA
ATOM     56  C24 ZIN A   1      18.178   0.076  18.892  0.00  0.00     0.210 C 
ENDBRANCH  10  55
TORSDOF 16
ENDMDL
