MODEL 1
REMARK VINA RESULT:      -8.1      0.000      0.000
REMARK  5 active torsions:
REMARK  status: ('A' for Active; 'I' for Inactive)
REMARK    1  A    between atoms: O2_2  and  C3_3 
REMARK    2  A    between atoms: C8_8  and  S9_9 
REMARK    3  A    between atoms: S9_9  and  C11_11 
REMARK    4  A    between atoms: C11_11  and  C12_12 
REMARK    5  A    between atoms: C17_17  and  O18_18 
ROOT
ATOM      1  S9  <0> d   1      17.281   0.292  11.294  0.00  0.00     0.091 S 
ATOM      2  O10 <0> d   1      15.870   0.148  11.386  0.00  0.00    -0.249 OA
ENDROOT
BRANCH   1   3
ATOM      3  C8  <0> d   1      17.798   0.223  12.977  0.00  0.00     0.198 A 
ATOM      4  N7  <0> d   1      17.886  -0.864  13.685  0.00  0.00    -0.221 NA
ATOM      5  C6  <0> d   1      18.315  -0.559  14.939  0.00  0.00     0.086 A 
ATOM      6  C5  <0> d   1      18.578  -1.324  16.077  0.00  0.00     0.037 A 
ATOM      7  C23 <0> d   1      18.499   0.833  14.980  0.00  0.00     0.066 A 
ATOM      8  C4  <0> d   1      19.010  -0.717  17.222  0.00  0.00     0.039 A 
ATOM      9  C3  <0> d   1      19.193   0.662  17.266  0.00  0.00     0.070 A 
ATOM     10  C24 <0> d   1      18.933   1.438  16.152  0.00  0.00     0.068 A 
ATOM     11  N22 <0> d   1      18.164   1.300  13.726  0.00  0.00    -0.331 N 
ATOM     12  H42 <0> d   1      18.185   2.224  13.430  0.00  0.00     0.168 HD
BRANCH   9  13
ATOM     13  O2  <0> d   1      19.624   1.249  18.414  0.00  0.00    -0.356 OA
ATOM     14  C1  <0> d   1      19.149   2.570  18.686  0.00  0.00     0.210 C 
ENDBRANCH   9  13
ENDBRANCH   1   3
BRANCH   1  15
ATOM     15  C11 <0> d   1      17.998  -1.215  10.584  0.00  0.00     0.177 C 
BRANCH  15  16
ATOM     16  C12 <0> d   1      18.351  -0.973   9.139  0.00  0.00     0.054 A 
ATOM     17  C20 <0> d   1      18.899  -1.995   8.391  0.00  0.00    -0.003 A 
ATOM     18  C17 <0> d   1      19.217  -1.762   7.056  0.00  0.00     0.083 A 
ATOM     19  C21 <0> d   1      19.140  -3.349   9.009  0.00  0.00     0.053 C 
ATOM     20  C15 <0> d   1      18.975  -0.494   6.532  0.00  0.00    -0.011 A 
ATOM     21  C14 <0> d   1      18.430   0.476   7.346  0.00  0.00     0.126 A 
ATOM     22  C16 <0> d   1      19.306  -0.187   5.094  0.00  0.00     0.052 C 
ATOM     23  N13 <0> d   1      18.137   0.215   8.607  0.00  0.00    -0.263 NA
BRANCH  18  24
ATOM     24  O18 <0> d   1      19.752  -2.743   6.286  0.00  0.00    -0.355 OA
ATOM     25  C19 <0> d   1      18.839  -3.562   5.553  0.00  0.00     0.210 C 
ENDBRANCH  18  24
ENDBRANCH  15  16
ENDBRANCH   1  15
TORSDOF 5
ENDMDL
MODEL 2
REMARK VINA RESULT:      -7.9      2.612      7.829
REMARK  5 active torsions:
REMARK  status: ('A' for Active; 'I' for Inactive)
REMARK    1  A    between atoms: O2_2  and  C3_3 
REMARK    2  A    between atoms: C8_8  and  S9_9 
REMARK    3  A    between atoms: S9_9  and  C11_11 
REMARK    4  A    between atoms: C11_11  and  C12_12 
REMARK    5  A    between atoms: C17_17  and  O18_18 
ROOT
ATOM      1  S9  <0> d   1      17.740   3.595  12.332  0.00  0.00     0.091 S 
ATOM      2  O10 <0> d   1      17.886   4.923  11.848  0.00  0.00    -0.249 OA
ENDROOT
BRANCH   1   3
ATOM      3  C8  <0> d   1      17.931   2.619  10.878  0.00  0.00     0.198 A 
ATOM      4  N7  <0> d   1      17.302   1.506  10.640  0.00  0.00    -0.221 NA
ATOM      5  C6  <0> d   1      17.684   1.015   9.431  0.00  0.00     0.086 A 
ATOM      6  C5  <0> d   1      17.331  -0.122   8.700  0.00  0.00     0.037 A 
ATOM      7  C23 <0> d   1      18.623   1.916   8.902  0.00  0.00     0.066 A 
ATOM      8  C4  <0> d   1      17.900  -0.351   7.480  0.00  0.00     0.039 A 
ATOM      9  C3  <0> d   1      18.831   0.539   6.953  0.00  0.00     0.070 A 
ATOM     10  C24 <0> d   1      19.197   1.668   7.663  0.00  0.00     0.068 A 
ATOM     11  N22 <0> d   1      18.759   2.919   9.840  0.00  0.00    -0.331 N 
ATOM     12  H42 <0> d   1      19.337   3.696   9.772  0.00  0.00     0.168 HD
BRANCH   9  13
ATOM     13  O2  <0> d   1      19.387   0.294   5.737  0.00  0.00    -0.356 OA
ATOM     14  C1  <0> d   1      18.513  -0.172   4.706  0.00  0.00     0.210 C 
ENDBRANCH   9  13
ENDBRANCH   1   3
BRANCH   1  15
ATOM     15  C11 <0> d   1      19.195   3.148  13.318  0.00  0.00     0.177 C 
BRANCH  15  16
ATOM     16  C12 <0> d   1      18.922   1.869  14.067  0.00  0.00     0.054 A 
ATOM     17  C20 <0> d   1      19.489   0.689  13.631  0.00  0.00    -0.003 A 
ATOM     18  C17 <0> d   1      19.234  -0.486  14.333  0.00  0.00     0.083 A 
ATOM     19  C21 <0> d   1      20.383   0.675  12.417  0.00  0.00     0.053 C 
ATOM     20  C15 <0> d   1      18.402  -0.421  15.448  0.00  0.00    -0.011 A 
ATOM     21  C14 <0> d   1      17.868   0.796  15.817  0.00  0.00     0.126 A 
ATOM     22  C16 <0> d   1      18.088  -1.664  16.240  0.00  0.00     0.052 C 
ATOM     23  N13 <0> d   1      18.138   1.890  15.128  0.00  0.00    -0.263 NA
BRANCH  18  24
ATOM     24  O18 <0> d   1      19.779  -1.665  13.937  0.00  0.00    -0.355 OA
ATOM     25  C19 <0> d   1      19.134  -2.347  12.861  0.00  0.00     0.210 C 
ENDBRANCH  18  24
ENDBRANCH  15  16
ENDBRANCH   1  15
TORSDOF 5
ENDMDL
MODEL 3
REMARK VINA RESULT:      -7.9      1.283      9.112
REMARK  5 active torsions:
REMARK  status: ('A' for Active; 'I' for Inactive)
REMARK    1  A    between atoms: O2_2  and  C3_3 
REMARK    2  A    between atoms: C8_8  and  S9_9 
REMARK    3  A    between atoms: S9_9  and  C11_11 
REMARK    4  A    between atoms: C11_11  and  C12_12 
REMARK    5  A    between atoms: C17_17  and  O18_18 
ROOT
ATOM      1  S9  <0> d   1      17.235  -0.193  11.838  0.00  0.00     0.091 S 
ATOM      2  O10 <0> d   1      15.835   0.016  11.716  0.00  0.00    -0.249 OA
ENDROOT
BRANCH   1   3
ATOM      3  C8  <0> d   1      17.789  -0.160  10.167  0.00  0.00     0.198 A 
ATOM      4  N7  <0> d   1      17.956   0.917   9.457  0.00  0.00    -0.221 NA
ATOM      5  C6  <0> d   1      18.391   0.583   8.214  0.00  0.00     0.086 A 
ATOM      6  C5  <0> d   1      18.722   1.327   7.079  0.00  0.00     0.037 A 
ATOM      7  C23 <0> d   1      18.494  -0.818   8.180  0.00  0.00     0.066 A 
ATOM      8  C4  <0> d   1      19.141   0.691   5.945  0.00  0.00     0.039 A 
ATOM      9  C3  <0> d   1      19.244  -0.697   5.908  0.00  0.00     0.070 A 
ATOM     10  C24 <0> d   1      18.917  -1.452   7.019  0.00  0.00     0.068 A 
ATOM     11  N22 <0> d   1      18.107  -1.260   9.429  0.00  0.00    -0.331 N 
ATOM     12  H42 <0> d   1      18.069  -2.182   9.727  0.00  0.00     0.168 HD
BRANCH   9  13
ATOM     13  O2  <0> d   1      19.664  -1.313   4.771  0.00  0.00    -0.356 OA
ATOM     14  C1  <0> d   1      19.051  -2.563   4.447  0.00  0.00     0.210 C 
ENDBRANCH   9  13
ENDBRANCH   1   3
BRANCH   1  15
ATOM     15  C11 <0> d   1      18.006   1.286  12.553  0.00  0.00     0.177 C 
BRANCH  15  16
ATOM     16  C12 <0> d   1      18.339   1.031  14.000  0.00  0.00     0.054 A 
ATOM     17  C20 <0> d   1      18.846   2.055  14.773  0.00  0.00    -0.003 A 
ATOM     18  C17 <0> d   1      19.146   1.810  16.111  0.00  0.00     0.083 A 
ATOM     19  C21 <0> d   1      19.062   3.424  14.181  0.00  0.00     0.053 C 
ATOM     20  C15 <0> d   1      18.929   0.529  16.612  0.00  0.00    -0.011 A 
ATOM     21  C14 <0> d   1      18.424  -0.443  15.773  0.00  0.00     0.126 A 
ATOM     22  C16 <0> d   1      19.242   0.207  18.051  0.00  0.00     0.052 C 
ATOM     23  N13 <0> d   1      18.147  -0.170  14.511  0.00  0.00    -0.263 NA
BRANCH  18  24
ATOM     24  O18 <0> d   1      19.641   2.793  16.905  0.00  0.00    -0.355 OA
ATOM     25  C19 <0> d   1      18.700   3.528  17.689  0.00  0.00     0.210 C 
ENDBRANCH  18  24
ENDBRANCH  15  16
ENDBRANCH   1  15
TORSDOF 5
ENDMDL
MODEL 4
REMARK VINA RESULT:      -7.8      1.504      1.990
REMARK  5 active torsions:
REMARK  status: ('A' for Active; 'I' for Inactive)
REMARK    1  A    between atoms: O2_2  and  C3_3 
REMARK    2  A    between atoms: C8_8  and  S9_9 
REMARK    3  A    between atoms: S9_9  and  C11_11 
REMARK    4  A    between atoms: C11_11  and  C12_12 
REMARK    5  A    between atoms: C17_17  and  O18_18 
ROOT
ATOM      1  S9  <0> d   1      17.463  -0.510  11.710  0.00  0.00     0.091 S 
ATOM      2  O10 <0> d   1      16.128  -0.024  11.716  0.00  0.00    -0.249 OA
ENDROOT
BRANCH   1   3
ATOM      3  C8  <0> d   1      17.973  -0.291  13.382  0.00  0.00     0.198 A 
ATOM      4  N7  <0> d   1      18.218  -1.257  14.218  0.00  0.00    -0.221 NA
ATOM      5  C6  <0> d   1      18.588  -0.737  15.419  0.00  0.00     0.086 A 
ATOM      6  C5  <0> d   1      18.955  -1.306  16.640  0.00  0.00     0.037 A 
ATOM      7  C23 <0> d   1      18.562   0.661  15.285  0.00  0.00     0.066 A 
ATOM      8  C4  <0> d   1      19.284  -0.504  17.695  0.00  0.00     0.039 A 
ATOM      9  C3  <0> d   1      19.258   0.882  17.566  0.00  0.00     0.070 A 
ATOM     10  C24 <0> d   1      18.893   1.465  16.367  0.00  0.00     0.068 A 
ATOM     11  N22 <0> d   1      18.169   0.913  13.986  0.00  0.00    -0.331 N 
ATOM     12  H42 <0> d   1      18.055   1.786  13.578  0.00  0.00     0.168 HD
BRANCH   9  13
ATOM     13  O2  <0> d   1      19.589   1.666  18.627  0.00  0.00    -0.356 OA
ATOM     14  C1  <0> d   1      18.986   2.960  18.691  0.00  0.00     0.210 C 
ENDBRANCH   9  13
ENDBRANCH   1   3
BRANCH   1  15
ATOM     15  C11 <0> d   1      17.449  -2.314  11.520  0.00  0.00     0.177 C 
BRANCH  15  16
ATOM     16  C12 <0> d   1      18.028  -2.685  10.179  0.00  0.00     0.054 A 
ATOM     17  C20 <0> d   1      18.374  -3.996   9.925  0.00  0.00    -0.003 A 
ATOM     18  C17 <0> d   1      18.905  -4.328   8.681  0.00  0.00     0.083 A 
ATOM     19  C21 <0> d   1      18.170  -5.057  10.976  0.00  0.00     0.053 C 
ATOM     20  C15 <0> d   1      19.073  -3.312   7.744  0.00  0.00    -0.011 A 
ATOM     21  C14 <0> d   1      18.708  -2.024   8.076  0.00  0.00     0.126 A 
ATOM     22  C16 <0> d   1      19.648  -3.616   6.384  0.00  0.00     0.052 C 
ATOM     23  N13 <0> d   1      18.203  -1.750   9.265  0.00  0.00    -0.263 NA
BRANCH  18  24
ATOM     24  O18 <0> d   1      19.252  -5.608   8.392  0.00  0.00    -0.355 OA
ATOM     25  C19 <0> d   1      18.245  -6.435   7.806  0.00  0.00     0.210 C 
ENDBRANCH  18  24
ENDBRANCH  15  16
ENDBRANCH   1  15
TORSDOF 5
ENDMDL
MODEL 5
REMARK VINA RESULT:      -7.7      2.187      8.760
REMARK  5 active torsions:
REMARK  status: ('A' for Active; 'I' for Inactive)
REMARK    1  A    between atoms: O2_2  and  C3_3 
REMARK    2  A    between atoms: C8_8  and  S9_9 
REMARK    3  A    between atoms: S9_9  and  C11_11 
REMARK    4  A    between atoms: C11_11  and  C12_12 
REMARK    5  A    between atoms: C17_17  and  O18_18 
ROOT
ATOM      1  S9  <0> d   1      17.719   3.343  12.440  0.00  0.00     0.091 S 
ATOM      2  O10 <0> d   1      17.883   4.705  12.070  0.00  0.00    -0.249 OA
ENDROOT
BRANCH   1   3
ATOM      3  C8  <0> d   1      17.929   2.488  10.914  0.00  0.00     0.198 A 
ATOM      4  N7  <0> d   1      17.311   1.392  10.583  0.00  0.00    -0.221 NA
ATOM      5  C6  <0> d   1      17.705   1.003   9.341  0.00  0.00     0.086 A 
ATOM      6  C5  <0> d   1      17.368  -0.074   8.519  0.00  0.00     0.037 A 
ATOM      7  C23 <0> d   1      18.639   1.952   8.893  0.00  0.00     0.066 A 
ATOM      8  C4  <0> d   1      17.947  -0.200   7.288  0.00  0.00     0.039 A 
ATOM      9  C3  <0> d   1      18.873   0.738   6.842  0.00  0.00     0.070 A 
ATOM     10  C24 <0> d   1      19.224   1.809   7.642  0.00  0.00     0.068 A 
ATOM     11  N22 <0> d   1      18.760   2.878   9.909  0.00  0.00    -0.331 N 
ATOM     12  H42 <0> d   1      19.331   3.663   9.908  0.00  0.00     0.168 HD
BRANCH   9  13
ATOM     13  O2  <0> d   1      19.439   0.597   5.613  0.00  0.00    -0.356 OA
ATOM     14  C1  <0> d   1      19.232  -0.648   4.942  0.00  0.00     0.210 C 
ENDBRANCH   9  13
ENDBRANCH   1   3
BRANCH   1  15
ATOM     15  C11 <0> d   1      19.153   2.803  13.411  0.00  0.00     0.177 C 
BRANCH  15  16
ATOM     16  C12 <0> d   1      18.739   1.698  14.348  0.00  0.00     0.054 A 
ATOM     17  C20 <0> d   1      18.895   1.865  15.709  0.00  0.00    -0.003 A 
ATOM     18  C17 <0> d   1      18.506   0.839  16.567  0.00  0.00     0.083 A 
ATOM     19  C21 <0> d   1      19.469   3.145  16.261  0.00  0.00     0.053 C 
ATOM     20  C15 <0> d   1      17.981  -0.324  16.009  0.00  0.00    -0.011 A 
ATOM     21  C14 <0> d   1      17.863  -0.417  14.638  0.00  0.00     0.126 A 
ATOM     22  C16 <0> d   1      17.549  -1.467  16.892  0.00  0.00     0.052 C 
ATOM     23  N13 <0> d   1      18.239   0.580  13.858  0.00  0.00    -0.263 NA
BRANCH  18  24
ATOM     24  O18 <0> d   1      18.638   0.969  17.912  0.00  0.00    -0.355 OA
ATOM     25  C19 <0> d   1      17.528   1.522  18.621  0.00  0.00     0.210 C 
ENDBRANCH  18  24
ENDBRANCH  15  16
ENDBRANCH   1  15
TORSDOF 5
ENDMDL
MODEL 6
REMARK VINA RESULT:      -7.7      1.879      8.636
REMARK  5 active torsions:
REMARK  status: ('A' for Active; 'I' for Inactive)
REMARK    1  A    between atoms: O2_2  and  C3_3 
REMARK    2  A    between atoms: C8_8  and  S9_9 
REMARK    3  A    between atoms: S9_9  and  C11_11 
REMARK    4  A    between atoms: C11_11  and  C12_12 
REMARK    5  A    between atoms: C17_17  and  O18_18 
ROOT
ATOM      1  S9  <0> d   1      18.163   2.582  10.550  0.00  0.00     0.091 S 
ATOM      2  O10 <0> d   1      18.150   3.861   9.931  0.00  0.00    -0.249 OA
ENDROOT
BRANCH   1   3
ATOM      3  C8  <0> d   1      18.509   1.495   9.209  0.00  0.00     0.198 A 
ATOM      4  N7  <0> d   1      18.654   1.862   7.970  0.00  0.00    -0.221 NA
ATOM      5  C6  <0> d   1      18.912   0.774   7.197  0.00  0.00     0.086 A 
ATOM      6  C5  <0> d   1      19.147   0.598   5.832  0.00  0.00     0.037 A 
ATOM      7  C23 <0> d   1      18.922  -0.341   8.052  0.00  0.00     0.066 A 
ATOM      8  C4  <0> d   1      19.384  -0.652   5.336  0.00  0.00     0.039 A 
ATOM      9  C3  <0> d   1      19.394  -1.759   6.180  0.00  0.00     0.070 A 
ATOM     10  C24 <0> d   1      19.159  -1.607   7.535  0.00  0.00     0.068 A 
ATOM     11  N22 <0> d   1      18.664   0.146   9.317  0.00  0.00    -0.331 N 
ATOM     12  H42 <0> d   1      18.605  -0.375  10.134  0.00  0.00     0.168 HD
BRANCH   9  13
ATOM     13  O2  <0> d   1      19.631  -2.996   5.669  0.00  0.00    -0.356 OA
ATOM     14  C1  <0> d   1      19.945  -4.034   6.601  0.00  0.00     0.210 C 
ENDBRANCH   9  13
ENDBRANCH   1   3
BRANCH   1  15
ATOM     15  C11 <0> d   1      19.641   2.430  11.591  0.00  0.00     0.177 C 
BRANCH  15  16
ATOM     16  C12 <0> d   1      19.379   1.439  12.696  0.00  0.00     0.054 A 
ATOM     17  C20 <0> d   1      18.917   1.886  13.917  0.00  0.00    -0.003 A 
ATOM     18  C17 <0> d   1      18.674   0.961  14.929  0.00  0.00     0.083 A 
ATOM     19  C21 <0> d   1      18.667   3.354  14.147  0.00  0.00     0.053 C 
ATOM     20  C15 <0> d   1      18.920  -0.384  14.667  0.00  0.00    -0.011 A 
ATOM     21  C14 <0> d   1      19.388  -0.751  13.422  0.00  0.00     0.126 A 
ATOM     22  C16 <0> d   1      18.680  -1.426  15.729  0.00  0.00     0.052 C 
ATOM     23  N13 <0> d   1      19.601   0.155  12.486  0.00  0.00    -0.263 NA
BRANCH  18  24
ATOM     24  O18 <0> d   1      18.213   1.361  16.141  0.00  0.00    -0.355 OA
ATOM     25  C19 <0> d   1      19.191   1.711  17.122  0.00  0.00     0.210 C 
ENDBRANCH  18  24
ENDBRANCH  15  16
ENDBRANCH   1  15
TORSDOF 5
ENDMDL
MODEL 7
REMARK VINA RESULT:      -7.7      1.822      8.846
REMARK  5 active torsions:
REMARK  status: ('A' for Active; 'I' for Inactive)
REMARK    1  A    between atoms: O2_2  and  C3_3 
REMARK    2  A    between atoms: C8_8  and  S9_9 
REMARK    3  A    between atoms: S9_9  and  C11_11 
REMARK    4  A    between atoms: C11_11  and  C12_12 
REMARK    5  A    between atoms: C17_17  and  O18_18 
ROOT
ATOM      1  S9  <0> d   1      19.614  -1.256  12.402  0.00  0.00     0.091 S 
ATOM      2  O10 <0> d   1      19.542  -2.674  12.347  0.00  0.00    -0.249 OA
ENDROOT
BRANCH   1   3
ATOM      3  C8  <0> d   1      19.445  -0.783  10.713  0.00  0.00     0.198 A 
ATOM      4  N7  <0> d   1      19.289   0.438  10.293  0.00  0.00    -0.221 NA
ATOM      5  C6  <0> d   1      19.192   0.445   8.937  0.00  0.00     0.086 A 
ATOM      6  C5  <0> d   1      19.021   1.458   7.991  0.00  0.00     0.037 A 
ATOM      7  C23 <0> d   1      19.301  -0.889   8.512  0.00  0.00     0.066 A 
ATOM      8  C4  <0> d   1      18.960   1.148   6.662  0.00  0.00     0.039 A 
ATOM      9  C3  <0> d   1      19.068  -0.174   6.238  0.00  0.00     0.070 A 
ATOM     10  C24 <0> d   1      19.232  -1.192   7.159  0.00  0.00     0.068 A 
ATOM     11  N22 <0> d   1      19.460  -1.643   9.657  0.00  0.00    -0.331 N 
ATOM     12  H42 <0> d   1      19.565  -2.607   9.703  0.00  0.00     0.168 HD
BRANCH   9  13
ATOM     13  O2  <0> d   1      19.005  -0.465   4.911  0.00  0.00    -0.356 OA
ATOM     14  C1  <0> d   1      19.042  -1.846   4.548  0.00  0.00     0.210 C 
ENDBRANCH   9  13
ENDBRANCH   1   3
BRANCH   1  15
ATOM     15  C11 <0> d   1      18.101  -0.603  13.161  0.00  0.00     0.177 C 
BRANCH  15  16
ATOM     16  C12 <0> d   1      18.462   0.440  14.187  0.00  0.00     0.054 A 
ATOM     17  C20 <0> d   1      18.736   0.053  15.484  0.00  0.00    -0.003 A 
ATOM     18  C17 <0> d   1      19.073   1.024  16.423  0.00  0.00     0.083 A 
ATOM     19  C21 <0> d   1      18.683  -1.402  15.874  0.00  0.00     0.053 C 
ATOM     20  C15 <0> d   1      19.109   2.355  16.013  0.00  0.00    -0.011 A 
ATOM     21  C14 <0> d   1      18.816   2.661  14.701  0.00  0.00     0.126 A 
ATOM     22  C16 <0> d   1      19.461   3.446  16.991  0.00  0.00     0.052 C 
ATOM     23  N13 <0> d   1      18.506   1.711  13.837  0.00  0.00    -0.263 NA
BRANCH  18  24
ATOM     24  O18 <0> d   1      19.355   0.683  17.706  0.00  0.00    -0.355 OA
ATOM     25  C19 <0> d   1      18.262   0.666  18.627  0.00  0.00     0.210 C 
ENDBRANCH  18  24
ENDBRANCH  15  16
ENDBRANCH   1  15
TORSDOF 5
ENDMDL
MODEL 8
REMARK VINA RESULT:      -7.6      1.306      2.002
REMARK  5 active torsions:
REMARK  status: ('A' for Active; 'I' for Inactive)
REMARK    1  A    between atoms: O2_2  and  C3_3 
REMARK    2  A    between atoms: C8_8  and  S9_9 
REMARK    3  A    between atoms: S9_9  and  C11_11 
REMARK    4  A    between atoms: C11_11  and  C12_12 
REMARK    5  A    between atoms: C17_17  and  O18_18 
ROOT
ATOM      1  S9  <0> d   1      17.843  -0.720  11.605  0.00  0.00     0.091 S 
ATOM      2  O10 <0> d   1      17.034  -1.888  11.632  0.00  0.00    -0.249 OA
ENDROOT
BRANCH   1   3
ATOM      3  C8  <0> d   1      18.244  -0.475  13.303  0.00  0.00     0.198 A 
ATOM      4  N7  <0> d   1      18.405  -1.426  14.176  0.00  0.00    -0.221 NA
ATOM      5  C6  <0> d   1      18.705  -0.887  15.387  0.00  0.00     0.086 A 
ATOM      6  C5  <0> d   1      18.972  -1.436  16.643  0.00  0.00     0.037 A 
ATOM      7  C23 <0> d   1      18.726   0.507  15.221  0.00  0.00     0.066 A 
ATOM      8  C4  <0> d   1      19.250  -0.617  17.700  0.00  0.00     0.039 A 
ATOM      9  C3  <0> d   1      19.272   0.765  17.539  0.00  0.00     0.070 A 
ATOM     10  C24 <0> d   1      19.005   1.329  16.305  0.00  0.00     0.068 A 
ATOM     11  N22 <0> d   1      18.430   0.738  13.893  0.00  0.00    -0.331 N 
ATOM     12  H42 <0> d   1      18.368   1.604  13.458  0.00  0.00     0.168 HD
BRANCH   9  13
ATOM     13  O2  <0> d   1      19.551   1.565  18.602  0.00  0.00    -0.356 OA
ATOM     14  C1  <0> d   1      19.057   2.905  18.553  0.00  0.00     0.210 C 
ENDBRANCH   9  13
ENDBRANCH   1   3
BRANCH   1  15
ATOM     15  C11 <0> d   1      19.449  -1.115  10.860  0.00  0.00     0.177 C 
BRANCH  15  16
ATOM     16  C12 <0> d   1      19.240  -1.643   9.463  0.00  0.00     0.054 A 
ATOM     17  C20 <0> d   1      19.219  -0.764   8.400  0.00  0.00    -0.003 A 
ATOM     18  C17 <0> d   1      19.030  -1.262   7.113  0.00  0.00     0.083 A 
ATOM     19  C21 <0> d   1      19.410   0.714   8.626  0.00  0.00     0.053 C 
ATOM     20  C15 <0> d   1      18.858  -2.635   6.956  0.00  0.00    -0.011 A 
ATOM     21  C14 <0> d   1      18.886  -3.447   8.070  0.00  0.00     0.126 A 
ATOM     22  C16 <0> d   1      18.644  -3.226   5.586  0.00  0.00     0.052 C 
ATOM     23  N13 <0> d   1      19.074  -2.937   9.274  0.00  0.00    -0.263 NA
BRANCH  18  24
ATOM     24  O18 <0> d   1      19.009  -0.430   6.041  0.00  0.00    -0.355 OA
ATOM     25  C19 <0> d   1      17.753   0.163   5.706  0.00  0.00     0.210 C 
ENDBRANCH  18  24
ENDBRANCH  15  16
ENDBRANCH   1  15
TORSDOF 5
ENDMDL
MODEL 9
REMARK VINA RESULT:      -7.6      1.672      8.880
REMARK  5 active torsions:
REMARK  status: ('A' for Active; 'I' for Inactive)
REMARK    1  A    between atoms: O2_2  and  C3_3 
REMARK    2  A    between atoms: C8_8  and  S9_9 
REMARK    3  A    between atoms: S9_9  and  C11_11 
REMARK    4  A    between atoms: C11_11  and  C12_12 
REMARK    5  A    between atoms: C17_17  and  O18_18 
ROOT
ATOM      1  S9  <0> d   1      17.804   0.962  11.398  0.00  0.00     0.091 S 
ATOM      2  O10 <0> d   1      17.352   2.305  11.293  0.00  0.00    -0.249 OA
ENDROOT
BRANCH   1   3
ATOM      3  C8  <0> d   1      18.202   0.545   9.734  0.00  0.00     0.198 A 
ATOM      4  N7  <0> d   1      18.254   1.389   8.746  0.00  0.00    -0.221 NA
ATOM      5  C6  <0> d   1      18.589   0.735   7.603  0.00  0.00     0.086 A 
ATOM      6  C5  <0> d   1      18.781   1.145   6.282  0.00  0.00     0.037 A 
ATOM      7  C23 <0> d   1      18.752  -0.619   7.940  0.00  0.00     0.066 A 
ATOM      8  C4  <0> d   1      19.124   0.230   5.327  0.00  0.00     0.039 A 
ATOM      9  C3  <0> d   1      19.286  -1.112   5.657  0.00  0.00     0.070 A 
ATOM     10  C24 <0> d   1      19.095  -1.540   6.959  0.00  0.00     0.068 A 
ATOM     11  N22 <0> d   1      18.500  -0.709   9.294  0.00  0.00    -0.331 N 
ATOM     12  H42 <0> d   1      18.531  -1.515   9.833  0.00  0.00     0.168 HD
BRANCH   9  13
ATOM     13  O2  <0> d   1      19.627  -2.009   4.694  0.00  0.00    -0.356 OA
ATOM     14  C1  <0> d   1      18.722  -3.091   4.464  0.00  0.00     0.210 C 
ENDBRANCH   9  13
ENDBRANCH   1   3
BRANCH   1  15
ATOM     15  C11 <0> d   1      19.419   0.931  12.224  0.00  0.00     0.177 C 
BRANCH  15  16
ATOM     16  C12 <0> d   1      19.225   1.050  13.714  0.00  0.00     0.054 A 
ATOM     17  C20 <0> d   1      19.086  -0.091  14.477  0.00  0.00    -0.003 A 
ATOM     18  C17 <0> d   1      18.912   0.031  15.853  0.00  0.00     0.083 A 
ATOM     19  C21 <0> d   1      19.134  -1.452  13.831  0.00  0.00     0.053 C 
ATOM     20  C15 <0> d   1      18.875   1.310  16.403  0.00  0.00    -0.011 A 
ATOM     21  C14 <0> d   1      19.015   2.402  15.572  0.00  0.00     0.126 A 
ATOM     22  C16 <0> d   1      18.683   1.499  17.886  0.00  0.00     0.052 C 
ATOM     23  N13 <0> d   1      19.184   2.245  14.271  0.00  0.00    -0.263 NA
BRANCH  18  24
ATOM     24  O18 <0> d   1      18.777  -1.069  16.637  0.00  0.00    -0.355 OA
ATOM     25  C19 <0> d   1      17.451  -1.558  16.844  0.00  0.00     0.210 C 
ENDBRANCH  18  24
ENDBRANCH  15  16
ENDBRANCH   1  15
TORSDOF 5
ENDMDL
