MODEL 1
REMARK VINA RESULT:      -5.9      0.000      0.000
REMARK  16 active torsions:
REMARK  status: ('A' for Active; 'I' for Inactive)
REMARK    1  A    between atoms: C2_2  and  C4_4 
REMARK    2  A    between atoms: C4_4  and  N5_5 
REMARK    3  A    between atoms: N5_5  and  C6_6 
REMARK    4  A    between atoms: N5_5  and  C18_18 
REMARK    5  A    between atoms: C6_6  and  C7_7 
REMARK    6  A    between atoms: C7_7  and  N8_8 
REMARK    7  A    between atoms: N8_8  and  C10_10 
REMARK    8  A    between atoms: N8_8  and  C14_14 
REMARK    9  A    between atoms: C10_10  and  C11_11 
REMARK   10  A    between atoms: C14_14  and  C15_15 
REMARK   11  A    between atoms: C18_18  and  C19_19 
REMARK   12  A    between atoms: C19_19  and  N20_20 
REMARK   13  A    between atoms: N20_20  and  C22_22 
REMARK   14  A    between atoms: N20_20  and  C26_26 
REMARK   15  A    between atoms: C22_22  and  C23_23 
REMARK   16  A    between atoms: C26_26  and  C27_27 
ROOT
ATOM      1  N5  <0> d   1      17.930  -1.060   7.258  0.00  0.00     0.101 N 
ENDROOT
BRANCH   1   2
ATOM      2  C4  <0> d   1      19.263  -0.741   6.727  0.00  0.00     0.385 C 
BRANCH   2   3
ATOM      3  C2  <0> d   1      19.212  -0.722   5.222  0.00  0.00     0.202 C 
ATOM      4  O1  <0> d   1      18.605   0.162   4.643  0.00  0.00    -0.647 OA
ATOM      5  O3  <0> d   1      19.783  -1.588   4.582  0.00  0.00    -0.647 OA
ENDBRANCH   2   3
ENDBRANCH   1   2
BRANCH   1   6
ATOM      6  C6  <0> d   1      17.996  -2.177   8.209  0.00  0.00     0.300 C 
BRANCH   6   7
ATOM      7  C7  <0> d   1      19.414  -2.753   8.223  0.00  0.00     0.266 C 
BRANCH   7   8
ATOM      8  N8  <0> d   1      19.507  -3.803   9.246  0.00  0.00    -0.050 N 
ATOM      9  H9  <0> d   1      20.467  -3.905   9.537  0.00  0.00     0.281 HD
BRANCH   8  10
ATOM     10  C10 <0> d   1      18.681  -3.433  10.403  0.00  0.00     0.348 C 
BRANCH  10  11
ATOM     11  C11 <0> d   1      19.562  -3.263  11.614  0.00  0.00     0.199 C 
ATOM     12  O12 <0> d   1      20.628  -3.851  11.680  0.00  0.00    -0.647 OA
ATOM     13  O13 <0> d   1      19.208  -2.538  12.529  0.00  0.00    -0.647 OA
ENDBRANCH  10  11
ENDBRANCH   8  10
BRANCH   8  14
ATOM     14  C14 <0> d   1      19.026  -5.074   8.688  0.00  0.00     0.348 C 
BRANCH  14  15
ATOM     15  C15 <0> d   1      20.044  -5.610   7.713  0.00  0.00     0.199 C 
ATOM     16  O16 <0> d   1      19.728  -5.825   6.556  0.00  0.00    -0.647 OA
ATOM     17  O17 <0> d   1      21.185  -5.829   8.084  0.00  0.00    -0.647 OA
ENDBRANCH  14  15
ENDBRANCH   8  14
ENDBRANCH   7   8
ENDBRANCH   6   7
ENDBRANCH   1   6
BRANCH   1  18
ATOM     18  C18 <0> d   1      17.314   0.121   7.877  0.00  0.00     0.300 C 
BRANCH  18  19
ATOM     19  C19 <0> d   1      18.409   1.043   8.419  0.00  0.00     0.266 C 
BRANCH  19  20
ATOM     20  N20 <0> d   1      18.017   1.544   9.743  0.00  0.00    -0.050 N 
ATOM     21  H21 <0> d   1      17.020   1.692   9.764  0.00  0.00     0.281 HD
BRANCH  20  22
ATOM     22  C22 <0> d   1      18.387   0.559  10.768  0.00  0.00     0.348 C 
BRANCH  22  23
ATOM     23  C23 <0> d   1      17.224   0.344  11.702  0.00  0.00     0.199 C 
ATOM     24  O24 <0> d   1      16.118   0.097  11.251  0.00  0.00    -0.647 OA
ATOM     25  O25 <0> d   1      17.389   0.416  12.907  0.00  0.00    -0.647 OA
ENDBRANCH  22  23
ENDBRANCH  20  22
BRANCH  20  26
ATOM     26  C26 <0> d   1      18.708   2.812  10.011  0.00  0.00     0.348 C 
BRANCH  26  27
ATOM     27  C27 <0> d   1      17.691   3.899  10.244  0.00  0.00     0.199 C 
ATOM     28  O28 <0> d   1      16.818   3.748  11.081  0.00  0.00    -0.647 OA
ATOM     29  O29 <0> d   1      17.742   4.931   9.596  0.00  0.00    -0.647 OA
ENDBRANCH  26  27
ENDBRANCH  20  26
ENDBRANCH  19  20
ENDBRANCH  18  19
ENDBRANCH   1  18
TORSDOF 16
ENDMDL
MODEL 2
REMARK VINA RESULT:      -5.7      1.706      2.738
REMARK  16 active torsions:
REMARK  status: ('A' for Active; 'I' for Inactive)
REMARK    1  A    between atoms: C2_2  and  C4_4 
REMARK    2  A    between atoms: C4_4  and  N5_5 
REMARK    3  A    between atoms: N5_5  and  C6_6 
REMARK    4  A    between atoms: N5_5  and  C18_18 
REMARK    5  A    between atoms: C6_6  and  C7_7 
REMARK    6  A    between atoms: C7_7  and  N8_8 
REMARK    7  A    between atoms: N8_8  and  C10_10 
REMARK    8  A    between atoms: N8_8  and  C14_14 
REMARK    9  A    between atoms: C10_10  and  C11_11 
REMARK   10  A    between atoms: C14_14  and  C15_15 
REMARK   11  A    between atoms: C18_18  and  C19_19 
REMARK   12  A    between atoms: C19_19  and  N20_20 
REMARK   13  A    between atoms: N20_20  and  C22_22 
REMARK   14  A    between atoms: N20_20  and  C26_26 
REMARK   15  A    between atoms: C22_22  and  C23_23 
REMARK   16  A    between atoms: C26_26  and  C27_27 
ROOT
ATOM      1  N5  <0> d   1      18.377  -0.395   7.211  0.00  0.00     0.101 N 
ENDROOT
BRANCH   1   2
ATOM      2  C4  <0> d   1      19.000   0.264   6.056  0.00  0.00     0.385 C 
BRANCH   2   3
ATOM      3  C2  <0> d   1      18.947  -0.656   4.863  0.00  0.00     0.202 C 
ATOM      4  O1  <0> d   1      17.892  -0.836   4.279  0.00  0.00    -0.647 OA
ATOM      5  O3  <0> d   1      19.959  -1.215   4.479  0.00  0.00    -0.647 OA
ENDBRANCH   2   3
ENDBRANCH   1   2
BRANCH   1   6
ATOM      6  C6  <0> d   1      19.178  -1.543   7.658  0.00  0.00     0.300 C 
BRANCH   6   7
ATOM      7  C7  <0> d   1      18.303  -2.482   8.491  0.00  0.00     0.266 C 
BRANCH   7   8
ATOM      8  N8  <0> d   1      18.829  -3.851   8.400  0.00  0.00    -0.050 N 
ATOM      9  H9  <0> d   1      19.820  -3.844   8.585  0.00  0.00     0.281 HD
BRANCH   8  10
ATOM     10  C10 <0> d   1      18.152  -4.701   9.387  0.00  0.00     0.348 C 
BRANCH  10  11
ATOM     11  C11 <0> d   1      18.858  -4.588  10.714  0.00  0.00     0.199 C 
ATOM     12  O12 <0> d   1      20.076  -4.585  10.759  0.00  0.00    -0.647 OA
ATOM     13  O13 <0> d   1      18.210  -4.501  11.744  0.00  0.00    -0.647 OA
ENDBRANCH  10  11
ENDBRANCH   8  10
BRANCH   8  14
ATOM     14  C14 <0> d   1      18.586  -4.379   7.051  0.00  0.00     0.348 C 
BRANCH  14  15
ATOM     15  C15 <0> d   1      19.404  -5.629   6.847  0.00  0.00     0.199 C 
ATOM     16  O16 <0> d   1      18.896  -6.615   6.342  0.00  0.00    -0.647 OA
ATOM     17  O17 <0> d   1      20.574  -5.652   7.187  0.00  0.00    -0.647 OA
ENDBRANCH  14  15
ENDBRANCH   8  14
ENDBRANCH   7   8
ENDBRANCH   6   7
ENDBRANCH   1   6
BRANCH   1  18
ATOM     18  C18 <0> d   1      18.166   0.557   8.309  0.00  0.00     0.300 C 
BRANCH  18  19
ATOM     19  C19 <0> d   1      19.419   1.419   8.485  0.00  0.00     0.266 C 
BRANCH  19  20
ATOM     20  N20 <0> d   1      19.558   1.799   9.897  0.00  0.00    -0.050 N 
ATOM     21  H21 <0> d   1      20.527   1.983  10.101  0.00  0.00     0.281 HD
BRANCH  20  22
ATOM     22  C22 <0> d   1      18.764   3.007  10.159  0.00  0.00     0.348 C 
BRANCH  22  23
ATOM     23  C23 <0> d   1      19.117   3.557  11.517  0.00  0.00     0.199 C 
ATOM     24  O24 <0> d   1      20.281   3.792  11.794  0.00  0.00    -0.647 OA
ATOM     25  O25 <0> d   1      18.240   3.765  12.337  0.00  0.00    -0.647 OA
ENDBRANCH  22  23
ENDBRANCH  20  22
BRANCH  20  26
ATOM     26  C26 <0> d   1      19.076   0.703  10.749  0.00  0.00     0.348 C 
BRANCH  26  27
ATOM     27  C27 <0> d   1      20.254  -0.045  11.318  0.00  0.00     0.199 C 
ATOM     28  O28 <0> d   1      21.026   0.518  12.074  0.00  0.00    -0.647 OA
ATOM     29  O29 <0> d   1      20.434  -1.214  11.023  0.00  0.00    -0.647 OA
ENDBRANCH  26  27
ENDBRANCH  20  26
ENDBRANCH  19  20
ENDBRANCH  18  19
ENDBRANCH   1  18
TORSDOF 16
ENDMDL
MODEL 3
REMARK VINA RESULT:      -5.7      1.945      4.983
REMARK  16 active torsions:
REMARK  status: ('A' for Active; 'I' for Inactive)
REMARK    1  A    between atoms: C2_2  and  C4_4 
REMARK    2  A    between atoms: C4_4  and  N5_5 
REMARK    3  A    between atoms: N5_5  and  C6_6 
REMARK    4  A    between atoms: N5_5  and  C18_18 
REMARK    5  A    between atoms: C6_6  and  C7_7 
REMARK    6  A    between atoms: C7_7  and  N8_8 
REMARK    7  A    between atoms: N8_8  and  C10_10 
REMARK    8  A    between atoms: N8_8  and  C14_14 
REMARK    9  A    between atoms: C10_10  and  C11_11 
REMARK   10  A    between atoms: C14_14  and  C15_15 
REMARK   11  A    between atoms: C18_18  and  C19_19 
REMARK   12  A    between atoms: C19_19  and  N20_20 
REMARK   13  A    between atoms: N20_20  and  C22_22 
REMARK   14  A    between atoms: N20_20  and  C26_26 
REMARK   15  A    between atoms: C22_22  and  C23_23 
REMARK   16  A    between atoms: C26_26  and  C27_27 
ROOT
ATOM      1  N5  <0> d   1      18.794   0.706  10.107  0.00  0.00     0.101 N 
ENDROOT
BRANCH   1   2
ATOM      2  C4  <0> d   1      18.862   2.141   9.799  0.00  0.00     0.385 C 
BRANCH   2   3
ATOM      3  C2  <0> d   1      17.776   2.867  10.549  0.00  0.00     0.202 C 
ATOM      4  O1  <0> d   1      17.105   2.275  11.377  0.00  0.00    -0.647 OA
ATOM      5  O3  <0> d   1      17.570   4.049  10.332  0.00  0.00    -0.647 OA
ENDBRANCH   2   3
ENDBRANCH   1   2
BRANCH   1   6
ATOM      6  C6  <0> d   1      18.395  -0.068   8.924  0.00  0.00     0.300 C 
BRANCH   6   7
ATOM      7  C7  <0> d   1      19.534  -1.007   8.520  0.00  0.00     0.266 C 
BRANCH   7   8
ATOM      8  N8  <0> d   1      19.325  -1.466   7.140  0.00  0.00    -0.050 N 
ATOM      9  H9  <0> d   1      20.216  -1.666   6.714  0.00  0.00     0.281 HD
BRANCH   8  10
ATOM     10  C10 <0> d   1      18.501  -2.682   7.149  0.00  0.00     0.348 C 
BRANCH  10  11
ATOM     11  C11 <0> d   1      19.395  -3.893   7.072  0.00  0.00     0.199 C 
ATOM     12  O12 <0> d   1      20.433  -3.846   6.433  0.00  0.00    -0.647 OA
ATOM     13  O13 <0> d   1      19.080  -4.921   7.648  0.00  0.00    -0.647 OA
ENDBRANCH  10  11
ENDBRANCH   8  10
BRANCH   8  14
ATOM     14  C14 <0> d   1      18.640  -0.416   6.374  0.00  0.00     0.348 C 
BRANCH  14  15
ATOM     15  C15 <0> d   1      18.961  -0.574   4.910  0.00  0.00     0.199 C 
ATOM     16  O16 <0> d   1      18.141  -0.253   4.067  0.00  0.00    -0.647 OA
ATOM     17  O17 <0> d   1      20.042  -1.024   4.569  0.00  0.00    -0.647 OA
ENDBRANCH  14  15
ENDBRANCH   8  14
ENDBRANCH   7   8
ENDBRANCH   6   7
ENDBRANCH   1   6
BRANCH   1  18
ATOM     18  C18 <0> d   1      20.073   0.223  10.644  0.00  0.00     0.300 C 
BRANCH  18  19
ATOM     19  C19 <0> d   1      20.099   0.425  12.160  0.00  0.00     0.266 C 
BRANCH  19  20
ATOM     20  N20 <0> d   1      19.162  -0.512  12.796  0.00  0.00    -0.050 N 
ATOM     21  H21 <0> d   1      18.216  -0.209  12.624  0.00  0.00     0.281 HD
BRANCH  20  22
ATOM     22  C22 <0> d   1      19.357  -1.855  12.233  0.00  0.00     0.348 C 
BRANCH  22  23
ATOM     23  C23 <0> d   1      18.016  -2.499  11.994  0.00  0.00     0.199 C 
ATOM     24  O24 <0> d   1      17.899  -3.710  12.073  0.00  0.00    -0.647 OA
ATOM     25  O25 <0> d   1      17.048  -1.809  11.722  0.00  0.00    -0.647 OA
ENDBRANCH  22  23
ENDBRANCH  20  22
BRANCH  20  26
ATOM     26  C26 <0> d   1      19.412  -0.546  14.243  0.00  0.00     0.348 C 
BRANCH  26  27
ATOM     27  C27 <0> d   1      18.636   0.558  14.913  0.00  0.00     0.199 C 
ATOM     28  O28 <0> d   1      19.179   1.269  15.741  0.00  0.00    -0.647 OA
ATOM     29  O29 <0> d   1      17.465   0.740  14.627  0.00  0.00    -0.647 OA
ENDBRANCH  26  27
ENDBRANCH  20  26
ENDBRANCH  19  20
ENDBRANCH  18  19
ENDBRANCH   1  18
TORSDOF 16
ENDMDL
MODEL 4
REMARK VINA RESULT:      -5.6      1.441      6.394
REMARK  16 active torsions:
REMARK  status: ('A' for Active; 'I' for Inactive)
REMARK    1  A    between atoms: C2_2  and  C4_4 
REMARK    2  A    between atoms: C4_4  and  N5_5 
REMARK    3  A    between atoms: N5_5  and  C6_6 
REMARK    4  A    between atoms: N5_5  and  C18_18 
REMARK    5  A    between atoms: C6_6  and  C7_7 
REMARK    6  A    between atoms: C7_7  and  N8_8 
REMARK    7  A    between atoms: N8_8  and  C10_10 
REMARK    8  A    between atoms: N8_8  and  C14_14 
REMARK    9  A    between atoms: C10_10  and  C11_11 
REMARK   10  A    between atoms: C14_14  and  C15_15 
REMARK   11  A    between atoms: C18_18  and  C19_19 
REMARK   12  A    between atoms: C19_19  and  N20_20 
REMARK   13  A    between atoms: N20_20  and  C22_22 
REMARK   14  A    between atoms: N20_20  and  C26_26 
REMARK   15  A    between atoms: C22_22  and  C23_23 
REMARK   16  A    between atoms: C26_26  and  C27_27 
ROOT
ATOM      1  N5  <0> d   1      18.614  -0.505   7.162  0.00  0.00     0.101 N 
ENDROOT
BRANCH   1   2
ATOM      2  C4  <0> d   1      18.045  -0.388   5.812  0.00  0.00     0.385 C 
BRANCH   2   3
ATOM      3  C2  <0> d   1      18.916  -1.131   4.833  0.00  0.00     0.202 C 
ATOM      4  O1  <0> d   1      20.039  -0.726   4.586  0.00  0.00    -0.647 OA
ATOM      5  O3  <0> d   1      18.500  -2.140   4.292  0.00  0.00    -0.647 OA
ENDBRANCH   2   3
ENDBRANCH   1   2
BRANCH   1   6
ATOM      6  C6  <0> d   1      18.381   0.718   7.940  0.00  0.00     0.300 C 
BRANCH   6   7
ATOM      7  C7  <0> d   1      19.293   0.723   9.169  0.00  0.00     0.266 C 
BRANCH   7   8
ATOM      8  N8  <0> d   1      18.522   1.131  10.351  0.00  0.00    -0.050 N 
ATOM      9  H9  <0> d   1      17.568   1.317  10.082  0.00  0.00     0.281 HD
BRANCH   8  10
ATOM     10  C10 <0> d   1      18.548   0.052  11.348  0.00  0.00     0.348 C 
BRANCH  10  11
ATOM     11  C11 <0> d   1      17.139  -0.404  11.630  0.00  0.00     0.199 C 
ATOM     12  O12 <0> d   1      16.943  -1.360  12.360  0.00  0.00    -0.647 OA
ATOM     13  O13 <0> d   1      16.196   0.184  11.128  0.00  0.00    -0.647 OA
ENDBRANCH  10  11
ENDBRANCH   8  10
BRANCH   8  14
ATOM     14  C14 <0> d   1      19.115   2.345  10.927  0.00  0.00     0.348 C 
BRANCH  14  15
ATOM     15  C15 <0> d   1      18.032   3.179  11.563  0.00  0.00     0.199 C 
ATOM     16  O16 <0> d   1      17.003   3.412  10.952  0.00  0.00    -0.647 OA
ATOM     17  O17 <0> d   1      18.185   3.620  12.689  0.00  0.00    -0.647 OA
ENDBRANCH  14  15
ENDBRANCH   8  14
ENDBRANCH   7   8
ENDBRANCH   6   7
ENDBRANCH   1   6
BRANCH   1  18
ATOM     18  C18 <0> d   1      18.077  -1.682   7.858  0.00  0.00     0.300 C 
BRANCH  18  19
ATOM     19  C19 <0> d   1      19.084  -2.831   7.770  0.00  0.00     0.266 C 
BRANCH  19  20
ATOM     20  N20 <0> d   1      18.637  -3.941   8.621  0.00  0.00    -0.050 N 
ATOM     21  H21 <0> d   1      19.437  -4.380   9.048  0.00  0.00     0.281 HD
BRANCH  20  22
ATOM     22  C22 <0> d   1      17.743  -3.427   9.667  0.00  0.00     0.348 C 
BRANCH  22  23
ATOM     23  C23 <0> d   1      17.613  -4.451  10.765  0.00  0.00     0.199 C 
ATOM     24  O24 <0> d   1      18.612  -4.905  11.295  0.00  0.00    -0.647 OA
ATOM     25  O25 <0> d   1      16.509  -4.824  11.123  0.00  0.00    -0.647 OA
ENDBRANCH  22  23
ENDBRANCH  20  22
BRANCH  20  26
ATOM     26  C26 <0> d   1      17.916  -4.925   7.802  0.00  0.00     0.348 C 
BRANCH  26  27
ATOM     27  C27 <0> d   1      18.818  -6.099   7.518  0.00  0.00     0.199 C 
ATOM     28  O28 <0> d   1      19.294  -6.739   8.439  0.00  0.00    -0.647 OA
ATOM     29  O29 <0> d   1      19.071  -6.409   6.366  0.00  0.00    -0.647 OA
ENDBRANCH  26  27
ENDBRANCH  20  26
ENDBRANCH  19  20
ENDBRANCH  18  19
ENDBRANCH   1  18
TORSDOF 16
ENDMDL
MODEL 5
REMARK VINA RESULT:      -5.5      3.900      6.248
REMARK  16 active torsions:
REMARK  status: ('A' for Active; 'I' for Inactive)
REMARK    1  A    between atoms: C2_2  and  C4_4 
REMARK    2  A    between atoms: C4_4  and  N5_5 
REMARK    3  A    between atoms: N5_5  and  C6_6 
REMARK    4  A    between atoms: N5_5  and  C18_18 
REMARK    5  A    between atoms: C6_6  and  C7_7 
REMARK    6  A    between atoms: C7_7  and  N8_8 
REMARK    7  A    between atoms: N8_8  and  C10_10 
REMARK    8  A    between atoms: N8_8  and  C14_14 
REMARK    9  A    between atoms: C10_10  and  C11_11 
REMARK   10  A    between atoms: C14_14  and  C15_15 
REMARK   11  A    between atoms: C18_18  and  C19_19 
REMARK   12  A    between atoms: C19_19  and  N20_20 
REMARK   13  A    between atoms: N20_20  and  C22_22 
REMARK   14  A    between atoms: N20_20  and  C26_26 
REMARK   15  A    between atoms: C22_22  and  C23_23 
REMARK   16  A    between atoms: C26_26  and  C27_27 
ROOT
ATOM      1  N5  <0> d   1      18.606   0.715  12.442  0.00  0.00     0.101 N 
ENDROOT
BRANCH   1   2
ATOM      2  C4  <0> d   1      18.743   2.104  11.982  0.00  0.00     0.385 C 
BRANCH   2   3
ATOM      3  C2  <0> d   1      17.569   2.461  11.107  0.00  0.00     0.202 C 
ATOM      4  O1  <0> d   1      17.118   3.593  11.123  0.00  0.00    -0.647 OA
ATOM      5  O3  <0> d   1      17.074   1.619  10.378  0.00  0.00    -0.647 OA
ENDBRANCH   2   3
ENDBRANCH   1   2
BRANCH   1   6
ATOM      6  C6  <0> d   1      19.844  -0.040  12.210  0.00  0.00     0.300 C 
BRANCH   6   7
ATOM      7  C7  <0> d   1      20.174  -0.033  10.716  0.00  0.00     0.266 C 
BRANCH   7   8
ATOM      8  N8  <0> d   1      19.198  -0.861   9.995  0.00  0.00    -0.050 N 
ATOM      9  H9  <0> d   1      18.273  -0.480  10.123  0.00  0.00     0.281 HD
BRANCH   8  10
ATOM     10  C10 <0> d   1      19.528  -0.873   8.564  0.00  0.00     0.348 C 
BRANCH  10  11
ATOM     11  C11 <0> d   1      18.387  -0.276   7.781  0.00  0.00     0.199 C 
ATOM     12  O12 <0> d   1      18.609   0.561   6.922  0.00  0.00    -0.647 OA
ATOM     13  O13 <0> d   1      17.242  -0.629   8.006  0.00  0.00    -0.647 OA
ENDBRANCH  10  11
ENDBRANCH   8  10
BRANCH   8  14
ATOM     14  C14 <0> d   1      19.239  -2.233  10.518  0.00  0.00     0.348 C 
BRANCH  14  15
ATOM     15  C15 <0> d   1      17.832  -2.752  10.675  0.00  0.00     0.199 C 
ATOM     16  O16 <0> d   1      17.131  -2.348  11.586  0.00  0.00    -0.647 OA
ATOM     17  O17 <0> d   1      17.397  -3.577   9.890  0.00  0.00    -0.647 OA
ENDBRANCH  14  15
ENDBRANCH   8  14
ENDBRANCH   7   8
ENDBRANCH   6   7
ENDBRANCH   1   6
BRANCH   1  18
ATOM     18  C18 <0> d   1      18.218   0.666  13.858  0.00  0.00     0.300 C 
BRANCH  18  19
ATOM     19  C19 <0> d   1      19.468   0.780  14.733  0.00  0.00     0.266 C 
BRANCH  19  20
ATOM     20  N20 <0> d   1      19.158   1.575  15.929  0.00  0.00    -0.050 N 
ATOM     21  H21 <0> d   1      20.006   1.746  16.447  0.00  0.00     0.281 HD
BRANCH  20  22
ATOM     22  C22 <0> d   1      18.565   2.856  15.524  0.00  0.00     0.348 C 
BRANCH  22  23
ATOM     23  C23 <0> d   1      19.322   3.988  16.170  0.00  0.00     0.199 C 
ATOM     24  O24 <0> d   1      20.378   3.767  16.738  0.00  0.00    -0.647 OA
ATOM     25  O25 <0> d   1      18.878   5.122  16.125  0.00  0.00    -0.647 OA
ENDBRANCH  22  23
ENDBRANCH  20  22
BRANCH  20  26
ATOM     26  C26 <0> d   1      18.207   0.840  16.773  0.00  0.00     0.348 C 
BRANCH  26  27
ATOM     27  C27 <0> d   1      18.658   0.901  18.210  0.00  0.00     0.199 C 
ATOM     28  O28 <0> d   1      17.834   0.885  19.108  0.00  0.00    -0.647 OA
ATOM     29  O29 <0> d   1      19.846   0.966  18.473  0.00  0.00    -0.647 OA
ENDBRANCH  26  27
ENDBRANCH  20  26
ENDBRANCH  19  20
ENDBRANCH  18  19
ENDBRANCH   1  18
TORSDOF 16
ENDMDL
MODEL 6
REMARK VINA RESULT:      -5.5      1.904      5.853
REMARK  16 active torsions:
REMARK  status: ('A' for Active; 'I' for Inactive)
REMARK    1  A    between atoms: C2_2  and  C4_4 
REMARK    2  A    between atoms: C4_4  and  N5_5 
REMARK    3  A    between atoms: N5_5  and  C6_6 
REMARK    4  A    between atoms: N5_5  and  C18_18 
REMARK    5  A    between atoms: C6_6  and  C7_7 
REMARK    6  A    between atoms: C7_7  and  N8_8 
REMARK    7  A    between atoms: N8_8  and  C10_10 
REMARK    8  A    between atoms: N8_8  and  C14_14 
REMARK    9  A    between atoms: C10_10  and  C11_11 
REMARK   10  A    between atoms: C14_14  and  C15_15 
REMARK   11  A    between atoms: C18_18  and  C19_19 
REMARK   12  A    between atoms: C19_19  and  N20_20 
REMARK   13  A    between atoms: N20_20  and  C22_22 
REMARK   14  A    between atoms: N20_20  and  C26_26 
REMARK   15  A    between atoms: C22_22  and  C23_23 
REMARK   16  A    between atoms: C26_26  and  C27_27 
ROOT
ATOM      1  N5  <0> d   1      18.753  -0.200   7.119  0.00  0.00     0.101 N 
ENDROOT
BRANCH   1   2
ATOM      2  C4  <0> d   1      18.062   0.120   5.862  0.00  0.00     0.385 C 
BRANCH   2   3
ATOM      3  C2  <0> d   1      18.656  -0.693   4.742  0.00  0.00     0.202 C 
ATOM      4  O1  <0> d   1      19.863  -0.707   4.571  0.00  0.00    -0.647 OA
ATOM      5  O3  <0> d   1      17.930  -1.343   4.009  0.00  0.00    -0.647 OA
ENDBRANCH   2   3
ENDBRANCH   1   2
BRANCH   1   6
ATOM      6  C6  <0> d   1      19.153   1.024   7.826  0.00  0.00     0.300 C 
BRANCH   6   7
ATOM      7  C7  <0> d   1      19.841   0.652   9.141  0.00  0.00     0.266 C 
BRANCH   7   8
ATOM      8  N8  <0> d   1      19.420   1.585  10.195  0.00  0.00    -0.050 N 
ATOM      9  H9  <0> d   1      20.220   2.102  10.526  0.00  0.00     0.281 HD
BRANCH   8  10
ATOM     10  C10 <0> d   1      18.423   2.517   9.653  0.00  0.00     0.348 C 
BRANCH  10  11
ATOM     11  C11 <0> d   1      18.047   3.520  10.714  0.00  0.00     0.199 C 
ATOM     12  O12 <0> d   1      18.909   4.200  11.244  0.00  0.00    -0.647 OA
ATOM     13  O13 <0> d   1      16.879   3.652  11.041  0.00  0.00    -0.647 OA
ENDBRANCH  10  11
ENDBRANCH   8  10
BRANCH   8  14
ATOM     14  C14 <0> d   1      18.830   0.830  11.309  0.00  0.00     0.348 C 
BRANCH  14  15
ATOM     15  C15 <0> d   1      19.732   0.925  12.513  0.00  0.00     0.199 C 
ATOM     16  O16 <0> d   1      20.862   0.471  12.466  0.00  0.00    -0.647 OA
ATOM     17  O17 <0> d   1      19.330   1.455  13.534  0.00  0.00    -0.647 OA
ENDBRANCH  14  15
ENDBRANCH   8  14
ENDBRANCH   7   8
ENDBRANCH   6   7
ENDBRANCH   1   6
BRANCH   1  18
ATOM     18  C18 <0> d   1      17.918  -1.051   7.976  0.00  0.00     0.300 C 
BRANCH  18  19
ATOM     19  C19 <0> d   1      18.374  -2.506   7.849  0.00  0.00     0.266 C 
BRANCH  19  20
ATOM     20  N20 <0> d   1      18.064  -3.228   9.091  0.00  0.00    -0.050 N 
ATOM     21  H21 <0> d   1      17.141  -2.975   9.405  0.00  0.00     0.281 HD
BRANCH  20  22
ATOM     22  C22 <0> d   1      18.119  -4.674   8.843  0.00  0.00     0.348 C 
BRANCH  22  23
ATOM     23  C23 <0> d   1      16.718  -5.224   8.764  0.00  0.00     0.199 C 
ATOM     24  O24 <0> d   1      16.003  -5.212   9.752  0.00  0.00    -0.647 OA
ATOM     25  O25 <0> d   1      16.300  -5.680   7.714  0.00  0.00    -0.647 OA
ENDBRANCH  22  23
ENDBRANCH  20  22
BRANCH  20  26
ATOM     26  C26 <0> d   1      19.048  -2.871  10.122  0.00  0.00     0.348 C 
BRANCH  26  27
ATOM     27  C27 <0> d   1      18.348  -2.698  11.446  0.00  0.00     0.199 C 
ATOM     28  O28 <0> d   1      18.997  -2.654  12.477  0.00  0.00    -0.647 OA
ATOM     29  O29 <0> d   1      17.133  -2.602  11.485  0.00  0.00    -0.647 OA
ENDBRANCH  26  27
ENDBRANCH  20  26
ENDBRANCH  19  20
ENDBRANCH  18  19
ENDBRANCH   1  18
TORSDOF 16
ENDMDL
MODEL 7
REMARK VINA RESULT:      -5.5      1.669      6.184
REMARK  16 active torsions:
REMARK  status: ('A' for Active; 'I' for Inactive)
REMARK    1  A    between atoms: C2_2  and  C4_4 
REMARK    2  A    between atoms: C4_4  and  N5_5 
REMARK    3  A    between atoms: N5_5  and  C6_6 
REMARK    4  A    between atoms: N5_5  and  C18_18 
REMARK    5  A    between atoms: C6_6  and  C7_7 
REMARK    6  A    between atoms: C7_7  and  N8_8 
REMARK    7  A    between atoms: N8_8  and  C10_10 
REMARK    8  A    between atoms: N8_8  and  C14_14 
REMARK    9  A    between atoms: C10_10  and  C11_11 
REMARK   10  A    between atoms: C14_14  and  C15_15 
REMARK   11  A    between atoms: C18_18  and  C19_19 
REMARK   12  A    between atoms: C19_19  and  N20_20 
REMARK   13  A    between atoms: N20_20  and  C22_22 
REMARK   14  A    between atoms: N20_20  and  C26_26 
REMARK   15  A    between atoms: C22_22  and  C23_23 
REMARK   16  A    between atoms: C26_26  and  C27_27 
ROOT
ATOM      1  N5  <0> d   1      19.269  -1.267   7.378  0.00  0.00     0.101 N 
ENDROOT
BRANCH   1   2
ATOM      2  C4  <0> d   1      18.421  -0.586   6.390  0.00  0.00     0.385 C 
BRANCH   2   3
ATOM      3  C2  <0> d   1      18.733  -1.112   5.013  0.00  0.00     0.202 C 
ATOM      4  O1  <0> d   1      19.871  -1.049   4.580  0.00  0.00    -0.647 OA
ATOM      5  O3  <0> d   1      17.849  -1.605   4.334  0.00  0.00    -0.647 OA
ENDBRANCH   2   3
ENDBRANCH   1   2
BRANCH   1   6
ATOM      6  C6  <0> d   1      19.274  -0.543   8.656  0.00  0.00     0.300 C 
BRANCH   6   7
ATOM      7  C7  <0> d   1      18.452   0.741   8.518  0.00  0.00     0.266 C 
BRANCH   7   8
ATOM      8  N8  <0> d   1      18.086   1.235   9.852  0.00  0.00    -0.050 N 
ATOM      9  H9  <0> d   1      17.096   1.426   9.880  0.00  0.00     0.281 HD
BRANCH   8  10
ATOM     10  C10 <0> d   1      18.416   0.217  10.858  0.00  0.00     0.348 C 
BRANCH  10  11
ATOM     11  C11 <0> d   1      17.203  -0.060  11.709  0.00  0.00     0.199 C 
ATOM     12  O12 <0> d   1      16.086   0.111  11.252  0.00  0.00    -0.647 OA
ATOM     13  O13 <0> d   1      17.340  -0.456  12.855  0.00  0.00    -0.647 OA
ENDBRANCH  10  11
ENDBRANCH   8  10
BRANCH   8  14
ATOM     14  C14 <0> d   1      18.832   2.467  10.140  0.00  0.00     0.348 C 
BRANCH  14  15
ATOM     15  C15 <0> d   1      18.095   3.267  11.184  0.00  0.00     0.199 C 
ATOM     16  O16 <0> d   1      18.675   3.639  12.189  0.00  0.00    -0.647 OA
ATOM     17  O17 <0> d   1      16.918   3.541  11.022  0.00  0.00    -0.647 OA
ENDBRANCH  14  15
ENDBRANCH   8  14
ENDBRANCH   7   8
ENDBRANCH   6   7
ENDBRANCH   1   6
BRANCH   1  18
ATOM     18  C18 <0> d   1      18.842  -2.660   7.566  0.00  0.00     0.300 C 
BRANCH  18  19
ATOM     19  C19 <0> d   1      17.869  -2.741   8.744  0.00  0.00     0.266 C 
BRANCH  19  20
ATOM     20  N20 <0> d   1      17.795  -4.128   9.224  0.00  0.00    -0.050 N 
ATOM     21  H21 <0> d   1      16.975  -4.241   9.799  0.00  0.00     0.281 HD
BRANCH  20  22
ATOM     22  C22 <0> d   1      17.716  -5.040   8.074  0.00  0.00     0.348 C 
BRANCH  22  23
ATOM     23  C23 <0> d   1      16.408  -5.788   8.115  0.00  0.00     0.199 C 
ATOM     24  O24 <0> d   1      15.575  -5.513   8.962  0.00  0.00    -0.647 OA
ATOM     25  O25 <0> d   1      16.184  -6.669   7.303  0.00  0.00    -0.647 OA
ENDBRANCH  22  23
ENDBRANCH  20  22
BRANCH  20  26
ATOM     26  C26 <0> d   1      18.995  -4.438  10.012  0.00  0.00     0.348 C 
BRANCH  26  27
ATOM     27  C27 <0> d   1      19.006  -3.595  11.262  0.00  0.00     0.199 C 
ATOM     28  O28 <0> d   1      19.970  -2.892  11.514  0.00  0.00    -0.647 OA
ATOM     29  O29 <0> d   1      18.052  -3.616  12.020  0.00  0.00    -0.647 OA
ENDBRANCH  26  27
ENDBRANCH  20  26
ENDBRANCH  19  20
ENDBRANCH  18  19
ENDBRANCH   1  18
TORSDOF 16
ENDMDL
MODEL 8
REMARK VINA RESULT:      -5.4      3.911      6.979
REMARK  16 active torsions:
REMARK  status: ('A' for Active; 'I' for Inactive)
REMARK    1  A    between atoms: C2_2  and  C4_4 
REMARK    2  A    between atoms: C4_4  and  N5_5 
REMARK    3  A    between atoms: N5_5  and  C6_6 
REMARK    4  A    between atoms: N5_5  and  C18_18 
REMARK    5  A    between atoms: C6_6  and  C7_7 
REMARK    6  A    between atoms: C7_7  and  N8_8 
REMARK    7  A    between atoms: N8_8  and  C10_10 
REMARK    8  A    between atoms: N8_8  and  C14_14 
REMARK    9  A    between atoms: C10_10  and  C11_11 
REMARK   10  A    between atoms: C14_14  and  C15_15 
REMARK   11  A    between atoms: C18_18  and  C19_19 
REMARK   12  A    between atoms: C19_19  and  N20_20 
REMARK   13  A    between atoms: N20_20  and  C22_22 
REMARK   14  A    between atoms: N20_20  and  C26_26 
REMARK   15  A    between atoms: C22_22  and  C23_23 
REMARK   16  A    between atoms: C26_26  and  C27_27 
ROOT
ATOM      1  N5  <0> d   1      18.940   0.554  15.668  0.00  0.00     0.101 N 
ENDROOT
BRANCH   1   2
ATOM      2  C4  <0> d   1      18.167   1.040  16.820  0.00  0.00     0.385 C 
BRANCH   2   3
ATOM      3  C2  <0> d   1      18.874   0.660  18.095  0.00  0.00     0.202 C 
ATOM      4  O1  <0> d   1      19.906   1.225  18.411  0.00  0.00    -0.647 OA
ATOM      5  O3  <0> d   1      18.410  -0.208  18.814  0.00  0.00    -0.647 OA
ENDBRANCH   2   3
ENDBRANCH   1   2
BRANCH   1   6
ATOM      6  C6  <0> d   1      18.163  -0.416  14.884  0.00  0.00     0.300 C 
BRANCH   6   7
ATOM      7  C7  <0> d   1      19.102  -1.191  13.957  0.00  0.00     0.266 C 
BRANCH   7   8
ATOM      8  N8  <0> d   1      18.424  -1.454  12.681  0.00  0.00    -0.050 N 
ATOM      9  H9  <0> d   1      17.465  -1.710  12.856  0.00  0.00     0.281 HD
BRANCH   8  10
ATOM     10  C10 <0> d   1      18.463  -0.244  11.849  0.00  0.00     0.348 C 
BRANCH  10  11
ATOM     11  C11 <0> d   1      17.125  -0.049  11.183  0.00  0.00     0.199 C 
ATOM     12  O12 <0> d   1      17.050  -0.000   9.967  0.00  0.00    -0.647 OA
ATOM     13  O13 <0> d   1      16.117   0.060  11.861  0.00  0.00    -0.647 OA
ENDBRANCH  10  11
ENDBRANCH   8  10
BRANCH   8  14
ATOM     14  C14 <0> d   1      19.106  -2.551  11.981  0.00  0.00     0.348 C 
BRANCH  14  15
ATOM     15  C15 <0> d   1      18.132  -3.679  11.751  0.00  0.00     0.199 C 
ATOM     16  O16 <0> d   1      16.959  -3.437  11.531  0.00  0.00    -0.647 OA
ATOM     17  O17 <0> d   1      18.521  -4.834  11.785  0.00  0.00    -0.647 OA
ENDBRANCH  14  15
ENDBRANCH   8  14
ENDBRANCH   7   8
ENDBRANCH   6   7
ENDBRANCH   1   6
BRANCH   1  18
ATOM     18  C18 <0> d   1      19.387   1.671  14.826  0.00  0.00     0.300 C 
BRANCH  18  19
ATOM     19  C19 <0> d   1      18.825   2.983  15.378  0.00  0.00     0.266 C 
BRANCH  19  20
ATOM     20  N20 <0> d   1      18.370   3.828  14.266  0.00  0.00    -0.050 N 
ATOM     21  H21 <0> d   1      19.158   4.313  13.868  0.00  0.00     0.281 HD
BRANCH  20  22
ATOM     22  C22 <0> d   1      17.743   2.986  13.238  0.00  0.00     0.348 C 
BRANCH  22  23
ATOM     23  C23 <0> d   1      17.892   3.645  11.890  0.00  0.00     0.199 C 
ATOM     24  O24 <0> d   1      16.970   3.615  11.092  0.00  0.00    -0.647 OA
ATOM     25  O25 <0> d   1      18.933   4.207  11.598  0.00  0.00    -0.647 OA
ENDBRANCH  22  23
ENDBRANCH  20  22
BRANCH  20  26
ATOM     26  C26 <0> d   1      17.391   4.805  14.762  0.00  0.00     0.348 C 
BRANCH  26  27
ATOM     27  C27 <0> d   1      17.870   6.199  14.450  0.00  0.00     0.199 C 
ATOM     28  O28 <0> d   1      19.055   6.471  14.543  0.00  0.00    -0.647 OA
ATOM     29  O29 <0> d   1      17.073   7.054  14.103  0.00  0.00    -0.647 OA
ENDBRANCH  26  27
ENDBRANCH  20  26
ENDBRANCH  19  20
ENDBRANCH  18  19
ENDBRANCH   1  18
TORSDOF 16
ENDMDL
MODEL 9
REMARK VINA RESULT:      -5.4      2.530      6.606
REMARK  16 active torsions:
REMARK  status: ('A' for Active; 'I' for Inactive)
REMARK    1  A    between atoms: C2_2  and  C4_4 
REMARK    2  A    between atoms: C4_4  and  N5_5 
REMARK    3  A    between atoms: N5_5  and  C6_6 
REMARK    4  A    between atoms: N5_5  and  C18_18 
REMARK    5  A    between atoms: C6_6  and  C7_7 
REMARK    6  A    between atoms: C7_7  and  N8_8 
REMARK    7  A    between atoms: N8_8  and  C10_10 
REMARK    8  A    between atoms: N8_8  and  C14_14 
REMARK    9  A    between atoms: C10_10  and  C11_11 
REMARK   10  A    between atoms: C14_14  and  C15_15 
REMARK   11  A    between atoms: C18_18  and  C19_19 
REMARK   12  A    between atoms: C19_19  and  N20_20 
REMARK   13  A    between atoms: N20_20  and  C22_22 
REMARK   14  A    between atoms: N20_20  and  C26_26 
REMARK   15  A    between atoms: C22_22  and  C23_23 
REMARK   16  A    between atoms: C26_26  and  C27_27 
ROOT
ATOM      1  N5  <0> d   1      18.359  -3.370  10.861  0.00  0.00     0.101 N 
ENDROOT
BRANCH   1   2
ATOM      2  C4  <0> d   1      18.668  -4.733  11.316  0.00  0.00     0.385 C 
BRANCH   2   3
ATOM      3  C2  <0> d   1      17.388  -5.458  11.637  0.00  0.00     0.202 C 
ATOM      4  O1  <0> d   1      17.357  -6.268  12.548  0.00  0.00    -0.647 OA
ATOM      5  O3  <0> d   1      16.380  -5.232  10.991  0.00  0.00    -0.647 OA
ENDBRANCH   2   3
ENDBRANCH   1   2
BRANCH   1   6
ATOM      6  C6  <0> d   1      18.677  -2.383  11.901  0.00  0.00     0.300 C 
BRANCH   6   7
ATOM      7  C7  <0> d   1      17.528  -1.380  12.023  0.00  0.00     0.266 C 
BRANCH   7   8
ATOM      8  N8  <0> d   1      17.952  -0.247  12.855  0.00  0.00    -0.050 N 
ATOM      9  H9  <0> d   1      17.148   0.149  13.319  0.00  0.00     0.281 HD
BRANCH   8  10
ATOM     10  C10 <0> d   1      18.917  -0.712  13.859  0.00  0.00     0.348 C 
BRANCH  10  11
ATOM     11  C11 <0> d   1      18.371  -0.450  15.240  0.00  0.00     0.199 C 
ATOM     12  O12 <0> d   1      18.887  -0.977  16.210  0.00  0.00    -0.647 OA
ATOM     13  O13 <0> d   1      17.412   0.289  15.386  0.00  0.00    -0.647 OA
ENDBRANCH  10  11
ENDBRANCH   8  10
BRANCH   8  14
ATOM     14  C14 <0> d   1      18.581   0.775  12.007  0.00  0.00     0.348 C 
BRANCH  14  15
ATOM     15  C15 <0> d   1      17.806   2.064  12.117  0.00  0.00     0.199 C 
ATOM     16  O16 <0> d   1      17.877   2.734  13.132  0.00  0.00    -0.647 OA
ATOM     17  O17 <0> d   1      17.109   2.435  11.188  0.00  0.00    -0.647 OA
ENDBRANCH  14  15
ENDBRANCH   8  14
ENDBRANCH   7   8
ENDBRANCH   6   7
ENDBRANCH   1   6
BRANCH   1  18
ATOM     18  C18 <0> d   1      19.063  -3.061   9.610  0.00  0.00     0.300 C 
BRANCH  18  19
ATOM     19  C19 <0> d   1      18.132  -3.323   8.424  0.00  0.00     0.266 C 
BRANCH  19  20
ATOM     20  N20 <0> d   1      18.345  -2.293   7.397  0.00  0.00    -0.050 N 
ATOM     21  H21 <0> d   1      17.458  -2.030   6.997  0.00  0.00     0.281 HD
BRANCH  20  22
ATOM     22  C22 <0> d   1      18.975  -1.116   8.009  0.00  0.00     0.348 C 
BRANCH  22  23
ATOM     23  C23 <0> d   1      18.042   0.063   7.908  0.00  0.00     0.199 C 
ATOM     24  O24 <0> d   1      16.957  -0.064   7.367  0.00  0.00    -0.647 OA
ATOM     25  O25 <0> d   1      18.371   1.143   8.368  0.00  0.00    -0.647 OA
ENDBRANCH  22  23
ENDBRANCH  20  22
BRANCH  20  26
ATOM     26  C26 <0> d   1      19.221  -2.825   6.345  0.00  0.00     0.348 C 
BRANCH  26  27
ATOM     27  C27 <0> d   1      18.929  -2.121   5.045  0.00  0.00     0.199 C 
ATOM     28  O28 <0> d   1      19.769  -1.394   4.543  0.00  0.00    -0.647 OA
ATOM     29  O29 <0> d   1      17.852  -2.278   4.494  0.00  0.00    -0.647 OA
ENDBRANCH  26  27
ENDBRANCH  20  26
ENDBRANCH  19  20
ENDBRANCH  18  19
ENDBRANCH   1  18
TORSDOF 16
ENDMDL
