MODEL 1
REMARK VINA RESULT:      -5.2      0.000      0.000
REMARK  3 active torsions:
REMARK  status: ('A' for Active; 'I' for Inactive)
REMARK    1  A    between atoms: C2_2  and  C3_3 
REMARK    2  A    between atoms: C3_3  and  C5_4 
REMARK    3  A    between atoms: C3_3  and  N8_7 
REMARK       I    between atoms: C5_4  and  N6_5 
ROOT
ATOM      1  C3  ZIN A   1      19.382  -0.298  11.635  0.00  0.00     0.178 C 
ENDROOT
BRANCH   1   2
ATOM      2  C2  ZIN A   1      18.088  -0.641  12.375  0.00  0.00     0.030 C 
ATOM      3  C1  ZIN A   1      17.511  -1.943  11.815  0.00  0.00     0.007 C 
ENDBRANCH   1   2
BRANCH   1   4
ATOM      4  C5  ZIN A   1      20.375   0.287  12.606  0.00  0.00     0.238 C 
ATOM      5  N6  ZIN A   1      21.598   0.658  12.177  0.00  0.00    -0.368 N 
ATOM      6  H19 ZIN A   1      21.840   0.548  11.244  0.00  0.00     0.159 HD
ATOM      7  H20 ZIN A   1      22.238   1.036  12.802  0.00  0.00     0.159 HD
ATOM      8  O7  ZIN A   1      20.074   0.426  13.772  0.00  0.00    -0.271 OA
ENDBRANCH   1   4
BRANCH   1   9
ATOM      9  N8  ZIN A   1      19.098   0.678  10.580  0.00  0.00    -0.339 N 
ATOM     10  C12 ZIN A   1      19.458   0.532   9.294  0.00  0.00     0.220 C 
ATOM     11  C11 ZIN A   1      19.008   1.731   8.488  0.00  0.00     0.104 C 
ATOM     12  O13 ZIN A   1      20.052  -0.424   8.843  0.00  0.00    -0.273 OA
ATOM     13  C10 ZIN A   1      18.702   2.809   9.553  0.00  0.00     0.029 C 
ATOM     14  C9  ZIN A   1      18.387   1.944  10.795  0.00  0.00     0.127 C 
ENDBRANCH   1   9
TORSDOF 3
ENDMDL
MODEL 2
REMARK VINA RESULT:      -5.0      2.027      4.145
REMARK  3 active torsions:
REMARK  status: ('A' for Active; 'I' for Inactive)
REMARK    1  A    between atoms: C2_2  and  C3_3 
REMARK    2  A    between atoms: C3_3  and  C5_4 
REMARK    3  A    between atoms: C3_3  and  N8_7 
REMARK       I    between atoms: C5_4  and  N6_5 
ROOT
ATOM      1  C3  ZIN A   1      19.168  -0.501  10.443  0.00  0.00     0.178 C 
ENDROOT
BRANCH   1   2
ATOM      2  C2  ZIN A   1      19.625  -0.373   8.989  0.00  0.00     0.030 C 
ATOM      3  C1  ZIN A   1      19.412   1.065   8.512  0.00  0.00     0.007 C 
ENDBRANCH   1   2
BRANCH   1   4
ATOM      4  C5  ZIN A   1      20.340  -0.257  11.360  0.00  0.00     0.238 C 
ATOM      5  N6  ZIN A   1      21.588  -0.563  10.953  0.00  0.00    -0.368 N 
ATOM      6  H19 ZIN A   1      21.733  -0.941  10.072  0.00  0.00     0.159 HD
ATOM      7  H20 ZIN A   1      22.343  -0.407  11.543  0.00  0.00     0.159 HD
ATOM      8  O7  ZIN A   1      20.160   0.215  12.462  0.00  0.00    -0.271 OA
ENDBRANCH   1   4
BRANCH   1   9
ATOM      9  N8  ZIN A   1      18.641  -1.849  10.673  0.00  0.00    -0.339 N 
ATOM     10  C12 ZIN A   1      17.558  -2.123  11.419  0.00  0.00     0.220 C 
ATOM     11  C11 ZIN A   1      17.307  -3.614  11.443  0.00  0.00     0.104 C 
ATOM     12  O13 ZIN A   1      16.877  -1.295  11.986  0.00  0.00    -0.273 OA
ATOM     13  C10 ZIN A   1      18.639  -4.230  10.957  0.00  0.00     0.029 C 
ATOM     14  C9  ZIN A   1      19.233  -3.073  10.122  0.00  0.00     0.127 C 
ENDBRANCH   1   9
TORSDOF 3
ENDMDL
MODEL 3
REMARK VINA RESULT:      -4.9      2.115      2.681
REMARK  3 active torsions:
REMARK  status: ('A' for Active; 'I' for Inactive)
REMARK    1  A    between atoms: C2_2  and  C3_3 
REMARK    2  A    between atoms: C3_3  and  C5_4 
REMARK    3  A    between atoms: C3_3  and  N8_7 
REMARK       I    between atoms: C5_4  and  N6_5 
ROOT
ATOM      1  C3  ZIN A   1      19.157   0.572  12.563  0.00  0.00     0.178 C 
ENDROOT
BRANCH   1   2
ATOM      2  C2  ZIN A   1      19.528   0.538  14.047  0.00  0.00     0.030 C 
ATOM      3  C1  ZIN A   1      19.315  -0.876  14.594  0.00  0.00     0.007 C 
ENDBRANCH   1   2
BRANCH   1   4
ATOM      4  C5  ZIN A   1      20.369   0.231  11.735  0.00  0.00     0.238 C 
ATOM      5  N6  ZIN A   1      21.595   0.604  12.151  0.00  0.00    -0.368 N 
ATOM      6  H19 ZIN A   1      21.698   1.093  12.983  0.00  0.00     0.159 HD
ATOM      7  H20 ZIN A   1      22.376   0.385  11.618  0.00  0.00     0.159 HD
ATOM      8  O7  ZIN A   1      20.241  -0.380  10.696  0.00  0.00    -0.271 OA
ENDBRANCH   1   4
BRANCH   1   9
ATOM      9  N8  ZIN A   1      18.685   1.913  12.209  0.00  0.00    -0.339 N 
ATOM     10  C12 ZIN A   1      17.747   2.166  11.281  0.00  0.00     0.220 C 
ATOM     11  C11 ZIN A   1      17.513   3.657  11.172  0.00  0.00     0.104 C 
ATOM     12  O13 ZIN A   1      17.168   1.323  10.630  0.00  0.00    -0.273 OA
ATOM     13  C10 ZIN A   1      18.746   4.285  11.861  0.00  0.00     0.029 C 
ATOM     14  C9  ZIN A   1      19.182   3.152  12.818  0.00  0.00     0.127 C 
ENDBRANCH   1   9
TORSDOF 3
ENDMDL
MODEL 4
REMARK VINA RESULT:      -4.9      1.865      2.839
REMARK  3 active torsions:
REMARK  status: ('A' for Active; 'I' for Inactive)
REMARK    1  A    between atoms: C2_2  and  C3_3 
REMARK    2  A    between atoms: C3_3  and  C5_4 
REMARK    3  A    between atoms: C3_3  and  N8_7 
REMARK       I    between atoms: C5_4  and  N6_5 
ROOT
ATOM      1  C3  ZIN A   1      19.266   1.119  11.254  0.00  0.00     0.178 C 
ENDROOT
BRANCH   1   2
ATOM      2  C2  ZIN A   1      19.763   2.565  11.313  0.00  0.00     0.030 C 
ATOM      3  C1  ZIN A   1      18.564   3.516  11.300  0.00  0.00     0.007 C 
ENDBRANCH   1   2
BRANCH   1   4
ATOM      4  C5  ZIN A   1      20.402   0.184  11.581  0.00  0.00     0.238 C 
ATOM      5  N6  ZIN A   1      21.535   0.668  12.129  0.00  0.00    -0.368 N 
ATOM      6  H19 ZIN A   1      21.620   1.616  12.312  0.00  0.00     0.159 HD
ATOM      7  H20 ZIN A   1      22.267   0.066  12.340  0.00  0.00     0.159 HD
ATOM      8  O7  ZIN A   1      20.298  -1.002  11.353  0.00  0.00    -0.271 OA
ENDBRANCH   1   4
BRANCH   1   9
ATOM      9  N8  ZIN A   1      18.769   0.828   9.907  0.00  0.00    -0.339 N 
ATOM     10  C12 ZIN A   1      17.577   0.266   9.643  0.00  0.00     0.220 C 
ATOM     11  C11 ZIN A   1      17.396   0.107   8.149  0.00  0.00     0.104 C 
ATOM     12  O13 ZIN A   1      16.763  -0.062  10.479  0.00  0.00    -0.273 OA
ATOM     13  C10 ZIN A   1      18.823   0.264   7.577  0.00  0.00     0.029 C 
ATOM     14  C9  ZIN A   1      19.511   1.109   8.672  0.00  0.00     0.127 C 
ENDBRANCH   1   9
TORSDOF 3
ENDMDL
MODEL 5
REMARK VINA RESULT:      -4.9      2.331      3.415
REMARK  3 active torsions:
REMARK  status: ('A' for Active; 'I' for Inactive)
REMARK    1  A    between atoms: C2_2  and  C3_3 
REMARK    2  A    between atoms: C3_3  and  C5_4 
REMARK    3  A    between atoms: C3_3  and  N8_7 
REMARK       I    between atoms: C5_4  and  N6_5 
ROOT
ATOM      1  C3  ZIN A   1      18.263   2.592  11.014  0.00  0.00     0.178 C 
ENDROOT
BRANCH   1   2
ATOM      2  C2  ZIN A   1      18.225   4.024  10.475  0.00  0.00     0.030 C 
ATOM      3  C1  ZIN A   1      16.948   4.716  10.957  0.00  0.00     0.007 C 
ENDBRANCH   1   2
BRANCH   1   4
ATOM      4  C5  ZIN A   1      19.561   2.366  11.745  0.00  0.00     0.238 C 
ATOM      5  N6  ZIN A   1      20.575   3.243  11.604  0.00  0.00    -0.368 N 
ATOM      6  H19 ZIN A   1      20.470   4.019  11.032  0.00  0.00     0.159 HD
ATOM      7  H20 ZIN A   1      21.412   3.097  12.075  0.00  0.00     0.159 HD
ATOM      8  O7  ZIN A   1      19.694   1.396  12.460  0.00  0.00    -0.271 OA
ENDBRANCH   1   4
BRANCH   1   9
ATOM      9  N8  ZIN A   1      18.160   1.648   9.899  0.00  0.00    -0.339 N 
ATOM     10  C12 ZIN A   1      17.346   0.579   9.882  0.00  0.00     0.220 C 
ATOM     11  C11 ZIN A   1      17.503  -0.175   8.580  0.00  0.00     0.104 C 
ATOM     12  O13 ZIN A   1      16.590   0.267  10.778  0.00  0.00    -0.273 OA
ATOM     13  C10 ZIN A   1      18.834   0.352   7.997  0.00  0.00     0.029 C 
ATOM     14  C9  ZIN A   1      18.938   1.745   8.658  0.00  0.00     0.127 C 
ENDBRANCH   1   9
TORSDOF 3
ENDMDL
MODEL 6
REMARK VINA RESULT:      -4.8      2.393      4.095
REMARK  3 active torsions:
REMARK  status: ('A' for Active; 'I' for Inactive)
REMARK    1  A    between atoms: C2_2  and  C3_3 
REMARK    2  A    between atoms: C3_3  and  C5_4 
REMARK    3  A    between atoms: C3_3  and  N8_7 
REMARK       I    between atoms: C5_4  and  N6_5 
ROOT
ATOM      1  C3  ZIN A   1      17.982   1.714  10.042  0.00  0.00     0.178 C 
ENDROOT
BRANCH   1   2
ATOM      2  C2  ZIN A   1      19.156   1.773   9.062  0.00  0.00     0.030 C 
ATOM      3  C1  ZIN A   1      18.782   1.037   7.774  0.00  0.00     0.007 C 
ENDBRANCH   1   2
BRANCH   1   4
ATOM      4  C5  ZIN A   1      17.927   2.994  10.836  0.00  0.00     0.238 C 
ATOM      5  N6  ZIN A   1      19.069   3.583  11.244  0.00  0.00    -0.368 N 
ATOM      6  H19 ZIN A   1      19.926   3.184  11.028  0.00  0.00     0.159 HD
ATOM      7  H20 ZIN A   1      19.034   4.407  11.756  0.00  0.00     0.159 HD
ATOM      8  O7  ZIN A   1      16.857   3.494  11.107  0.00  0.00    -0.271 OA
ENDBRANCH   1   4
BRANCH   1   9
ATOM      9  N8  ZIN A   1      18.164   0.582  10.953  0.00  0.00    -0.339 N 
ATOM     10  C12 ZIN A   1      17.159  -0.081  11.550  0.00  0.00     0.220 C 
ATOM     11  C11 ZIN A   1      17.710  -1.184  12.425  0.00  0.00     0.104 C 
ATOM     12  O13 ZIN A   1      15.981   0.165  11.403  0.00  0.00    -0.273 OA
ATOM     13  C10 ZIN A   1      19.201  -0.817  12.602  0.00  0.00     0.029 C 
ATOM     14  C9  ZIN A   1      19.469   0.030  11.337  0.00  0.00     0.127 C 
ENDBRANCH   1   9
TORSDOF 3
ENDMDL
MODEL 7
REMARK VINA RESULT:      -4.8      2.267      4.689
REMARK  3 active torsions:
REMARK  status: ('A' for Active; 'I' for Inactive)
REMARK    1  A    between atoms: C2_2  and  C3_3 
REMARK    2  A    between atoms: C3_3  and  C5_4 
REMARK    3  A    between atoms: C3_3  and  N8_7 
REMARK       I    between atoms: C5_4  and  N6_5 
ROOT
ATOM      1  C3  ZIN A   1      19.195   1.282  12.599  0.00  0.00     0.178 C 
ENDROOT
BRANCH   1   2
ATOM      2  C2  ZIN A   1      17.895   1.352  11.795  0.00  0.00     0.030 C 
ATOM      3  C1  ZIN A   1      17.705   2.772  11.257  0.00  0.00     0.007 C 
ENDBRANCH   1   2
BRANCH   1   4
ATOM      4  C5  ZIN A   1      20.255   0.591  11.780  0.00  0.00     0.238 C 
ATOM      5  N6  ZIN A   1      21.537   0.596  12.195  0.00  0.00    -0.368 N 
ATOM      6  H19 ZIN A   1      21.778   1.045  13.021  0.00  0.00     0.159 HD
ATOM      7  H20 ZIN A   1      22.220   0.151  11.668  0.00  0.00     0.159 HD
ATOM      8  O7  ZIN A   1      19.954   0.029  10.748  0.00  0.00    -0.271 OA
ENDBRANCH   1   4
BRANCH   1   9
ATOM      9  N8  ZIN A   1      18.965   0.528  13.834  0.00  0.00    -0.339 N 
ATOM     10  C12 ZIN A   1      19.036   1.055  15.069  0.00  0.00     0.220 C 
ATOM     11  C11 ZIN A   1      18.748  -0.009  16.105  0.00  0.00     0.104 C 
ATOM     12  O13 ZIN A   1      19.288   2.215  15.316  0.00  0.00    -0.273 OA
ATOM     13  C10 ZIN A   1      18.914  -1.340  15.337  0.00  0.00     0.029 C 
ATOM     14  C9  ZIN A   1      18.634  -0.901  13.882  0.00  0.00     0.127 C 
ENDBRANCH   1   9
TORSDOF 3
ENDMDL
MODEL 8
REMARK VINA RESULT:      -4.6      2.533      4.094
REMARK  3 active torsions:
REMARK  status: ('A' for Active; 'I' for Inactive)
REMARK    1  A    between atoms: C2_2  and  C3_3 
REMARK    2  A    between atoms: C3_3  and  C5_4 
REMARK    3  A    between atoms: C3_3  and  N8_7 
REMARK       I    between atoms: C5_4  and  N6_5 
ROOT
ATOM      1  C3  ZIN A   1      19.222  -0.377  11.743  0.00  0.00     0.178 C 
ENDROOT
BRANCH   1   2
ATOM      2  C2  ZIN A   1      19.027  -1.681  10.967  0.00  0.00     0.030 C 
ATOM      3  C1  ZIN A   1      17.564  -2.119  11.066  0.00  0.00     0.007 C 
ENDBRANCH   1   2
BRANCH   1   4
ATOM      4  C5  ZIN A   1      20.659   0.063  11.630  0.00  0.00     0.238 C 
ATOM      5  N6  ZIN A   1      21.509  -0.610  10.829  0.00  0.00    -0.368 N 
ATOM      6  H19 ZIN A   1      21.197  -1.379  10.326  0.00  0.00     0.159 HD
ATOM      7  H20 ZIN A   1      22.435  -0.328  10.757  0.00  0.00     0.159 HD
ATOM      8  O7  ZIN A   1      21.051   1.023  12.259  0.00  0.00    -0.271 OA
ENDBRANCH   1   4
BRANCH   1   9
ATOM      9  N8  ZIN A   1      18.887  -0.593  13.153  0.00  0.00    -0.339 N 
ATOM     10  C12 ZIN A   1      18.001   0.143  13.843  0.00  0.00     0.220 C 
ATOM     11  C11 ZIN A   1      17.910  -0.354  15.269  0.00  0.00     0.104 C 
ATOM     12  O13 ZIN A   1      17.362   1.068  13.389  0.00  0.00    -0.273 OA
ATOM     13  C10 ZIN A   1      19.178  -1.219  15.449  0.00  0.00     0.029 C 
ATOM     14  C9  ZIN A   1      19.482  -1.639  13.993  0.00  0.00     0.127 C 
ENDBRANCH   1   9
TORSDOF 3
ENDMDL
MODEL 9
REMARK VINA RESULT:      -4.6      3.112      4.862
REMARK  3 active torsions:
REMARK  status: ('A' for Active; 'I' for Inactive)
REMARK    1  A    between atoms: C2_2  and  C3_3 
REMARK    2  A    between atoms: C3_3  and  C5_4 
REMARK    3  A    between atoms: C3_3  and  N8_7 
REMARK       I    between atoms: C5_4  and  N6_5 
ROOT
ATOM      1  C3  ZIN A   1      18.196   3.653  12.228  0.00  0.00     0.178 C 
ENDROOT
BRANCH   1   2
ATOM      2  C2  ZIN A   1      17.732   3.624  10.771  0.00  0.00     0.030 C 
ATOM      3  C1  ZIN A   1      17.368   5.041  10.323  0.00  0.00     0.007 C 
ENDBRANCH   1   2
BRANCH   1   4
ATOM      4  C5  ZIN A   1      19.653   4.032  12.284  0.00  0.00     0.238 C 
ATOM      5  N6  ZIN A   1      20.578   3.239  11.706  0.00  0.00    -0.368 N 
ATOM      6  H19 ZIN A   1      20.306   2.424  11.255  0.00  0.00     0.159 HD
ATOM      7  H20 ZIN A   1      21.517   3.482  11.742  0.00  0.00     0.159 HD
ATOM      8  O7  ZIN A   1      19.995   5.050  12.847  0.00  0.00    -0.271 OA
ENDBRANCH   1   4
BRANCH   1   9
ATOM      9  N8  ZIN A   1      18.013   2.327  12.825  0.00  0.00    -0.339 N 
ATOM     10  C12 ZIN A   1      18.091   2.070  14.142  0.00  0.00     0.220 C 
ATOM     11  C11 ZIN A   1      17.857   0.598  14.400  0.00  0.00     0.104 C 
ATOM     12  O13 ZIN A   1      18.309   2.899  14.999  0.00  0.00    -0.273 OA
ATOM     13  C10 ZIN A   1      18.050  -0.063  13.016  0.00  0.00     0.029 C 
ATOM     14  C9  ZIN A   1      17.729   1.108  12.060  0.00  0.00     0.127 C 
ENDBRANCH   1   9
TORSDOF 3
ENDMDL
