MODEL 1
REMARK VINA RESULT:      -7.4      0.000      0.000
REMARK  7 active torsions:
REMARK  status: ('A' for Active; 'I' for Inactive)
REMARK    1  A    between atoms: C2_2  and  N3_3 
REMARK    2  A    between atoms: N3_3  and  C4_4 
REMARK       I    between atoms: N3_3  and  C11_11 
REMARK    3  A    between atoms: C4_4  and  C5_5 
REMARK    4  A    between atoms: C11_11  and  C13_13 
REMARK    5  A    between atoms: C13_13  and  C15_14 
REMARK    6  A    between atoms: C13_13  and  C17_16 
REMARK    7  A    between atoms: C15_14  and  O16_15 
ROOT
ATOM      1  N3  ZIN A   1      18.445   0.682   9.412  0.00  0.00    -0.348 N 
ATOM      2  C11 ZIN A   1      18.614  -0.053  10.528  0.00  0.00     0.230 C 
ATOM      3  O12 ZIN A   1      18.049  -1.120  10.642  0.00  0.00    -0.273 OA
ENDROOT
BRANCH   2   4
ATOM      4  C13 ZIN A   1      19.503   0.451  11.636  0.00  0.00     0.134 C 
BRANCH   4   5
ATOM      5  C15 ZIN A   1      20.886  -0.195  11.513  0.00  0.00     0.182 C 
BRANCH   5   6
ATOM      6  O16 ZIN A   1      21.857   0.640  12.146  0.00  0.00    -0.400 OA
ATOM      7  H36 ZIN A   1      22.306   1.248  11.541  0.00  0.00     0.209 HD
ENDBRANCH   5   6
ENDBRANCH   4   5
BRANCH   4   8
ATOM      8  C17 ZIN A   1      18.898   0.093  12.969  0.00  0.00    -0.043 A 
ATOM      9  C22 ZIN A   1      19.329  -1.035  13.643  0.00  0.00     0.008 A 
ATOM     10  C21 ZIN A   1      18.778  -1.360  14.867  0.00  0.00     0.001 A 
ATOM     11  C20 ZIN A   1      17.789  -0.563  15.415  0.00  0.00     0.000 A 
ATOM     12  C19 ZIN A   1      17.355   0.561  14.738  0.00  0.00     0.001 A 
ATOM     13  C18 ZIN A   1      17.909   0.890  13.515  0.00  0.00     0.008 A 
ENDBRANCH   4   8
ENDBRANCH   2   4
BRANCH   1  14
ATOM     14  C2  ZIN A   1      19.212   1.916   9.225  0.00  0.00     0.121 C 
ATOM     15  C1  ZIN A   1      18.379   3.110   9.696  0.00  0.00     0.026 C 
ENDBRANCH   1  14
BRANCH   1  16
ATOM     16  C4  ZIN A   1      17.495   0.247   8.384  0.00  0.00     0.164 C 
BRANCH  16  17
ATOM     17  C5  ZIN A   1      18.252  -0.226   7.170  0.00  0.00    -0.037 A 
ATOM     18  C10 ZIN A   1      18.489   0.630   6.104  0.00  0.00     0.028 A 
ATOM     19  C9  ZIN A   1      19.192   0.163   5.009  0.00  0.00     0.116 A 
ATOM     20  N8  ZIN A   1      19.625  -1.083   4.967  0.00  0.00    -0.273 NA
ATOM     21  C7  ZIN A   1      19.413  -1.924   5.959  0.00  0.00     0.116 A 
ATOM     22  C6  ZIN A   1      18.722  -1.527   7.089  0.00  0.00     0.028 A 
ENDBRANCH  16  17
ENDBRANCH   1  16
TORSDOF 7
ENDMDL
MODEL 2
REMARK VINA RESULT:      -7.4      2.370      6.875
REMARK  7 active torsions:
REMARK  status: ('A' for Active; 'I' for Inactive)
REMARK    1  A    between atoms: C2_2  and  N3_3 
REMARK    2  A    between atoms: N3_3  and  C4_4 
REMARK       I    between atoms: N3_3  and  C11_11 
REMARK    3  A    between atoms: C4_4  and  C5_5 
REMARK    4  A    between atoms: C11_11  and  C13_13 
REMARK    5  A    between atoms: C13_13  and  C15_14 
REMARK    6  A    between atoms: C13_13  and  C17_16 
REMARK    7  A    between atoms: C15_14  and  O16_15 
ROOT
ATOM      1  N3  ZIN A   1      18.471   0.062  12.006  0.00  0.00    -0.348 N 
ATOM      2  C11 ZIN A   1      18.008   1.107  11.292  0.00  0.00     0.230 C 
ATOM      3  O12 ZIN A   1      16.885   1.521  11.484  0.00  0.00    -0.273 OA
ENDROOT
BRANCH   2   4
ATOM      4  C13 ZIN A   1      18.885   1.759  10.255  0.00  0.00     0.134 C 
BRANCH   4   5
ATOM      5  C15 ZIN A   1      18.654   3.272  10.270  0.00  0.00     0.182 C 
BRANCH   5   6
ATOM      6  O16 ZIN A   1      18.839   3.768  11.597  0.00  0.00    -0.400 OA
ATOM      7  H36 ZIN A   1      18.550   4.683  11.718  0.00  0.00     0.209 HD
ENDBRANCH   5   6
ENDBRANCH   4   5
BRANCH   4   8
ATOM      8  C17 ZIN A   1      18.544   1.213   8.892  0.00  0.00    -0.043 A 
ATOM      9  C22 ZIN A   1      19.203   1.687   7.773  0.00  0.00     0.008 A 
ATOM     10  C21 ZIN A   1      18.893   1.183   6.524  0.00  0.00     0.001 A 
ATOM     11  C20 ZIN A   1      17.919   0.210   6.393  0.00  0.00     0.000 A 
ATOM     12  C19 ZIN A   1      17.257  -0.260   7.511  0.00  0.00     0.001 A 
ATOM     13  C18 ZIN A   1      17.570   0.241   8.762  0.00  0.00     0.008 A 
ENDBRANCH   4   8
ENDBRANCH   2   4
BRANCH   1  14
ATOM     14  C2  ZIN A   1      19.863  -0.369  11.854  0.00  0.00     0.121 C 
ATOM     15  C1  ZIN A   1      19.900  -1.757  11.211  0.00  0.00     0.026 C 
ENDBRANCH   1  14
BRANCH   1  16
ATOM     16  C4  ZIN A   1      17.583  -0.643  12.934  0.00  0.00     0.164 C 
BRANCH  16  17
ATOM     17  C5  ZIN A   1      18.037  -0.393  14.350  0.00  0.00    -0.037 A 
ATOM     18  C10 ZIN A   1      17.934   0.868  14.915  0.00  0.00     0.028 A 
ATOM     19  C9  ZIN A   1      18.354   1.059  16.218  0.00  0.00     0.116 A 
ATOM     20  N8  ZIN A   1      18.858   0.059  16.918  0.00  0.00    -0.273 NA
ATOM     21  C7  ZIN A   1      18.975  -1.151  16.410  0.00  0.00     0.116 A 
ATOM     22  C6  ZIN A   1      18.572  -1.418  15.115  0.00  0.00     0.028 A 
ENDBRANCH  16  17
ENDBRANCH   1  16
TORSDOF 7
ENDMDL
MODEL 3
REMARK VINA RESULT:      -7.4      3.001      7.418
REMARK  7 active torsions:
REMARK  status: ('A' for Active; 'I' for Inactive)
REMARK    1  A    between atoms: C2_2  and  N3_3 
REMARK    2  A    between atoms: N3_3  and  C4_4 
REMARK       I    between atoms: N3_3  and  C11_11 
REMARK    3  A    between atoms: C4_4  and  C5_5 
REMARK    4  A    between atoms: C11_11  and  C13_13 
REMARK    5  A    between atoms: C13_13  and  C15_14 
REMARK    6  A    between atoms: C13_13  and  C17_16 
REMARK    7  A    between atoms: C15_14  and  O16_15 
ROOT
ATOM      1  N3  ZIN A   1      18.752   0.777  13.727  0.00  0.00    -0.348 N 
ATOM      2  C11 ZIN A   1      18.602   1.747  12.805  0.00  0.00     0.230 C 
ATOM      3  O12 ZIN A   1      17.695   2.546  12.908  0.00  0.00    -0.273 OA
ENDROOT
BRANCH   2   4
ATOM      4  C13 ZIN A   1      19.558   1.839  11.644  0.00  0.00     0.134 C 
BRANCH   4   5
ATOM      5  C15 ZIN A   1      19.940   3.304  11.413  0.00  0.00     0.182 C 
BRANCH   5   6
ATOM      6  O16 ZIN A   1      21.332   3.480  11.681  0.00  0.00    -0.400 OA
ATOM      7  H36 ZIN A   1      21.546   3.544  12.623  0.00  0.00     0.209 HD
ENDBRANCH   5   6
ENDBRANCH   4   5
BRANCH   4   8
ATOM      8  C17 ZIN A   1      18.900   1.291  10.405  0.00  0.00    -0.043 A 
ATOM      9  C22 ZIN A   1      17.928   0.314  10.513  0.00  0.00     0.008 A 
ATOM     10  C21 ZIN A   1      17.321  -0.186   9.377  0.00  0.00     0.001 A 
ATOM     11  C20 ZIN A   1      17.692   0.285   8.130  0.00  0.00     0.000 A 
ATOM     12  C19 ZIN A   1      18.668   1.257   8.022  0.00  0.00     0.001 A 
ATOM     13  C18 ZIN A   1      19.272   1.761   9.159  0.00  0.00     0.008 A 
ENDBRANCH   4   8
ENDBRANCH   2   4
BRANCH   1  14
ATOM     14  C2  ZIN A   1      19.910  -0.119  13.664  0.00  0.00     0.121 C 
ATOM     15  C1  ZIN A   1      19.429  -1.567  13.543  0.00  0.00     0.026 C 
ENDBRANCH   1  14
BRANCH   1  16
ATOM     16  C4  ZIN A   1      17.759   0.617  14.792  0.00  0.00     0.164 C 
BRANCH  16  17
ATOM     17  C5  ZIN A   1      18.398   0.921  16.123  0.00  0.00    -0.037 A 
ATOM     18  C10 ZIN A   1      18.724   2.222  16.473  0.00  0.00     0.028 A 
ATOM     19  C9  ZIN A   1      19.303   2.464  17.704  0.00  0.00     0.116 A 
ATOM     20  N8  ZIN A   1      19.555   1.472  18.538  0.00  0.00    -0.273 NA
ATOM     21  C7  ZIN A   1      19.264   0.222  18.236  0.00  0.00     0.116 A 
ATOM     22  C6  ZIN A   1      18.678  -0.095  17.024  0.00  0.00     0.028 A 
ENDBRANCH  16  17
ENDBRANCH   1  16
TORSDOF 7
ENDMDL
MODEL 4
REMARK VINA RESULT:      -7.4      2.844      6.702
REMARK  7 active torsions:
REMARK  status: ('A' for Active; 'I' for Inactive)
REMARK    1  A    between atoms: C2_2  and  N3_3 
REMARK    2  A    between atoms: N3_3  and  C4_4 
REMARK       I    between atoms: N3_3  and  C11_11 
REMARK    3  A    between atoms: C4_4  and  C5_5 
REMARK    4  A    between atoms: C11_11  and  C13_13 
REMARK    5  A    between atoms: C13_13  and  C15_14 
REMARK    6  A    between atoms: C13_13  and  C17_16 
REMARK    7  A    between atoms: C15_14  and  O16_15 
ROOT
ATOM      1  N3  ZIN A   1      19.030  -0.854  12.605  0.00  0.00    -0.348 N 
ATOM      2  C11 ZIN A   1      19.537   0.114  11.817  0.00  0.00     0.230 C 
ATOM      3  O12 ZIN A   1      20.603   0.622  12.092  0.00  0.00    -0.273 OA
ENDROOT
BRANCH   2   4
ATOM      4  C13 ZIN A   1      18.778   0.568  10.597  0.00  0.00     0.134 C 
BRANCH   4   5
ATOM      5  C15 ZIN A   1      19.686   0.474   9.368  0.00  0.00     0.182 C 
BRANCH   5   6
ATOM      6  O16 ZIN A   1      20.732  -0.466   9.620  0.00  0.00    -0.400 OA
ATOM      7  H36 ZIN A   1      20.432  -1.284  10.043  0.00  0.00     0.209 HD
ENDBRANCH   5   6
ENDBRANCH   4   5
BRANCH   4   8
ATOM      8  C17 ZIN A   1      18.331   1.995  10.783  0.00  0.00    -0.043 A 
ATOM      9  C22 ZIN A   1      18.482   2.906   9.754  0.00  0.00     0.008 A 
ATOM     10  C21 ZIN A   1      18.068   4.213   9.923  0.00  0.00     0.001 A 
ATOM     11  C20 ZIN A   1      17.511   4.612  11.125  0.00  0.00     0.000 A 
ATOM     12  C19 ZIN A   1      17.366   3.703  12.155  0.00  0.00     0.001 A 
ATOM     13  C18 ZIN A   1      17.775   2.393  11.985  0.00  0.00     0.008 A 
ENDBRANCH   4   8
ENDBRANCH   2   4
BRANCH   1  14
ATOM     14  C2  ZIN A   1      17.799  -1.545  12.215  0.00  0.00     0.121 C 
ATOM     15  C1  ZIN A   1      18.105  -3.018  11.938  0.00  0.00     0.026 C 
ENDBRANCH   1  14
BRANCH   1  16
ATOM     16  C4  ZIN A   1      19.711  -1.217  13.851  0.00  0.00     0.164 C 
BRANCH  16  17
ATOM     17  C5  ZIN A   1      18.975  -0.612  15.019  0.00  0.00    -0.037 A 
ATOM     18  C10 ZIN A   1      19.046   0.750  15.273  0.00  0.00     0.028 A 
ATOM     19  C9  ZIN A   1      18.354   1.271  16.349  0.00  0.00     0.116 A 
ATOM     20  N8  ZIN A   1      17.641   0.487  17.137  0.00  0.00    -0.273 NA
ATOM     21  C7  ZIN A   1      17.557  -0.812  16.928  0.00  0.00     0.116 A 
ATOM     22  C6  ZIN A   1      18.217  -1.403  15.868  0.00  0.00     0.028 A 
ENDBRANCH  16  17
ENDBRANCH   1  16
TORSDOF 7
ENDMDL
MODEL 5
REMARK VINA RESULT:      -7.0      1.804      2.748
REMARK  7 active torsions:
REMARK  status: ('A' for Active; 'I' for Inactive)
REMARK    1  A    between atoms: C2_2  and  N3_3 
REMARK    2  A    between atoms: N3_3  and  C4_4 
REMARK       I    between atoms: N3_3  and  C11_11 
REMARK    3  A    between atoms: C4_4  and  C5_5 
REMARK    4  A    between atoms: C11_11  and  C13_13 
REMARK    5  A    between atoms: C13_13  and  C15_14 
REMARK    6  A    between atoms: C13_13  and  C17_16 
REMARK    7  A    between atoms: C15_14  and  O16_15 
ROOT
ATOM      1  N3  ZIN A   1      18.672   1.080  11.684  0.00  0.00    -0.348 N 
ATOM      2  C11 ZIN A   1      18.355   0.002  12.427  0.00  0.00     0.230 C 
ATOM      3  O12 ZIN A   1      17.292  -0.557  12.260  0.00  0.00    -0.273 OA
ENDROOT
BRANCH   2   4
ATOM      4  C13 ZIN A   1      19.320  -0.510  13.465  0.00  0.00     0.134 C 
BRANCH   4   5
ATOM      5  C15 ZIN A   1      19.503  -2.019  13.291  0.00  0.00     0.182 C 
BRANCH   5   6
ATOM      6  O16 ZIN A   1      20.013  -2.289  11.984  0.00  0.00    -0.400 OA
ATOM      7  H36 ZIN A   1      20.956  -2.508  11.968  0.00  0.00     0.209 HD
ENDBRANCH   5   6
ENDBRANCH   4   5
BRANCH   4   8
ATOM      8  C17 ZIN A   1      18.776  -0.225  14.841  0.00  0.00    -0.043 A 
ATOM      9  C22 ZIN A   1      18.882   1.046  15.377  0.00  0.00     0.008 A 
ATOM     10  C21 ZIN A   1      18.380   1.308  16.637  0.00  0.00     0.001 A 
ATOM     11  C20 ZIN A   1      17.778   0.298  17.365  0.00  0.00     0.000 A 
ATOM     12  C19 ZIN A   1      17.677  -0.972  16.832  0.00  0.00     0.001 A 
ATOM     13  C18 ZIN A   1      18.175  -1.234  15.569  0.00  0.00     0.008 A 
ENDBRANCH   4   8
ENDBRANCH   2   4
BRANCH   1  14
ATOM     14  C2  ZIN A   1      19.999   1.688  11.806  0.00  0.00     0.121 C 
ATOM     15  C1  ZIN A   1      19.860   3.211  11.868  0.00  0.00     0.026 C 
ENDBRANCH   1  14
BRANCH   1  16
ATOM     16  C4  ZIN A   1      17.691   1.645  10.754  0.00  0.00     0.164 C 
BRANCH  16  17
ATOM     17  C5  ZIN A   1      17.984   1.158   9.358  0.00  0.00    -0.037 A 
ATOM     18  C10 ZIN A   1      17.362   0.025   8.856  0.00  0.00     0.028 A 
ATOM     19  C9  ZIN A   1      17.650  -0.388   7.569  0.00  0.00     0.116 A 
ATOM     20  N8  ZIN A   1      18.515   0.276   6.826  0.00  0.00    -0.273 NA
ATOM     21  C7  ZIN A   1      19.129   1.354   7.273  0.00  0.00     0.116 A 
ATOM     22  C6  ZIN A   1      18.887   1.829   8.548  0.00  0.00     0.028 A 
ENDBRANCH  16  17
ENDBRANCH   1  16
TORSDOF 7
ENDMDL
MODEL 6
REMARK VINA RESULT:      -7.0      2.321      6.462
REMARK  7 active torsions:
REMARK  status: ('A' for Active; 'I' for Inactive)
REMARK    1  A    between atoms: C2_2  and  N3_3 
REMARK    2  A    between atoms: N3_3  and  C4_4 
REMARK       I    between atoms: N3_3  and  C11_11 
REMARK    3  A    between atoms: C4_4  and  C5_5 
REMARK    4  A    between atoms: C11_11  and  C13_13 
REMARK    5  A    between atoms: C13_13  and  C15_14 
REMARK    6  A    between atoms: C13_13  and  C17_16 
REMARK    7  A    between atoms: C15_14  and  O16_15 
ROOT
ATOM      1  N3  ZIN A   1      18.585   0.255  10.544  0.00  0.00    -0.348 N 
ATOM      2  C11 ZIN A   1      19.215  -0.412   9.558  0.00  0.00     0.230 C 
ATOM      3  O12 ZIN A   1      20.396  -0.224   9.357  0.00  0.00    -0.273 OA
ENDROOT
BRANCH   2   4
ATOM      4  C13 ZIN A   1      18.453  -1.391   8.703  0.00  0.00     0.134 C 
BRANCH   4   5
ATOM      5  C15 ZIN A   1      19.048  -2.790   8.876  0.00  0.00     0.182 C 
BRANCH   5   6
ATOM      6  O16 ZIN A   1      19.693  -2.879  10.148  0.00  0.00    -0.400 OA
ATOM      7  H36 ZIN A   1      20.452  -3.479  10.162  0.00  0.00     0.209 HD
ENDBRANCH   5   6
ENDBRANCH   4   5
BRANCH   4   8
ATOM      8  C17 ZIN A   1      18.551  -0.979   7.257  0.00  0.00    -0.043 A 
ATOM      9  C22 ZIN A   1      18.015   0.227   6.844  0.00  0.00     0.008 A 
ATOM     10  C21 ZIN A   1      18.108   0.607   5.518  0.00  0.00     0.001 A 
ATOM     11  C20 ZIN A   1      18.732  -0.223   4.604  0.00  0.00     0.000 A 
ATOM     12  C19 ZIN A   1      19.262  -1.430   5.016  0.00  0.00     0.001 A 
ATOM     13  C18 ZIN A   1      19.173  -1.808   6.343  0.00  0.00     0.008 A 
ENDBRANCH   4   8
ENDBRANCH   2   4
BRANCH   1  14
ATOM     14  C2  ZIN A   1      17.188  -0.052  10.859  0.00  0.00     0.121 C 
ATOM     15  C1  ZIN A   1      17.118  -0.800  12.192  0.00  0.00     0.026 C 
ENDBRANCH   1  14
BRANCH   1  16
ATOM     16  C4  ZIN A   1      19.297   1.288  11.302  0.00  0.00     0.164 C 
BRANCH  16  17
ATOM     17  C5  ZIN A   1      18.543   2.589  11.207  0.00  0.00    -0.037 A 
ATOM     18  C10 ZIN A   1      17.920   3.132  12.321  0.00  0.00     0.028 A 
ATOM     19  C9  ZIN A   1      17.243   4.330  12.198  0.00  0.00     0.116 A 
ATOM     20  N8  ZIN A   1      17.176   4.950  11.035  0.00  0.00    -0.273 NA
ATOM     21  C7  ZIN A   1      17.750   4.461   9.954  0.00  0.00     0.116 A 
ATOM     22  C6  ZIN A   1      18.450   3.270  10.003  0.00  0.00     0.028 A 
ENDBRANCH  16  17
ENDBRANCH   1  16
TORSDOF 7
ENDMDL
MODEL 7
REMARK VINA RESULT:      -7.0      2.654      5.567
REMARK  7 active torsions:
REMARK  status: ('A' for Active; 'I' for Inactive)
REMARK    1  A    between atoms: C2_2  and  N3_3 
REMARK    2  A    between atoms: N3_3  and  C4_4 
REMARK       I    between atoms: N3_3  and  C11_11 
REMARK    3  A    between atoms: C4_4  and  C5_5 
REMARK    4  A    between atoms: C11_11  and  C13_13 
REMARK    5  A    between atoms: C13_13  and  C15_14 
REMARK    6  A    between atoms: C13_13  and  C17_16 
REMARK    7  A    between atoms: C15_14  and  O16_15 
ROOT
ATOM      1  N3  ZIN A   1      18.749  -0.326  11.777  0.00  0.00    -0.348 N 
ATOM      2  C11 ZIN A   1      17.879   0.573  11.277  0.00  0.00     0.230 C 
ATOM      3  O12 ZIN A   1      16.702   0.499  11.561  0.00  0.00    -0.273 OA
ENDROOT
BRANCH   2   4
ATOM      4  C13 ZIN A   1      18.367   1.669  10.365  0.00  0.00     0.134 C 
BRANCH   4   5
ATOM      5  C15 ZIN A   1      17.489   2.910  10.545  0.00  0.00     0.182 C 
BRANCH   5   6
ATOM      6  O16 ZIN A   1      17.292   3.156  11.938  0.00  0.00    -0.400 OA
ATOM      7  H36 ZIN A   1      17.546   2.416  12.507  0.00  0.00     0.209 HD
ENDBRANCH   5   6
ENDBRANCH   4   5
BRANCH   4   8
ATOM      8  C17 ZIN A   1      18.292   1.204   8.934  0.00  0.00    -0.043 A 
ATOM      9  C22 ZIN A   1      19.091   1.794   7.973  0.00  0.00     0.008 A 
ATOM     10  C21 ZIN A   1      19.026   1.364   6.661  0.00  0.00     0.001 A 
ATOM     11  C20 ZIN A   1      18.155   0.349   6.308  0.00  0.00     0.000 A 
ATOM     12  C19 ZIN A   1      17.352  -0.237   7.269  0.00  0.00     0.001 A 
ATOM     13  C18 ZIN A   1      17.421   0.189   8.582  0.00  0.00     0.008 A 
ENDBRANCH   4   8
ENDBRANCH   2   4
BRANCH   1  14
ATOM     14  C2  ZIN A   1      20.184  -0.173  11.526  0.00  0.00     0.121 C 
ATOM     15  C1  ZIN A   1      20.838   0.534  12.715  0.00  0.00     0.026 C 
ENDBRANCH   1  14
BRANCH   1  16
ATOM     16  C4  ZIN A   1      18.261  -1.456  12.572  0.00  0.00     0.164 C 
BRANCH  16  17
ATOM     17  C5  ZIN A   1      18.415  -2.729  11.780  0.00  0.00    -0.037 A 
ATOM     18  C10 ZIN A   1      19.577  -3.480  11.864  0.00  0.00     0.028 A 
ATOM     19  C9  ZIN A   1      19.680  -4.646  11.128  0.00  0.00     0.116 A 
ATOM     20  N8  ZIN A   1      18.693  -5.039  10.346  0.00  0.00    -0.273 NA
ATOM     21  C7  ZIN A   1      17.576  -4.347  10.238  0.00  0.00     0.116 A 
ATOM     22  C6  ZIN A   1      17.400  -3.174  10.947  0.00  0.00     0.028 A 
ENDBRANCH  16  17
ENDBRANCH   1  16
TORSDOF 7
ENDMDL
MODEL 8
REMARK VINA RESULT:      -7.0      1.914      3.160
REMARK  7 active torsions:
REMARK  status: ('A' for Active; 'I' for Inactive)
REMARK    1  A    between atoms: C2_2  and  N3_3 
REMARK    2  A    between atoms: N3_3  and  C4_4 
REMARK       I    between atoms: N3_3  and  C11_11 
REMARK    3  A    between atoms: C4_4  and  C5_5 
REMARK    4  A    between atoms: C11_11  and  C13_13 
REMARK    5  A    between atoms: C13_13  and  C15_14 
REMARK    6  A    between atoms: C13_13  and  C17_16 
REMARK    7  A    between atoms: C15_14  and  O16_15 
ROOT
ATOM      1  N3  ZIN A   1      18.808  -0.333  11.526  0.00  0.00    -0.348 N 
ATOM      2  C11 ZIN A   1      19.055   0.563  12.501  0.00  0.00     0.230 C 
ATOM      3  O12 ZIN A   1      20.143   1.094  12.574  0.00  0.00    -0.273 OA
ENDROOT
BRANCH   2   4
ATOM      4  C13 ZIN A   1      17.982   0.903  13.503  0.00  0.00     0.134 C 
BRANCH   4   5
ATOM      5  C15 ZIN A   1      17.847   2.424  13.608  0.00  0.00     0.182 C 
BRANCH   5   6
ATOM      6  O16 ZIN A   1      17.810   2.991  12.297  0.00  0.00    -0.400 OA
ATOM      7  H36 ZIN A   1      17.024   2.750  11.787  0.00  0.00     0.209 HD
ENDBRANCH   5   6
ENDBRANCH   4   5
BRANCH   4   8
ATOM      8  C17 ZIN A   1      18.352   0.337  14.849  0.00  0.00    -0.043 A 
ATOM      9  C22 ZIN A   1      18.690   1.187  15.887  0.00  0.00     0.008 A 
ATOM     10  C21 ZIN A   1      19.025   0.668  17.123  0.00  0.00     0.001 A 
ATOM     11  C20 ZIN A   1      19.031  -0.701  17.320  0.00  0.00     0.000 A 
ATOM     12  C19 ZIN A   1      18.699  -1.550  16.282  0.00  0.00     0.001 A 
ATOM     13  C18 ZIN A   1      18.358  -1.031  15.046  0.00  0.00     0.008 A 
ENDBRANCH   4   8
ENDBRANCH   2   4
BRANCH   1  14
ATOM     14  C2  ZIN A   1      17.462  -0.891  11.369  0.00  0.00     0.121 C 
ATOM     15  C1  ZIN A   1      17.508  -2.403  11.601  0.00  0.00     0.026 C 
ENDBRANCH   1  14
BRANCH   1  16
ATOM     16  C4  ZIN A   1      19.882  -0.748  10.621  0.00  0.00     0.164 C 
BRANCH  16  17
ATOM     17  C5  ZIN A   1      19.547  -0.321   9.214  0.00  0.00    -0.037 A 
ATOM     18  C10 ZIN A   1      19.432   1.022   8.889  0.00  0.00     0.028 A 
ATOM     19  C9  ZIN A   1      19.130   1.376   7.587  0.00  0.00     0.116 A 
ATOM     20  N8  ZIN A   1      18.941   0.452   6.664  0.00  0.00    -0.273 NA
ATOM     21  C7  ZIN A   1      19.037  -0.834   6.939  0.00  0.00     0.116 A 
ATOM     22  C6  ZIN A   1      19.342  -1.262   8.217  0.00  0.00     0.028 A 
ENDBRANCH  16  17
ENDBRANCH   1  16
TORSDOF 7
ENDMDL
MODEL 9
REMARK VINA RESULT:      -6.9      1.956      6.736
REMARK  7 active torsions:
REMARK  status: ('A' for Active; 'I' for Inactive)
REMARK    1  A    between atoms: C2_2  and  N3_3 
REMARK    2  A    between atoms: N3_3  and  C4_4 
REMARK       I    between atoms: N3_3  and  C11_11 
REMARK    3  A    between atoms: C4_4  and  C5_5 
REMARK    4  A    between atoms: C11_11  and  C13_13 
REMARK    5  A    between atoms: C13_13  and  C15_14 
REMARK    6  A    between atoms: C13_13  and  C17_16 
REMARK    7  A    between atoms: C15_14  and  O16_15 
ROOT
ATOM      1  N3  ZIN A   1      18.861   0.373  11.079  0.00  0.00    -0.348 N 
ATOM      2  C11 ZIN A   1      19.104  -0.611  10.191  0.00  0.00     0.230 C 
ATOM      3  O12 ZIN A   1      20.167  -1.195  10.210  0.00  0.00    -0.273 OA
ENDROOT
BRANCH   2   4
ATOM      4  C13 ZIN A   1      18.057  -0.984   9.173  0.00  0.00     0.134 C 
BRANCH   4   5
ATOM      5  C15 ZIN A   1      17.858  -2.502   9.180  0.00  0.00     0.182 C 
BRANCH   5   6
ATOM      6  O16 ZIN A   1      17.793  -2.967  10.530  0.00  0.00    -0.400 OA
ATOM      7  H36 ZIN A   1      17.978  -2.284  11.190  0.00  0.00     0.209 HD
ENDBRANCH   5   6
ENDBRANCH   4   5
BRANCH   4   8
ATOM      8  C17 ZIN A   1      18.506  -0.543   7.804  0.00  0.00    -0.043 A 
ATOM      9  C22 ZIN A   1      18.849  -1.486   6.852  0.00  0.00     0.008 A 
ATOM     10  C21 ZIN A   1      19.257  -1.081   5.595  0.00  0.00     0.001 A 
ATOM     11  C20 ZIN A   1      19.329   0.266   5.292  0.00  0.00     0.000 A 
ATOM     12  C19 ZIN A   1      18.991   1.208   6.245  0.00  0.00     0.001 A 
ATOM     13  C18 ZIN A   1      18.579   0.804   7.502  0.00  0.00     0.008 A 
ENDBRANCH   4   8
ENDBRANCH   2   4
BRANCH   1  14
ATOM     14  C2  ZIN A   1      17.539   1.003  11.129  0.00  0.00     0.121 C 
ATOM     15  C1  ZIN A   1      17.666   2.484  10.765  0.00  0.00     0.026 C 
ENDBRANCH   1  14
BRANCH   1  16
ATOM     16  C4  ZIN A   1      19.917   0.813  11.994  0.00  0.00     0.164 C 
BRANCH  16  17
ATOM     17  C5  ZIN A   1      19.547   0.435  13.405  0.00  0.00    -0.037 A 
ATOM     18  C10 ZIN A   1      19.274   1.411  14.352  0.00  0.00     0.028 A 
ATOM     19  C9  ZIN A   1      18.932   1.027  15.635  0.00  0.00     0.116 A 
ATOM     20  N8  ZIN A   1      18.875  -0.249  15.965  0.00  0.00    -0.273 NA
ATOM     21  C7  ZIN A   1      19.133  -1.203  15.092  0.00  0.00     0.116 A 
ATOM     22  C6  ZIN A   1      19.477  -0.895  13.789  0.00  0.00     0.028 A 
ENDBRANCH  16  17
ENDBRANCH   1  16
TORSDOF 7
ENDMDL
