MODEL 1
REMARK VINA RESULT:      -8.3      0.000      0.000
REMARK  5 active torsions:
REMARK  status: ('A' for Active; 'I' for Inactive)
REMARK    1  A    between atoms: N4_4  and  N5_5 
REMARK    2  A    between atoms: N5_5  and  C6_6 
REMARK    3  A    between atoms: C6_6  and  C7_7 
REMARK    4  A    between atoms: C10_10  and  C11_11 
REMARK    5  A    between atoms: C14_14  and  N15_15 
ROOT
ATOM      1  C7  ZIN A   1      18.614   2.723  12.077  0.00  0.00     0.095 A 
ATOM      2  C8  ZIN A   1      18.196   3.923  11.336  0.00  0.00     0.041 A 
ATOM      3  C9  ZIN A   1      18.095   3.552  10.035  0.00  0.00     0.041 A 
ATOM      4  C10 ZIN A   1      18.435   2.178   9.954  0.00  0.00     0.086 A 
ATOM      5  O20 ZIN A   1      18.741   1.721  11.180  0.00  0.00    -0.308 OA
ENDROOT
BRANCH   1   6
ATOM      6  C6  ZIN A   1      18.842   2.637  13.443  0.00  0.00     0.176 C 
BRANCH   6   7
ATOM      7  N5  ZIN A   1      17.989   1.979  14.220  0.00  0.00    -0.178 NA
BRANCH   7   8
ATOM      8  N4  ZIN A   1      18.387   1.486  15.343  0.00  0.00    -0.211 N 
ATOM      9  C3  ZIN A   1      19.044   2.216  16.440  0.00  0.00     0.259 A 
ATOM     10  C2  ZIN A   1      19.281   1.147  17.488  0.00  0.00     0.245 A 
ATOM     11  O1  ZIN A   1      19.803   1.288  18.574  0.00  0.00    -0.271 OA
ATOM     12  N23 ZIN A   1      18.796   0.006  16.961  0.00  0.00    -0.276 N 
ATOM     13  C21 ZIN A   1      18.283   0.205  15.741  0.00  0.00     0.345 A 
ATOM     14  H33 ZIN A   1      18.810  -0.853  17.411  0.00  0.00     0.173 HD
ATOM     15  O22 ZIN A   1      17.784  -0.672  15.066  0.00  0.00    -0.245 OA
ENDBRANCH   7   8
ENDBRANCH   6   7
ENDBRANCH   1   6
BRANCH   4  16
ATOM     16  C11 ZIN A   1      18.453   1.408   8.765  0.00  0.00    -0.002 A 
ATOM     17  C19 ZIN A   1      17.725   0.204   8.688  0.00  0.00     0.017 A 
ATOM     18  C18 ZIN A   1      17.745  -0.529   7.530  0.00  0.00     0.037 A 
ATOM     19  C14 ZIN A   1      18.487  -0.097   6.442  0.00  0.00     0.102 A 
ATOM     20  C13 ZIN A   1      19.211   1.084   6.507  0.00  0.00     0.037 A 
ATOM     21  C12 ZIN A   1      19.202   1.838   7.653  0.00  0.00     0.017 A 
BRANCH  19  22
ATOM     22  N15 ZIN A   1      18.505  -0.901   5.199  0.00  0.00    -0.116 N 
ATOM     23  O16 ZIN A   1      19.651  -1.180   4.612  0.00  0.00    -0.532 OA
ATOM     24  O17 ZIN A   1      17.377  -1.338   4.681  0.00  0.00    -0.532 OA
ENDBRANCH  19  22
ENDBRANCH   4  16
TORSDOF 5
ENDMDL
MODEL 2
REMARK VINA RESULT:      -8.3      2.093      2.848
REMARK  5 active torsions:
REMARK  status: ('A' for Active; 'I' for Inactive)
REMARK    1  A    between atoms: N4_4  and  N5_5 
REMARK    2  A    between atoms: N5_5  and  C6_6 
REMARK    3  A    between atoms: C6_6  and  C7_7 
REMARK    4  A    between atoms: C10_10  and  C11_11 
REMARK    5  A    between atoms: C14_14  and  N15_15 
ROOT
ATOM      1  C7  ZIN A   1      18.153   2.341  12.511  0.00  0.00     0.095 A 
ATOM      2  C8  ZIN A   1      17.604   3.540  11.860  0.00  0.00     0.041 A 
ATOM      3  C9  ZIN A   1      17.574   3.273  10.530  0.00  0.00     0.041 A 
ATOM      4  C10 ZIN A   1      18.082   1.962  10.347  0.00  0.00     0.086 A 
ATOM      5  O20 ZIN A   1      18.419   1.442  11.538  0.00  0.00    -0.308 OA
ENDROOT
BRANCH   1   6
ATOM      6  C6  ZIN A   1      18.364   2.167  13.872  0.00  0.00     0.176 C 
BRANCH   6   7
ATOM      7  N5  ZIN A   1      18.110   3.161  14.716  0.00  0.00    -0.178 NA
BRANCH   7   8
ATOM      8  N4  ZIN A   1      19.070   3.915  15.132  0.00  0.00    -0.211 N 
ATOM      9  C3  ZIN A   1      19.571   5.140  14.486  0.00  0.00     0.259 A 
ATOM     10  C2  ZIN A   1      20.687   5.596  15.404  0.00  0.00     0.245 A 
ATOM     11  O1  ZIN A   1      21.393   6.574  15.269  0.00  0.00    -0.271 OA
ATOM     12  N23 ZIN A   1      20.736   4.688  16.398  0.00  0.00    -0.276 N 
ATOM     13  C21 ZIN A   1      19.810   3.735  16.241  0.00  0.00     0.345 A 
ATOM     14  H33 ZIN A   1      21.361   4.723  17.139  0.00  0.00     0.173 HD
ATOM     15  O22 ZIN A   1      19.657   2.809  17.012  0.00  0.00    -0.245 OA
ENDBRANCH   7   8
ENDBRANCH   6   7
ENDBRANCH   1   6
BRANCH   4  16
ATOM     16  C11 ZIN A   1      18.217   1.305   9.099  0.00  0.00    -0.002 A 
ATOM     17  C19 ZIN A   1      19.053   1.842   8.100  0.00  0.00     0.017 A 
ATOM     18  C18 ZIN A   1      19.180   1.194   6.899  0.00  0.00     0.037 A 
ATOM     19  C14 ZIN A   1      18.481   0.021   6.660  0.00  0.00     0.102 A 
ATOM     20  C13 ZIN A   1      17.651  -0.515   7.633  0.00  0.00     0.037 A 
ATOM     21  C12 ZIN A   1      17.511   0.112   8.845  0.00  0.00     0.017 A 
BRANCH  19  22
ATOM     22  N15 ZIN A   1      18.621  -0.665   5.356  0.00  0.00    -0.116 N 
ATOM     23  O16 ZIN A   1      17.562  -1.178   4.764  0.00  0.00    -0.532 OA
ATOM     24  O17 ZIN A   1      19.805  -0.764   4.788  0.00  0.00    -0.532 OA
ENDBRANCH  19  22
ENDBRANCH   4  16
TORSDOF 5
ENDMDL
MODEL 3
REMARK VINA RESULT:      -8.1      3.637      9.551
REMARK  5 active torsions:
REMARK  status: ('A' for Active; 'I' for Inactive)
REMARK    1  A    between atoms: N4_4  and  N5_5 
REMARK    2  A    between atoms: N5_5  and  C6_6 
REMARK    3  A    between atoms: C6_6  and  C7_7 
REMARK    4  A    between atoms: C10_10  and  C11_11 
REMARK    5  A    between atoms: C14_14  and  N15_15 
ROOT
ATOM      1  C7  ZIN A   1      19.087  -2.931  11.680  0.00  0.00     0.095 A 
ATOM      2  C8  ZIN A   1      17.888  -2.191  11.257  0.00  0.00     0.041 A 
ATOM      3  C9  ZIN A   1      17.587  -1.340  12.269  0.00  0.00     0.041 A 
ATOM      4  C10 ZIN A   1      18.552  -1.532  13.290  0.00  0.00     0.086 A 
ATOM      5  O20 ZIN A   1      19.421  -2.483  12.910  0.00  0.00    -0.308 OA
ENDROOT
BRANCH   1   6
ATOM      6  C6  ZIN A   1      19.748  -3.911  10.954  0.00  0.00     0.176 C 
BRANCH   6   7
ATOM      7  N5  ZIN A   1      19.101  -4.594  10.016  0.00  0.00    -0.178 NA
BRANCH   7   8
ATOM      8  N4  ZIN A   1      19.453  -4.485   8.780  0.00  0.00    -0.211 N 
ATOM      9  C3  ZIN A   1      19.090  -3.399   7.854  0.00  0.00     0.259 A 
ATOM     10  C2  ZIN A   1      19.774  -3.791   6.559  0.00  0.00     0.245 A 
ATOM     11  O1  ZIN A   1      19.754  -3.186   5.508  0.00  0.00    -0.271 OA
ATOM     12  N23 ZIN A   1      20.405  -4.952   6.818  0.00  0.00    -0.276 N 
ATOM     13  C21 ZIN A   1      20.223  -5.341   8.085  0.00  0.00     0.345 A 
ATOM     14  H33 ZIN A   1      20.932  -5.444   6.168  0.00  0.00     0.173 HD
ATOM     15  O22 ZIN A   1      20.697  -6.356   8.555  0.00  0.00    -0.245 OA
ENDBRANCH   7   8
ENDBRANCH   6   7
ENDBRANCH   1   6
BRANCH   4  16
ATOM     16  C11 ZIN A   1      18.591  -0.831  14.521  0.00  0.00    -0.002 A 
ATOM     17  C19 ZIN A   1      18.270  -1.491  15.723  0.00  0.00     0.017 A 
ATOM     18  C18 ZIN A   1      18.316  -0.805  16.909  0.00  0.00     0.037 A 
ATOM     19  C14 ZIN A   1      18.666   0.537  16.926  0.00  0.00     0.102 A 
ATOM     20  C13 ZIN A   1      18.979   1.198  15.749  0.00  0.00     0.037 A 
ATOM     21  C12 ZIN A   1      18.945   0.532  14.551  0.00  0.00     0.017 A 
BRANCH  19  22
ATOM     22  N15 ZIN A   1      18.706   1.268  18.213  0.00  0.00    -0.116 N 
ATOM     23  O16 ZIN A   1      19.853   1.722  18.677  0.00  0.00    -0.532 OA
ATOM     24  O17 ZIN A   1      17.597   1.466  18.893  0.00  0.00    -0.532 OA
ENDBRANCH  19  22
ENDBRANCH   4  16
TORSDOF 5
ENDMDL
MODEL 4
REMARK VINA RESULT:      -8.1      2.522      9.397
REMARK  5 active torsions:
REMARK  status: ('A' for Active; 'I' for Inactive)
REMARK    1  A    between atoms: N4_4  and  N5_5 
REMARK    2  A    between atoms: N5_5  and  C6_6 
REMARK    3  A    between atoms: C6_6  and  C7_7 
REMARK    4  A    between atoms: C10_10  and  C11_11 
REMARK    5  A    between atoms: C14_14  and  N15_15 
ROOT
ATOM      1  C7  ZIN A   1      19.350  -1.349  10.907  0.00  0.00     0.095 A 
ATOM      2  C8  ZIN A   1      18.806  -2.620  11.409  0.00  0.00     0.041 A 
ATOM      3  C9  ZIN A   1      18.604  -2.449  12.740  0.00  0.00     0.041 A 
ATOM      4  C10 ZIN A   1      19.003  -1.129  13.067  0.00  0.00     0.086 A 
ATOM      5  O20 ZIN A   1      19.443  -0.508  11.960  0.00  0.00    -0.308 OA
ENDROOT
BRANCH   1   6
ATOM      6  C6  ZIN A   1      19.707  -1.068   9.596  0.00  0.00     0.176 C 
BRANCH   6   7
ATOM      7  N5  ZIN A   1      18.886  -0.371   8.818  0.00  0.00    -0.178 NA
BRANCH   7   8
ATOM      8  N4  ZIN A   1      19.048  -0.379   7.538  0.00  0.00    -0.211 N 
ATOM      9  C3  ZIN A   1      19.285  -1.558   6.689  0.00  0.00     0.259 A 
ATOM     10  C2  ZIN A   1      19.396  -0.975   5.294  0.00  0.00     0.245 A 
ATOM     11  O1  ZIN A   1      19.594  -1.580   4.261  0.00  0.00    -0.271 OA
ATOM     12  N23 ZIN A   1      19.236   0.354   5.440  0.00  0.00    -0.276 N 
ATOM     13  C21 ZIN A   1      19.033   0.689   6.720  0.00  0.00     0.345 A 
ATOM     14  H33 ZIN A   1      19.259   0.991   4.709  0.00  0.00     0.173 HD
ATOM     15  O22 ZIN A   1      18.859   1.829   7.101  0.00  0.00    -0.245 OA
ENDBRANCH   7   8
ENDBRANCH   6   7
ENDBRANCH   1   6
BRANCH   4  16
ATOM     16  C11 ZIN A   1      18.949  -0.555  14.362  0.00  0.00    -0.002 A 
ATOM     17  C19 ZIN A   1      18.557  -1.335  15.467  0.00  0.00     0.017 A 
ATOM     18  C18 ZIN A   1      18.514  -0.770  16.716  0.00  0.00     0.037 A 
ATOM     19  C14 ZIN A   1      18.843   0.565  16.891  0.00  0.00     0.102 A 
ATOM     20  C13 ZIN A   1      19.227   1.344  15.809  0.00  0.00     0.037 A 
ATOM     21  C12 ZIN A   1      19.282   0.800  14.551  0.00  0.00     0.017 A 
BRANCH  19  22
ATOM     22  N15 ZIN A   1      18.787   1.164  18.243  0.00  0.00    -0.116 N 
ATOM     23  O16 ZIN A   1      19.765   1.942  18.661  0.00  0.00    -0.532 OA
ATOM     24  O17 ZIN A   1      17.760   0.920  19.030  0.00  0.00    -0.532 OA
ENDBRANCH  19  22
ENDBRANCH   4  16
TORSDOF 5
ENDMDL
MODEL 5
REMARK VINA RESULT:      -8.0      1.564      2.032
REMARK  5 active torsions:
REMARK  status: ('A' for Active; 'I' for Inactive)
REMARK    1  A    between atoms: N4_4  and  N5_5 
REMARK    2  A    between atoms: N5_5  and  C6_6 
REMARK    3  A    between atoms: C6_6  and  C7_7 
REMARK    4  A    between atoms: C10_10  and  C11_11 
REMARK    5  A    between atoms: C14_14  and  N15_15 
ROOT
ATOM      1  C7  ZIN A   1      18.024   2.648  11.831  0.00  0.00     0.095 A 
ATOM      2  C8  ZIN A   1      18.119   3.809  10.933  0.00  0.00     0.041 A 
ATOM      3  C9  ZIN A   1      18.384   3.314   9.697  0.00  0.00     0.041 A 
ATOM      4  C10 ZIN A   1      18.454   1.903   9.808  0.00  0.00     0.086 A 
ATOM      5  O20 ZIN A   1      18.241   1.543  11.085  0.00  0.00    -0.308 OA
ENDROOT
BRANCH   1   6
ATOM      6  C6  ZIN A   1      17.765   2.683  13.194  0.00  0.00     0.176 C 
BRANCH   6   7
ATOM      7  N5  ZIN A   1      18.706   2.319  14.059  0.00  0.00    -0.178 NA
BRANCH   7   8
ATOM      8  N4  ZIN A   1      18.758   1.102  14.482  0.00  0.00    -0.211 N 
ATOM      9  C3  ZIN A   1      17.882   0.483  15.491  0.00  0.00     0.259 A 
ATOM     10  C2  ZIN A   1      18.398  -0.939  15.587  0.00  0.00     0.245 A 
ATOM     11  O1  ZIN A   1      17.977  -1.825  16.300  0.00  0.00    -0.271 OA
ATOM     12  N23 ZIN A   1      19.425  -1.013  14.718  0.00  0.00    -0.276 N 
ATOM     13  C21 ZIN A   1      19.624   0.151  14.088  0.00  0.00     0.345 A 
ATOM     14  H33 ZIN A   1      19.953  -1.812  14.564  0.00  0.00     0.173 HD
ATOM     15  O22 ZIN A   1      20.490   0.329  13.256  0.00  0.00    -0.245 OA
ENDBRANCH   7   8
ENDBRANCH   6   7
ENDBRANCH   1   6
BRANCH   4  16
ATOM     16  C11 ZIN A   1      18.713   1.010   8.739  0.00  0.00    -0.002 A 
ATOM     17  C19 ZIN A   1      18.875   1.500   7.428  0.00  0.00     0.017 A 
ATOM     18  C18 ZIN A   1      19.131   0.628   6.403  0.00  0.00     0.037 A 
ATOM     19  C14 ZIN A   1      19.218  -0.734   6.649  0.00  0.00     0.102 A 
ATOM     20  C13 ZIN A   1      19.054  -1.229   7.934  0.00  0.00     0.037 A 
ATOM     21  C12 ZIN A   1      18.803  -0.376   8.977  0.00  0.00     0.017 A 
BRANCH  19  22
ATOM     22  N15 ZIN A   1      19.488  -1.667   5.531  0.00  0.00    -0.116 N 
ATOM     23  O16 ZIN A   1      19.578  -2.961   5.760  0.00  0.00    -0.532 OA
ATOM     24  O17 ZIN A   1      19.638  -1.203   4.308  0.00  0.00    -0.532 OA
ENDBRANCH  19  22
ENDBRANCH   4  16
TORSDOF 5
ENDMDL
MODEL 6
REMARK VINA RESULT:      -8.0      2.319      2.856
REMARK  5 active torsions:
REMARK  status: ('A' for Active; 'I' for Inactive)
REMARK    1  A    between atoms: N4_4  and  N5_5 
REMARK    2  A    between atoms: N5_5  and  C6_6 
REMARK    3  A    between atoms: C6_6  and  C7_7 
REMARK    4  A    between atoms: C10_10  and  C11_11 
REMARK    5  A    between atoms: C14_14  and  N15_15 
ROOT
ATOM      1  C7  ZIN A   1      18.899   3.416  11.556  0.00  0.00     0.095 A 
ATOM      2  C8  ZIN A   1      17.751   2.593  11.966  0.00  0.00     0.041 A 
ATOM      3  C9  ZIN A   1      17.599   1.645  11.007  0.00  0.00     0.041 A 
ATOM      4  C10 ZIN A   1      18.606   1.859  10.032  0.00  0.00     0.086 A 
ATOM      5  O20 ZIN A   1      19.354   2.917  10.386  0.00  0.00    -0.308 OA
ENDROOT
BRANCH   1   6
ATOM      6  C6  ZIN A   1      19.415   4.507  12.241  0.00  0.00     0.176 C 
BRANCH   6   7
ATOM      7  N5  ZIN A   1      18.778   4.987  13.304  0.00  0.00    -0.178 NA
BRANCH   7   8
ATOM      8  N4  ZIN A   1      19.241   4.768  14.487  0.00  0.00    -0.211 N 
ATOM      9  C3  ZIN A   1      18.977   3.590  15.332  0.00  0.00     0.259 A 
ATOM     10  C2  ZIN A   1      19.768   3.872  16.593  0.00  0.00     0.245 A 
ATOM     11  O1  ZIN A   1      19.850   3.169  17.578  0.00  0.00    -0.271 OA
ATOM     12  N23 ZIN A   1      20.358   5.067  16.394  0.00  0.00    -0.276 N 
ATOM     13  C21 ZIN A   1      20.058   5.571  15.192  0.00  0.00     0.345 A 
ATOM     14  H33 ZIN A   1      20.934   5.505  17.040  0.00  0.00     0.173 HD
ATOM     15  O22 ZIN A   1      20.475   6.636  14.783  0.00  0.00    -0.245 OA
ENDBRANCH   7   8
ENDBRANCH   6   7
ENDBRANCH   1   6
BRANCH   4  16
ATOM     16  C11 ZIN A   1      18.791   1.080   8.863  0.00  0.00    -0.002 A 
ATOM     17  C19 ZIN A   1      18.784  -0.327   8.939  0.00  0.00     0.017 A 
ATOM     18  C18 ZIN A   1      18.959  -1.070   7.801  0.00  0.00     0.037 A 
ATOM     19  C14 ZIN A   1      19.154  -0.443   6.580  0.00  0.00     0.102 A 
ATOM     20  C13 ZIN A   1      19.167   0.941   6.493  0.00  0.00     0.037 A 
ATOM     21  C12 ZIN A   1      18.989   1.706   7.617  0.00  0.00     0.017 A 
BRANCH  19  22
ATOM     22  N15 ZIN A   1      19.348  -1.258   5.359  0.00  0.00    -0.116 N 
ATOM     23  O16 ZIN A   1      19.681  -2.528   5.460  0.00  0.00    -0.532 OA
ATOM     24  O17 ZIN A   1      19.188  -0.713   4.171  0.00  0.00    -0.532 OA
ENDBRANCH  19  22
ENDBRANCH   4  16
TORSDOF 5
ENDMDL
MODEL 7
REMARK VINA RESULT:      -7.9      2.009      2.234
REMARK  5 active torsions:
REMARK  status: ('A' for Active; 'I' for Inactive)
REMARK    1  A    between atoms: N4_4  and  N5_5 
REMARK    2  A    between atoms: N5_5  and  C6_6 
REMARK    3  A    between atoms: C6_6  and  C7_7 
REMARK    4  A    between atoms: C10_10  and  C11_11 
REMARK    5  A    between atoms: C14_14  and  N15_15 
ROOT
ATOM      1  C7  ZIN A   1      18.422  -0.409  12.742  0.00  0.00     0.095 A 
ATOM      2  C8  ZIN A   1      17.166   0.298  12.449  0.00  0.00     0.041 A 
ATOM      3  C9  ZIN A   1      17.076   0.370  11.097  0.00  0.00     0.041 A 
ATOM      4  C10 ZIN A   1      18.224  -0.261  10.558  0.00  0.00     0.086 A 
ATOM      5  O20 ZIN A   1      19.001  -0.707  11.558  0.00  0.00    -0.308 OA
ENDROOT
BRANCH   1   6
ATOM      6  C6  ZIN A   1      18.923  -0.708  14.001  0.00  0.00     0.176 C 
BRANCH   6   7
ATOM      7  N5  ZIN A   1      18.149  -0.578  15.073  0.00  0.00    -0.178 NA
BRANCH   7   8
ATOM      8  N4  ZIN A   1      18.645  -0.136  16.178  0.00  0.00    -0.211 N 
ATOM      9  C3  ZIN A   1      18.648   1.262  16.644  0.00  0.00     0.259 A 
ATOM     10  C2  ZIN A   1      19.355   1.189  17.983  0.00  0.00     0.245 A 
ATOM     11  O1  ZIN A   1      19.589   2.109  18.738  0.00  0.00    -0.271 OA
ATOM     12  N23 ZIN A   1      19.672  -0.108  18.158  0.00  0.00    -0.276 N 
ATOM     13  C21 ZIN A   1      19.262  -0.860  17.129  0.00  0.00     0.345 A 
ATOM     14  H33 ZIN A   1      20.135  -0.457  18.935  0.00  0.00     0.173 HD
ATOM     15  O22 ZIN A   1      19.430  -2.060  17.060  0.00  0.00    -0.245 OA
ENDBRANCH   7   8
ENDBRANCH   6   7
ENDBRANCH   1   6
BRANCH   4  16
ATOM     16  C11 ZIN A   1      18.509  -0.399   9.176  0.00  0.00    -0.002 A 
ATOM     17  C19 ZIN A   1      18.947  -1.634   8.661  0.00  0.00     0.017 A 
ATOM     18  C18 ZIN A   1      19.214  -1.757   7.323  0.00  0.00     0.037 A 
ATOM     19  C14 ZIN A   1      19.067  -0.667   6.478  0.00  0.00     0.102 A 
ATOM     20  C13 ZIN A   1      18.641   0.556   6.974  0.00  0.00     0.037 A 
ATOM     21  C12 ZIN A   1      18.362   0.701   8.309  0.00  0.00     0.017 A 
BRANCH  19  22
ATOM     22  N15 ZIN A   1      19.365  -0.811   5.035  0.00  0.00    -0.116 N 
ATOM     23  O16 ZIN A   1      19.227   0.222   4.228  0.00  0.00    -0.532 OA
ATOM     24  O17 ZIN A   1      19.767  -1.970   4.558  0.00  0.00    -0.532 OA
ENDBRANCH  19  22
ENDBRANCH   4  16
TORSDOF 5
ENDMDL
MODEL 8
REMARK VINA RESULT:      -7.6      3.459      7.948
REMARK  5 active torsions:
REMARK  status: ('A' for Active; 'I' for Inactive)
REMARK    1  A    between atoms: N4_4  and  N5_5 
REMARK    2  A    between atoms: N5_5  and  C6_6 
REMARK    3  A    between atoms: C6_6  and  C7_7 
REMARK    4  A    between atoms: C10_10  and  C11_11 
REMARK    5  A    between atoms: C14_14  and  N15_15 
ROOT
ATOM      1  C7  ZIN A   1      19.218  -1.467   6.148  0.00  0.00     0.095 A 
ATOM      2  C8  ZIN A   1      19.327  -0.259   5.316  0.00  0.00     0.041 A 
ATOM      3  C9  ZIN A   1      19.073   0.793   6.135  0.00  0.00     0.041 A 
ATOM      4  C10 ZIN A   1      18.813   0.274   7.428  0.00  0.00     0.086 A 
ATOM      5  O20 ZIN A   1      18.903  -1.066   7.399  0.00  0.00    -0.308 OA
ENDROOT
BRANCH   1   6
ATOM      6  C6  ZIN A   1      19.399  -2.776   5.725  0.00  0.00     0.176 C 
BRANCH   6   7
ATOM      7  N5  ZIN A   1      20.173  -3.599   6.424  0.00  0.00    -0.178 NA
BRANCH   7   8
ATOM      8  N4  ZIN A   1      19.643  -4.443   7.243  0.00  0.00    -0.211 N 
ATOM      9  C3  ZIN A   1      18.252  -4.446   7.726  0.00  0.00     0.259 A 
ATOM     10  C2  ZIN A   1      18.198  -5.645   8.651  0.00  0.00     0.245 A 
ATOM     11  O1  ZIN A   1      17.240  -6.041   9.281  0.00  0.00    -0.271 OA
ATOM     12  N23 ZIN A   1      19.436  -6.176   8.631  0.00  0.00    -0.276 N 
ATOM     13  C21 ZIN A   1      20.254  -5.490   7.825  0.00  0.00     0.345 A 
ATOM     14  H33 ZIN A   1      19.701  -6.962   9.135  0.00  0.00     0.173 HD
ATOM     15  O22 ZIN A   1      21.419  -5.779   7.641  0.00  0.00    -0.245 OA
ENDBRANCH   7   8
ENDBRANCH   6   7
ENDBRANCH   1   6
BRANCH   4  16
ATOM     16  C11 ZIN A   1      18.503   1.049   8.573  0.00  0.00    -0.002 A 
ATOM     17  C19 ZIN A   1      17.793   0.477   9.647  0.00  0.00     0.017 A 
ATOM     18  C18 ZIN A   1      17.504   1.235  10.752  0.00  0.00     0.037 A 
ATOM     19  C14 ZIN A   1      17.896   2.563  10.810  0.00  0.00     0.102 A 
ATOM     20  C13 ZIN A   1      18.591   3.139   9.757  0.00  0.00     0.037 A 
ATOM     21  C12 ZIN A   1      18.897   2.400   8.644  0.00  0.00     0.017 A 
BRANCH  19  22
ATOM     22  N15 ZIN A   1      17.572   3.373  12.007  0.00  0.00    -0.116 N 
ATOM     23  O16 ZIN A   1      17.155   4.615  11.869  0.00  0.00    -0.532 OA
ATOM     24  O17 ZIN A   1      17.701   2.852  13.209  0.00  0.00    -0.532 OA
ENDBRANCH  19  22
ENDBRANCH   4  16
TORSDOF 5
ENDMDL
MODEL 9
REMARK VINA RESULT:      -7.5      1.520      2.243
REMARK  5 active torsions:
REMARK  status: ('A' for Active; 'I' for Inactive)
REMARK    1  A    between atoms: N4_4  and  N5_5 
REMARK    2  A    between atoms: N5_5  and  C6_6 
REMARK    3  A    between atoms: C6_6  and  C7_7 
REMARK    4  A    between atoms: C10_10  and  C11_11 
REMARK    5  A    between atoms: C14_14  and  N15_15 
ROOT
ATOM      1  C7  ZIN A   1      18.250   1.238  12.402  0.00  0.00     0.095 A 
ATOM      2  C8  ZIN A   1      17.023   0.429  12.374  0.00  0.00     0.041 A 
ATOM      3  C9  ZIN A   1      16.898  -0.031  11.103  0.00  0.00     0.041 A 
ATOM      4  C10 ZIN A   1      17.998   0.466  10.359  0.00  0.00     0.086 A 
ATOM      5  O20 ZIN A   1      18.775   1.217  11.158  0.00  0.00    -0.308 OA
ENDROOT
BRANCH   1   6
ATOM      6  C6  ZIN A   1      18.770   1.906  13.503  0.00  0.00     0.176 C 
BRANCH   6   7
ATOM      7  N5  ZIN A   1      18.024   2.078  14.589  0.00  0.00    -0.178 NA
BRANCH   7   8
ATOM      8  N4  ZIN A   1      18.467   1.706  15.742  0.00  0.00    -0.211 N 
ATOM      9  C3  ZIN A   1      18.478   0.335  16.280  0.00  0.00     0.259 A 
ATOM     10  C2  ZIN A   1      19.104   0.495  17.651  0.00  0.00     0.245 A 
ATOM     11  O1  ZIN A   1      19.316  -0.377  18.465  0.00  0.00    -0.271 OA
ATOM     12  N23 ZIN A   1      19.370   1.810  17.778  0.00  0.00    -0.276 N 
ATOM     13  C21 ZIN A   1      19.009   2.495  16.687  0.00  0.00     0.345 A 
ATOM     14  H33 ZIN A   1      19.777   2.211  18.563  0.00  0.00     0.173 HD
ATOM     15  O22 ZIN A   1      19.153   3.694  16.564  0.00  0.00    -0.245 OA
ENDBRANCH   7   8
ENDBRANCH   6   7
ENDBRANCH   1   6
BRANCH   4  16
ATOM     16  C11 ZIN A   1      18.238   0.214   8.986  0.00  0.00    -0.002 A 
ATOM     17  C19 ZIN A   1      18.815   1.208   8.172  0.00  0.00     0.017 A 
ATOM     18  C18 ZIN A   1      19.047   0.950   6.846  0.00  0.00     0.037 A 
ATOM     19  C14 ZIN A   1      18.707  -0.279   6.302  0.00  0.00     0.102 A 
ATOM     20  C13 ZIN A   1      18.133  -1.264   7.093  0.00  0.00     0.037 A 
ATOM     21  C12 ZIN A   1      17.896  -1.031   8.423  0.00  0.00     0.017 A 
BRANCH  19  22
ATOM     22  N15 ZIN A   1      18.957  -0.543   4.867  0.00  0.00    -0.116 N 
ATOM     23  O16 ZIN A   1      18.141  -0.055   3.956  0.00  0.00    -0.532 OA
ATOM     24  O17 ZIN A   1      19.996  -1.265   4.502  0.00  0.00    -0.532 OA
ENDBRANCH  19  22
ENDBRANCH   4  16
TORSDOF 5
ENDMDL
