MODEL 1
REMARK VINA RESULT:      -9.2      0.000      0.000
REMARK  8 active torsions:
REMARK  status: ('A' for Active; 'I' for Inactive)
REMARK    1  A    between atoms: C2_2  and  C3_3 
REMARK    2  A    between atoms: C3_3  and  C6_6 
REMARK    3  A    between atoms: C6_6  and  O8_8 
REMARK    4  A    between atoms: O8_8  and  C9_9 
REMARK    5  A    between atoms: C22_19  and  C24_20 
REMARK    6  A    between atoms: C24_20  and  C25_21 
REMARK    7  A    between atoms: C25_21  and  C26_22 
REMARK    8  A    between atoms: C29_24  and  O31_25 
ROOT
ATOM      1  C9  ZIN A   1      19.751   1.515  10.773  0.00  0.00     0.141 C 
ATOM      2  C11 ZIN A   1      19.117   0.851   9.552  0.00  0.00     0.041 C 
ATOM      3  C12 ZIN A   1      19.237   1.813   8.362  0.00  0.00     0.007 C 
ATOM      4  C14 ZIN A   1      18.636   1.169   7.112  0.00  0.00     0.014 C 
ATOM      5  C15 ZIN A   1      18.477   3.068   8.708  0.00  0.00    -0.015 C 
ATOM      6  C16 ZIN A   1      18.399   3.495   9.955  0.00  0.00    -0.055 C 
ATOM      7  C17 ZIN A   1      17.549   4.668  10.265  0.00  0.00     0.004 C 
ATOM      8  C18 ZIN A   1      17.197   4.912  11.515  0.00  0.00    -0.022 C 
ATOM      9  C19 ZIN A   1      17.617   4.075  12.685  0.00  0.00     0.009 C 
ATOM     10  C21 ZIN A   1      18.773   4.770  13.407  0.00  0.00     0.014 C 
ATOM     11  C22 ZIN A   1      18.072   2.680  12.247  0.00  0.00     0.004 C 
ATOM     12  C36 ZIN A   1      19.084   2.828  11.110  0.00  0.00     0.052 C 
ENDROOT
BRANCH  11  13
ATOM     13  C24 ZIN A   1      18.722   1.959  13.429  0.00  0.00     0.009 C 
BRANCH  13  14
ATOM     14  C25 ZIN A   1      17.637   1.486  14.398  0.00  0.00     0.033 C 
BRANCH  14  15
ATOM     15  C26 ZIN A   1      18.288   0.998  15.693  0.00  0.00     0.134 C 
ATOM     16  O35 ZIN A   1      18.425   2.112  16.619  0.00  0.00    -0.316 OA
ATOM     17  C33 ZIN A   1      18.851   1.791  17.859  0.00  0.00     0.261 C 
ATOM     18  C32 ZIN A   1      18.141   0.675  18.592  0.00  0.00     0.142 C 
ATOM     19  O34 ZIN A   1      19.777   2.379  18.368  0.00  0.00    -0.265 OA
ATOM     20  C29 ZIN A   1      18.038  -0.532  17.653  0.00  0.00     0.130 C 
ATOM     21  C28 ZIN A   1      17.410  -0.083  16.331  0.00  0.00     0.065 C 
BRANCH  20  22
ATOM     22  O31 ZIN A   1      19.343  -1.062  17.408  0.00  0.00    -0.395 OA
ATOM     23  H66 ZIN A   1      20.045  -0.630  17.915  0.00  0.00     0.210 HD
ENDBRANCH  20  22
ENDBRANCH  14  15
ENDBRANCH  13  14
ENDBRANCH  11  13
BRANCH   1  24
ATOM     24  O8  ZIN A   1      19.634   0.621  11.911  0.00  0.00    -0.315 OA
BRANCH  24  25
ATOM     25  C6  ZIN A   1      20.003  -0.656  11.722  0.00  0.00     0.267 C 
ATOM     26  O7  ZIN A   1      21.001  -0.909  11.090  0.00  0.00    -0.264 OA
BRANCH  25  27
ATOM     27  C3  ZIN A   1      19.173  -1.774  12.300  0.00  0.00     0.040 C 
ATOM     28  C4  ZIN A   1      17.694  -1.515  12.004  0.00  0.00     0.025 C 
ATOM     29  C5  ZIN A   1      19.387  -1.839  13.813  0.00  0.00     0.025 C 
BRANCH  27  30
ATOM     30  C2  ZIN A   1      19.594  -3.101  11.667  0.00  0.00     0.014 C 
ATOM     31  C1  ZIN A   1      18.424  -4.085  11.720  0.00  0.00     0.006 C 
ENDBRANCH  27  30
ENDBRANCH  25  27
ENDBRANCH  24  25
ENDBRANCH   1  24
TORSDOF 8
ENDMDL
MODEL 2
REMARK VINA RESULT:      -9.0      3.508      7.441
REMARK  8 active torsions:
REMARK  status: ('A' for Active; 'I' for Inactive)
REMARK    1  A    between atoms: C2_2  and  C3_3 
REMARK    2  A    between atoms: C3_3  and  C6_6 
REMARK    3  A    between atoms: C6_6  and  O8_8 
REMARK    4  A    between atoms: O8_8  and  C9_9 
REMARK    5  A    between atoms: C22_19  and  C24_20 
REMARK    6  A    between atoms: C24_20  and  C25_21 
REMARK    7  A    between atoms: C25_21  and  C26_22 
REMARK    8  A    between atoms: C29_24  and  O31_25 
ROOT
ATOM      1  C9  ZIN A   1      17.722   0.160   9.794  0.00  0.00     0.141 C 
ATOM      2  C11 ZIN A   1      18.758   0.878  10.657  0.00  0.00     0.041 C 
ATOM      3  C12 ZIN A   1      18.722   2.373  10.312  0.00  0.00     0.007 C 
ATOM      4  C14 ZIN A   1      19.730   3.130  11.180  0.00  0.00     0.014 C 
ATOM      5  C15 ZIN A   1      19.089   2.518   8.858  0.00  0.00    -0.015 C 
ATOM      6  C16 ZIN A   1      18.772   1.584   7.980  0.00  0.00    -0.055 C 
ATOM      7  C17 ZIN A   1      19.250   1.713   6.584  0.00  0.00     0.004 C 
ATOM      8  C18 ZIN A   1      19.231   0.662   5.783  0.00  0.00    -0.022 C 
ATOM      9  C19 ZIN A   1      18.733  -0.693   6.187  0.00  0.00     0.009 C 
ATOM     10  C21 ZIN A   1      17.316  -0.887   5.643  0.00  0.00     0.014 C 
ATOM     11  C22 ZIN A   1      18.708  -0.855   7.709  0.00  0.00     0.004 C 
ATOM     12  C36 ZIN A   1      17.991   0.350   8.319  0.00  0.00     0.052 C 
ENDROOT
BRANCH  11  13
ATOM     13  C24 ZIN A   1      17.965  -2.141   8.075  0.00  0.00     0.009 C 
BRANCH  13  14
ATOM     14  C25 ZIN A   1      18.774  -3.350   7.603  0.00  0.00     0.033 C 
BRANCH  14  15
ATOM     15  C26 ZIN A   1      17.857  -4.571   7.506  0.00  0.00     0.134 C 
ATOM     16  O35 ZIN A   1      18.662  -5.781   7.445  0.00  0.00    -0.316 OA
ATOM     17  C33 ZIN A   1      17.977  -6.943   7.505  0.00  0.00     0.261 C 
ATOM     18  C32 ZIN A   1      16.971  -7.120   8.620  0.00  0.00     0.142 C 
ATOM     19  O34 ZIN A   1      18.160  -7.814   6.688  0.00  0.00    -0.265 OA
ATOM     20  C29 ZIN A   1      16.071  -5.880   8.663  0.00  0.00     0.130 C 
ATOM     21  C28 ZIN A   1      16.951  -4.629   8.739  0.00  0.00     0.065 C 
BRANCH  20  22
ATOM     22  O31 ZIN A   1      15.266  -5.829   7.483  0.00  0.00    -0.395 OA
ATOM     23  H66 ZIN A   1      14.369  -6.173   7.603  0.00  0.00     0.210 HD
ENDBRANCH  20  22
ENDBRANCH  14  15
ENDBRANCH  13  14
ENDBRANCH  11  13
BRANCH   1  24
ATOM     24  O8  ZIN A   1      17.753  -1.259  10.100  0.00  0.00    -0.315 OA
BRANCH  24  25
ATOM     25  C6  ZIN A   1      17.531  -1.611  11.377  0.00  0.00     0.267 C 
ATOM     26  O7  ZIN A   1      16.592  -1.145  11.977  0.00  0.00    -0.264 OA
BRANCH  25  27
ATOM     27  C3  ZIN A   1      18.455  -2.586  12.061  0.00  0.00     0.040 C 
ATOM     28  C4  ZIN A   1      17.759  -3.941  12.192  0.00  0.00     0.025 C 
ATOM     29  C5  ZIN A   1      18.814  -2.059  13.452  0.00  0.00     0.025 C 
BRANCH  27  30
ATOM     30  C2  ZIN A   1      19.730  -2.746  11.231  0.00  0.00     0.014 C 
ATOM     31  C1  ZIN A   1      20.010  -4.234  11.010  0.00  0.00     0.006 C 
ENDBRANCH  27  30
ENDBRANCH  25  27
ENDBRANCH  24  25
ENDBRANCH   1  24
TORSDOF 8
ENDMDL
MODEL 3
REMARK VINA RESULT:      -8.8      3.364      7.175
REMARK  8 active torsions:
REMARK  status: ('A' for Active; 'I' for Inactive)
REMARK    1  A    between atoms: C2_2  and  C3_3 
REMARK    2  A    between atoms: C3_3  and  C6_6 
REMARK    3  A    between atoms: C6_6  and  O8_8 
REMARK    4  A    between atoms: O8_8  and  C9_9 
REMARK    5  A    between atoms: C22_19  and  C24_20 
REMARK    6  A    between atoms: C24_20  and  C25_21 
REMARK    7  A    between atoms: C25_21  and  C26_22 
REMARK    8  A    between atoms: C29_24  and  O31_25 
ROOT
ATOM      1  C9  ZIN A   1      17.798   0.226   9.847  0.00  0.00     0.141 C 
ATOM      2  C11 ZIN A   1      18.790   0.992  10.720  0.00  0.00     0.041 C 
ATOM      3  C12 ZIN A   1      18.665   2.487  10.395  0.00  0.00     0.007 C 
ATOM      4  C14 ZIN A   1      19.626   3.291  11.273  0.00  0.00     0.014 C 
ATOM      5  C15 ZIN A   1      19.022   2.673   8.942  0.00  0.00    -0.015 C 
ATOM      6  C16 ZIN A   1      18.761   1.734   8.052  0.00  0.00    -0.055 C 
ATOM      7  C17 ZIN A   1      19.229   1.909   6.658  0.00  0.00     0.004 C 
ATOM      8  C18 ZIN A   1      19.273   0.870   5.844  0.00  0.00    -0.022 C 
ATOM      9  C19 ZIN A   1      18.857  -0.518   6.229  0.00  0.00     0.009 C 
ATOM     10  C21 ZIN A   1      17.454  -0.788   5.682  0.00  0.00     0.014 C 
ATOM     11  C22 ZIN A   1      18.842  -0.701   7.749  0.00  0.00     0.004 C 
ATOM     12  C36 ZIN A   1      18.055   0.451   8.375  0.00  0.00     0.052 C 
ENDROOT
BRANCH  11  13
ATOM     13  C24 ZIN A   1      18.177  -2.034   8.098  0.00  0.00     0.009 C 
BRANCH  13  14
ATOM     14  C25 ZIN A   1      19.127  -3.183   7.755  0.00  0.00     0.033 C 
BRANCH  14  15
ATOM     15  C26 ZIN A   1      18.425  -4.518   8.013  0.00  0.00     0.134 C 
ATOM     16  O35 ZIN A   1      17.154  -4.278   8.680  0.00  0.00    -0.316 OA
ATOM     17  C33 ZIN A   1      16.364  -5.362   8.836  0.00  0.00     0.261 C 
ATOM     18  C32 ZIN A   1      16.087  -6.223   7.624  0.00  0.00     0.142 C 
ATOM     19  O34 ZIN A   1      15.892  -5.636   9.914  0.00  0.00    -0.265 OA
ATOM     20  C29 ZIN A   1      17.421  -6.538   6.938  0.00  0.00     0.130 C 
ATOM     21  C28 ZIN A   1      18.170  -5.227   6.680  0.00  0.00     0.065 C 
BRANCH  20  22
ATOM     22  O31 ZIN A   1      18.208  -7.381   7.783  0.00  0.00    -0.395 OA
ATOM     23  H66 ZIN A   1      17.772  -8.209   8.028  0.00  0.00     0.210 HD
ENDBRANCH  20  22
ENDBRANCH  14  15
ENDBRANCH  13  14
ENDBRANCH  11  13
BRANCH   1  24
ATOM     24  O8  ZIN A   1      17.914  -1.192  10.134  0.00  0.00    -0.315 OA
BRANCH  24  25
ATOM     25  C6  ZIN A   1      17.603  -1.588  11.379  0.00  0.00     0.267 C 
ATOM     26  O7  ZIN A   1      16.597  -1.182  11.909  0.00  0.00    -0.264 OA
BRANCH  25  27
ATOM     27  C3  ZIN A   1      18.512  -2.539  12.116  0.00  0.00     0.040 C 
ATOM     28  C4  ZIN A   1      17.855  -3.919  12.189  0.00  0.00     0.025 C 
ATOM     29  C5  ZIN A   1      18.759  -2.016  13.532  0.00  0.00     0.025 C 
BRANCH  27  30
ATOM     30  C2  ZIN A   1      19.845  -2.649  11.372  0.00  0.00     0.014 C 
ATOM     31  C1  ZIN A   1      20.244  -4.121  11.256  0.00  0.00     0.006 C 
ENDBRANCH  27  30
ENDBRANCH  25  27
ENDBRANCH  24  25
ENDBRANCH   1  24
TORSDOF 8
ENDMDL
MODEL 4
REMARK VINA RESULT:      -8.8      2.933      6.427
REMARK  8 active torsions:
REMARK  status: ('A' for Active; 'I' for Inactive)
REMARK    1  A    between atoms: C2_2  and  C3_3 
REMARK    2  A    between atoms: C3_3  and  C6_6 
REMARK    3  A    between atoms: C6_6  and  O8_8 
REMARK    4  A    between atoms: O8_8  and  C9_9 
REMARK    5  A    between atoms: C22_19  and  C24_20 
REMARK    6  A    between atoms: C24_20  and  C25_21 
REMARK    7  A    between atoms: C25_21  and  C26_22 
REMARK    8  A    between atoms: C29_24  and  O31_25 
ROOT
ATOM      1  C9  ZIN A   1      18.772   1.222  10.819  0.00  0.00     0.141 C 
ATOM      2  C11 ZIN A   1      17.766   2.296  10.410  0.00  0.00     0.041 C 
ATOM      3  C12 ZIN A   1      18.045   3.558  11.238  0.00  0.00     0.007 C 
ATOM      4  C14 ZIN A   1      17.072   4.668  10.835  0.00  0.00     0.014 C 
ATOM      5  C15 ZIN A   1      17.848   3.208  12.691  0.00  0.00    -0.015 C 
ATOM      6  C16 ZIN A   1      18.118   1.996  13.141  0.00  0.00    -0.055 C 
ATOM      7  C17 ZIN A   1      17.804   1.663  14.549  0.00  0.00     0.004 C 
ATOM      8  C18 ZIN A   1      17.755   0.399  14.929  0.00  0.00    -0.022 C 
ATOM      9  C19 ZIN A   1      18.015  -0.764  14.019  0.00  0.00     0.009 C 
ATOM     10  C21 ZIN A   1      19.438  -1.274  14.256  0.00  0.00     0.014 C 
ATOM     11  C22 ZIN A   1      17.866  -0.373  12.547  0.00  0.00     0.004 C 
ATOM     12  C36 ZIN A   1      18.681   0.896  12.291  0.00  0.00     0.052 C 
ENDROOT
BRANCH  11  13
ATOM     13  C24 ZIN A   1      18.382  -1.507  11.661  0.00  0.00     0.009 C 
BRANCH  13  14
ATOM     14  C25 ZIN A   1      17.531  -2.758  11.886  0.00  0.00     0.033 C 
BRANCH  14  15
ATOM     15  C26 ZIN A   1      17.490  -3.586  10.600  0.00  0.00     0.134 C 
ATOM     16  O35 ZIN A   1      18.848  -3.895  10.178  0.00  0.00    -0.316 OA
ATOM     17  C33 ZIN A   1      18.956  -4.745   9.135  0.00  0.00     0.261 C 
ATOM     18  C32 ZIN A   1      18.191  -6.048   9.195  0.00  0.00     0.142 C 
ATOM     19  O34 ZIN A   1      19.644  -4.472   8.180  0.00  0.00    -0.265 OA
ATOM     20  C29 ZIN A   1      16.739  -5.740   9.581  0.00  0.00     0.130 C 
ATOM     21  C28 ZIN A   1      16.732  -4.891  10.856  0.00  0.00     0.065 C 
BRANCH  20  22
ATOM     22  O31 ZIN A   1      16.104  -5.020   8.523  0.00  0.00    -0.395 OA
ATOM     23  H66 ZIN A   1      16.646  -4.930   7.727  0.00  0.00     0.210 HD
ENDBRANCH  20  22
ENDBRANCH  14  15
ENDBRANCH  13  14
ENDBRANCH  11  13
BRANCH   1  24
ATOM     24  O8  ZIN A   1      18.513   0.016  10.052  0.00  0.00    -0.315 OA
BRANCH  24  25
ATOM     25  C6  ZIN A   1      19.255  -0.176   8.950  0.00  0.00     0.267 C 
ATOM     26  O7  ZIN A   1      20.436  -0.410   9.050  0.00  0.00    -0.264 OA
BRANCH  25  27
ATOM     27  C3  ZIN A   1      18.614  -0.098   7.588  0.00  0.00     0.040 C 
ATOM     28  C4  ZIN A   1      18.952   1.247   6.942  0.00  0.00     0.025 C 
ATOM     29  C5  ZIN A   1      17.097  -0.230   7.730  0.00  0.00     0.025 C 
BRANCH  27  30
ATOM     30  C2  ZIN A   1      19.145  -1.233   6.710  0.00  0.00     0.014 C 
ATOM     31  C1  ZIN A   1      19.369  -0.715   5.287  0.00  0.00     0.006 C 
ENDBRANCH  27  30
ENDBRANCH  25  27
ENDBRANCH  24  25
ENDBRANCH   1  24
TORSDOF 8
ENDMDL
MODEL 5
REMARK VINA RESULT:      -8.6      2.706      6.977
REMARK  8 active torsions:
REMARK  status: ('A' for Active; 'I' for Inactive)
REMARK    1  A    between atoms: C2_2  and  C3_3 
REMARK    2  A    between atoms: C3_3  and  C6_6 
REMARK    3  A    between atoms: C6_6  and  O8_8 
REMARK    4  A    between atoms: O8_8  and  C9_9 
REMARK    5  A    between atoms: C22_19  and  C24_20 
REMARK    6  A    between atoms: C24_20  and  C25_21 
REMARK    7  A    between atoms: C25_21  and  C26_22 
REMARK    8  A    between atoms: C29_24  and  O31_25 
ROOT
ATOM      1  C9  ZIN A   1      17.797  -0.958  12.720  0.00  0.00     0.141 C 
ATOM      2  C11 ZIN A   1      18.568  -1.503  13.921  0.00  0.00     0.041 C 
ATOM      3  C12 ZIN A   1      18.082  -0.771  15.179  0.00  0.00     0.007 C 
ATOM      4  C14 ZIN A   1      18.814  -1.312  16.409  0.00  0.00     0.014 C 
ATOM      5  C15 ZIN A   1      18.387   0.694  15.005  0.00  0.00    -0.015 C 
ATOM      6  C16 ZIN A   1      18.367   1.256  13.810  0.00  0.00    -0.055 C 
ATOM      7  C17 ZIN A   1      18.783   2.671  13.670  0.00  0.00     0.004 C 
ATOM      8  C18 ZIN A   1      19.083   3.152  12.477  0.00  0.00    -0.022 C 
ATOM      9  C19 ZIN A   1      19.018   2.356  11.209  0.00  0.00     0.009 C 
ATOM     10  C21 ZIN A   1      17.726   2.703  10.467  0.00  0.00     0.014 C 
ATOM     11  C22 ZIN A   1      19.043   0.851  11.485  0.00  0.00     0.004 C 
ATOM     12  C36 ZIN A   1      17.995   0.529  12.552  0.00  0.00     0.052 C 
ENDROOT
BRANCH  11  13
ATOM     13  C24 ZIN A   1      18.724   0.088  10.199  0.00  0.00     0.009 C 
BRANCH  13  14
ATOM     14  C25 ZIN A   1      19.995  -0.053   9.360  0.00  0.00     0.033 C 
BRANCH  14  15
ATOM     15  C26 ZIN A   1      19.617  -0.214   7.886  0.00  0.00     0.134 C 
ATOM     16  O35 ZIN A   1      18.740  -1.365   7.732  0.00  0.00    -0.316 OA
ATOM     17  C33 ZIN A   1      18.213  -1.536   6.501  0.00  0.00     0.261 C 
ATOM     18  C32 ZIN A   1      17.533  -0.355   5.846  0.00  0.00     0.142 C 
ATOM     19  O34 ZIN A   1      18.284  -2.603   5.938  0.00  0.00    -0.265 OA
ATOM     20  C29 ZIN A   1      18.466   0.857   5.944  0.00  0.00     0.130 C 
ATOM     21  C28 ZIN A   1      18.889   1.043   7.404  0.00  0.00     0.065 C 
BRANCH  20  22
ATOM     22  O31 ZIN A   1      19.624   0.639   5.135  0.00  0.00    -0.395 OA
ATOM     23  H66 ZIN A   1      19.550  -0.119   4.538  0.00  0.00     0.210 HD
ENDBRANCH  20  22
ENDBRANCH  14  15
ENDBRANCH  13  14
ENDBRANCH  11  13
BRANCH   1  24
ATOM     24  O8  ZIN A   1      18.255  -1.634  11.519  0.00  0.00    -0.315 OA
BRANCH  24  25
ATOM     25  C6  ZIN A   1      17.884  -2.915  11.361  0.00  0.00     0.267 C 
ATOM     26  O7  ZIN A   1      16.721  -3.224  11.469  0.00  0.00    -0.264 OA
BRANCH  25  27
ATOM     27  C3  ZIN A   1      18.918  -3.966  11.051  0.00  0.00     0.040 C 
ATOM     28  C4  ZIN A   1      18.491  -5.299  11.668  0.00  0.00     0.025 C 
ATOM     29  C5  ZIN A   1      20.268  -3.542  11.635  0.00  0.00     0.025 C 
BRANCH  27  30
ATOM     30  C2  ZIN A   1      19.045  -4.124   9.535  0.00  0.00     0.014 C 
ATOM     31  C1  ZIN A   1      19.125  -5.610   9.182  0.00  0.00     0.006 C 
ENDBRANCH  27  30
ENDBRANCH  25  27
ENDBRANCH  24  25
ENDBRANCH   1  24
TORSDOF 8
ENDMDL
MODEL 6
REMARK VINA RESULT:      -8.5      1.665      4.976
REMARK  8 active torsions:
REMARK  status: ('A' for Active; 'I' for Inactive)
REMARK    1  A    between atoms: C2_2  and  C3_3 
REMARK    2  A    between atoms: C3_3  and  C6_6 
REMARK    3  A    between atoms: C6_6  and  O8_8 
REMARK    4  A    between atoms: O8_8  and  C9_9 
REMARK    5  A    between atoms: C22_19  and  C24_20 
REMARK    6  A    between atoms: C24_20  and  C25_21 
REMARK    7  A    between atoms: C25_21  and  C26_22 
REMARK    8  A    between atoms: C29_24  and  O31_25 
ROOT
ATOM      1  C9  ZIN A   1      18.031   0.293   9.435  0.00  0.00     0.141 C 
ATOM      2  C11 ZIN A   1      18.891   0.830   8.292  0.00  0.00     0.041 C 
ATOM      3  C12 ZIN A   1      18.332   0.285   6.970  0.00  0.00     0.007 C 
ATOM      4  C14 ZIN A   1      19.153   0.825   5.798  0.00  0.00     0.014 C 
ATOM      5  C15 ZIN A   1      18.431  -1.219   7.015  0.00  0.00    -0.015 C 
ATOM      6  C16 ZIN A   1      18.312  -1.875   8.154  0.00  0.00    -0.055 C 
ATOM      7  C17 ZIN A   1      18.528  -3.340   8.170  0.00  0.00     0.004 C 
ATOM      8  C18 ZIN A   1      18.738  -3.961   9.317  0.00  0.00    -0.022 C 
ATOM      9  C19 ZIN A   1      18.759  -3.278  10.651  0.00  0.00     0.009 C 
ATOM     10  C21 ZIN A   1      17.419  -3.507  11.351  0.00  0.00     0.014 C 
ATOM     11  C22 ZIN A   1      18.995  -1.772  10.510  0.00  0.00     0.004 C 
ATOM     12  C36 ZIN A   1      18.021  -1.217   9.470  0.00  0.00     0.052 C 
ENDROOT
BRANCH  11  13
ATOM     13  C24 ZIN A   1      18.760  -1.088  11.858  0.00  0.00     0.009 C 
BRANCH  13  14
ATOM     14  C25 ZIN A   1      19.979  -1.299  12.757  0.00  0.00     0.033 C 
BRANCH  14  15
ATOM     15  C26 ZIN A   1      19.664  -0.802  14.169  0.00  0.00     0.134 C 
ATOM     16  O35 ZIN A   1      19.382   0.625  14.131  0.00  0.00    -0.316 OA
ATOM     17  C33 ZIN A   1      18.944   1.165  15.288  0.00  0.00     0.261 C 
ATOM     18  C32 ZIN A   1      17.790   0.492  15.997  0.00  0.00     0.142 C 
ATOM     19  O34 ZIN A   1      19.461   2.157  15.745  0.00  0.00    -0.265 OA
ATOM     20  C29 ZIN A   1      18.093  -1.007  16.102  0.00  0.00     0.130 C 
ATOM     21  C28 ZIN A   1      18.438  -1.544  14.709  0.00  0.00     0.065 C 
BRANCH  20  22
ATOM     22  O31 ZIN A   1      19.201  -1.213  16.982  0.00  0.00    -0.395 OA
ATOM     23  H66 ZIN A   1      19.637  -0.396  17.263  0.00  0.00     0.210 HD
ENDBRANCH  20  22
ENDBRANCH  14  15
ENDBRANCH  13  14
ENDBRANCH  11  13
BRANCH   1  24
ATOM     24  O8  ZIN A   1      18.556   0.790  10.694  0.00  0.00    -0.315 OA
BRANCH  24  25
ATOM     25  C6  ZIN A   1      17.863   1.770  11.298  0.00  0.00     0.267 C 
ATOM     26  O7  ZIN A   1      16.772   1.540  11.762  0.00  0.00    -0.264 OA
BRANCH  25  27
ATOM     27  C3  ZIN A   1      18.447   3.156  11.395  0.00  0.00     0.040 C 
ATOM     28  C4  ZIN A   1      19.973   3.063  11.444  0.00  0.00     0.025 C 
ATOM     29  C5  ZIN A   1      17.936   3.837  12.666  0.00  0.00     0.025 C 
BRANCH  27  30
ATOM     30  C2  ZIN A   1      18.025   3.973  10.173  0.00  0.00     0.014 C 
ATOM     31  C1  ZIN A   1      17.030   5.054  10.601  0.00  0.00     0.006 C 
ENDBRANCH  27  30
ENDBRANCH  25  27
ENDBRANCH  24  25
ENDBRANCH   1  24
TORSDOF 8
ENDMDL
MODEL 7
REMARK VINA RESULT:      -8.5      2.394      6.309
REMARK  8 active torsions:
REMARK  status: ('A' for Active; 'I' for Inactive)
REMARK    1  A    between atoms: C2_2  and  C3_3 
REMARK    2  A    between atoms: C3_3  and  C6_6 
REMARK    3  A    between atoms: C6_6  and  O8_8 
REMARK    4  A    between atoms: O8_8  and  C9_9 
REMARK    5  A    between atoms: C22_19  and  C24_20 
REMARK    6  A    between atoms: C24_20  and  C25_21 
REMARK    7  A    between atoms: C25_21  and  C26_22 
REMARK    8  A    between atoms: C29_24  and  O31_25 
ROOT
ATOM      1  C9  ZIN A   1      17.462   1.494  11.823  0.00  0.00     0.141 C 
ATOM      2  C11 ZIN A   1      18.286   2.595  12.488  0.00  0.00     0.041 C 
ATOM      3  C12 ZIN A   1      17.992   3.919  11.769  0.00  0.00     0.007 C 
ATOM      4  C14 ZIN A   1      18.782   5.053  12.427  0.00  0.00     0.014 C 
ATOM      5  C15 ZIN A   1      18.419   3.766  10.331  0.00  0.00    -0.015 C 
ATOM      6  C16 ZIN A   1      18.340   2.599   9.719  0.00  0.00    -0.055 C 
ATOM      7  C17 ZIN A   1      18.874   2.467   8.344  0.00  0.00     0.004 C 
ATOM      8  C18 ZIN A   1      19.105   1.268   7.841  0.00  0.00    -0.022 C 
ATOM      9  C19 ZIN A   1      18.846  -0.015   8.572  0.00  0.00     0.009 C 
ATOM     10  C21 ZIN A   1      17.529  -0.615   8.076  0.00  0.00     0.014 C 
ATOM     11  C22 ZIN A   1      18.753   0.206  10.084  0.00  0.00     0.004 C 
ATOM     12  C36 ZIN A   1      17.784   1.359  10.354  0.00  0.00     0.052 C 
ENDROOT
BRANCH  11  13
ATOM     13  C24 ZIN A   1      18.244  -1.068  10.758  0.00  0.00     0.009 C 
BRANCH  13  14
ATOM     14  C25 ZIN A   1      19.301  -2.167  10.638  0.00  0.00     0.033 C 
BRANCH  14  15
ATOM     15  C26 ZIN A   1      18.710  -3.363   9.888  0.00  0.00     0.134 C 
ATOM     16  O35 ZIN A   1      19.604  -4.505  10.012  0.00  0.00    -0.316 OA
ATOM     17  C33 ZIN A   1      19.134  -5.670   9.520  0.00  0.00     0.261 C 
ATOM     18  C32 ZIN A   1      17.756  -6.122   9.949  0.00  0.00     0.142 C 
ATOM     19  O34 ZIN A   1      19.795  -6.332   8.755  0.00  0.00    -0.265 OA
ATOM     20  C29 ZIN A   1      16.784  -4.950   9.770  0.00  0.00     0.130 C 
ATOM     21  C28 ZIN A   1      17.348  -3.721  10.489  0.00  0.00     0.065 C 
BRANCH  20  22
ATOM     22  O31 ZIN A   1      16.630  -4.662   8.379  0.00  0.00    -0.395 OA
ATOM     23  H66 ZIN A   1      17.259  -4.010   8.040  0.00  0.00     0.210 HD
ENDBRANCH  20  22
ENDBRANCH  14  15
ENDBRANCH  13  14
ENDBRANCH  11  13
BRANCH   1  24
ATOM     24  O8  ZIN A   1      17.739   0.231  12.485  0.00  0.00    -0.315 OA
BRANCH  24  25
ATOM     25  C6  ZIN A   1      17.794   0.247  13.826  0.00  0.00     0.267 C 
ATOM     26  O7  ZIN A   1      16.802   0.496  14.469  0.00  0.00    -0.264 OA
BRANCH  25  27
ATOM     27  C3  ZIN A   1      19.094  -0.047  14.530  0.00  0.00     0.040 C 
ATOM     28  C4  ZIN A   1      19.262   0.909  15.712  0.00  0.00     0.025 C 
ATOM     29  C5  ZIN A   1      20.257   0.141  13.553  0.00  0.00     0.025 C 
BRANCH  27  30
ATOM     30  C2  ZIN A   1      19.083  -1.489  15.040  0.00  0.00     0.014 C 
ATOM     31  C1  ZIN A   1      18.834  -1.495  16.549  0.00  0.00     0.006 C 
ENDBRANCH  27  30
ENDBRANCH  25  27
ENDBRANCH  24  25
ENDBRANCH   1  24
TORSDOF 8
ENDMDL
MODEL 8
REMARK VINA RESULT:      -8.5      3.123      5.340
REMARK  8 active torsions:
REMARK  status: ('A' for Active; 'I' for Inactive)
REMARK    1  A    between atoms: C2_2  and  C3_3 
REMARK    2  A    between atoms: C3_3  and  C6_6 
REMARK    3  A    between atoms: C6_6  and  O8_8 
REMARK    4  A    between atoms: O8_8  and  C9_9 
REMARK    5  A    between atoms: C22_19  and  C24_20 
REMARK    6  A    between atoms: C24_20  and  C25_21 
REMARK    7  A    between atoms: C25_21  and  C26_22 
REMARK    8  A    between atoms: C29_24  and  O31_25 
ROOT
ATOM      1  C9  ZIN A   1      19.139  -3.313   7.364  0.00  0.00     0.141 C 
ATOM      2  C11 ZIN A   1      18.275  -3.886   6.242  0.00  0.00     0.041 C 
ATOM      3  C12 ZIN A   1      18.867  -3.438   4.899  0.00  0.00     0.007 C 
ATOM      4  C14 ZIN A   1      18.042  -4.018   3.748  0.00  0.00     0.014 C 
ATOM      5  C15 ZIN A   1      18.820  -1.932   4.855  0.00  0.00    -0.015 C 
ATOM      6  C16 ZIN A   1      18.948  -1.215   5.956  0.00  0.00    -0.055 C 
ATOM      7  C17 ZIN A   1      18.782   0.255   5.884  0.00  0.00     0.004 C 
ATOM      8  C18 ZIN A   1      18.581   0.948   6.990  0.00  0.00    -0.022 C 
ATOM      9  C19 ZIN A   1      18.520   0.345   8.361  0.00  0.00     0.009 C 
ATOM     10  C21 ZIN A   1      19.859   0.570   9.065  0.00  0.00     0.014 C 
ATOM     11  C22 ZIN A   1      18.234  -1.157   8.304  0.00  0.00     0.004 C 
ATOM     12  C36 ZIN A   1      19.201  -1.805   7.312  0.00  0.00     0.052 C 
ENDROOT
BRANCH  11  13
ATOM     13  C24 ZIN A   1      18.429  -1.769   9.692  0.00  0.00     0.009 C 
BRANCH  13  14
ATOM     14  C25 ZIN A   1      17.415  -1.164  10.665  0.00  0.00     0.033 C 
BRANCH  14  15
ATOM     15  C26 ZIN A   1      18.137  -0.702  11.932  0.00  0.00     0.134 C 
ATOM     16  O35 ZIN A   1      17.177  -0.104  12.848  0.00  0.00    -0.316 OA
ATOM     17  C33 ZIN A   1      17.656   0.215  14.069  0.00  0.00     0.261 C 
ATOM     18  C32 ZIN A   1      18.417  -0.844  14.835  0.00  0.00     0.142 C 
ATOM     19  O34 ZIN A   1      17.483   1.316  14.536  0.00  0.00    -0.265 OA
ATOM     20  C29 ZIN A   1      19.476  -1.448  13.906  0.00  0.00     0.130 C 
ATOM     21  C28 ZIN A   1      18.799  -1.905  12.610  0.00  0.00     0.065 C 
BRANCH  20  22
ATOM     22  O31 ZIN A   1      20.469  -0.465  13.606  0.00  0.00    -0.395 OA
ATOM     23  H66 ZIN A   1      21.056  -0.259  14.347  0.00  0.00     0.210 HD
ENDBRANCH  20  22
ENDBRANCH  14  15
ENDBRANCH  13  14
ENDBRANCH  11  13
BRANCH   1  24
ATOM     24  O8  ZIN A   1      18.583  -3.718   8.642  0.00  0.00    -0.315 OA
BRANCH  24  25
ATOM     25  C6  ZIN A   1      18.697  -5.015   8.973  0.00  0.00     0.267 C 
ATOM     26  O7  ZIN A   1      19.786  -5.536   9.004  0.00  0.00    -0.264 OA
BRANCH  25  27
ATOM     27  C3  ZIN A   1      17.466  -5.819   9.303  0.00  0.00     0.040 C 
ATOM     28  C4  ZIN A   1      17.465  -7.110   8.483  0.00  0.00     0.025 C 
ATOM     29  C5  ZIN A   1      16.217  -5.001   8.968  0.00  0.00     0.025 C 
BRANCH  27  30
ATOM     30  C2  ZIN A   1      17.467  -6.162  10.794  0.00  0.00     0.014 C 
ATOM     31  C1  ZIN A   1      16.991  -4.949  11.597  0.00  0.00     0.006 C 
ENDBRANCH  27  30
ENDBRANCH  25  27
ENDBRANCH  24  25
ENDBRANCH   1  24
TORSDOF 8
ENDMDL
MODEL 9
REMARK VINA RESULT:      -8.2      4.024      8.266
REMARK  8 active torsions:
REMARK  status: ('A' for Active; 'I' for Inactive)
REMARK    1  A    between atoms: C2_2  and  C3_3 
REMARK    2  A    between atoms: C3_3  and  C6_6 
REMARK    3  A    between atoms: C6_6  and  O8_8 
REMARK    4  A    between atoms: O8_8  and  C9_9 
REMARK    5  A    between atoms: C22_19  and  C24_20 
REMARK    6  A    between atoms: C24_20  and  C25_21 
REMARK    7  A    between atoms: C25_21  and  C26_22 
REMARK    8  A    between atoms: C29_24  and  O31_25 
ROOT
ATOM      1  C9  ZIN A   1      17.780  -1.033  10.245  0.00  0.00     0.141 C 
ATOM      2  C11 ZIN A   1      18.661  -0.661  11.436  0.00  0.00     0.041 C 
ATOM      3  C12 ZIN A   1      18.305   0.767  11.872  0.00  0.00     0.007 C 
ATOM      4  C14 ZIN A   1      19.150   1.166  13.084  0.00  0.00     0.014 C 
ATOM      5  C15 ZIN A   1      18.602   1.688  10.716  0.00  0.00    -0.015 C 
ATOM      6  C16 ZIN A   1      18.469   1.278   9.468  0.00  0.00    -0.055 C 
ATOM      7  C17 ZIN A   1      18.879   2.177   8.365  0.00  0.00     0.004 C 
ATOM      8  C18 ZIN A   1      19.064   1.686   7.152  0.00  0.00    -0.022 C 
ATOM      9  C19 ZIN A   1      18.870   0.245   6.790  0.00  0.00     0.009 C 
ATOM     10  C21 ZIN A   1      17.514   0.081   6.101  0.00  0.00     0.014 C 
ATOM     11  C22 ZIN A   1      18.912  -0.658   8.025  0.00  0.00     0.004 C 
ATOM     12  C36 ZIN A   1      17.971  -0.084   9.086  0.00  0.00     0.052 C 
ENDROOT
BRANCH  11  13
ATOM     13  C24 ZIN A   1      18.464  -2.070   7.644  0.00  0.00     0.009 C 
BRANCH  13  14
ATOM     14  C25 ZIN A   1      19.629  -2.817   6.992  0.00  0.00     0.033 C 
BRANCH  14  15
ATOM     15  C26 ZIN A   1      19.101  -3.687   5.850  0.00  0.00     0.134 C 
ATOM     16  O35 ZIN A   1      18.537  -4.914   6.393  0.00  0.00    -0.316 OA
ATOM     17  C33 ZIN A   1      17.903  -5.708   5.504  0.00  0.00     0.261 C 
ATOM     18  C32 ZIN A   1      16.857  -5.084   4.609  0.00  0.00     0.142 C 
ATOM     19  O34 ZIN A   1      18.167  -6.885   5.426  0.00  0.00    -0.265 OA
ATOM     20  C29 ZIN A   1      17.450  -3.819   3.978  0.00  0.00     0.130 C 
ATOM     21  C28 ZIN A   1      18.012  -2.926   5.088  0.00  0.00     0.065 C 
BRANCH  20  22
ATOM     22  O31 ZIN A   1      18.499  -4.179   3.077  0.00  0.00    -0.395 OA
ATOM     23  H66 ZIN A   1      19.004  -3.426   2.740  0.00  0.00     0.210 HD
ENDBRANCH  20  22
ENDBRANCH  14  15
ENDBRANCH  13  14
ENDBRANCH  11  13
BRANCH   1  24
ATOM     24  O8  ZIN A   1      18.115  -2.379   9.813  0.00  0.00    -0.315 OA
BRANCH  24  25
ATOM     25  C6  ZIN A   1      17.738  -3.387  10.616  0.00  0.00     0.267 C 
ATOM     26  O7  ZIN A   1      16.635  -3.388  11.108  0.00  0.00    -0.264 OA
BRANCH  25  27
ATOM     27  C3  ZIN A   1      18.693  -4.517  10.904  0.00  0.00     0.040 C 
ATOM     28  C4  ZIN A   1      18.070  -5.462  11.933  0.00  0.00     0.025 C 
ATOM     29  C5  ZIN A   1      20.002  -3.951  11.458  0.00  0.00     0.025 C 
BRANCH  27  30
ATOM     30  C2  ZIN A   1      18.976  -5.287   9.613  0.00  0.00     0.014 C 
ATOM     31  C1  ZIN A   1      17.855  -6.299   9.367  0.00  0.00     0.006 C 
ENDBRANCH  27  30
ENDBRANCH  25  27
ENDBRANCH  24  25
ENDBRANCH   1  24
TORSDOF 8
ENDMDL
