MODEL 1
REMARK VINA RESULT:      -7.6      0.000      0.000
REMARK  4 active torsions:
REMARK  status: ('A' for Active; 'I' for Inactive)
REMARK    1  A    between atoms: C6_6  and  N7_7 
REMARK    2  A    between atoms: C11_11  and  N13_12 
REMARK    3  A    between atoms: N18_17  and  C19_18 
REMARK    4  A    between atoms: C19_18  and  C20_19 
ROOT
ATOM      1  C20 ZIN A   1      18.573   4.590  14.299  0.00  0.00    -0.019 A 
ATOM      2  C21 ZIN A   1      17.281   4.422  13.849  0.00  0.00     0.010 A 
ATOM      3  C22 ZIN A   1      16.411   5.498  13.814  0.00  0.00     0.001 A 
ATOM      4  C23 ZIN A   1      16.832   6.749  14.228  0.00  0.00     0.002 A 
ATOM      5  C24 ZIN A   1      18.122   6.932  14.679  0.00  0.00     0.023 A 
ATOM      6  C25 ZIN A   1      19.003   5.849  14.725  0.00  0.00     0.052 A 
ATOM      7  C26 ZIN A   1      20.343   6.031  15.192  0.00  0.00     0.100 C 
ATOM      8  N27 ZIN A   1      21.407   6.176  15.564  0.00  0.00    -0.191 NA
ENDROOT
BRANCH   1   9
ATOM      9  C19 ZIN A   1      19.519   3.417  14.337  0.00  0.00     0.175 C 
BRANCH   9  10
ATOM     10  N18 ZIN A   1      18.858   2.278  14.980  0.00  0.00    -0.281 N 
ATOM     11  C6  ZIN A   1      18.492   1.188  14.228  0.00  0.00     0.115 A 
ATOM     12  C5  ZIN A   1      17.877   0.129  14.837  0.00  0.00     0.123 A 
ATOM     13  C3  ZIN A   1      17.634   0.185  16.218  0.00  0.00     0.254 A 
ATOM     14  N2  ZIN A   1      18.009   1.273  16.917  0.00  0.00    -0.271 N 
ATOM     15  O4  ZIN A   1      17.085  -0.747  16.782  0.00  0.00    -0.268 OA
ATOM     16  C1  ZIN A   1      17.757   1.333  18.359  0.00  0.00     0.164 C 
ATOM     17  C28 ZIN A   1      18.609   2.308  16.302  0.00  0.00     0.333 A 
ATOM     18  O29 ZIN A   1      18.941   3.281  16.952  0.00  0.00    -0.246 OA
BRANCH  11  19
ATOM     19  N7  ZIN A   1      18.742   1.162  12.880  0.00  0.00    -0.365 N 
ATOM     20  C17 ZIN A   1      20.090   0.871  12.374  0.00  0.00     0.157 C 
ATOM     21  C11 ZIN A   1      19.995  -0.288  11.370  0.00  0.00     0.201 C 
ATOM     22  C10 ZIN A   1      18.979   0.068  10.283  0.00  0.00     0.036 C 
ATOM     23  C9  ZIN A   1      17.601   0.270  10.917  0.00  0.00     0.022 C 
ATOM     24  C8  ZIN A   1      17.667   1.430  11.915  0.00  0.00     0.124 C 
BRANCH  21  25
ATOM     25  N13 ZIN A   1      21.311  -0.512  10.757  0.00  0.00    -0.073 N 
ATOM     26  H14 ZIN A   1      22.013  -0.575  11.479  0.00  0.00     0.274 HD
ATOM     27  H15 ZIN A   1      21.294  -1.372  10.229  0.00  0.00     0.274 HD
ATOM     28  H16 ZIN A   1      21.531   0.256  10.140  0.00  0.00     0.274 HD
ENDBRANCH  21  25
ENDBRANCH  11  19
ENDBRANCH   9  10
ENDBRANCH   1   9
TORSDOF 4
ENDMDL
MODEL 2
REMARK VINA RESULT:      -7.6      5.430      9.323
REMARK  4 active torsions:
REMARK  status: ('A' for Active; 'I' for Inactive)
REMARK    1  A    between atoms: C6_6  and  N7_7 
REMARK    2  A    between atoms: C11_11  and  N13_12 
REMARK    3  A    between atoms: N18_17  and  C19_18 
REMARK    4  A    between atoms: C19_18  and  C20_19 
ROOT
ATOM      1  C20 ZIN A   1      18.673  -4.122   9.068  0.00  0.00    -0.019 A 
ATOM      2  C21 ZIN A   1      17.603  -4.419   8.251  0.00  0.00     0.010 A 
ATOM      3  C22 ZIN A   1      16.543  -5.165   8.737  0.00  0.00     0.001 A 
ATOM      4  C23 ZIN A   1      16.548  -5.616  10.044  0.00  0.00     0.002 A 
ATOM      5  C24 ZIN A   1      17.612  -5.325  10.873  0.00  0.00     0.023 A 
ATOM      6  C25 ZIN A   1      18.688  -4.579  10.388  0.00  0.00     0.052 A 
ATOM      7  C26 ZIN A   1      19.795  -4.274  11.242  0.00  0.00     0.100 C 
ATOM      8  N27 ZIN A   1      20.674  -4.032  11.921  0.00  0.00    -0.191 NA
ENDROOT
BRANCH   1   9
ATOM      9  C19 ZIN A   1      19.827  -3.310   8.537  0.00  0.00     0.175 C 
BRANCH   9  10
ATOM     10  N18 ZIN A   1      19.312  -2.154   7.800  0.00  0.00    -0.281 N 
ATOM     11  C6  ZIN A   1      18.932  -1.023   8.483  0.00  0.00     0.115 A 
ATOM     12  C5  ZIN A   1      18.453   0.052   7.787  0.00  0.00     0.123 A 
ATOM     13  C3  ZIN A   1      18.362  -0.028   6.388  0.00  0.00     0.254 A 
ATOM     14  N2  ZIN A   1      18.745  -1.156   5.759  0.00  0.00    -0.271 N 
ATOM     15  O4  ZIN A   1      17.937   0.918   5.747  0.00  0.00    -0.268 OA
ATOM     16  C1  ZIN A   1      18.651  -1.241   4.300  0.00  0.00     0.164 C 
ATOM     17  C28 ZIN A   1      19.209  -2.206   6.460  0.00  0.00     0.333 A 
ATOM     18  O29 ZIN A   1      19.551  -3.215   5.872  0.00  0.00    -0.246 OA
BRANCH  11  19
ATOM     19  N7  ZIN A   1      19.032  -0.974   9.850  0.00  0.00    -0.365 N 
ATOM     20  C17 ZIN A   1      20.334  -0.770  10.498  0.00  0.00     0.157 C 
ATOM     21  C11 ZIN A   1      20.220   0.423  11.458  0.00  0.00     0.201 C 
ATOM     22  C10 ZIN A   1      19.065   0.179  12.432  0.00  0.00     0.036 C 
ATOM     23  C9  ZIN A   1      17.753   0.062  11.651  0.00  0.00     0.022 C 
ATOM     24  C8  ZIN A   1      17.840  -1.130  10.693  0.00  0.00     0.124 C 
BRANCH  21  25
ATOM     25  N13 ZIN A   1      21.473   0.568  12.211  0.00  0.00    -0.073 N 
ATOM     26  H14 ZIN A   1      21.670  -0.290  12.705  0.00  0.00     0.274 HD
ATOM     27  H15 ZIN A   1      22.228   0.768  11.573  0.00  0.00     0.274 HD
ATOM     28  H16 ZIN A   1      21.383   1.324  12.873  0.00  0.00     0.274 HD
ENDBRANCH  21  25
ENDBRANCH  11  19
ENDBRANCH   9  10
ENDBRANCH   1   9
TORSDOF 4
ENDMDL
MODEL 3
REMARK VINA RESULT:      -7.5      1.805      2.629
REMARK  4 active torsions:
REMARK  status: ('A' for Active; 'I' for Inactive)
REMARK    1  A    between atoms: C6_6  and  N7_7 
REMARK    2  A    between atoms: C11_11  and  N13_12 
REMARK    3  A    between atoms: N18_17  and  C19_18 
REMARK    4  A    between atoms: C19_18  and  C20_19 
ROOT
ATOM      1  C20 ZIN A   1      18.379   3.733  12.610  0.00  0.00    -0.019 A 
ATOM      2  C21 ZIN A   1      17.619   4.540  13.430  0.00  0.00     0.010 A 
ATOM      3  C22 ZIN A   1      16.596   5.306  12.896  0.00  0.00     0.001 A 
ATOM      4  C23 ZIN A   1      16.330   5.267  11.540  0.00  0.00     0.002 A 
ATOM      5  C24 ZIN A   1      17.082   4.463  10.708  0.00  0.00     0.023 A 
ATOM      6  C25 ZIN A   1      18.120   3.693  11.238  0.00  0.00     0.052 A 
ATOM      7  C26 ZIN A   1      18.905   2.858  10.382  0.00  0.00     0.100 C 
ATOM      8  N27 ZIN A   1      19.528   2.194   9.702  0.00  0.00    -0.191 NA
ENDROOT
BRANCH   1   9
ATOM      9  C19 ZIN A   1      19.492   2.900  13.192  0.00  0.00     0.175 C 
BRANCH   9  10
ATOM     10  N18 ZIN A   1      18.989   2.151  14.346  0.00  0.00    -0.281 N 
ATOM     11  C6  ZIN A   1      18.497   0.880  14.173  0.00  0.00     0.115 A 
ATOM     12  C5  ZIN A   1      18.029   0.188  15.255  0.00  0.00     0.123 A 
ATOM     13  C3  ZIN A   1      18.066   0.796  16.520  0.00  0.00     0.254 A 
ATOM     14  N2  ZIN A   1      18.558   2.044  16.646  0.00  0.00    -0.271 N 
ATOM     15  O4  ZIN A   1      17.654   0.198  17.500  0.00  0.00    -0.268 OA
ATOM     16  C1  ZIN A   1      18.597   2.680  17.964  0.00  0.00     0.164 C 
ATOM     17  C28 ZIN A   1      19.008   2.713  15.569  0.00  0.00     0.333 A 
ATOM     18  O29 ZIN A   1      19.449   3.838  15.704  0.00  0.00    -0.246 OA
BRANCH  11  19
ATOM     19  N7  ZIN A   1      18.472   0.312  12.925  0.00  0.00    -0.365 N 
ATOM     20  C17 ZIN A   1      19.704  -0.212  12.318  0.00  0.00     0.157 C 
ATOM     21  C11 ZIN A   1      19.458  -1.669  11.896  0.00  0.00     0.201 C 
ATOM     22  C10 ZIN A   1      18.232  -1.730  10.983  0.00  0.00     0.036 C 
ATOM     23  C9  ZIN A   1      17.000  -1.236  11.747  0.00  0.00     0.022 C 
ATOM     24  C8  ZIN A   1      17.217   0.220  12.168  0.00  0.00     0.124 C 
BRANCH  21  25
ATOM     25  N13 ZIN A   1      20.633  -2.173  11.173  0.00  0.00    -0.073 N 
ATOM     26  H14 ZIN A   1      21.268  -1.410  10.988  0.00  0.00     0.274 HD
ATOM     27  H15 ZIN A   1      21.100  -2.870  11.733  0.00  0.00     0.274 HD
ATOM     28  H16 ZIN A   1      20.340  -2.585  10.300  0.00  0.00     0.274 HD
ENDBRANCH  21  25
ENDBRANCH  11  19
ENDBRANCH   9  10
ENDBRANCH   1   9
TORSDOF 4
ENDMDL
MODEL 4
REMARK VINA RESULT:      -7.5      5.316      7.937
REMARK  4 active torsions:
REMARK  status: ('A' for Active; 'I' for Inactive)
REMARK    1  A    between atoms: C6_6  and  N7_7 
REMARK    2  A    between atoms: C11_11  and  N13_12 
REMARK    3  A    between atoms: N18_17  and  C19_18 
REMARK    4  A    between atoms: C19_18  and  C20_19 
ROOT
ATOM      1  C20 ZIN A   1      17.816   0.868   9.425  0.00  0.00    -0.019 A 
ATOM      2  C21 ZIN A   1      18.681   1.605   8.644  0.00  0.00     0.010 A 
ATOM      3  C22 ZIN A   1      19.465   2.592   9.216  0.00  0.00     0.001 A 
ATOM      4  C23 ZIN A   1      19.387   2.846  10.573  0.00  0.00     0.002 A 
ATOM      5  C24 ZIN A   1      18.527   2.115  11.367  0.00  0.00     0.023 A 
ATOM      6  C25 ZIN A   1      17.728   1.122  10.796  0.00  0.00     0.052 A 
ATOM      7  C26 ZIN A   1      16.833   0.361  11.613  0.00  0.00     0.100 C 
ATOM      8  N27 ZIN A   1      16.123  -0.244  12.262  0.00  0.00    -0.191 NA
ENDROOT
BRANCH   1   9
ATOM      9  C19 ZIN A   1      16.963  -0.207   8.801  0.00  0.00     0.175 C 
BRANCH   9  10
ATOM     10  N18 ZIN A   1      17.778  -1.006   7.883  0.00  0.00    -0.281 N 
ATOM     11  C6  ZIN A   1      18.519  -2.057   8.366  0.00  0.00     0.115 A 
ATOM     12  C5  ZIN A   1      19.276  -2.798   7.501  0.00  0.00     0.123 A 
ATOM     13  C3  ZIN A   1      19.277  -2.463   6.138  0.00  0.00     0.254 A 
ATOM     14  N2  ZIN A   1      18.536  -1.423   5.707  0.00  0.00    -0.271 N 
ATOM     15  O4  ZIN A   1      19.946  -3.108   5.349  0.00  0.00    -0.268 OA
ATOM     16  C1  ZIN A   1      18.535  -1.072   4.285  0.00  0.00     0.164 C 
ATOM     17  C28 ZIN A   1      17.801  -0.702   6.572  0.00  0.00     0.333 A 
ATOM     18  O29 ZIN A   1      17.138   0.232   6.162  0.00  0.00    -0.246 OA
BRANCH  11  19
ATOM     19  N7  ZIN A   1      18.499  -2.361   9.703  0.00  0.00    -0.365 N 
ATOM     20  C17 ZIN A   1      17.376  -3.110  10.283  0.00  0.00     0.157 C 
ATOM     21  C11 ZIN A   1      17.938  -4.328  11.032  0.00  0.00     0.201 C 
ATOM     22  C10 ZIN A   1      18.975  -3.859  12.054  0.00  0.00     0.036 C 
ATOM     23  C9  ZIN A   1      20.131  -3.165  11.329  0.00  0.00     0.022 C 
ATOM     24  C8  ZIN A   1      19.596  -1.938  10.583  0.00  0.00     0.124 C 
BRANCH  21  25
ATOM     25  N13 ZIN A   1      16.845  -5.022  11.727  0.00  0.00    -0.073 N 
ATOM     26  H14 ZIN A   1      17.046  -6.011  11.767  0.00  0.00     0.274 HD
ATOM     27  H15 ZIN A   1      16.757  -4.659  12.664  0.00  0.00     0.274 HD
ATOM     28  H16 ZIN A   1      15.981  -4.875  11.227  0.00  0.00     0.274 HD
ENDBRANCH  21  25
ENDBRANCH  11  19
ENDBRANCH   9  10
ENDBRANCH   1   9
TORSDOF 4
ENDMDL
MODEL 5
REMARK VINA RESULT:      -7.2      4.155      6.825
REMARK  4 active torsions:
REMARK  status: ('A' for Active; 'I' for Inactive)
REMARK    1  A    between atoms: C6_6  and  N7_7 
REMARK    2  A    between atoms: C11_11  and  N13_12 
REMARK    3  A    between atoms: N18_17  and  C19_18 
REMARK    4  A    between atoms: C19_18  and  C20_19 
ROOT
ATOM      1  C20 ZIN A   1      17.928   0.192   9.126  0.00  0.00    -0.019 A 
ATOM      2  C21 ZIN A   1      18.425  -0.383   7.976  0.00  0.00     0.010 A 
ATOM      3  C22 ZIN A   1      19.120   0.386   7.058  0.00  0.00     0.001 A 
ATOM      4  C23 ZIN A   1      19.321   1.735   7.289  0.00  0.00     0.002 A 
ATOM      5  C24 ZIN A   1      18.831   2.323   8.436  0.00  0.00     0.023 A 
ATOM      6  C25 ZIN A   1      18.123   1.555   9.363  0.00  0.00     0.052 A 
ATOM      7  C26 ZIN A   1      17.610   2.158  10.555  0.00  0.00     0.100 C 
ATOM      8  N27 ZIN A   1      17.203   2.637  11.502  0.00  0.00    -0.191 NA
ENDROOT
BRANCH   1   9
ATOM      9  C19 ZIN A   1      17.172  -0.647  10.124  0.00  0.00     0.175 C 
BRANCH   9  10
ATOM     10  N18 ZIN A   1      17.993  -1.792  10.522  0.00  0.00    -0.281 N 
ATOM     11  C6  ZIN A   1      18.759  -1.721  11.661  0.00  0.00     0.115 A 
ATOM     12  C5  ZIN A   1      19.522  -2.795  12.025  0.00  0.00     0.123 A 
ATOM     13  C3  ZIN A   1      19.505  -3.946  11.223  0.00  0.00     0.254 A 
ATOM     14  N2  ZIN A   1      18.740  -3.974  10.114  0.00  0.00    -0.271 N 
ATOM     15  O4  ZIN A   1      20.178  -4.916  11.527  0.00  0.00    -0.268 OA
ATOM     16  C1  ZIN A   1      18.719  -5.175   9.276  0.00  0.00     0.164 C 
ATOM     17  C28 ZIN A   1      17.998  -2.906   9.768  0.00  0.00     0.333 A 
ATOM     18  O29 ZIN A   1      17.314  -2.953   8.763  0.00  0.00    -0.246 OA
BRANCH  11  19
ATOM     19  N7  ZIN A   1      18.757  -0.582  12.425  0.00  0.00    -0.365 N 
ATOM     20  C17 ZIN A   1      17.636  -0.288  13.328  0.00  0.00     0.157 C 
ATOM     21  C11 ZIN A   1      18.197  -0.038  14.736  0.00  0.00     0.201 C 
ATOM     22  C10 ZIN A   1      19.255   1.065  14.670  0.00  0.00     0.036 C 
ATOM     23  C9  ZIN A   1      20.407   0.616  13.766  0.00  0.00     0.022 C 
ATOM     24  C8  ZIN A   1      19.873   0.370  12.351  0.00  0.00     0.124 C 
BRANCH  21  25
ATOM     25  N13 ZIN A   1      17.108   0.381  15.629  0.00  0.00    -0.073 N 
ATOM     26  H14 ZIN A   1      16.360  -0.295  15.588  0.00  0.00     0.274 HD
ATOM     27  H15 ZIN A   1      17.454   0.443  16.575  0.00  0.00     0.274 HD
ATOM     28  H16 ZIN A   1      16.763   1.283  15.338  0.00  0.00     0.274 HD
ENDBRANCH  21  25
ENDBRANCH  11  19
ENDBRANCH   9  10
ENDBRANCH   1   9
TORSDOF 4
ENDMDL
MODEL 6
REMARK VINA RESULT:      -7.0      5.407      8.425
REMARK  4 active torsions:
REMARK  status: ('A' for Active; 'I' for Inactive)
REMARK    1  A    between atoms: C6_6  and  N7_7 
REMARK    2  A    between atoms: C11_11  and  N13_12 
REMARK    3  A    between atoms: N18_17  and  C19_18 
REMARK    4  A    between atoms: C19_18  and  C20_19 
ROOT
ATOM      1  C20 ZIN A   1      18.747  -0.917  10.172  0.00  0.00    -0.019 A 
ATOM      2  C21 ZIN A   1      20.095  -1.043   9.911  0.00  0.00     0.010 A 
ATOM      3  C22 ZIN A   1      21.022  -0.436  10.741  0.00  0.00     0.001 A 
ATOM      4  C23 ZIN A   1      20.605   0.298  11.835  0.00  0.00     0.002 A 
ATOM      5  C24 ZIN A   1      19.259   0.431  12.109  0.00  0.00     0.023 A 
ATOM      6  C25 ZIN A   1      18.317  -0.172  11.273  0.00  0.00     0.052 A 
ATOM      7  C26 ZIN A   1      16.919  -0.038  11.550  0.00  0.00     0.100 C 
ATOM      8  N27 ZIN A   1      15.810   0.068  11.770  0.00  0.00    -0.191 NA
ENDROOT
BRANCH   1   9
ATOM      9  C19 ZIN A   1      17.737  -1.578   9.268  0.00  0.00     0.175 C 
BRANCH   9  10
ATOM     10  N18 ZIN A   1      18.287  -1.680   7.914  0.00  0.00    -0.281 N 
ATOM     11  C6  ZIN A   1      18.651  -2.908   7.415  0.00  0.00     0.115 A 
ATOM     12  C5  ZIN A   1      19.163  -2.993   6.151  0.00  0.00     0.123 A 
ATOM     13  C3  ZIN A   1      19.305  -1.820   5.392  0.00  0.00     0.254 A 
ATOM     14  N2  ZIN A   1      18.936  -0.637   5.920  0.00  0.00    -0.271 N 
ATOM     15  O4  ZIN A   1      19.760  -1.872   4.262  0.00  0.00    -0.268 OA
ATOM     16  C1  ZIN A   1      19.082   0.588   5.131  0.00  0.00     0.164 C 
ATOM     17  C28 ZIN A   1      18.439  -0.570   7.168  0.00  0.00     0.333 A 
ATOM     18  O29 ZIN A   1      18.111   0.508   7.626  0.00  0.00    -0.246 OA
BRANCH  11  19
ATOM     19  N7  ZIN A   1      18.502  -4.036   8.179  0.00  0.00    -0.365 N 
ATOM     20  C17 ZIN A   1      19.512  -4.399   9.183  0.00  0.00     0.157 C 
ATOM     21  C11 ZIN A   1      18.808  -4.596  10.534  0.00  0.00     0.201 C 
ATOM     22  C10 ZIN A   1      17.685  -5.623  10.374  0.00  0.00     0.036 C 
ATOM     23  C9  ZIN A   1      16.656  -5.102   9.367  0.00  0.00     0.022 C 
ATOM     24  C8  ZIN A   1      17.333  -4.909   8.006  0.00  0.00     0.124 C 
BRANCH  21  25
ATOM     25  N13 ZIN A   1      19.778  -5.082  11.525  0.00  0.00    -0.073 N 
ATOM     26  H14 ZIN A   1      20.091  -4.311  12.096  0.00  0.00     0.274 HD
ATOM     27  H15 ZIN A   1      19.341  -5.778  12.110  0.00  0.00     0.274 HD
ATOM     28  H16 ZIN A   1      20.568  -5.491  11.049  0.00  0.00     0.274 HD
ENDBRANCH  21  25
ENDBRANCH  11  19
ENDBRANCH   9  10
ENDBRANCH   1   9
TORSDOF 4
ENDMDL
MODEL 7
REMARK VINA RESULT:      -6.9      1.822      5.810
REMARK  4 active torsions:
REMARK  status: ('A' for Active; 'I' for Inactive)
REMARK    1  A    between atoms: C6_6  and  N7_7 
REMARK    2  A    between atoms: C11_11  and  N13_12 
REMARK    3  A    between atoms: N18_17  and  C19_18 
REMARK    4  A    between atoms: C19_18  and  C20_19 
ROOT
ATOM      1  C20 ZIN A   1      18.791   1.084  12.798  0.00  0.00    -0.019 A 
ATOM      2  C21 ZIN A   1      20.149   1.221  12.991  0.00  0.00     0.010 A 
ATOM      3  C22 ZIN A   1      21.039   0.556  12.166  0.00  0.00     0.001 A 
ATOM      4  C23 ZIN A   1      20.574  -0.250  11.142  0.00  0.00     0.002 A 
ATOM      5  C24 ZIN A   1      19.217  -0.395  10.937  0.00  0.00     0.023 A 
ATOM      6  C25 ZIN A   1      18.313   0.267  11.771  0.00  0.00     0.052 A 
ATOM      7  C26 ZIN A   1      16.904   0.120  11.564  0.00  0.00     0.100 C 
ATOM      8  N27 ZIN A   1      15.786   0.003  11.400  0.00  0.00    -0.191 NA
ENDROOT
BRANCH   1   9
ATOM      9  C19 ZIN A   1      17.823   1.808  13.698  0.00  0.00     0.175 C 
BRANCH   9  10
ATOM     10  N18 ZIN A   1      18.350   1.830  15.065  0.00  0.00    -0.281 N 
ATOM     11  C6  ZIN A   1      18.704   3.026  15.641  0.00  0.00     0.115 A 
ATOM     12  C5  ZIN A   1      19.195   3.037  16.917  0.00  0.00     0.123 A 
ATOM     13  C3  ZIN A   1      19.324   1.822  17.608  0.00  0.00     0.254 A 
ATOM     14  N2  ZIN A   1      18.964   0.672  17.006  0.00  0.00    -0.271 N 
ATOM     15  O4  ZIN A   1      19.760   1.808  18.747  0.00  0.00    -0.268 OA
ATOM     16  C1  ZIN A   1      19.096  -0.597  17.725  0.00  0.00     0.164 C 
ATOM     17  C28 ZIN A   1      18.488   0.679  15.747  0.00  0.00     0.333 A 
ATOM     18  O29 ZIN A   1      18.168  -0.371  15.222  0.00  0.00    -0.246 OA
BRANCH  11  19
ATOM     19  N7  ZIN A   1      18.568   4.198  14.942  0.00  0.00    -0.365 N 
ATOM     20  C17 ZIN A   1      17.266   4.872  14.858  0.00  0.00     0.157 C 
ATOM     21  C11 ZIN A   1      17.440   6.327  15.318  0.00  0.00     0.201 C 
ATOM     22  C10 ZIN A   1      18.544   6.990  14.492  0.00  0.00     0.036 C 
ATOM     23  C9  ZIN A   1      19.866   6.252  14.720  0.00  0.00     0.022 C 
ATOM     24  C8  ZIN A   1      19.721   4.799  14.257  0.00  0.00     0.124 C 
BRANCH  21  25
ATOM     25  N13 ZIN A   1      16.179   7.056  15.123  0.00  0.00    -0.073 N 
ATOM     26  H14 ZIN A   1      16.242   7.962  15.564  0.00  0.00     0.274 HD
ATOM     27  H15 ZIN A   1      16.008   7.175  14.136  0.00  0.00     0.274 HD
ATOM     28  H16 ZIN A   1      15.421   6.533  15.535  0.00  0.00     0.274 HD
ENDBRANCH  21  25
ENDBRANCH  11  19
ENDBRANCH   9  10
ENDBRANCH   1   9
TORSDOF 4
ENDMDL
MODEL 8
REMARK VINA RESULT:      -6.6      1.988      5.169
REMARK  4 active torsions:
REMARK  status: ('A' for Active; 'I' for Inactive)
REMARK    1  A    between atoms: C6_6  and  N7_7 
REMARK    2  A    between atoms: C11_11  and  N13_12 
REMARK    3  A    between atoms: N18_17  and  C19_18 
REMARK    4  A    between atoms: C19_18  and  C20_19 
ROOT
ATOM      1  C20 ZIN A   1      18.137  -0.326  13.482  0.00  0.00    -0.019 A 
ATOM      2  C21 ZIN A   1      19.145  -0.895  14.230  0.00  0.00     0.010 A 
ATOM      3  C22 ZIN A   1      19.886  -1.944  13.715  0.00  0.00     0.001 A 
ATOM      4  C23 ZIN A   1      19.622  -2.429  12.446  0.00  0.00     0.002 A 
ATOM      5  C24 ZIN A   1      18.617  -1.867  11.686  0.00  0.00     0.023 A 
ATOM      6  C25 ZIN A   1      17.860  -0.813  12.202  0.00  0.00     0.052 A 
ATOM      7  C26 ZIN A   1      16.815  -0.227  11.419  0.00  0.00     0.100 C 
ATOM      8  N27 ZIN A   1      15.986   0.238  10.798  0.00  0.00    -0.191 NA
ENDROOT
BRANCH   1   9
ATOM      9  C19 ZIN A   1      17.331   0.816  14.045  0.00  0.00     0.175 C 
BRANCH   9  10
ATOM     10  N18 ZIN A   1      17.961   1.300  15.276  0.00  0.00    -0.281 N 
ATOM     11  C6  ZIN A   1      18.689   2.465  15.258  0.00  0.00     0.115 A 
ATOM     12  C5  ZIN A   1      19.274   2.908  16.411  0.00  0.00     0.123 A 
ATOM     13  C3  ZIN A   1      19.115   2.159  17.588  0.00  0.00     0.254 A 
ATOM     14  N2  ZIN A   1      18.392   1.022  17.561  0.00  0.00    -0.271 N 
ATOM     15  O4  ZIN A   1      19.628   2.535  18.628  0.00  0.00    -0.268 OA
ATOM     16  C1  ZIN A   1      18.224   0.239  18.787  0.00  0.00     0.164 C 
ATOM     17  C28 ZIN A   1      17.828   0.597  16.415  0.00  0.00     0.333 A 
ATOM     18  O29 ZIN A   1      17.179  -0.431  16.413  0.00  0.00    -0.246 OA
BRANCH  11  19
ATOM     19  N7  ZIN A   1      18.829   3.175  14.093  0.00  0.00    -0.365 N 
ATOM     20  C17 ZIN A   1      19.785   2.745  13.064  0.00  0.00     0.157 C 
ATOM     21  C11 ZIN A   1      19.037   2.616  11.728  0.00  0.00     0.201 C 
ATOM     22  C10 ZIN A   1      18.331   3.936  11.416  0.00  0.00     0.036 C 
ATOM     23  C9  ZIN A   1      17.307   4.241  12.512  0.00  0.00     0.022 C 
ATOM     24  C8  ZIN A   1      18.031   4.385  13.854  0.00  0.00     0.124 C 
BRANCH  21  25
ATOM     25  N13 ZIN A   1      19.997   2.309  10.658  0.00  0.00    -0.073 N 
ATOM     26  H14 ZIN A   1      19.737   1.442  10.212  0.00  0.00     0.274 HD
ATOM     27  H15 ZIN A   1      19.990   3.053   9.977  0.00  0.00     0.274 HD
ATOM     28  H16 ZIN A   1      20.922   2.221  11.051  0.00  0.00     0.274 HD
ENDBRANCH  21  25
ENDBRANCH  11  19
ENDBRANCH   9  10
ENDBRANCH   1   9
TORSDOF 4
ENDMDL
MODEL 9
REMARK VINA RESULT:      -6.6      5.213      7.743
REMARK  4 active torsions:
REMARK  status: ('A' for Active; 'I' for Inactive)
REMARK    1  A    between atoms: C6_6  and  N7_7 
REMARK    2  A    between atoms: C11_11  and  N13_12 
REMARK    3  A    between atoms: N18_17  and  C19_18 
REMARK    4  A    between atoms: C19_18  and  C20_19 
ROOT
ATOM      1  C20 ZIN A   1      18.202  -0.754   8.984  0.00  0.00    -0.019 A 
ATOM      2  C21 ZIN A   1      18.852  -1.111   7.821  0.00  0.00     0.010 A 
ATOM      3  C22 ZIN A   1      19.360  -0.135   6.982  0.00  0.00     0.001 A 
ATOM      4  C23 ZIN A   1      19.221   1.203   7.302  0.00  0.00     0.002 A 
ATOM      5  C24 ZIN A   1      18.575   1.574   8.463  0.00  0.00     0.023 A 
ATOM      6  C25 ZIN A   1      18.053   0.595   9.311  0.00  0.00     0.052 A 
ATOM      7  C26 ZIN A   1      17.380   0.973  10.517  0.00  0.00     0.100 C 
ATOM      8  N27 ZIN A   1      16.846   1.273  11.474  0.00  0.00    -0.191 NA
ENDROOT
BRANCH   1   9
ATOM      9  C19 ZIN A   1      17.649  -1.818   9.897  0.00  0.00     0.175 C 
BRANCH   9  10
ATOM     10  N18 ZIN A   1      18.379  -3.070   9.688  0.00  0.00    -0.281 N 
ATOM     11  C6  ZIN A   1      19.376  -3.434  10.561  0.00  0.00     0.115 A 
ATOM     12  C5  ZIN A   1      20.052  -4.604  10.358  0.00  0.00     0.123 A 
ATOM     13  C3  ZIN A   1      19.710  -5.407   9.258  0.00  0.00     0.254 A 
ATOM     14  N2  ZIN A   1      18.727  -5.013   8.426  0.00  0.00    -0.271 N 
ATOM     15  O4  ZIN A   1      20.301  -6.454   9.057  0.00  0.00    -0.268 OA
ATOM     16  C1  ZIN A   1      18.367  -5.849   7.279  0.00  0.00     0.164 C 
ATOM     17  C28 ZIN A   1      18.075  -3.855   8.638  0.00  0.00     0.333 A 
ATOM     18  O29 ZIN A   1      17.189  -3.518   7.875  0.00  0.00    -0.246 OA
BRANCH  11  19
ATOM     19  N7  ZIN A   1      19.689  -2.629  11.626  0.00  0.00    -0.365 N 
ATOM     20  C17 ZIN A   1      20.812  -1.685  11.546  0.00  0.00     0.157 C 
ATOM     21  C11 ZIN A   1      20.300  -0.285  11.916  0.00  0.00     0.201 C 
ATOM     22  C10 ZIN A   1      19.623  -0.341  13.287  0.00  0.00     0.036 C 
ATOM     23  C9  ZIN A   1      18.425  -1.291  13.228  0.00  0.00     0.022 C 
ATOM     24  C8  ZIN A   1      18.913  -2.699  12.871  0.00  0.00     0.124 C 
BRANCH  21  25
ATOM     25  N13 ZIN A   1      21.430   0.652  11.965  0.00  0.00    -0.073 N 
ATOM     26  H14 ZIN A   1      21.364   1.216  12.801  0.00  0.00     0.274 HD
ATOM     27  H15 ZIN A   1      22.296   0.135  11.977  0.00  0.00     0.274 HD
ATOM     28  H16 ZIN A   1      21.407   1.251  11.154  0.00  0.00     0.274 HD
ENDBRANCH  21  25
ENDBRANCH  11  19
ENDBRANCH   9  10
ENDBRANCH   1   9
TORSDOF 4
ENDMDL
