MODEL 1
REMARK VINA RESULT:      -7.0      0.000      0.000
REMARK  3 active torsions:
REMARK  status: ('A' for Active; 'I' for Inactive)
REMARK    1  A    between atoms: C2_2  and  C4_3 
REMARK    2  A    between atoms: C2_2  and  N13_12 
REMARK    3  A    between atoms: C4_3  and  N5_4 
ROOT
ATOM      1  C1  ZIN A   1      17.481  -5.306  11.874  0.00  0.00     0.045 C 
ATOM      2  C2  ZIN A   1      18.260  -4.156  11.232  0.00  0.00     0.248 C 
ENDROOT
BRANCH   2   3
ATOM      3  C4  ZIN A   1      17.776  -3.951   9.795  0.00  0.00     0.308 C 
BRANCH   3   4
ATOM      4  N5  ZIN A   1      18.925  -3.990   8.882  0.00  0.00     0.108 N 
ATOM      5  C12 ZIN A   1      18.547  -3.523   7.539  0.00  0.00     0.375 C 
ATOM      6  C10 ZIN A   1      19.754  -3.568   6.639  0.00  0.00     0.252 C 
ATOM      7  N9  ZIN A   1      20.736  -4.463   6.851  0.00  0.00    -0.295 N 
ATOM      8  O11 ZIN A   1      19.844  -2.790   5.714  0.00  0.00    -0.271 OA
ATOM      9  C7  ZIN A   1      20.677  -5.335   7.873  0.00  0.00     0.252 C 
ATOM     10  H28 ZIN A   1      21.501  -4.479   6.257  0.00  0.00     0.171 HD
ATOM     11  C6  ZIN A   1      19.497  -5.343   8.810  0.00  0.00     0.375 C 
ATOM     12  O8  ZIN A   1      21.583  -6.123   8.042  0.00  0.00    -0.271 OA
ENDBRANCH   3   4
ENDBRANCH   2   3
BRANCH   2  13
ATOM     13  N13 ZIN A   1      18.038  -2.925  12.004  0.00  0.00     0.112 N 
ATOM     14  C20 ZIN A   1      17.376  -1.901  11.183  0.00  0.00     0.376 C 
ATOM     15  C18 ZIN A   1      17.159  -0.663  12.015  0.00  0.00     0.252 C 
ATOM     16  N17 ZIN A   1      17.990  -0.363  13.029  0.00  0.00    -0.295 N 
ATOM     17  O19 ZIN A   1      16.225   0.070  11.768  0.00  0.00    -0.271 OA
ATOM     18  C15 ZIN A   1      19.031  -1.157  13.337  0.00  0.00     0.252 C 
ATOM     19  H33 ZIN A   1      17.837   0.443  13.547  0.00  0.00     0.171 HD
ATOM     20  C14 ZIN A   1      19.304  -2.408  12.545  0.00  0.00     0.376 C 
ATOM     21  O16 ZIN A   1      19.757  -0.861  14.263  0.00  0.00    -0.271 OA
ENDBRANCH   2  13
TORSDOF 3
ENDMDL
MODEL 2
REMARK VINA RESULT:      -6.8      5.219      7.722
REMARK  3 active torsions:
REMARK  status: ('A' for Active; 'I' for Inactive)
REMARK    1  A    between atoms: C2_2  and  C4_3 
REMARK    2  A    between atoms: C2_2  and  N13_12 
REMARK    3  A    between atoms: C4_3  and  N5_4 
ROOT
ATOM      1  C1  ZIN A   1      16.589   5.388  13.319  0.00  0.00     0.045 C 
ATOM      2  C2  ZIN A   1      17.664   4.303  13.413  0.00  0.00     0.248 C 
ENDROOT
BRANCH   2   3
ATOM      3  C4  ZIN A   1      18.470   4.268  12.113  0.00  0.00     0.308 C 
BRANCH   3   4
ATOM      4  N5  ZIN A   1      18.001   3.157  11.276  0.00  0.00     0.108 N 
ATOM      5  C12 ZIN A   1      17.627   1.997  12.101  0.00  0.00     0.375 C 
ATOM      6  C10 ZIN A   1      17.142   0.887  11.207  0.00  0.00     0.252 C 
ATOM      7  N9  ZIN A   1      17.600   0.770   9.948  0.00  0.00    -0.295 N 
ATOM      8  O11 ZIN A   1      16.330   0.089  11.625  0.00  0.00    -0.271 OA
ATOM      9  C7  ZIN A   1      18.494   1.640   9.445  0.00  0.00     0.252 C 
ATOM     10  H28 ZIN A   1      17.280   0.044   9.390  0.00  0.00     0.171 HD
ATOM     11  C6  ZIN A   1      19.019   2.773  10.287  0.00  0.00     0.375 C 
ATOM     12  O8  ZIN A   1      18.880   1.511   8.303  0.00  0.00    -0.271 OA
ENDBRANCH   3   4
ENDBRANCH   2   3
BRANCH   2  13
ATOM     13  N13 ZIN A   1      18.560   4.599  14.538  0.00  0.00     0.112 N 
ATOM     14  C20 ZIN A   1      19.777   5.283  14.076  0.00  0.00     0.376 C 
ATOM     15  C18 ZIN A   1      20.662   5.577  15.261  0.00  0.00     0.252 C 
ATOM     16  N17 ZIN A   1      20.635   4.788  16.350  0.00  0.00    -0.295 N 
ATOM     17  O19 ZIN A   1      21.404   6.535  15.232  0.00  0.00    -0.271 OA
ATOM     18  C15 ZIN A   1      19.817   3.723  16.421  0.00  0.00     0.252 C 
ATOM     19  H33 ZIN A   1      21.217   4.992  17.098  0.00  0.00     0.171 HD
ATOM     20  C14 ZIN A   1      18.908   3.373  15.272  0.00  0.00     0.376 C 
ATOM     21  O16 ZIN A   1      19.812   3.037  17.421  0.00  0.00    -0.271 OA
ENDBRANCH   2  13
TORSDOF 3
ENDMDL
MODEL 3
REMARK VINA RESULT:      -6.8      5.065      9.181
REMARK  3 active torsions:
REMARK  status: ('A' for Active; 'I' for Inactive)
REMARK    1  A    between atoms: C2_2  and  C4_3 
REMARK    2  A    between atoms: C2_2  and  N13_12 
REMARK    3  A    between atoms: C4_3  and  N5_4 
ROOT
ATOM      1  C1  ZIN A   1      17.398   4.362  11.030  0.00  0.00     0.045 C 
ATOM      2  C2  ZIN A   1      18.636   3.842  11.762  0.00  0.00     0.248 C 
ENDROOT
BRANCH   2   3
ATOM      3  C4  ZIN A   1      18.223   3.269  13.120  0.00  0.00     0.308 C 
BRANCH   3   4
ATOM      4  N5  ZIN A   1      19.179   3.706  14.146  0.00  0.00     0.108 N 
ATOM      5  C12 ZIN A   1      18.742   3.285  15.486  0.00  0.00     0.375 C 
ATOM      6  C10 ZIN A   1      19.753   3.742  16.505  0.00  0.00     0.252 C 
ATOM      7  N9  ZIN A   1      20.493   4.845  16.291  0.00  0.00    -0.295 N 
ATOM      8  O11 ZIN A   1      19.903   3.110  17.529  0.00  0.00    -0.271 OA
ATOM      9  C7  ZIN A   1      20.362   5.567  15.164  0.00  0.00     0.252 C 
ATOM     10  H28 ZIN A   1      21.133   5.126  16.962  0.00  0.00     0.171 HD
ATOM     11  C6  ZIN A   1      19.369   5.164  14.105  0.00  0.00     0.375 C 
ATOM     12  O8  ZIN A   1      21.050   6.551  14.998  0.00  0.00    -0.271 OA
ENDBRANCH   3   4
ENDBRANCH   2   3
BRANCH   2  13
ATOM     13  N13 ZIN A   1      19.273   2.789  10.960  0.00  0.00     0.112 N 
ATOM     14  C20 ZIN A   1      18.651   2.690   9.632  0.00  0.00     0.376 C 
ATOM     15  C18 ZIN A   1      19.340   1.608   8.840  0.00  0.00     0.252 C 
ATOM     16  N17 ZIN A   1      19.908   0.559   9.462  0.00  0.00    -0.295 N 
ATOM     17  O19 ZIN A   1      19.384   1.684   7.631  0.00  0.00    -0.271 OA
ATOM     18  C15 ZIN A   1      19.887   0.446  10.802  0.00  0.00     0.252 C 
ATOM     19  H33 ZIN A   1      20.340  -0.129   8.933  0.00  0.00     0.171 HD
ATOM     20  C14 ZIN A   1      19.214   1.492  11.651  0.00  0.00     0.376 C 
ATOM     21  O16 ZIN A   1      20.415  -0.509  11.331  0.00  0.00    -0.271 OA
ENDBRANCH   2  13
TORSDOF 3
ENDMDL
MODEL 4
REMARK VINA RESULT:      -6.7      5.479      8.298
REMARK  3 active torsions:
REMARK  status: ('A' for Active; 'I' for Inactive)
REMARK    1  A    between atoms: C2_2  and  C4_3 
REMARK    2  A    between atoms: C2_2  and  N13_12 
REMARK    3  A    between atoms: C4_3  and  N5_4 
ROOT
ATOM      1  C1  ZIN A   1      20.324   0.382  12.982  0.00  0.00     0.045 C 
ATOM      2  C2  ZIN A   1      18.996   1.138  12.900  0.00  0.00     0.248 C 
ENDROOT
BRANCH   2   3
ATOM      3  C4  ZIN A   1      18.838   2.028  14.136  0.00  0.00     0.308 C 
BRANCH   3   4
ATOM      4  N5  ZIN A   1      18.864   1.195  15.344  0.00  0.00     0.108 N 
ATOM      5  C12 ZIN A   1      17.592   0.475  15.515  0.00  0.00     0.375 C 
ATOM      6  C10 ZIN A   1      17.665  -0.374  16.757  0.00  0.00     0.252 C 
ATOM      7  N9  ZIN A   1      18.443  -0.011  17.792  0.00  0.00    -0.295 N 
ATOM      8  O11 ZIN A   1      17.016  -1.396  16.826  0.00  0.00    -0.271 OA
ATOM      9  C7  ZIN A   1      19.184   1.110  17.750  0.00  0.00     0.252 C 
ATOM     10  H28 ZIN A   1      18.471  -0.568  18.585  0.00  0.00     0.171 HD
ATOM     11  C6  ZIN A   1      19.157   2.004  16.537  0.00  0.00     0.375 C 
ATOM     12  O8  ZIN A   1      19.882   1.404  18.697  0.00  0.00    -0.271 OA
ENDBRANCH   3   4
ENDBRANCH   2   3
BRANCH   2  13
ATOM     13  N13 ZIN A   1      18.982   1.972  11.691  0.00  0.00     0.112 N 
ATOM     14  C20 ZIN A   1      17.770   2.803  11.638  0.00  0.00     0.376 C 
ATOM     15  C18 ZIN A   1      17.802   3.648  10.390  0.00  0.00     0.252 C 
ATOM     16  N17 ZIN A   1      18.445   3.221   9.289  0.00  0.00    -0.295 N 
ATOM     17  O19 ZIN A   1      17.244   4.724  10.379  0.00  0.00    -0.271 OA
ATOM     18  C15 ZIN A   1      19.084   2.038   9.267  0.00  0.00     0.252 C 
ATOM     19  H33 ZIN A   1      18.447   3.777   8.494  0.00  0.00     0.171 HD
ATOM     20  C14 ZIN A   1      19.090   1.145  10.480  0.00  0.00     0.376 C 
ATOM     21  O16 ZIN A   1      19.660   1.687   8.259  0.00  0.00    -0.271 OA
ENDBRANCH   2  13
TORSDOF 3
ENDMDL
MODEL 5
REMARK VINA RESULT:      -6.7      4.871      7.479
REMARK  3 active torsions:
REMARK  status: ('A' for Active; 'I' for Inactive)
REMARK    1  A    between atoms: C2_2  and  C4_3 
REMARK    2  A    between atoms: C2_2  and  N13_12 
REMARK    3  A    between atoms: C4_3  and  N5_4 
ROOT
ATOM      1  C1  ZIN A   1      17.417   5.378  13.000  0.00  0.00     0.045 C 
ATOM      2  C2  ZIN A   1      18.205   4.070  13.088  0.00  0.00     0.248 C 
ENDROOT
BRANCH   2   3
ATOM      3  C4  ZIN A   1      18.890   3.795  11.747  0.00  0.00     0.308 C 
BRANCH   3   4
ATOM      4  N5  ZIN A   1      18.666   2.396  11.361  0.00  0.00     0.108 N 
ATOM      5  C12 ZIN A   1      17.471   1.852  12.024  0.00  0.00     0.375 C 
ATOM      6  C10 ZIN A   1      17.271   0.422  11.593  0.00  0.00     0.252 C 
ATOM      7  N9  ZIN A   1      18.321  -0.340  11.238  0.00  0.00    -0.295 N 
ATOM      8  O11 ZIN A   1      16.154  -0.047  11.564  0.00  0.00    -0.271 OA
ATOM      9  C7  ZIN A   1      19.574   0.147  11.248  0.00  0.00     0.252 C 
ATOM     10  H28 ZIN A   1      18.172  -1.260  10.970  0.00  0.00     0.171 HD
ATOM     11  C6  ZIN A   1      19.842   1.569  11.668  0.00  0.00     0.375 C 
ATOM     12  O8  ZIN A   1      20.497  -0.564  10.914  0.00  0.00    -0.271 OA
ENDBRANCH   3   4
ENDBRANCH   2   3
BRANCH   2  13
ATOM     13  N13 ZIN A   1      19.221   4.181  14.143  0.00  0.00     0.112 N 
ATOM     14  C20 ZIN A   1      18.702   3.690  15.428  0.00  0.00     0.376 C 
ATOM     15  C18 ZIN A   1      19.778   3.812  16.477  0.00  0.00     0.252 C 
ATOM     16  N17 ZIN A   1      20.720   4.767  16.386  0.00  0.00    -0.295 N 
ATOM     17  O19 ZIN A   1      19.795   3.040  17.412  0.00  0.00    -0.271 OA
ATOM     18  C15 ZIN A   1      20.738   5.635  15.359  0.00  0.00     0.252 C 
ATOM     19  H33 ZIN A   1      21.398   4.832  17.076  0.00  0.00     0.171 HD
ATOM     20  C14 ZIN A   1      19.692   5.567  14.277  0.00  0.00     0.376 C 
ATOM     21  O16 ZIN A   1      21.607   6.479  15.303  0.00  0.00    -0.271 OA
ENDBRANCH   2  13
TORSDOF 3
ENDMDL
MODEL 6
REMARK VINA RESULT:      -6.7      1.360      6.312
REMARK  3 active torsions:
REMARK  status: ('A' for Active; 'I' for Inactive)
REMARK    1  A    between atoms: C2_2  and  C4_3 
REMARK    2  A    between atoms: C2_2  and  N13_12 
REMARK    3  A    between atoms: C4_3  and  N5_4 
ROOT
ATOM      1  C1  ZIN A   1      17.102  -5.700  10.521  0.00  0.00     0.045 C 
ATOM      2  C2  ZIN A   1      17.540  -4.390   9.863  0.00  0.00     0.248 C 
ENDROOT
BRANCH   2   3
ATOM      3  C4  ZIN A   1      18.725  -3.802  10.633  0.00  0.00     0.308 C 
BRANCH   3   4
ATOM      4  N5  ZIN A   1      18.236  -2.820  11.609  0.00  0.00     0.108 N 
ATOM      5  C12 ZIN A   1      17.609  -1.673  10.933  0.00  0.00     0.375 C 
ATOM      6  C10 ZIN A   1      17.112  -0.698  11.968  0.00  0.00     0.252 C 
ATOM      7  N9  ZIN A   1      17.718  -0.599  13.165  0.00  0.00    -0.295 N 
ATOM      8  O11 ZIN A   1      16.155   0.005  11.721  0.00  0.00    -0.271 OA
ATOM      9  C7  ZIN A   1      18.775  -1.368  13.479  0.00  0.00     0.252 C 
ATOM     10  H28 ZIN A   1      17.386   0.039  13.814  0.00  0.00     0.171 HD
ATOM     11  C6  ZIN A   1      19.322  -2.364  12.489  0.00  0.00     0.375 C 
ATOM     12  O8  ZIN A   1      19.293  -1.260  14.570  0.00  0.00    -0.271 OA
ENDBRANCH   3   4
ENDBRANCH   2   3
BRANCH   2  13
ATOM     13  N13 ZIN A   1      17.938  -4.649   8.473  0.00  0.00     0.112 N 
ATOM     14  C20 ZIN A   1      18.160  -6.085   8.248  0.00  0.00     0.376 C 
ATOM     15  C18 ZIN A   1      18.555  -6.307   6.811  0.00  0.00     0.252 C 
ATOM     16  N17 ZIN A   1      19.203  -5.351   6.122  0.00  0.00    -0.295 N 
ATOM     17  O19 ZIN A   1      18.287  -7.358   6.270  0.00  0.00    -0.271 OA
ATOM     18  C15 ZIN A   1      19.510  -4.169   6.686  0.00  0.00     0.252 C 
ATOM     19  H33 ZIN A   1      19.455  -5.517   5.200  0.00  0.00     0.171 HD
ATOM     20  C14 ZIN A   1      19.143  -3.884   8.119  0.00  0.00     0.376 C 
ATOM     21  O16 ZIN A   1      20.087  -3.326   6.034  0.00  0.00    -0.271 OA
ENDBRANCH   2  13
TORSDOF 3
ENDMDL
MODEL 7
REMARK VINA RESULT:      -6.6      1.404      2.724
REMARK  3 active torsions:
REMARK  status: ('A' for Active; 'I' for Inactive)
REMARK    1  A    between atoms: C2_2  and  C4_3 
REMARK    2  A    between atoms: C2_2  and  N13_12 
REMARK    3  A    between atoms: C4_3  and  N5_4 
ROOT
ATOM      1  C1  ZIN A   1      19.701  -4.394  11.344  0.00  0.00     0.045 C 
ATOM      2  C2  ZIN A   1      19.149  -3.372  10.349  0.00  0.00     0.248 C 
ENDROOT
BRANCH   2   3
ATOM      3  C4  ZIN A   1      17.868  -3.918   9.714  0.00  0.00     0.308 C 
BRANCH   3   4
ATOM      4  N5  ZIN A   1      18.120  -4.242   8.304  0.00  0.00     0.108 N 
ATOM      5  C12 ZIN A   1      18.461  -5.665   8.143  0.00  0.00     0.375 C 
ATOM      6  C10 ZIN A   1      18.700  -5.956   6.685  0.00  0.00     0.252 C 
ATOM      7  N9  ZIN A   1      19.158  -4.998   5.860  0.00  0.00    -0.295 N 
ATOM      8  O11 ZIN A   1      18.479  -7.066   6.250  0.00  0.00    -0.271 OA
ATOM      9  C7  ZIN A   1      19.407  -3.753   6.303  0.00  0.00     0.252 C 
ATOM     10  H28 ZIN A   1      19.311  -5.208   4.926  0.00  0.00     0.171 HD
ATOM     11  C6  ZIN A   1      19.188  -3.395   7.750  0.00  0.00     0.375 C 
ATOM     12  O8  ZIN A   1      19.810  -2.910   5.531  0.00  0.00    -0.271 OA
ENDBRANCH   3   4
ENDBRANCH   2   3
BRANCH   2  13
ATOM     13  N13 ZIN A   1      18.851  -2.117  11.051  0.00  0.00     0.112 N 
ATOM     14  C20 ZIN A   1      19.459  -2.104  12.389  0.00  0.00     0.376 C 
ATOM     15  C18 ZIN A   1      19.139  -0.798  13.068  0.00  0.00     0.252 C 
ATOM     16  N17 ZIN A   1      18.010  -0.129  12.773  0.00  0.00    -0.295 N 
ATOM     17  O19 ZIN A   1      19.907  -0.343  13.889  0.00  0.00    -0.271 OA
ATOM     18  C15 ZIN A   1      17.139  -0.598  11.861  0.00  0.00     0.252 C 
ATOM     19  H33 ZIN A   1      17.819   0.706  13.226  0.00  0.00     0.171 HD
ATOM     20  C14 ZIN A   1      17.400  -1.898  11.146  0.00  0.00     0.376 C 
ATOM     21  O16 ZIN A   1      16.134   0.034  11.612  0.00  0.00    -0.271 OA
ENDBRANCH   2  13
TORSDOF 3
ENDMDL
MODEL 8
REMARK VINA RESULT:      -6.6      3.535      5.614
REMARK  3 active torsions:
REMARK  status: ('A' for Active; 'I' for Inactive)
REMARK    1  A    between atoms: C2_2  and  C4_3 
REMARK    2  A    between atoms: C2_2  and  N13_12 
REMARK    3  A    between atoms: C4_3  and  N5_4 
ROOT
ATOM      1  C1  ZIN A   1      18.105  -1.524  15.982  0.00  0.00     0.045 C 
ATOM      2  C2  ZIN A   1      18.822  -0.669  14.935  0.00  0.00     0.248 C 
ENDROOT
BRANCH   2   3
ATOM      3  C4  ZIN A   1      17.899  -0.451  13.734  0.00  0.00     0.308 C 
BRANCH   3   4
ATOM      4  N5  ZIN A   1      18.490  -1.074  12.543  0.00  0.00     0.108 N 
ATOM      5  C12 ZIN A   1      19.249  -2.282  12.903  0.00  0.00     0.375 C 
ATOM      6  C10 ZIN A   1      19.828  -2.895  11.655  0.00  0.00     0.252 C 
ATOM      7  N9  ZIN A   1      20.133  -2.130  10.592  0.00  0.00    -0.295 N 
ATOM      8  O11 ZIN A   1      20.020  -4.091  11.606  0.00  0.00    -0.271 OA
ATOM      9  C7  ZIN A   1      19.926  -0.801  10.605  0.00  0.00     0.252 C 
ATOM     10  H28 ZIN A   1      20.510  -2.543   9.801  0.00  0.00     0.171 HD
ATOM     11  C6  ZIN A   1      19.350  -0.125  11.821  0.00  0.00     0.375 C 
ATOM     12  O8  ZIN A   1      20.204  -0.141   9.626  0.00  0.00    -0.271 OA
ENDBRANCH   3   4
ENDBRANCH   2   3
BRANCH   2  13
ATOM     13  N13 ZIN A   1      19.176   0.629  15.523  0.00  0.00     0.112 N 
ATOM     14  C20 ZIN A   1      18.941   0.632  16.975  0.00  0.00     0.376 C 
ATOM     15  C18 ZIN A   1      19.327   1.976  17.538  0.00  0.00     0.252 C 
ATOM     16  N17 ZIN A   1      19.245   3.085  16.782  0.00  0.00    -0.295 N 
ATOM     17  O19 ZIN A   1      19.715   2.058  18.683  0.00  0.00    -0.271 OA
ATOM     18  C15 ZIN A   1      18.828   3.032  15.505  0.00  0.00     0.252 C 
ATOM     19  H33 ZIN A   1      19.491   3.941  17.166  0.00  0.00     0.171 HD
ATOM     20  C14 ZIN A   1      18.427   1.720  14.882  0.00  0.00     0.376 C 
ATOM     21  O16 ZIN A   1      18.773   4.050  14.849  0.00  0.00    -0.271 OA
ENDBRANCH   2  13
TORSDOF 3
ENDMDL
MODEL 9
REMARK VINA RESULT:      -6.5      4.913      9.208
REMARK  3 active torsions:
REMARK  status: ('A' for Active; 'I' for Inactive)
REMARK    1  A    between atoms: C2_2  and  C4_3 
REMARK    2  A    between atoms: C2_2  and  N13_12 
REMARK    3  A    between atoms: C4_3  and  N5_4 
ROOT
ATOM      1  C1  ZIN A   1      17.456   5.114  10.980  0.00  0.00     0.045 C 
ATOM      2  C2  ZIN A   1      18.128   3.926  11.673  0.00  0.00     0.248 C 
ENDROOT
BRANCH   2   3
ATOM      3  C4  ZIN A   1      17.657   3.850  13.127  0.00  0.00     0.308 C 
BRANCH   3   4
ATOM      4  N5  ZIN A   1      18.798   4.073  14.024  0.00  0.00     0.108 N 
ATOM      5  C12 ZIN A   1      18.539   3.508  15.357  0.00  0.00     0.375 C 
ATOM      6  C10 ZIN A   1      19.736   3.747  16.240  0.00  0.00     0.252 C 
ATOM      7  N9  ZIN A   1      20.533   4.812  16.040  0.00  0.00    -0.295 N 
ATOM      8  O11 ZIN A   1      19.984   2.974  17.140  0.00  0.00    -0.271 OA
ATOM      9  C7  ZIN A   1      20.296   5.687  15.047  0.00  0.00     0.252 C 
ATOM     10  H28 ZIN A   1      21.295   4.951  16.623  0.00  0.00     0.171 HD
ATOM     11  C6  ZIN A   1      19.116   5.505  14.128  0.00  0.00     0.375 C 
ATOM     12  O8  ZIN A   1      21.040   6.631  14.888  0.00  0.00    -0.271 OA
ENDBRANCH   3   4
ENDBRANCH   2   3
BRANCH   2  13
ATOM     13  N13 ZIN A   1      17.768   2.685  10.975  0.00  0.00     0.112 N 
ATOM     14  C20 ZIN A   1      17.649   1.565  11.920  0.00  0.00     0.376 C 
ATOM     15  C18 ZIN A   1      17.268   0.317  11.165  0.00  0.00     0.252 C 
ATOM     16  N17 ZIN A   1      17.631   0.154   9.880  0.00  0.00    -0.295 N 
ATOM     17  O19 ZIN A   1      16.627  -0.549  11.721  0.00  0.00    -0.271 OA
ATOM     18  C15 ZIN A   1      18.334   1.098   9.228  0.00  0.00     0.252 C 
ATOM     19  H33 ZIN A   1      17.382  -0.659   9.415  0.00  0.00     0.171 HD
ATOM     20  C14 ZIN A   1      18.747   2.367   9.925  0.00  0.00     0.376 C 
ATOM     21  O16 ZIN A   1      18.639   0.923   8.068  0.00  0.00    -0.271 OA
ENDBRANCH   2  13
TORSDOF 3
ENDMDL
