MODEL 1
REMARK VINA RESULT:      -9.0      0.000      0.000
REMARK  15 active torsions:
REMARK  status: ('A' for Active; 'I' for Inactive)
REMARK    1  A    between atoms: C2_2  and  C3_3 
REMARK    2  A    between atoms: C3_3  and  O5_5 
REMARK    3  A    between atoms: O5_5  and  C6_6 
REMARK    4  A    between atoms: C6_6  and  O8_7 
REMARK    5  A    between atoms: C6_6  and  C40_37 
REMARK    6  A    between atoms: O8_7  and  P9_8 
REMARK    7  A    between atoms: P9_8  and  C11_10 
REMARK    8  A    between atoms: P9_8  and  C21_20 
REMARK    9  A    between atoms: C11_10  and  C12_11 
REMARK   10  A    between atoms: C12_11  and  C13_12 
REMARK   11  A    between atoms: C13_12  and  C14_13 
REMARK   12  A    between atoms: C14_13  and  C15_14 
REMARK   13  A    between atoms: C21_20  and  C22_21 
REMARK       I    between atoms: C22_21  and  N24_23 
REMARK   14  A    between atoms: C26_25  and  C28_26 
REMARK   15  A    between atoms: C35_33  and  C37_34 
ROOT
ATOM      1  P9  ZIN A   1      18.756  -0.430   8.208  0.00  0.00     0.208 P 
ATOM      2  O10 ZIN A   1      17.538   0.096   7.552  0.00  0.00    -0.291 OA
ENDROOT
BRANCH   1   3
ATOM      3  O8  ZIN A   1      19.657  -1.206   7.124  0.00  0.00    -0.301 OA
BRANCH   3   4
ATOM      4  C6  ZIN A   1      19.173  -2.309   6.356  0.00  0.00     0.280 C 
BRANCH   4   5
ATOM      5  O5  ZIN A   1      20.124  -3.405   6.430  0.00  0.00    -0.289 OA
BRANCH   5   6
ATOM      6  C3  ZIN A   1      19.669  -4.578   6.897  0.00  0.00     0.260 C 
ATOM      7  O4  ZIN A   1      20.388  -5.548   6.900  0.00  0.00    -0.265 OA
BRANCH   6   8
ATOM      8  C2  ZIN A   1      18.259  -4.683   7.419  0.00  0.00     0.107 C 
ATOM      9  C1  ZIN A   1      18.285  -5.226   8.850  0.00  0.00     0.015 C 
ENDBRANCH   6   8
ENDBRANCH   5   6
ENDBRANCH   4   5
BRANCH   4  10
ATOM     10  C40 ZIN A   1      19.001  -1.880   4.898  0.00  0.00     0.034 C 
ATOM     11  C41 ZIN A   1      17.522  -1.967   4.512  0.00  0.00     0.014 C 
ATOM     12  C42 ZIN A   1      19.489  -0.441   4.730  0.00  0.00     0.014 C 
ENDBRANCH   4  10
ENDBRANCH   3   4
ENDBRANCH   1   3
BRANCH   1  13
ATOM     13  C11 ZIN A   1      19.710   0.953   8.915  0.00  0.00     0.102 C 
BRANCH  13  14
ATOM     14  C12 ZIN A   1      18.878   2.235   8.843  0.00  0.00     0.010 C 
BRANCH  14  15
ATOM     15  C13 ZIN A   1      18.806   2.874  10.232  0.00  0.00     0.005 C 
BRANCH  15  16
ATOM     16  C14 ZIN A   1      17.620   3.839  10.287  0.00  0.00     0.038 C 
BRANCH  16  17
ATOM     17  C15 ZIN A   1      17.391   4.271  11.713  0.00  0.00    -0.058 A 
ATOM     18  C20 ZIN A   1      17.945   3.545  12.752  0.00  0.00     0.007 A 
ATOM     19  C19 ZIN A   1      17.738   3.944  14.060  0.00  0.00     0.001 A 
ATOM     20  C18 ZIN A   1      16.972   5.062  14.329  0.00  0.00     0.000 A 
ATOM     21  C17 ZIN A   1      16.414   5.785  13.290  0.00  0.00     0.001 A 
ATOM     22  C16 ZIN A   1      16.624   5.389  11.984  0.00  0.00     0.007 A 
ENDBRANCH  16  17
ENDBRANCH  15  16
ENDBRANCH  14  15
ENDBRANCH  13  14
ENDBRANCH   1  13
BRANCH   1  23
ATOM     23  C21 ZIN A   1      18.279  -1.581   9.539  0.00  0.00     0.204 C 
BRANCH  23  24
ATOM     24  C22 ZIN A   1      17.585  -0.818  10.638  0.00  0.00     0.229 C 
ATOM     25  O23 ZIN A   1      16.589  -0.171  10.392  0.00  0.00    -0.273 OA
ATOM     26  N24 ZIN A   1      18.071  -0.856  11.894  0.00  0.00    -0.337 N 
ATOM     27  C35 ZIN A   1      19.264  -1.596  12.330  0.00  0.00     0.188 C 
ATOM     28  C25 ZIN A   1      17.491  -0.164  13.061  0.00  0.00     0.132 C 
ATOM     29  C34 ZIN A   1      19.419  -1.363  13.848  0.00  0.00     0.043 C 
ATOM     30  C26 ZIN A   1      17.982  -0.975  14.286  0.00  0.00     0.010 C 
BRANCH  27  31
ATOM     31  C37 ZIN A   1      19.096  -3.068  12.051  0.00  0.00     0.197 C 
ATOM     32  O38 ZIN A   1      18.020  -3.606  12.249  0.00  0.00    -0.646 OA
ATOM     33  O39 ZIN A   1      20.036  -3.719  11.628  0.00  0.00    -0.646 OA
ENDBRANCH  27  31
BRANCH  30  34
ATOM     34  C28 ZIN A   1      18.008  -0.105  15.545  0.00  0.00    -0.009 C 
ATOM     35  C33 ZIN A   1      19.159   0.898  15.446  0.00  0.00     0.005 C 
ATOM     36  C32 ZIN A   1      19.185   1.769  16.704  0.00  0.00     0.000 C 
ATOM     37  C31 ZIN A   1      19.384   0.882  17.935  0.00  0.00     0.000 C 
ATOM     38  C30 ZIN A   1      18.234  -0.122  18.033  0.00  0.00     0.000 C 
ATOM     39  C29 ZIN A   1      18.208  -0.992  16.774  0.00  0.00     0.005 C 
ENDBRANCH  30  34
ENDBRANCH  23  24
ENDBRANCH   1  23
TORSDOF 15
ENDMDL
MODEL 2
REMARK VINA RESULT:      -8.9      2.881      8.276
REMARK  15 active torsions:
REMARK  status: ('A' for Active; 'I' for Inactive)
REMARK    1  A    between atoms: C2_2  and  C3_3 
REMARK    2  A    between atoms: C3_3  and  O5_5 
REMARK    3  A    between atoms: O5_5  and  C6_6 
REMARK    4  A    between atoms: C6_6  and  O8_7 
REMARK    5  A    between atoms: C6_6  and  C40_37 
REMARK    6  A    between atoms: O8_7  and  P9_8 
REMARK    7  A    between atoms: P9_8  and  C11_10 
REMARK    8  A    between atoms: P9_8  and  C21_20 
REMARK    9  A    between atoms: C11_10  and  C12_11 
REMARK   10  A    between atoms: C12_11  and  C13_12 
REMARK   11  A    between atoms: C13_12  and  C14_13 
REMARK   12  A    between atoms: C14_13  and  C15_14 
REMARK   13  A    between atoms: C21_20  and  C22_21 
REMARK       I    between atoms: C22_21  and  N24_23 
REMARK   14  A    between atoms: C26_25  and  C28_26 
REMARK   15  A    between atoms: C35_33  and  C37_34 
ROOT
ATOM      1  P9  ZIN A   1      18.932   2.645  12.247  0.00  0.00     0.208 P 
ATOM      2  O10 ZIN A   1      20.021   3.552  11.826  0.00  0.00    -0.291 OA
ENDROOT
BRANCH   1   3
ATOM      3  O8  ZIN A   1      17.882   3.455  13.161  0.00  0.00    -0.301 OA
BRANCH   3   4
ATOM      4  C6  ZIN A   1      18.240   4.615  13.914  0.00  0.00     0.280 C 
BRANCH   4   5
ATOM      5  O5  ZIN A   1      18.271   4.284  15.328  0.00  0.00    -0.289 OA
BRANCH   5   6
ATOM      6  C3  ZIN A   1      19.428   4.486  15.977  0.00  0.00     0.260 C 
ATOM      7  O4  ZIN A   1      20.012   3.554  16.475  0.00  0.00    -0.265 OA
BRANCH   6   8
ATOM      8  C2  ZIN A   1      19.999   5.877  16.081  0.00  0.00     0.107 C 
ATOM      9  C1  ZIN A   1      21.340   5.934  15.346  0.00  0.00     0.015 C 
ENDBRANCH   6   8
ENDBRANCH   5   6
ENDBRANCH   4   5
BRANCH   4  10
ATOM     10  C40 ZIN A   1      17.210   5.719  13.671  0.00  0.00     0.034 C 
ATOM     11  C41 ZIN A   1      16.534   5.496  12.315  0.00  0.00     0.014 C 
ATOM     12  C42 ZIN A   1      16.156   5.686  14.778  0.00  0.00     0.014 C 
ENDBRANCH   4  10
ENDBRANCH   3   4
ENDBRANCH   1   3
BRANCH   1  13
ATOM     13  C11 ZIN A   1      18.079   1.995  10.773  0.00  0.00     0.102 C 
BRANCH  13  14
ATOM     14  C12 ZIN A   1      18.545   2.762   9.534  0.00  0.00     0.010 C 
BRANCH  14  15
ATOM     15  C13 ZIN A   1      19.370   1.835   8.641  0.00  0.00     0.005 C 
BRANCH  15  16
ATOM     16  C14 ZIN A   1      18.697   0.462   8.571  0.00  0.00     0.038 C 
BRANCH  16  17
ATOM     17  C15 ZIN A   1      18.878  -0.115   7.190  0.00  0.00    -0.058 A 
ATOM     18  C20 ZIN A   1      18.947   0.724   6.093  0.00  0.00     0.007 A 
ATOM     19  C19 ZIN A   1      19.117   0.194   4.827  0.00  0.00     0.001 A 
ATOM     20  C18 ZIN A   1      19.211  -1.174   4.658  0.00  0.00     0.000 A 
ATOM     21  C17 ZIN A   1      19.137  -2.014   5.754  0.00  0.00     0.001 A 
ATOM     22  C16 ZIN A   1      18.971  -1.484   7.019  0.00  0.00     0.007 A 
ENDBRANCH  16  17
ENDBRANCH  15  16
ENDBRANCH  14  15
ENDBRANCH  13  14
ENDBRANCH   1  13
BRANCH   1  23
ATOM     23  C21 ZIN A   1      19.630   1.260  13.205  0.00  0.00     0.204 C 
BRANCH  23  24
ATOM     24  C22 ZIN A   1      20.121   0.193  12.259  0.00  0.00     0.229 C 
ATOM     25  O23 ZIN A   1      21.091   0.401  11.562  0.00  0.00    -0.273 OA
ATOM     26  N24 ZIN A   1      19.481  -0.991  12.191  0.00  0.00    -0.337 N 
ATOM     27  C35 ZIN A   1      18.299  -1.374  12.976  0.00  0.00     0.188 C 
ATOM     28  C25 ZIN A   1      19.856  -2.120  11.318  0.00  0.00     0.132 C 
ATOM     29  C34 ZIN A   1      17.934  -2.820  12.580  0.00  0.00     0.043 C 
ATOM     30  C26 ZIN A   1      19.271  -3.372  12.019  0.00  0.00     0.010 C 
BRANCH  27  31
ATOM     31  C37 ZIN A   1      18.607  -1.307  14.450  0.00  0.00     0.197 C 
ATOM     32  O38 ZIN A   1      19.686  -1.694  14.865  0.00  0.00    -0.646 OA
ATOM     33  O39 ZIN A   1      17.776  -0.867  15.227  0.00  0.00    -0.646 OA
ENDBRANCH  27  31
BRANCH  30  34
ATOM     34  C28 ZIN A   1      19.022  -4.497  11.012  0.00  0.00    -0.009 C 
ATOM     35  C33 ZIN A   1      19.140  -3.942   9.590  0.00  0.00     0.005 C 
ATOM     36  C32 ZIN A   1      18.891  -5.067   8.583  0.00  0.00     0.000 C 
ATOM     37  C31 ZIN A   1      17.488  -5.640   8.793  0.00  0.00     0.000 C 
ATOM     38  C30 ZIN A   1      17.370  -6.193  10.215  0.00  0.00     0.000 C 
ATOM     39  C29 ZIN A   1      17.619  -5.068  11.222  0.00  0.00     0.005 C 
ENDBRANCH  30  34
ENDBRANCH  23  24
ENDBRANCH   1  23
TORSDOF 15
ENDMDL
MODEL 3
REMARK VINA RESULT:      -8.5      1.550      5.084
REMARK  15 active torsions:
REMARK  status: ('A' for Active; 'I' for Inactive)
REMARK    1  A    between atoms: C2_2  and  C3_3 
REMARK    2  A    between atoms: C3_3  and  O5_5 
REMARK    3  A    between atoms: O5_5  and  C6_6 
REMARK    4  A    between atoms: C6_6  and  O8_7 
REMARK    5  A    between atoms: C6_6  and  C40_37 
REMARK    6  A    between atoms: O8_7  and  P9_8 
REMARK    7  A    between atoms: P9_8  and  C11_10 
REMARK    8  A    between atoms: P9_8  and  C21_20 
REMARK    9  A    between atoms: C11_10  and  C12_11 
REMARK   10  A    between atoms: C12_11  and  C13_12 
REMARK   11  A    between atoms: C13_12  and  C14_13 
REMARK   12  A    between atoms: C14_13  and  C15_14 
REMARK   13  A    between atoms: C21_20  and  C22_21 
REMARK       I    between atoms: C22_21  and  N24_23 
REMARK   14  A    between atoms: C26_25  and  C28_26 
REMARK   15  A    between atoms: C35_33  and  C37_34 
ROOT
ATOM      1  P9  ZIN A   1      18.761  -2.805  10.047  0.00  0.00     0.208 P 
ATOM      2  O10 ZIN A   1      19.742  -3.679  10.727  0.00  0.00    -0.291 OA
ENDROOT
BRANCH   1   3
ATOM      3  O8  ZIN A   1      17.949  -3.659   8.950  0.00  0.00    -0.301 OA
BRANCH   3   4
ATOM      4  C6  ZIN A   1      18.563  -4.655   8.131  0.00  0.00     0.280 C 
BRANCH   4   5
ATOM      5  O5  ZIN A   1      18.262  -4.386   6.735  0.00  0.00    -0.289 OA
BRANCH   5   6
ATOM      6  C3  ZIN A   1      19.174  -3.691   6.038  0.00  0.00     0.260 C 
ATOM      7  O4  ZIN A   1      20.312  -3.620   6.434  0.00  0.00    -0.265 OA
BRANCH   6   8
ATOM      8  C2  ZIN A   1      18.777  -3.001   4.758  0.00  0.00     0.107 C 
ATOM      9  C1  ZIN A   1      19.182  -1.527   4.828  0.00  0.00     0.015 C 
ENDBRANCH   6   8
ENDBRANCH   5   6
ENDBRANCH   4   5
BRANCH   4  10
ATOM     10  C40 ZIN A   1      18.023  -6.034   8.513  0.00  0.00     0.034 C 
ATOM     11  C41 ZIN A   1      16.640  -5.882   9.151  0.00  0.00     0.014 C 
ATOM     12  C42 ZIN A   1      17.914  -6.904   7.260  0.00  0.00     0.014 C 
ENDBRANCH   4  10
ENDBRANCH   3   4
ENDBRANCH   1   3
BRANCH   1  13
ATOM     13  C11 ZIN A   1      17.595  -2.130  11.276  0.00  0.00     0.102 C 
BRANCH  13  14
ATOM     14  C12 ZIN A   1      18.268  -2.094  12.650  0.00  0.00     0.010 C 
BRANCH  14  15
ATOM     15  C13 ZIN A   1      17.929  -0.775  13.349  0.00  0.00     0.005 C 
BRANCH  15  16
ATOM     16  C14 ZIN A   1      19.100  -0.354  14.239  0.00  0.00     0.038 C 
BRANCH  16  17
ATOM     17  C15 ZIN A   1      18.574   0.107  15.574  0.00  0.00    -0.058 A 
ATOM     18  C20 ZIN A   1      19.138   1.206  16.197  0.00  0.00     0.007 A 
ATOM     19  C19 ZIN A   1      18.653   1.630  17.420  0.00  0.00     0.001 A 
ATOM     20  C18 ZIN A   1      17.610   0.953  18.024  0.00  0.00     0.000 A 
ATOM     21  C17 ZIN A   1      17.050  -0.148  17.403  0.00  0.00     0.001 A 
ATOM     22  C16 ZIN A   1      17.532  -0.570  16.179  0.00  0.00     0.007 A 
ENDBRANCH  16  17
ENDBRANCH  15  16
ENDBRANCH  14  15
ENDBRANCH  13  14
ENDBRANCH   1  13
BRANCH   1  23
ATOM     23  C21 ZIN A   1      19.636  -1.434   9.225  0.00  0.00     0.204 C 
BRANCH  23  24
ATOM     24  C22 ZIN A   1      20.066  -0.422  10.256  0.00  0.00     0.229 C 
ATOM     25  O23 ZIN A   1      21.044  -0.633  10.942  0.00  0.00    -0.273 OA
ATOM     26  N24 ZIN A   1      19.364   0.717  10.415  0.00  0.00    -0.337 N 
ATOM     27  C35 ZIN A   1      18.166   1.099   9.654  0.00  0.00     0.188 C 
ATOM     28  C25 ZIN A   1      19.675   1.790  11.378  0.00  0.00     0.132 C 
ATOM     29  C34 ZIN A   1      17.723   2.488  10.163  0.00  0.00     0.043 C 
ATOM     30  C26 ZIN A   1      19.027   3.062  10.776  0.00  0.00     0.010 C 
BRANCH  27  31
ATOM     31  C37 ZIN A   1      18.481   1.167   8.182  0.00  0.00     0.197 C 
ATOM     32  O38 ZIN A   1      19.426   1.833   7.792  0.00  0.00    -0.646 OA
ATOM     33  O39 ZIN A   1      17.791   0.559   7.382  0.00  0.00    -0.646 OA
ENDBRANCH  27  31
BRANCH  30  34
ATOM     34  C28 ZIN A   1      18.715   4.088  11.868  0.00  0.00    -0.009 C 
ATOM     35  C33 ZIN A   1      18.943   3.453  13.242  0.00  0.00     0.005 C 
ATOM     36  C32 ZIN A   1      18.631   4.478  14.335  0.00  0.00     0.000 C 
ATOM     37  C31 ZIN A   1      17.173   4.926  14.214  0.00  0.00     0.000 C 
ATOM     38  C30 ZIN A   1      16.945   5.559  12.840  0.00  0.00     0.000 C 
ATOM     39  C29 ZIN A   1      17.257   4.534  11.748  0.00  0.00     0.005 C 
ENDBRANCH  30  34
ENDBRANCH  23  24
ENDBRANCH   1  23
TORSDOF 15
ENDMDL
MODEL 4
REMARK VINA RESULT:      -8.5      2.886      9.460
REMARK  15 active torsions:
REMARK  status: ('A' for Active; 'I' for Inactive)
REMARK    1  A    between atoms: C2_2  and  C3_3 
REMARK    2  A    between atoms: C3_3  and  O5_5 
REMARK    3  A    between atoms: O5_5  and  C6_6 
REMARK    4  A    between atoms: C6_6  and  O8_7 
REMARK    5  A    between atoms: C6_6  and  C40_37 
REMARK    6  A    between atoms: O8_7  and  P9_8 
REMARK    7  A    between atoms: P9_8  and  C11_10 
REMARK    8  A    between atoms: P9_8  and  C21_20 
REMARK    9  A    between atoms: C11_10  and  C12_11 
REMARK   10  A    between atoms: C12_11  and  C13_12 
REMARK   11  A    between atoms: C13_12  and  C14_13 
REMARK   12  A    between atoms: C14_13  and  C15_14 
REMARK   13  A    between atoms: C21_20  and  C22_21 
REMARK       I    between atoms: C22_21  and  N24_23 
REMARK   14  A    between atoms: C26_25  and  C28_26 
REMARK   15  A    between atoms: C35_33  and  C37_34 
ROOT
ATOM      1  P9  ZIN A   1      18.432   0.705  14.075  0.00  0.00     0.208 P 
ATOM      2  O10 ZIN A   1      17.482  -0.192  14.769  0.00  0.00    -0.291 OA
ENDROOT
BRANCH   1   3
ATOM      3  O8  ZIN A   1      19.117   1.693  15.146  0.00  0.00    -0.301 OA
BRANCH   3   4
ATOM      4  C6  ZIN A   1      18.449   2.144  16.326  0.00  0.00     0.280 C 
BRANCH   4   5
ATOM      5  O5  ZIN A   1      18.547   3.591  16.413  0.00  0.00    -0.289 OA
BRANCH   5   6
ATOM      6  C3  ZIN A   1      18.544   4.273  15.257  0.00  0.00     0.260 C 
ATOM      7  O4  ZIN A   1      19.583   4.494  14.684  0.00  0.00    -0.265 OA
BRANCH   6   8
ATOM      8  C2  ZIN A   1      17.242   4.762  14.675  0.00  0.00     0.107 C 
ATOM      9  C1  ZIN A   1      17.511   5.963  13.764  0.00  0.00     0.015 C 
ENDBRANCH   6   8
ENDBRANCH   5   6
ENDBRANCH   4   5
BRANCH   4  10
ATOM     10  C40 ZIN A   1      19.104   1.514  17.556  0.00  0.00     0.034 C 
ATOM     11  C41 ZIN A   1      19.272   2.575  18.645  0.00  0.00     0.014 C 
ATOM     12  C42 ZIN A   1      18.219   0.381  18.080  0.00  0.00     0.014 C 
ENDBRANCH   4  10
ENDBRANCH   3   4
ENDBRANCH   1   3
BRANCH   1  13
ATOM     13  C11 ZIN A   1      19.720  -0.291  13.256  0.00  0.00     0.102 C 
BRANCH  13  14
ATOM     14  C12 ZIN A   1      19.260  -1.748  13.170  0.00  0.00     0.010 C 
BRANCH  14  15
ATOM     15  C13 ZIN A   1      19.379  -2.235  11.725  0.00  0.00     0.005 C 
BRANCH  15  16
ATOM     16  C14 ZIN A   1      20.068  -3.601  11.702  0.00  0.00     0.038 C 
BRANCH  16  17
ATOM     17  C15 ZIN A   1      19.218  -4.580  10.934  0.00  0.00    -0.058 A 
ATOM     18  C20 ZIN A   1      19.638  -5.041   9.700  0.00  0.00     0.007 A 
ATOM     19  C19 ZIN A   1      18.860  -5.943   8.998  0.00  0.00     0.001 A 
ATOM     20  C18 ZIN A   1      17.658  -6.377   9.526  0.00  0.00     0.000 A 
ATOM     21  C17 ZIN A   1      17.236  -5.912  10.758  0.00  0.00     0.001 A 
ATOM     22  C16 ZIN A   1      18.016  -5.014  11.461  0.00  0.00     0.007 A 
ENDBRANCH  16  17
ENDBRANCH  15  16
ENDBRANCH  14  15
ENDBRANCH  13  14
ENDBRANCH   1  13
BRANCH   1  23
ATOM     23  C21 ZIN A   1      17.538   1.688  12.827  0.00  0.00     0.204 C 
BRANCH  23  24
ATOM     24  C22 ZIN A   1      17.232   0.822  11.631  0.00  0.00     0.229 C 
ATOM     25  O23 ZIN A   1      16.307   0.038  11.672  0.00  0.00    -0.273 OA
ATOM     26  N24 ZIN A   1      17.985   0.919  10.519  0.00  0.00    -0.337 N 
ATOM     27  C35 ZIN A   1      19.131   1.822  10.335  0.00  0.00     0.188 C 
ATOM     28  C25 ZIN A   1      17.794   0.140   9.281  0.00  0.00     0.132 C 
ATOM     29  C34 ZIN A   1      19.664   1.601   8.904  0.00  0.00     0.043 C 
ATOM     30  C26 ZIN A   1      18.437   1.003   8.167  0.00  0.00     0.010 C 
BRANCH  27  31
ATOM     31  C37 ZIN A   1      18.698   3.256  10.506  0.00  0.00     0.197 C 
ATOM     32  O38 ZIN A   1      17.776   3.697   9.841  0.00  0.00    -0.646 OA
ATOM     33  O39 ZIN A   1      19.270   3.974  11.308  0.00  0.00    -0.646 OA
ENDBRANCH  27  31
BRANCH  30  34
ATOM     34  C28 ZIN A   1      18.875   0.135   6.985  0.00  0.00    -0.009 C 
ATOM     35  C33 ZIN A   1      17.928   0.366   5.805  0.00  0.00     0.005 C 
ATOM     36  C32 ZIN A   1      18.365  -0.501   4.623  0.00  0.00     0.000 C 
ATOM     37  C31 ZIN A   1      18.325  -1.976   5.030  0.00  0.00     0.000 C 
ATOM     38  C30 ZIN A   1      19.271  -2.207   6.210  0.00  0.00     0.000 C 
ATOM     39  C29 ZIN A   1      18.833  -1.339   7.391  0.00  0.00     0.005 C 
ENDBRANCH  30  34
ENDBRANCH  23  24
ENDBRANCH   1  23
TORSDOF 15
ENDMDL
MODEL 5
REMARK VINA RESULT:      -8.5      1.309      2.157
REMARK  15 active torsions:
REMARK  status: ('A' for Active; 'I' for Inactive)
REMARK    1  A    between atoms: C2_2  and  C3_3 
REMARK    2  A    between atoms: C3_3  and  O5_5 
REMARK    3  A    between atoms: O5_5  and  C6_6 
REMARK    4  A    between atoms: C6_6  and  O8_7 
REMARK    5  A    between atoms: C6_6  and  C40_37 
REMARK    6  A    between atoms: O8_7  and  P9_8 
REMARK    7  A    between atoms: P9_8  and  C11_10 
REMARK    8  A    between atoms: P9_8  and  C21_20 
REMARK    9  A    between atoms: C11_10  and  C12_11 
REMARK   10  A    between atoms: C12_11  and  C13_12 
REMARK   11  A    between atoms: C13_12  and  C14_13 
REMARK   12  A    between atoms: C14_13  and  C15_14 
REMARK   13  A    between atoms: C21_20  and  C22_21 
REMARK       I    between atoms: C22_21  and  N24_23 
REMARK   14  A    between atoms: C26_25  and  C28_26 
REMARK   15  A    between atoms: C35_33  and  C37_34 
ROOT
ATOM      1  P9  ZIN A   1      18.711  -0.299   8.746  0.00  0.00     0.208 P 
ATOM      2  O10 ZIN A   1      17.312   0.010   8.379  0.00  0.00    -0.291 OA
ENDROOT
BRANCH   1   3
ATOM      3  O8  ZIN A   1      19.413  -1.113   7.547  0.00  0.00    -0.301 OA
BRANCH   3   4
ATOM      4  C6  ZIN A   1      18.673  -1.824   6.552  0.00  0.00     0.280 C 
BRANCH   4   5
ATOM      5  O5  ZIN A   1      19.513  -2.858   5.972  0.00  0.00    -0.289 OA
BRANCH   5   6
ATOM      6  C3  ZIN A   1      19.576  -4.029   6.624  0.00  0.00     0.260 C 
ATOM      7  O4  ZIN A   1      20.647  -4.541   6.846  0.00  0.00    -0.265 OA
BRANCH   6   8
ATOM      8  C2  ZIN A   1      18.309  -4.705   7.082  0.00  0.00     0.107 C 
ATOM      9  C1  ZIN A   1      18.371  -4.934   8.594  0.00  0.00     0.015 C 
ENDBRANCH   6   8
ENDBRANCH   5   6
ENDBRANCH   4   5
BRANCH   4  10
ATOM     10  C40 ZIN A   1      18.228  -0.854   5.457  0.00  0.00     0.034 C 
ATOM     11  C41 ZIN A   1      19.453  -0.143   4.876  0.00  0.00     0.014 C 
ATOM     12  C42 ZIN A   1      17.514  -1.629   4.348  0.00  0.00     0.014 C 
ENDBRANCH   4  10
ENDBRANCH   3   4
ENDBRANCH   1   3
BRANCH   1  13
ATOM     13  C11 ZIN A   1      19.619   1.254   9.039  0.00  0.00     0.102 C 
BRANCH  13  14
ATOM     14  C12 ZIN A   1      18.655   2.437   8.928  0.00  0.00     0.010 C 
BRANCH  14  15
ATOM     15  C13 ZIN A   1      18.923   3.421  10.069  0.00  0.00     0.005 C 
BRANCH  15  16
ATOM     16  C14 ZIN A   1      17.744   4.387  10.196  0.00  0.00     0.038 C 
BRANCH  16  17
ATOM     17  C15 ZIN A   1      17.615   4.837  11.629  0.00  0.00    -0.058 A 
ATOM     18  C20 ZIN A   1      18.711   4.780  12.472  0.00  0.00     0.007 A 
ATOM     19  C19 ZIN A   1      18.594   5.197  13.785  0.00  0.00     0.001 A 
ATOM     20  C18 ZIN A   1      17.381   5.663  14.257  0.00  0.00     0.000 A 
ATOM     21  C17 ZIN A   1      16.285   5.715  13.415  0.00  0.00     0.001 A 
ATOM     22  C16 ZIN A   1      16.403   5.302  12.102  0.00  0.00     0.007 A 
ENDBRANCH  16  17
ENDBRANCH  15  16
ENDBRANCH  14  15
ENDBRANCH  13  14
ENDBRANCH   1  13
BRANCH   1  23
ATOM     23  C21 ZIN A   1      18.733  -1.311  10.262  0.00  0.00     0.204 C 
BRANCH  23  24
ATOM     24  C22 ZIN A   1      19.642  -0.671  11.280  0.00  0.00     0.229 C 
ATOM     25  O23 ZIN A   1      20.818  -0.513  11.027  0.00  0.00    -0.273 OA
ATOM     26  N24 ZIN A   1      19.148  -0.276  12.469  0.00  0.00    -0.337 N 
ATOM     27  C35 ZIN A   1      17.750  -0.408  12.904  0.00  0.00     0.188 C 
ATOM     28  C25 ZIN A   1      19.921   0.366  13.549  0.00  0.00     0.132 C 
ATOM     29  C34 ZIN A   1      17.651   0.200  14.319  0.00  0.00     0.043 C 
ATOM     30  C26 ZIN A   1      18.872   1.155  14.371  0.00  0.00     0.010 C 
BRANCH  27  31
ATOM     31  C37 ZIN A   1      16.838   0.335  11.961  0.00  0.00     0.197 C 
ATOM     32  O38 ZIN A   1      17.019   1.522  11.748  0.00  0.00    -0.646 OA
ATOM     33  O39 ZIN A   1      15.920  -0.250  11.414  0.00  0.00    -0.646 OA
ENDBRANCH  27  31
BRANCH  30  34
ATOM     34  C28 ZIN A   1      19.347   1.363  15.811  0.00  0.00    -0.009 C 
ATOM     35  C33 ZIN A   1      18.886   0.185  16.673  0.00  0.00     0.005 C 
ATOM     36  C32 ZIN A   1      19.361   0.391  18.113  0.00  0.00     0.000 C 
ATOM     37  C31 ZIN A   1      18.769   1.690  18.664  0.00  0.00     0.000 C 
ATOM     38  C30 ZIN A   1      19.229   2.868  17.802  0.00  0.00     0.000 C 
ATOM     39  C29 ZIN A   1      18.754   2.660  16.362  0.00  0.00     0.005 C 
ENDBRANCH  30  34
ENDBRANCH  23  24
ENDBRANCH   1  23
TORSDOF 15
ENDMDL
MODEL 6
REMARK VINA RESULT:      -8.4      2.830      8.355
REMARK  15 active torsions:
REMARK  status: ('A' for Active; 'I' for Inactive)
REMARK    1  A    between atoms: C2_2  and  C3_3 
REMARK    2  A    between atoms: C3_3  and  O5_5 
REMARK    3  A    between atoms: O5_5  and  C6_6 
REMARK    4  A    between atoms: C6_6  and  O8_7 
REMARK    5  A    between atoms: C6_6  and  C40_37 
REMARK    6  A    between atoms: O8_7  and  P9_8 
REMARK    7  A    between atoms: P9_8  and  C11_10 
REMARK    8  A    between atoms: P9_8  and  C21_20 
REMARK    9  A    between atoms: C11_10  and  C12_11 
REMARK   10  A    between atoms: C12_11  and  C13_12 
REMARK   11  A    between atoms: C13_12  and  C14_13 
REMARK   12  A    between atoms: C14_13  and  C15_14 
REMARK   13  A    between atoms: C21_20  and  C22_21 
REMARK       I    between atoms: C22_21  and  N24_23 
REMARK   14  A    between atoms: C26_25  and  C28_26 
REMARK   15  A    between atoms: C35_33  and  C37_34 
ROOT
ATOM      1  P9  ZIN A   1      17.964   2.716  12.078  0.00  0.00     0.208 P 
ATOM      2  O10 ZIN A   1      19.375   3.100  12.305  0.00  0.00    -0.291 OA
ENDROOT
BRANCH   1   3
ATOM      3  O8  ZIN A   1      16.999   3.925  12.525  0.00  0.00    -0.301 OA
BRANCH   3   4
ATOM      4  C6  ZIN A   1      17.358   4.876  13.529  0.00  0.00     0.280 C 
BRANCH   4   5
ATOM      5  O5  ZIN A   1      17.261   4.256  14.839  0.00  0.00    -0.289 OA
BRANCH   5   6
ATOM      6  C3  ZIN A   1      18.284   4.455  15.685  0.00  0.00     0.260 C 
ATOM      7  O4  ZIN A   1      19.421   4.357  15.292  0.00  0.00    -0.265 OA
BRANCH   6   8
ATOM      8  C2  ZIN A   1      18.011   4.805  17.126  0.00  0.00     0.107 C 
ATOM      9  C1  ZIN A   1      18.203   6.310  17.330  0.00  0.00     0.015 C 
ENDBRANCH   6   8
ENDBRANCH   5   6
ENDBRANCH   4   5
BRANCH   4  10
ATOM     10  C40 ZIN A   1      16.410   6.073  13.459  0.00  0.00     0.034 C 
ATOM     11  C41 ZIN A   1      15.186   5.807  14.340  0.00  0.00     0.014 C 
ATOM     12  C42 ZIN A   1      17.133   7.326  13.956  0.00  0.00     0.014 C 
ENDBRANCH   4  10
ENDBRANCH   3   4
ENDBRANCH   1   3
BRANCH   1  13
ATOM     13  C11 ZIN A   1      17.710   2.357  10.309  0.00  0.00     0.102 C 
BRANCH  13  14
ATOM     14  C12 ZIN A   1      19.005   2.633   9.542  0.00  0.00     0.010 C 
BRANCH  14  15
ATOM     15  C13 ZIN A   1      19.038   1.778   8.274  0.00  0.00     0.005 C 
BRANCH  15  16
ATOM     16  C14 ZIN A   1      18.227   0.501   8.499  0.00  0.00     0.038 C 
BRANCH  16  17
ATOM     17  C15 ZIN A   1      18.374  -0.405   7.303  0.00  0.00    -0.058 A 
ATOM     18  C20 ZIN A   1      19.148  -1.548   7.392  0.00  0.00     0.007 A 
ATOM     19  C19 ZIN A   1      19.280  -2.380   6.296  0.00  0.00     0.001 A 
ATOM     20  C18 ZIN A   1      18.644  -2.066   5.109  0.00  0.00     0.000 A 
ATOM     21  C17 ZIN A   1      17.875  -0.921   5.019  0.00  0.00     0.001 A 
ATOM     22  C16 ZIN A   1      17.740  -0.091   6.115  0.00  0.00     0.007 A 
ENDBRANCH  16  17
ENDBRANCH  15  16
ENDBRANCH  14  15
ENDBRANCH  13  14
ENDBRANCH   1  13
BRANCH   1  23
ATOM     23  C21 ZIN A   1      17.574   1.231  13.061  0.00  0.00     0.204 C 
BRANCH  23  24
ATOM     24  C22 ZIN A   1      17.118   0.126  12.142  0.00  0.00     0.229 C 
ATOM     25  O23 ZIN A   1      16.098   0.256  11.499  0.00  0.00    -0.273 OA
ATOM     26  N24 ZIN A   1      17.844  -1.004  12.036  0.00  0.00    -0.337 N 
ATOM     27  C35 ZIN A   1      19.094  -1.291  12.755  0.00  0.00     0.188 C 
ATOM     28  C25 ZIN A   1      17.518  -2.156  11.175  0.00  0.00     0.132 C 
ATOM     29  C34 ZIN A   1      19.573  -2.686  12.302  0.00  0.00     0.043 C 
ATOM     30  C26 ZIN A   1      18.875  -2.861  10.928  0.00  0.00     0.010 C 
BRANCH  27  31
ATOM     31  C37 ZIN A   1      20.137  -0.256  12.422  0.00  0.00     0.197 C 
ATOM     32  O38 ZIN A   1      20.700   0.352  13.318  0.00  0.00    -0.646 OA
ATOM     33  O39 ZIN A   1      20.417  -0.025  11.259  0.00  0.00    -0.646 OA
ENDBRANCH  27  31
BRANCH  30  34
ATOM     34  C28 ZIN A   1      18.671  -4.342  10.600  0.00  0.00    -0.009 C 
ATOM     35  C33 ZIN A   1      19.416  -4.684   9.307  0.00  0.00     0.005 C 
ATOM     36  C32 ZIN A   1      19.213  -6.165   8.979  0.00  0.00     0.000 C 
ATOM     37  C31 ZIN A   1      17.720  -6.447   8.799  0.00  0.00     0.000 C 
ATOM     38  C30 ZIN A   1      16.975  -6.105  10.091  0.00  0.00     0.000 C 
ATOM     39  C29 ZIN A   1      17.179  -4.624  10.419  0.00  0.00     0.005 C 
ENDBRANCH  30  34
ENDBRANCH  23  24
ENDBRANCH   1  23
TORSDOF 15
ENDMDL
MODEL 7
REMARK VINA RESULT:      -8.3      2.164      6.707
REMARK  15 active torsions:
REMARK  status: ('A' for Active; 'I' for Inactive)
REMARK    1  A    between atoms: C2_2  and  C3_3 
REMARK    2  A    between atoms: C3_3  and  O5_5 
REMARK    3  A    between atoms: O5_5  and  C6_6 
REMARK    4  A    between atoms: C6_6  and  O8_7 
REMARK    5  A    between atoms: C6_6  and  C40_37 
REMARK    6  A    between atoms: O8_7  and  P9_8 
REMARK    7  A    between atoms: P9_8  and  C11_10 
REMARK    8  A    between atoms: P9_8  and  C21_20 
REMARK    9  A    between atoms: C11_10  and  C12_11 
REMARK   10  A    between atoms: C12_11  and  C13_12 
REMARK   11  A    between atoms: C13_12  and  C14_13 
REMARK   12  A    between atoms: C14_13  and  C15_14 
REMARK   13  A    between atoms: C21_20  and  C22_21 
REMARK       I    between atoms: C22_21  and  N24_23 
REMARK   14  A    between atoms: C26_25  and  C28_26 
REMARK   15  A    between atoms: C35_33  and  C37_34 
ROOT
ATOM      1  P9  ZIN A   1      18.331  -0.239   7.794  0.00  0.00     0.208 P 
ATOM      2  O10 ZIN A   1      16.989  -0.272   8.414  0.00  0.00    -0.291 OA
ENDROOT
BRANCH   1   3
ATOM      3  O8  ZIN A   1      18.993  -1.705   7.868  0.00  0.00    -0.301 OA
BRANCH   3   4
ATOM      4  C6  ZIN A   1      18.365  -2.809   8.522  0.00  0.00     0.280 C 
BRANCH   4   5
ATOM      5  O5  ZIN A   1      19.027  -3.059   9.791  0.00  0.00    -0.289 OA
BRANCH   5   6
ATOM      6  C3  ZIN A   1      18.243  -3.169  10.875  0.00  0.00     0.260 C 
ATOM      7  O4  ZIN A   1      17.423  -2.317  11.118  0.00  0.00    -0.265 OA
BRANCH   6   8
ATOM      8  C2  ZIN A   1      18.387  -4.359  11.789  0.00  0.00     0.107 C 
ATOM      9  C1  ZIN A   1      17.122  -5.218  11.709  0.00  0.00     0.015 C 
ENDBRANCH   6   8
ENDBRANCH   5   6
ENDBRANCH   4   5
BRANCH   4  10
ATOM     10  C40 ZIN A   1      18.471  -4.053   7.639  0.00  0.00     0.034 C 
ATOM     11  C41 ZIN A   1      19.772  -4.795   7.955  0.00  0.00     0.014 C 
ATOM     12  C42 ZIN A   1      17.280  -4.974   7.910  0.00  0.00     0.014 C 
ENDBRANCH   4  10
ENDBRANCH   3   4
ENDBRANCH   1   3
BRANCH   1  13
ATOM     13  C11 ZIN A   1      18.181   0.273   6.051  0.00  0.00     0.102 C 
BRANCH  13  14
ATOM     14  C12 ZIN A   1      18.919  -0.729   5.160  0.00  0.00     0.010 C 
BRANCH  14  15
ATOM     15  C13 ZIN A   1      17.909  -1.687   4.525  0.00  0.00     0.005 C 
BRANCH  15  16
ATOM     16  C14 ZIN A   1      18.570  -3.048   4.299  0.00  0.00     0.038 C 
BRANCH  16  17
ATOM     17  C15 ZIN A   1      17.529  -4.045   3.858  0.00  0.00    -0.058 A 
ATOM     18  C20 ZIN A   1      16.464  -3.632   3.078  0.00  0.00     0.007 A 
ATOM     19  C19 ZIN A   1      15.512  -4.548   2.670  0.00  0.00     0.001 A 
ATOM     20  C18 ZIN A   1      15.620  -5.873   3.047  0.00  0.00     0.000 A 
ATOM     21  C17 ZIN A   1      16.683  -6.284   3.831  0.00  0.00     0.001 A 
ATOM     22  C16 ZIN A   1      17.636  -5.370   4.236  0.00  0.00     0.007 A 
ENDBRANCH  16  17
ENDBRANCH  15  16
ENDBRANCH  14  15
ENDBRANCH  13  14
ENDBRANCH   1  13
BRANCH   1  23
ATOM     23  C21 ZIN A   1      19.385   0.949   8.688  0.00  0.00     0.204 C 
BRANCH  23  24
ATOM     24  C22 ZIN A   1      19.916   0.305   9.943  0.00  0.00     0.229 C 
ATOM     25  O23 ZIN A   1      20.871  -0.441   9.883  0.00  0.00    -0.273 OA
ATOM     26  N24 ZIN A   1      19.330   0.557  11.129  0.00  0.00    -0.337 N 
ATOM     27  C35 ZIN A   1      18.171   1.437  11.344  0.00  0.00     0.188 C 
ATOM     28  C25 ZIN A   1      19.749   0.001  12.429  0.00  0.00     0.132 C 
ATOM     29  C34 ZIN A   1      17.870   1.436  12.857  0.00  0.00     0.043 C 
ATOM     30  C26 ZIN A   1      19.226   1.013  13.479  0.00  0.00     0.010 C 
BRANCH  27  31
ATOM     31  C37 ZIN A   1      18.486   2.837  10.882  0.00  0.00     0.197 C 
ATOM     32  O38 ZIN A   1      19.558   3.345  11.166  0.00  0.00    -0.646 OA
ATOM     33  O39 ZIN A   1      17.669   3.461  10.228  0.00  0.00    -0.646 OA
ENDBRANCH  27  31
BRANCH  30  34
ATOM     34  C28 ZIN A   1      19.021   0.338  14.837  0.00  0.00    -0.009 C 
ATOM     35  C33 ZIN A   1      18.557  -1.105  14.622  0.00  0.00     0.005 C 
ATOM     36  C32 ZIN A   1      18.352  -1.781  15.980  0.00  0.00     0.000 C 
ATOM     37  C31 ZIN A   1      17.292  -1.017  16.776  0.00  0.00     0.000 C 
ATOM     38  C30 ZIN A   1      17.755   0.426  16.989  0.00  0.00     0.000 C 
ATOM     39  C29 ZIN A   1      17.961   1.102  15.632  0.00  0.00     0.005 C 
ENDBRANCH  30  34
ENDBRANCH  23  24
ENDBRANCH   1  23
TORSDOF 15
ENDMDL
MODEL 8
REMARK VINA RESULT:      -8.2      2.722      8.938
REMARK  15 active torsions:
REMARK  status: ('A' for Active; 'I' for Inactive)
REMARK    1  A    between atoms: C2_2  and  C3_3 
REMARK    2  A    between atoms: C3_3  and  O5_5 
REMARK    3  A    between atoms: O5_5  and  C6_6 
REMARK    4  A    between atoms: C6_6  and  O8_7 
REMARK    5  A    between atoms: C6_6  and  C40_37 
REMARK    6  A    between atoms: O8_7  and  P9_8 
REMARK    7  A    between atoms: P9_8  and  C11_10 
REMARK    8  A    between atoms: P9_8  and  C21_20 
REMARK    9  A    between atoms: C11_10  and  C12_11 
REMARK   10  A    between atoms: C12_11  and  C13_12 
REMARK   11  A    between atoms: C13_12  and  C14_13 
REMARK   12  A    between atoms: C14_13  and  C15_14 
REMARK   13  A    between atoms: C21_20  and  C22_21 
REMARK       I    between atoms: C22_21  and  N24_23 
REMARK   14  A    between atoms: C26_25  and  C28_26 
REMARK   15  A    between atoms: C35_33  and  C37_34 
ROOT
ATOM      1  P9  ZIN A   1      18.415   2.373  13.294  0.00  0.00     0.208 P 
ATOM      2  O10 ZIN A   1      17.380   1.917  14.247  0.00  0.00    -0.291 OA
ENDROOT
BRANCH   1   3
ATOM      3  O8  ZIN A   1      19.091   3.727  13.842  0.00  0.00    -0.301 OA
BRANCH   3   4
ATOM      4  C6  ZIN A   1      18.422   4.628  14.726  0.00  0.00     0.280 C 
BRANCH   4   5
ATOM      5  O5  ZIN A   1      18.036   5.824  13.997  0.00  0.00    -0.289 OA
BRANCH   5   6
ATOM      6  C3  ZIN A   1      16.738   5.955  13.683  0.00  0.00     0.260 C 
ATOM      7  O4  ZIN A   1      16.350   5.651  12.581  0.00  0.00    -0.265 OA
BRANCH   6   8
ATOM      8  C2  ZIN A   1      15.765   6.480  14.707  0.00  0.00     0.107 C 
ATOM      9  C1  ZIN A   1      16.244   7.843  15.213  0.00  0.00     0.015 C 
ENDBRANCH   6   8
ENDBRANCH   5   6
ENDBRANCH   4   5
BRANCH   4  10
ATOM     10  C40 ZIN A   1      19.359   5.009  15.873  0.00  0.00     0.034 C 
ATOM     11  C41 ZIN A   1      19.807   3.743  16.608  0.00  0.00     0.014 C 
ATOM     12  C42 ZIN A   1      20.584   5.733  15.312  0.00  0.00     0.014 C 
ENDBRANCH   4  10
ENDBRANCH   3   4
ENDBRANCH   1   3
BRANCH   1  13
ATOM     13  C11 ZIN A   1      19.691   1.083  13.121  0.00  0.00     0.102 C 
BRANCH  13  14
ATOM     14  C12 ZIN A   1      19.860   0.351  14.453  0.00  0.00     0.010 C 
BRANCH  14  15
ATOM     15  C13 ZIN A   1      19.146  -1.001  14.386  0.00  0.00     0.005 C 
BRANCH  15  16
ATOM     16  C14 ZIN A   1      19.154  -1.651  15.771  0.00  0.00     0.038 C 
BRANCH  16  17
ATOM     17  C15 ZIN A   1      18.578  -0.691  16.779  0.00  0.00    -0.058 A 
ATOM     18  C20 ZIN A   1      19.389  -0.148  17.759  0.00  0.00     0.007 A 
ATOM     19  C19 ZIN A   1      18.860   0.737  18.681  0.00  0.00     0.001 A 
ATOM     20  C18 ZIN A   1      17.520   1.071  18.629  0.00  0.00     0.000 A 
ATOM     21  C17 ZIN A   1      16.709   0.524  17.652  0.00  0.00     0.001 A 
ATOM     22  C16 ZIN A   1      17.237  -0.356  16.729  0.00  0.00     0.007 A 
ENDBRANCH  16  17
ENDBRANCH  15  16
ENDBRANCH  14  15
ENDBRANCH  13  14
ENDBRANCH   1  13
BRANCH   1  23
ATOM     23  C21 ZIN A   1      17.648   2.690  11.671  0.00  0.00     0.204 C 
BRANCH  23  24
ATOM     24  C22 ZIN A   1      18.639   2.379  10.578  0.00  0.00     0.229 C 
ATOM     25  O23 ZIN A   1      19.690   2.982  10.523  0.00  0.00    -0.273 OA
ATOM     26  N24 ZIN A   1      18.356   1.431   9.663  0.00  0.00    -0.337 N 
ATOM     27  C35 ZIN A   1      17.126   0.628   9.612  0.00  0.00     0.188 C 
ATOM     28  C25 ZIN A   1      19.233   1.024   8.549  0.00  0.00     0.132 C 
ATOM     29  C34 ZIN A   1      17.257  -0.336   8.414  0.00  0.00     0.043 C 
ATOM     30  C26 ZIN A   1      18.792  -0.421   8.206  0.00  0.00     0.010 C 
BRANCH  27  31
ATOM     31  C37 ZIN A   1      16.961  -0.156  10.888  0.00  0.00     0.197 C 
ATOM     32  O38 ZIN A   1      17.808  -0.970  11.217  0.00  0.00    -0.646 OA
ATOM     33  O39 ZIN A   1      15.981   0.021  11.590  0.00  0.00    -0.646 OA
ENDBRANCH  27  31
BRANCH  30  34
ATOM     34  C28 ZIN A   1      19.131  -0.767   6.755  0.00  0.00    -0.009 C 
ATOM     35  C33 ZIN A   1      18.363   0.165   5.816  0.00  0.00     0.005 C 
ATOM     36  C32 ZIN A   1      18.702  -0.180   4.364  0.00  0.00     0.000 C 
ATOM     37  C31 ZIN A   1      18.307  -1.631   4.080  0.00  0.00     0.000 C 
ATOM     38  C30 ZIN A   1      19.075  -2.563   5.019  0.00  0.00     0.000 C 
ATOM     39  C29 ZIN A   1      18.736  -2.217   6.470  0.00  0.00     0.005 C 
ENDBRANCH  30  34
ENDBRANCH  23  24
ENDBRANCH   1  23
TORSDOF 15
ENDMDL
MODEL 9
REMARK VINA RESULT:      -8.1      3.081      8.417
REMARK  15 active torsions:
REMARK  status: ('A' for Active; 'I' for Inactive)
REMARK    1  A    between atoms: C2_2  and  C3_3 
REMARK    2  A    between atoms: C3_3  and  O5_5 
REMARK    3  A    between atoms: O5_5  and  C6_6 
REMARK    4  A    between atoms: C6_6  and  O8_7 
REMARK    5  A    between atoms: C6_6  and  C40_37 
REMARK    6  A    between atoms: O8_7  and  P9_8 
REMARK    7  A    between atoms: P9_8  and  C11_10 
REMARK    8  A    between atoms: P9_8  and  C21_20 
REMARK    9  A    between atoms: C11_10  and  C12_11 
REMARK   10  A    between atoms: C12_11  and  C13_12 
REMARK   11  A    between atoms: C13_12  and  C14_13 
REMARK   12  A    between atoms: C14_13  and  C15_14 
REMARK   13  A    between atoms: C21_20  and  C22_21 
REMARK       I    between atoms: C22_21  and  N24_23 
REMARK   14  A    between atoms: C26_25  and  C28_26 
REMARK   15  A    between atoms: C35_33  and  C37_34 
ROOT
ATOM      1  P9  ZIN A   1      18.641   2.912  13.236  0.00  0.00     0.208 P 
ATOM      2  O10 ZIN A   1      19.565   4.005  12.861  0.00  0.00    -0.291 OA
ENDROOT
BRANCH   1   3
ATOM      3  O8  ZIN A   1      17.664   3.413  14.413  0.00  0.00    -0.301 OA
BRANCH   3   4
ATOM      4  C6  ZIN A   1      17.934   4.568  15.209  0.00  0.00     0.280 C 
BRANCH   4   5
ATOM      5  O5  ZIN A   1      17.776   5.763  14.398  0.00  0.00    -0.289 OA
BRANCH   5   6
ATOM      6  C3  ZIN A   1      16.581   5.951  13.817  0.00  0.00     0.260 C 
ATOM      7  O4  ZIN A   1      16.494   5.989  12.613  0.00  0.00    -0.265 OA
BRANCH   6   8
ATOM      8  C2  ZIN A   1      15.347   6.112  14.668  0.00  0.00     0.107 C 
ATOM      9  C1  ZIN A   1      15.383   7.475  15.363  0.00  0.00     0.015 C 
ENDBRANCH   6   8
ENDBRANCH   5   6
ENDBRANCH   4   5
BRANCH   4  10
ATOM     10  C40 ZIN A   1      19.367   4.498  15.740  0.00  0.00     0.034 C 
ATOM     11  C41 ZIN A   1      19.880   5.914  16.013  0.00  0.00     0.014 C 
ATOM     12  C42 ZIN A   1      19.391   3.688  17.036  0.00  0.00     0.014 C 
ENDBRANCH   4  10
ENDBRANCH   3   4
ENDBRANCH   1   3
BRANCH   1  13
ATOM     13  C11 ZIN A   1      17.649   2.432  11.784  0.00  0.00     0.102 C 
BRANCH  13  14
ATOM     14  C12 ZIN A   1      17.861   3.451  10.662  0.00  0.00     0.010 C 
BRANCH  14  15
ATOM     15  C13 ZIN A   1      18.619   2.790   9.510  0.00  0.00     0.005 C 
BRANCH  15  16
ATOM     16  C14 ZIN A   1      18.274   1.301   9.460  0.00  0.00     0.038 C 
BRANCH  16  17
ATOM     17  C15 ZIN A   1      18.236   0.843   8.024  0.00  0.00    -0.058 A 
ATOM     18  C20 ZIN A   1      19.177   1.308   7.124  0.00  0.00     0.007 A 
ATOM     19  C19 ZIN A   1      19.144   0.884   5.809  0.00  0.00     0.001 A 
ATOM     20  C18 ZIN A   1      18.166   0.001   5.391  0.00  0.00     0.000 A 
ATOM     21  C17 ZIN A   1      17.223  -0.461   6.290  0.00  0.00     0.001 A 
ATOM     22  C16 ZIN A   1      17.258  -0.040   7.605  0.00  0.00     0.007 A 
ENDBRANCH  16  17
ENDBRANCH  15  16
ENDBRANCH  14  15
ENDBRANCH  13  14
ENDBRANCH   1  13
BRANCH   1  23
ATOM     23  C21 ZIN A   1      19.603   1.476  13.815  0.00  0.00     0.204 C 
BRANCH  23  24
ATOM     24  C22 ZIN A   1      20.043   0.655  12.629  0.00  0.00     0.229 C 
ATOM     25  O23 ZIN A   1      20.976   1.027  11.947  0.00  0.00    -0.273 OA
ATOM     26  N24 ZIN A   1      19.402  -0.490  12.327  0.00  0.00    -0.337 N 
ATOM     27  C35 ZIN A   1      18.262  -1.055  13.065  0.00  0.00     0.188 C 
ATOM     28  C25 ZIN A   1      19.730  -1.389  11.205  0.00  0.00     0.132 C 
ATOM     29  C34 ZIN A   1      17.877  -2.379  12.372  0.00  0.00     0.043 C 
ATOM     30  C26 ZIN A   1      19.183  -2.773  11.633  0.00  0.00     0.010 C 
BRANCH  27  31
ATOM     31  C37 ZIN A   1      18.647  -1.318  14.499  0.00  0.00     0.197 C 
ATOM     32  O38 ZIN A   1      19.746  -1.777  14.760  0.00  0.00    -0.646 OA
ATOM     33  O39 ZIN A   1      17.859  -1.074  15.396  0.00  0.00    -0.646 OA
ENDBRANCH  27  31
BRANCH  30  34
ATOM     34  C28 ZIN A   1      18.881  -3.645  10.412  0.00  0.00    -0.009 C 
ATOM     35  C33 ZIN A   1      17.419  -4.093  10.455  0.00  0.00     0.005 C 
ATOM     36  C32 ZIN A   1      17.116  -4.964   9.234  0.00  0.00     0.000 C 
ATOM     37  C31 ZIN A   1      18.027  -6.193   9.247  0.00  0.00     0.000 C 
ATOM     38  C30 ZIN A   1      19.490  -5.746   9.205  0.00  0.00     0.000 C 
ATOM     39  C29 ZIN A   1      19.791  -4.874  10.426  0.00  0.00     0.005 C 
ENDBRANCH  30  34
ENDBRANCH  23  24
ENDBRANCH   1  23
TORSDOF 15
ENDMDL
