MODEL 1
REMARK VINA RESULT:      -7.1      0.000      0.000
REMARK  5 active torsions:
REMARK  status: ('A' for Active; 'I' for Inactive)
REMARK    1  A    between atoms: C2_2  and  C3_3 
REMARK    2  A    between atoms: C3_3  and  C4_4 
REMARK    3  A    between atoms: C4_4  and  N5_5 
REMARK    4  A    between atoms: C11_11  and  C13_12 
REMARK       I    between atoms: C13_12  and  N15_14 
REMARK    5  A    between atoms: N15_14  and  C16_15 
ROOT
ATOM      1  C13 ZIN A   1      18.768   1.018  13.426  0.00  0.00     0.253 C 
ATOM      2  O14 ZIN A   1      19.937   0.750  13.613  0.00  0.00    -0.271 OA
ATOM      3  N15 ZIN A   1      17.926   1.129  14.473  0.00  0.00    -0.324 N 
ATOM      4  H41 ZIN A   1      16.983   1.292  14.320  0.00  0.00     0.169 HD
ENDROOT
BRANCH   1   5
ATOM      5  C11 ZIN A   1      18.258   1.226  12.023  0.00  0.00     0.279 C 
ATOM      6  N5  ZIN A   1      18.219  -0.064  11.324  0.00  0.00    -0.058 N 
ATOM      7  H6  ZIN A   1      19.155  -0.431  11.246  0.00  0.00     0.280 HD
ATOM      8  C7  ZIN A   1      17.651   0.115   9.983  0.00  0.00     0.236 C 
ATOM      9  C8  ZIN A   1      18.557   1.033   9.159  0.00  0.00     0.028 C 
ATOM     10  C9  ZIN A   1      18.666   2.392   9.855  0.00  0.00     0.004 C 
ATOM     11  C10 ZIN A   1      19.190   2.185  11.279  0.00  0.00     0.043 C 
BRANCH   6  12
ATOM     12  C4  ZIN A   1      17.388  -1.007  12.084  0.00  0.00     0.236 C 
BRANCH  12  13
ATOM     13  C3  ZIN A   1      17.922  -2.428  11.893  0.00  0.00     0.027 C 
BRANCH  13  14
ATOM     14  C2  ZIN A   1      19.417  -2.459  12.220  0.00  0.00    -0.003 C 
ATOM     15  C1  ZIN A   1      20.058  -3.680  11.558  0.00  0.00     0.005 C 
ENDBRANCH  13  14
ENDBRANCH  12  13
ENDBRANCH   6  12
ENDBRANCH   1   5
BRANCH   3  16
ATOM     16  C16 ZIN A   1      18.414   1.009  15.779  0.00  0.00     0.046 A 
ATOM     17  C22 ZIN A   1      18.515  -0.243  16.371  0.00  0.00    -0.035 A 
ATOM     18  C21 ZIN A   1      19.003  -0.359  17.659  0.00  0.00     0.009 A 
ATOM     19  C23 ZIN A   1      18.109  -1.475  15.605  0.00  0.00     0.050 C 
ATOM     20  C20 ZIN A   1      19.376   0.772  18.362  0.00  0.00     0.001 A 
ATOM     21  C19 ZIN A   1      19.269   2.020  17.778  0.00  0.00     0.009 A 
ATOM     22  C17 ZIN A   1      18.789   2.143  16.488  0.00  0.00    -0.035 A 
ATOM     23  C18 ZIN A   1      18.673   3.503  15.852  0.00  0.00     0.050 C 
ENDBRANCH   3  16
TORSDOF 5
ENDMDL
MODEL 2
REMARK VINA RESULT:      -7.1      0.088      1.871
REMARK  5 active torsions:
REMARK  status: ('A' for Active; 'I' for Inactive)
REMARK    1  A    between atoms: C2_2  and  C3_3 
REMARK    2  A    between atoms: C3_3  and  C4_4 
REMARK    3  A    between atoms: C4_4  and  N5_5 
REMARK    4  A    between atoms: C11_11  and  C13_12 
REMARK       I    between atoms: C13_12  and  N15_14 
REMARK    5  A    between atoms: N15_14  and  C16_15 
ROOT
ATOM      1  C13 ZIN A   1      18.789   1.028  13.351  0.00  0.00     0.253 C 
ATOM      2  O14 ZIN A   1      19.957   0.763  13.541  0.00  0.00    -0.271 OA
ATOM      3  N15 ZIN A   1      17.944   1.132  14.396  0.00  0.00    -0.324 N 
ATOM      4  H41 ZIN A   1      17.000   1.294  14.242  0.00  0.00     0.169 HD
ENDROOT
BRANCH   1   5
ATOM      5  C11 ZIN A   1      18.282   1.241  11.948  0.00  0.00     0.279 C 
ATOM      6  N5  ZIN A   1      18.229  -0.049  11.250  0.00  0.00    -0.058 N 
ATOM      7  H6  ZIN A   1      19.161  -0.427  11.173  0.00  0.00     0.280 HD
ATOM      8  C7  ZIN A   1      17.664   0.135   9.908  0.00  0.00     0.236 C 
ATOM      9  C8  ZIN A   1      18.581   1.042   9.085  0.00  0.00     0.028 C 
ATOM     10  C9  ZIN A   1      18.705   2.400   9.780  0.00  0.00     0.004 C 
ATOM     11  C10 ZIN A   1      19.225   2.189  11.204  0.00  0.00     0.043 C 
BRANCH   6  12
ATOM     12  C4  ZIN A   1      17.386  -0.982  12.010  0.00  0.00     0.236 C 
BRANCH  12  13
ATOM     13  C3  ZIN A   1      17.896  -2.410  11.810  0.00  0.00     0.027 C 
BRANCH  13  14
ATOM     14  C2  ZIN A   1      19.402  -2.457  12.077  0.00  0.00    -0.003 C 
ATOM     15  C1  ZIN A   1      19.970  -3.782  11.566  0.00  0.00     0.005 C 
ENDBRANCH  13  14
ENDBRANCH  12  13
ENDBRANCH   6  12
ENDBRANCH   1   5
BRANCH   3  16
ATOM     16  C16 ZIN A   1      18.428   1.008  15.704  0.00  0.00     0.046 A 
ATOM     17  C22 ZIN A   1      18.822   2.137  16.409  0.00  0.00    -0.035 A 
ATOM     18  C21 ZIN A   1      19.293   2.012  17.702  0.00  0.00     0.009 A 
ATOM     19  C23 ZIN A   1      18.722   3.499  15.771  0.00  0.00     0.050 C 
ATOM     20  C20 ZIN A   1      19.385   0.763  18.288  0.00  0.00     0.001 A 
ATOM     21  C19 ZIN A   1      18.999  -0.363  17.585  0.00  0.00     0.009 A 
ATOM     22  C17 ZIN A   1      18.520  -0.245  16.295  0.00  0.00    -0.035 A 
ATOM     23  C18 ZIN A   1      18.100  -1.473  15.530  0.00  0.00     0.050 C 
ENDBRANCH   3  16
TORSDOF 5
ENDMDL
MODEL 3
REMARK VINA RESULT:      -7.1      4.169      6.397
REMARK  5 active torsions:
REMARK  status: ('A' for Active; 'I' for Inactive)
REMARK    1  A    between atoms: C2_2  and  C3_3 
REMARK    2  A    between atoms: C3_3  and  C4_4 
REMARK    3  A    between atoms: C4_4  and  N5_5 
REMARK    4  A    between atoms: C11_11  and  C13_12 
REMARK       I    between atoms: C13_12  and  N15_14 
REMARK    5  A    between atoms: N15_14  and  C16_15 
ROOT
ATOM      1  C13 ZIN A   1      18.649  -1.899   8.838  0.00  0.00     0.253 C 
ATOM      2  O14 ZIN A   1      17.531  -1.539   9.143  0.00  0.00    -0.271 OA
ATOM      3  N15 ZIN A   1      19.670  -1.019   8.862  0.00  0.00    -0.324 N 
ATOM      4  H41 ZIN A   1      20.552  -1.293   8.569  0.00  0.00     0.169 HD
ENDROOT
BRANCH   1   5
ATOM      5  C11 ZIN A   1      18.895  -3.329   8.433  0.00  0.00     0.279 C 
ATOM      6  N5  ZIN A   1      19.744  -3.979   9.439  0.00  0.00    -0.058 N 
ATOM      7  H6  ZIN A   1      20.642  -3.521   9.465  0.00  0.00     0.280 HD
ATOM      8  C7  ZIN A   1      19.927  -5.394   9.095  0.00  0.00     0.236 C 
ATOM      9  C8  ZIN A   1      20.665  -5.507   7.759  0.00  0.00     0.028 C 
ATOM     10  C9  ZIN A   1      19.843  -4.817   6.668  0.00  0.00     0.004 C 
ATOM     11  C10 ZIN A   1      19.595  -3.361   7.072  0.00  0.00     0.043 C 
BRANCH   6  12
ATOM     12  C4  ZIN A   1      19.105  -3.877  10.757  0.00  0.00     0.236 C 
BRANCH  12  13
ATOM     13  C3  ZIN A   1      18.294  -5.144  11.031  0.00  0.00     0.027 C 
BRANCH  13  14
ATOM     14  C2  ZIN A   1      16.800  -4.817  10.969  0.00  0.00    -0.003 C 
ATOM     15  C1  ZIN A   1      16.206  -5.389   9.680  0.00  0.00     0.005 C 
ENDBRANCH  13  14
ENDBRANCH  12  13
ENDBRANCH   6  12
ENDBRANCH   1   5
BRANCH   3  16
ATOM     16  C16 ZIN A   1      19.456   0.290   9.309  0.00  0.00     0.046 A 
ATOM     17  C22 ZIN A   1      19.632   0.604  10.649  0.00  0.00    -0.035 A 
ATOM     18  C21 ZIN A   1      19.427   1.899  11.087  0.00  0.00     0.009 A 
ATOM     19  C23 ZIN A   1      20.061  -0.462  11.624  0.00  0.00     0.050 C 
ATOM     20  C20 ZIN A   1      19.033   2.877  10.193  0.00  0.00     0.001 A 
ATOM     21  C19 ZIN A   1      18.851   2.566   8.858  0.00  0.00     0.009 A 
ATOM     22  C17 ZIN A   1      19.061   1.275   8.413  0.00  0.00    -0.035 A 
ATOM     23  C18 ZIN A   1      18.862   0.936   6.958  0.00  0.00     0.050 C 
ENDBRANCH   3  16
TORSDOF 5
ENDMDL
MODEL 4
REMARK VINA RESULT:      -7.1      2.634      7.441
REMARK  5 active torsions:
REMARK  status: ('A' for Active; 'I' for Inactive)
REMARK    1  A    between atoms: C2_2  and  C3_3 
REMARK    2  A    between atoms: C3_3  and  C4_4 
REMARK    3  A    between atoms: C4_4  and  N5_5 
REMARK    4  A    between atoms: C11_11  and  C13_12 
REMARK       I    between atoms: C13_12  and  N15_14 
REMARK    5  A    between atoms: N15_14  and  C16_15 
ROOT
ATOM      1  C13 ZIN A   1      19.358  -0.372   9.996  0.00  0.00     0.253 C 
ATOM      2  O14 ZIN A   1      20.521  -0.466   9.661  0.00  0.00    -0.271 OA
ATOM      3  N15 ZIN A   1      18.392  -0.288   9.059  0.00  0.00    -0.324 N 
ATOM      4  H41 ZIN A   1      17.469  -0.162   9.326  0.00  0.00     0.169 HD
ENDROOT
BRANCH   1   5
ATOM      5  C11 ZIN A   1      18.994  -0.350  11.458  0.00  0.00     0.279 C 
ATOM      6  N5  ZIN A   1      19.837   0.631  12.153  0.00  0.00    -0.058 N 
ATOM      7  H6  ZIN A   1      20.802   0.344  12.094  0.00  0.00     0.280 HD
ATOM      8  C7  ZIN A   1      19.439   0.717  13.563  0.00  0.00     0.236 C 
ATOM      9  C8  ZIN A   1      19.678  -0.631  14.248  0.00  0.00     0.028 C 
ATOM     10  C9  ZIN A   1      18.847  -1.708  13.545  0.00  0.00     0.004 C 
ATOM     11  C10 ZIN A   1      19.218  -1.739  12.060  0.00  0.00     0.043 C 
BRANCH   6  12
ATOM     12  C4  ZIN A   1      19.679   1.947  11.520  0.00  0.00     0.236 C 
BRANCH  12  13
ATOM     13  C3  ZIN A   1      18.415   2.622  12.055  0.00  0.00     0.027 C 
BRANCH  13  14
ATOM     14  C2  ZIN A   1      17.502   2.996  10.885  0.00  0.00    -0.003 C 
ATOM     15  C1  ZIN A   1      17.789   4.436  10.455  0.00  0.00     0.005 C 
ENDBRANCH  13  14
ENDBRANCH  12  13
ENDBRANCH   6  12
ENDBRANCH   1   5
BRANCH   3  16
ATOM     16  C16 ZIN A   1      18.722  -0.383   7.702  0.00  0.00     0.046 A 
ATOM     17  C22 ZIN A   1      18.788  -1.626   7.089  0.00  0.00    -0.035 A 
ATOM     18  C21 ZIN A   1      19.107  -1.717   5.747  0.00  0.00     0.009 A 
ATOM     19  C23 ZIN A   1      18.496  -2.875   7.880  0.00  0.00     0.050 C 
ATOM     20  C20 ZIN A   1      19.375  -0.572   5.020  0.00  0.00     0.001 A 
ATOM     21  C19 ZIN A   1      19.317   0.668   5.631  0.00  0.00     0.009 A 
ATOM     22  C17 ZIN A   1      18.991   0.766   6.970  0.00  0.00    -0.035 A 
ATOM     23  C18 ZIN A   1      18.928   2.116   7.634  0.00  0.00     0.050 C 
ENDBRANCH   3  16
TORSDOF 5
ENDMDL
MODEL 5
REMARK VINA RESULT:      -7.0      1.566      6.817
REMARK  5 active torsions:
REMARK  status: ('A' for Active; 'I' for Inactive)
REMARK    1  A    between atoms: C2_2  and  C3_3 
REMARK    2  A    between atoms: C3_3  and  C4_4 
REMARK    3  A    between atoms: C4_4  and  N5_5 
REMARK    4  A    between atoms: C11_11  and  C13_12 
REMARK       I    between atoms: C13_12  and  N15_14 
REMARK    5  A    between atoms: N15_14  and  C16_15 
ROOT
ATOM      1  C13 ZIN A   1      18.728   1.199  13.953  0.00  0.00     0.253 C 
ATOM      2  O14 ZIN A   1      19.791   0.819  13.509  0.00  0.00    -0.271 OA
ATOM      3  N15 ZIN A   1      17.799   1.720  13.127  0.00  0.00    -0.324 N 
ATOM      4  H41 ZIN A   1      16.971   2.070  13.488  0.00  0.00     0.169 HD
ENDROOT
BRANCH   1   5
ATOM      5  C11 ZIN A   1      18.446   1.088  15.430  0.00  0.00     0.279 C 
ATOM      6  N5  ZIN A   1      19.333   1.999  16.163  0.00  0.00    -0.058 N 
ATOM      7  H6  ZIN A   1      20.291   1.717  16.024  0.00  0.00     0.280 HD
ATOM      8  C7  ZIN A   1      19.014   1.957  17.595  0.00  0.00     0.236 C 
ATOM      9  C8  ZIN A   1      19.281   0.552  18.140  0.00  0.00     0.028 C 
ATOM     10  C9  ZIN A   1      18.405  -0.455  17.390  0.00  0.00     0.004 C 
ATOM     11  C10 ZIN A   1      18.693  -0.350  15.889  0.00  0.00     0.043 C 
BRANCH   6  12
ATOM     12  C4  ZIN A   1      19.150   3.368  15.663  0.00  0.00     0.236 C 
BRANCH  12  13
ATOM     13  C3  ZIN A   1      20.056   4.322  16.443  0.00  0.00     0.027 C 
BRANCH  13  14
ATOM     14  C2  ZIN A   1      19.764   5.764  16.019  0.00  0.00    -0.003 C 
ATOM     15  C1  ZIN A   1      20.579   6.102  14.769  0.00  0.00     0.005 C 
ENDBRANCH  13  14
ENDBRANCH  12  13
ENDBRANCH   6  12
ENDBRANCH   1   5
BRANCH   3  16
ATOM     16  C16 ZIN A   1      18.031   1.755  11.747  0.00  0.00     0.046 A 
ATOM     17  C22 ZIN A   1      18.647   2.859  11.173  0.00  0.00    -0.035 A 
ATOM     18  C21 ZIN A   1      18.880   2.888   9.812  0.00  0.00     0.009 A 
ATOM     19  C23 ZIN A   1      19.075   4.017  12.036  0.00  0.00     0.050 C 
ATOM     20  C20 ZIN A   1      18.487   1.825   9.019  0.00  0.00     0.001 A 
ATOM     21  C19 ZIN A   1      17.867   0.727   9.587  0.00  0.00     0.009 A 
ATOM     22  C17 ZIN A   1      17.638   0.688  10.949  0.00  0.00    -0.035 A 
ATOM     23  C18 ZIN A   1      16.962  -0.508  11.566  0.00  0.00     0.050 C 
ENDBRANCH   3  16
TORSDOF 5
ENDMDL
MODEL 6
REMARK VINA RESULT:      -7.0      1.847      4.114
REMARK  5 active torsions:
REMARK  status: ('A' for Active; 'I' for Inactive)
REMARK    1  A    between atoms: C2_2  and  C3_3 
REMARK    2  A    between atoms: C3_3  and  C4_4 
REMARK    3  A    between atoms: C4_4  and  N5_5 
REMARK    4  A    between atoms: C11_11  and  C13_12 
REMARK       I    between atoms: C13_12  and  N15_14 
REMARK    5  A    between atoms: N15_14  and  C16_15 
ROOT
ATOM      1  C13 ZIN A   1      18.794   1.094  12.603  0.00  0.00     0.253 C 
ATOM      2  O14 ZIN A   1      17.614   0.903  12.809  0.00  0.00    -0.271 OA
ATOM      3  N15 ZIN A   1      19.664   1.112  13.633  0.00  0.00    -0.324 N 
ATOM      4  H41 ZIN A   1      20.599   1.315  13.474  0.00  0.00     0.169 HD
ENDROOT
BRANCH   1   5
ATOM      5  C11 ZIN A   1      19.288   1.312  11.195  0.00  0.00     0.279 C 
ATOM      6  N5  ZIN A   1      18.449   2.321  10.538  0.00  0.00    -0.058 N 
ATOM      7  H6  ZIN A   1      17.503   1.977  10.468  0.00  0.00     0.280 HD
ATOM      8  C7  ZIN A   1      18.968   2.598   9.193  0.00  0.00     0.236 C 
ATOM      9  C8  ZIN A   1      18.882   1.331   8.338  0.00  0.00     0.028 C 
ATOM     10  C9  ZIN A   1      19.714   0.224   8.991  0.00  0.00     0.004 C 
ATOM     11  C10 ZIN A   1      19.212  -0.005  10.419  0.00  0.00     0.043 C 
BRANCH   6  12
ATOM     12  C4  ZIN A   1      18.461   3.558  11.329  0.00  0.00     0.236 C 
BRANCH  12  13
ATOM     13  C3  ZIN A   1      17.753   4.669  10.551  0.00  0.00     0.027 C 
BRANCH  13  14
ATOM     14  C2  ZIN A   1      16.480   5.080  11.294  0.00  0.00    -0.003 C 
ATOM     15  C1  ZIN A   1      16.781   5.211  12.788  0.00  0.00     0.005 C 
ENDBRANCH  13  14
ENDBRANCH  12  13
ENDBRANCH   6  12
ENDBRANCH   1   5
BRANCH   3  16
ATOM     16  C16 ZIN A   1      19.218   0.836  14.930  0.00  0.00     0.046 A 
ATOM     17  C22 ZIN A   1      18.884   1.877  15.786  0.00  0.00    -0.035 A 
ATOM     18  C21 ZIN A   1      18.437   1.602  17.064  0.00  0.00     0.009 A 
ATOM     19  C23 ZIN A   1      18.991   3.305  15.316  0.00  0.00     0.050 C 
ATOM     20  C20 ZIN A   1      18.339   0.292  17.496  0.00  0.00     0.001 A 
ATOM     21  C19 ZIN A   1      18.678  -0.746  16.649  0.00  0.00     0.009 A 
ATOM     22  C17 ZIN A   1      19.117  -0.478  15.367  0.00  0.00    -0.035 A 
ATOM     23  C18 ZIN A   1      19.487  -1.610  14.444  0.00  0.00     0.050 C 
ENDBRANCH   3  16
TORSDOF 5
ENDMDL
MODEL 7
REMARK VINA RESULT:      -6.9      2.585      6.804
REMARK  5 active torsions:
REMARK  status: ('A' for Active; 'I' for Inactive)
REMARK    1  A    between atoms: C2_2  and  C3_3 
REMARK    2  A    between atoms: C3_3  and  C4_4 
REMARK    3  A    between atoms: C4_4  and  N5_5 
REMARK    4  A    between atoms: C11_11  and  C13_12 
REMARK       I    between atoms: C13_12  and  N15_14 
REMARK    5  A    between atoms: N15_14  and  C16_15 
ROOT
ATOM      1  C13 ZIN A   1      18.535  -0.490  10.415  0.00  0.00     0.253 C 
ATOM      2  O14 ZIN A   1      17.377  -0.588  10.068  0.00  0.00    -0.271 OA
ATOM      3  N15 ZIN A   1      19.510  -0.388   9.488  0.00  0.00    -0.324 N 
ATOM      4  H41 ZIN A   1      20.439  -0.361   9.764  0.00  0.00     0.169 HD
ENDROOT
BRANCH   1   5
ATOM      5  C11 ZIN A   1      18.885  -0.482  11.881  0.00  0.00     0.279 C 
ATOM      6  N5  ZIN A   1      18.928  -1.863  12.377  0.00  0.00    -0.058 N 
ATOM      7  H6  ZIN A   1      18.013  -2.277  12.294  0.00  0.00     0.280 HD
ATOM      8  C7  ZIN A   1      19.344  -1.872  13.784  0.00  0.00     0.236 C 
ATOM      9  C8  ZIN A   1      18.304  -1.134  14.631  0.00  0.00     0.028 C 
ATOM     10  C9  ZIN A   1      18.187   0.311  14.141  0.00  0.00     0.004 C 
ATOM     11  C10 ZIN A   1      17.826   0.308  12.653  0.00  0.00     0.043 C 
BRANCH   6  12
ATOM     12  C4  ZIN A   1      19.888  -2.638  11.580  0.00  0.00     0.236 C 
BRANCH  12  13
ATOM     13  C3  ZIN A   1      19.451  -4.104  11.538  0.00  0.00     0.027 C 
BRANCH  13  14
ATOM     14  C2  ZIN A   1      17.949  -4.181  11.257  0.00  0.00    -0.003 C 
ATOM     15  C1  ZIN A   1      17.340  -5.339  12.050  0.00  0.00     0.005 C 
ENDBRANCH  13  14
ENDBRANCH  12  13
ENDBRANCH   6  12
ENDBRANCH   1   5
BRANCH   3  16
ATOM     16  C16 ZIN A   1      19.180  -0.321   8.130  0.00  0.00     0.046 A 
ATOM     17  C22 ZIN A   1      19.069  -1.486   7.383  0.00  0.00    -0.035 A 
ATOM     18  C21 ZIN A   1      18.737  -1.417   6.044  0.00  0.00     0.009 A 
ATOM     19  C23 ZIN A   1      19.294  -2.825   8.036  0.00  0.00     0.050 C 
ATOM     20  C20 ZIN A   1      18.531  -0.188   5.444  0.00  0.00     0.001 A 
ATOM     21  C19 ZIN A   1      18.648   0.974   6.184  0.00  0.00     0.009 A 
ATOM     22  C17 ZIN A   1      18.972   0.912   7.525  0.00  0.00    -0.035 A 
ATOM     23  C18 ZIN A   1      19.099   2.179   8.331  0.00  0.00     0.050 C 
ENDBRANCH   3  16
TORSDOF 5
ENDMDL
MODEL 8
REMARK VINA RESULT:      -6.9      3.465      8.167
REMARK  5 active torsions:
REMARK  status: ('A' for Active; 'I' for Inactive)
REMARK    1  A    between atoms: C2_2  and  C3_3 
REMARK    2  A    between atoms: C3_3  and  C4_4 
REMARK    3  A    between atoms: C4_4  and  N5_5 
REMARK    4  A    between atoms: C11_11  and  C13_12 
REMARK       I    between atoms: C13_12  and  N15_14 
REMARK    5  A    between atoms: N15_14  and  C16_15 
ROOT
ATOM      1  C13 ZIN A   1      18.160  -2.740   8.594  0.00  0.00     0.253 C 
ATOM      2  O14 ZIN A   1      19.372  -2.696   8.592  0.00  0.00    -0.271 OA
ATOM      3  N15 ZIN A   1      17.455  -1.926   7.783  0.00  0.00    -0.324 N 
ATOM      4  H41 ZIN A   1      16.486  -1.926   7.821  0.00  0.00     0.169 HD
ENDROOT
BRANCH   1   5
ATOM      5  C11 ZIN A   1      17.442  -3.706   9.502  0.00  0.00     0.279 C 
ATOM      6  N5  ZIN A   1      17.911  -3.515  10.880  0.00  0.00    -0.058 N 
ATOM      7  H6  ZIN A   1      18.893  -3.735  10.933  0.00  0.00     0.280 HD
ATOM      8  C7  ZIN A   1      17.163  -4.396  11.785  0.00  0.00     0.236 C 
ATOM      9  C8  ZIN A   1      17.441  -5.857  11.425  0.00  0.00     0.028 C 
ATOM     10  C9  ZIN A   1      17.002  -6.114   9.981  0.00  0.00     0.004 C 
ATOM     11  C10 ZIN A   1      17.734  -5.139   9.054  0.00  0.00     0.043 C 
BRANCH   6  12
ATOM     12  C4  ZIN A   1      17.702  -2.117  11.278  0.00  0.00     0.236 C 
BRANCH  12  13
ATOM     13  C3  ZIN A   1      18.812  -1.688  12.240  0.00  0.00     0.027 C 
BRANCH  13  14
ATOM     14  C2  ZIN A   1      18.192  -1.220  13.559  0.00  0.00    -0.003 C 
ATOM     15  C1  ZIN A   1      19.252  -1.260  14.662  0.00  0.00     0.005 C 
ENDBRANCH  13  14
ENDBRANCH  12  13
ENDBRANCH   6  12
ENDBRANCH   1   5
BRANCH   3  16
ATOM     16  C16 ZIN A   1      18.120  -1.083   6.886  0.00  0.00     0.046 A 
ATOM     17  C22 ZIN A   1      18.429   0.219   7.256  0.00  0.00    -0.035 A 
ATOM     18  C21 ZIN A   1      19.092   1.048   6.371  0.00  0.00     0.009 A 
ATOM     19  C23 ZIN A   1      18.055   0.724   8.626  0.00  0.00     0.050 C 
ATOM     20  C20 ZIN A   1      19.436   0.586   5.114  0.00  0.00     0.001 A 
ATOM     21  C19 ZIN A   1      19.123  -0.709   4.741  0.00  0.00     0.009 A 
ATOM     22  C17 ZIN A   1      18.467  -1.545   5.623  0.00  0.00    -0.035 A 
ATOM     23  C18 ZIN A   1      18.127  -2.955   5.216  0.00  0.00     0.050 C 
ENDBRANCH   3  16
TORSDOF 5
ENDMDL
MODEL 9
REMARK VINA RESULT:      -6.9      2.867      7.827
REMARK  5 active torsions:
REMARK  status: ('A' for Active; 'I' for Inactive)
REMARK    1  A    between atoms: C2_2  and  C3_3 
REMARK    2  A    between atoms: C3_3  and  C4_4 
REMARK    3  A    between atoms: C4_4  and  N5_5 
REMARK    4  A    between atoms: C11_11  and  C13_12 
REMARK       I    between atoms: C13_12  and  N15_14 
REMARK    5  A    between atoms: N15_14  and  C16_15 
ROOT
ATOM      1  C13 ZIN A   1      18.054  -0.684   9.660  0.00  0.00     0.253 C 
ATOM      2  O14 ZIN A   1      17.007  -0.590   9.055  0.00  0.00    -0.271 OA
ATOM      3  N15 ZIN A   1      19.223  -0.675   8.990  0.00  0.00    -0.324 N 
ATOM      4  H41 ZIN A   1      20.057  -0.801   9.469  0.00  0.00     0.169 HD
ENDROOT
BRANCH   1   5
ATOM      5  C11 ZIN A   1      18.047  -0.811  11.162  0.00  0.00     0.279 C 
ATOM      6  N5  ZIN A   1      18.421   0.476  11.760  0.00  0.00    -0.058 N 
ATOM      7  H6  ZIN A   1      19.364   0.710  11.488  0.00  0.00     0.280 HD
ATOM      8  C7  ZIN A   1      18.341   0.386  13.222  0.00  0.00     0.236 C 
ATOM      9  C8  ZIN A   1      19.354  -0.643  13.729  0.00  0.00     0.028 C 
ATOM     10  C9  ZIN A   1      19.037  -2.009  13.114  0.00  0.00     0.004 C 
ATOM     11  C10 ZIN A   1      19.049  -1.886  11.588  0.00  0.00     0.043 C 
BRANCH   6  12
ATOM     12  C4  ZIN A   1      17.503   1.520  11.285  0.00  0.00     0.236 C 
BRANCH  12  13
ATOM     13  C3  ZIN A   1      18.079   2.897  11.620  0.00  0.00     0.027 C 
BRANCH  13  14
ATOM     14  C2  ZIN A   1      17.459   3.948  10.696  0.00  0.00    -0.003 C 
ATOM     15  C1  ZIN A   1      16.857   5.075  11.537  0.00  0.00     0.005 C 
ENDBRANCH  13  14
ENDBRANCH  12  13
ENDBRANCH   6  12
ENDBRANCH   1   5
BRANCH   3  16
ATOM     16  C16 ZIN A   1      19.235  -0.482   7.604  0.00  0.00     0.046 A 
ATOM     17  C22 ZIN A   1      19.232   0.803   7.080  0.00  0.00    -0.035 A 
ATOM     18  C21 ZIN A   1      19.250   0.990   5.711  0.00  0.00     0.009 A 
ATOM     19  C23 ZIN A   1      19.227   1.994   8.004  0.00  0.00     0.050 C 
ATOM     20  C20 ZIN A   1      19.256  -0.102   4.864  0.00  0.00     0.001 A 
ATOM     21  C19 ZIN A   1      19.251  -1.384   5.382  0.00  0.00     0.009 A 
ATOM     22  C17 ZIN A   1      19.241  -1.578   6.750  0.00  0.00    -0.035 A 
ATOM     23  C18 ZIN A   1      19.236  -2.975   7.314  0.00  0.00     0.050 C 
ENDBRANCH   3  16
TORSDOF 5
ENDMDL
