MODEL 1
REMARK VINA RESULT:      -9.3      0.000      0.000
REMARK  3 active torsions:
REMARK  status: ('A' for Active; 'I' for Inactive)
REMARK    1  A    between atoms: C2_2  and  O3_3 
REMARK       I    between atoms: C2_2  and  N14_13 
REMARK    2  A    between atoms: O3_3  and  C4_4 
REMARK    3  A    between atoms: C23_22  and  C25_23 
ROOT
ATOM      1  O1  ZIN A   1      16.219  -0.055  11.004  0.00  0.00    -0.238 OA
ATOM      2  C2  ZIN A   1      17.416  -0.105  11.206  0.00  0.00     0.364 C 
ATOM      3  N14 ZIN A   1      18.185  -0.948  10.488  0.00  0.00    -0.315 N 
ATOM      4  C15 ZIN A   1      19.637  -1.036  10.714  0.00  0.00     0.134 C 
ATOM      5  C16 ZIN A   1      19.948  -2.442  11.226  0.00  0.00     0.059 C 
ATOM      6  C17 ZIN A   1      19.266  -3.485  10.380  0.00  0.00    -0.048 A 
ATOM      7  C18 ZIN A   1      19.764  -4.781  10.428  0.00  0.00     0.008 A 
ATOM      8  C19 ZIN A   1      19.178  -5.785   9.686  0.00  0.00     0.001 A 
ATOM      9  C20 ZIN A   1      18.087  -5.503   8.887  0.00  0.00     0.001 A 
ATOM     10  C21 ZIN A   1      17.591  -4.216   8.835  0.00  0.00     0.010 A 
ATOM     11  C22 ZIN A   1      18.183  -3.202   9.577  0.00  0.00    -0.024 A 
ATOM     12  C23 ZIN A   1      17.609  -1.818   9.458  0.00  0.00     0.156 C 
ENDROOT
BRANCH   2  13
ATOM     13  O3  ZIN A   1      17.972   0.678  12.149  0.00  0.00    -0.296 OA
BRANCH  13  14
ATOM     14  C4  ZIN A   1      17.548   2.066  12.189  0.00  0.00     0.163 C 
ATOM     15  C11 ZIN A   1      17.799   2.720  10.824  0.00  0.00     0.020 C 
ATOM     16  C10 ZIN A   1      19.309   2.665  10.535  0.00  0.00     0.035 C 
ATOM     17  C12 ZIN A   1      17.376   4.192  10.906  0.00  0.00     0.035 C 
ATOM     18  C9  ZIN A   1      20.053   3.396  11.654  0.00  0.00     0.235 C 
ATOM     19  N7  ZIN A   1      19.099   3.914  12.637  0.00  0.00    -0.069 N 
ATOM     20  C6  ZIN A   1      18.350   2.817  13.254  0.00  0.00     0.267 C 
ATOM     21  H8  ZIN A   1      19.614   4.394  13.360  0.00  0.00     0.280 HD
ATOM     22  C13 ZIN A   1      18.187   4.870  12.005  0.00  0.00     0.235 C 
ENDBRANCH  13  14
ENDBRANCH   2  13
BRANCH  12  23
ATOM     23  C25 ZIN A   1      17.932  -1.256   8.098  0.00  0.00    -0.031 A 
ATOM     24  C30 ZIN A   1      18.970  -1.790   7.359  0.00  0.00     0.009 A 
ATOM     25  C29 ZIN A   1      19.264  -1.278   6.109  0.00  0.00     0.001 A 
ATOM     26  C28 ZIN A   1      18.525  -0.224   5.603  0.00  0.00     0.000 A 
ATOM     27  C27 ZIN A   1      17.491   0.313   6.344  0.00  0.00     0.001 A 
ATOM     28  C26 ZIN A   1      17.195  -0.203   7.593  0.00  0.00     0.009 A 
ENDBRANCH  12  23
TORSDOF 3
ENDMDL
MODEL 2
REMARK VINA RESULT:      -9.1      2.491      7.855
REMARK  3 active torsions:
REMARK  status: ('A' for Active; 'I' for Inactive)
REMARK    1  A    between atoms: C2_2  and  O3_3 
REMARK       I    between atoms: C2_2  and  N14_13 
REMARK    2  A    between atoms: O3_3  and  C4_4 
REMARK    3  A    between atoms: C23_22  and  C25_23 
ROOT
ATOM      1  O1  ZIN A   1      16.524  -1.079  12.104  0.00  0.00    -0.238 OA
ATOM      2  C2  ZIN A   1      17.727  -1.044  11.935  0.00  0.00     0.364 C 
ATOM      3  N14 ZIN A   1      18.461  -0.080  12.524  0.00  0.00    -0.315 N 
ATOM      4  C15 ZIN A   1      19.920  -0.007  12.335  0.00  0.00     0.134 C 
ATOM      5  C16 ZIN A   1      20.234   1.296  11.602  0.00  0.00     0.059 C 
ATOM      6  C17 ZIN A   1      19.511   2.456  12.237  0.00  0.00    -0.048 A 
ATOM      7  C18 ZIN A   1      19.997   3.733  11.987  0.00  0.00     0.008 A 
ATOM      8  C19 ZIN A   1      19.376   4.839  12.529  0.00  0.00     0.001 A 
ATOM      9  C20 ZIN A   1      18.260   4.678  13.327  0.00  0.00     0.001 A 
ATOM     10  C21 ZIN A   1      17.777   3.410  13.580  0.00  0.00     0.010 A 
ATOM     11  C22 ZIN A   1      18.404   2.296  13.040  0.00  0.00    -0.024 A 
ATOM     12  C23 ZIN A   1      17.841   0.942  13.373  0.00  0.00     0.156 C 
ENDROOT
BRANCH   2  13
ATOM     13  O3  ZIN A   1      18.324  -1.966  11.157  0.00  0.00    -0.296 OA
BRANCH  13  14
ATOM     14  C4  ZIN A   1      17.586  -3.189  10.900  0.00  0.00     0.163 C 
ATOM     15  C11 ZIN A   1      18.153  -4.324  11.763  0.00  0.00     0.020 C 
ATOM     16  C10 ZIN A   1      19.626  -4.534  11.372  0.00  0.00     0.035 C 
ATOM     17  C12 ZIN A   1      17.380  -5.610  11.443  0.00  0.00     0.035 C 
ATOM     18  C9  ZIN A   1      19.699  -4.873   9.882  0.00  0.00     0.235 C 
ATOM     19  N7  ZIN A   1      18.353  -4.890   9.304  0.00  0.00    -0.069 N 
ATOM     20  C6  ZIN A   1      17.725  -3.571   9.424  0.00  0.00     0.267 C 
ATOM     21  H8  ZIN A   1      18.429  -5.119   8.325  0.00  0.00     0.280 HD
ATOM     22  C13 ZIN A   1      17.533  -5.912   9.958  0.00  0.00     0.235 C 
ENDBRANCH  13  14
ENDBRANCH   2  13
BRANCH  12  23
ATOM     23  C25 ZIN A   1      18.122   0.623  14.819  0.00  0.00    -0.031 A 
ATOM     24  C30 ZIN A   1      18.887   1.486  15.580  0.00  0.00     0.009 A 
ATOM     25  C29 ZIN A   1      19.142   1.196  16.907  0.00  0.00     0.001 A 
ATOM     26  C28 ZIN A   1      18.639   0.037  17.470  0.00  0.00     0.000 A 
ATOM     27  C27 ZIN A   1      17.877  -0.827  16.708  0.00  0.00     0.001 A 
ATOM     28  C26 ZIN A   1      17.619  -0.534  15.381  0.00  0.00     0.009 A 
ENDBRANCH  12  23
TORSDOF 3
ENDMDL
MODEL 3
REMARK VINA RESULT:      -9.0      2.642      6.641
REMARK  3 active torsions:
REMARK  status: ('A' for Active; 'I' for Inactive)
REMARK    1  A    between atoms: C2_2  and  O3_3 
REMARK       I    between atoms: C2_2  and  N14_13 
REMARK    2  A    between atoms: O3_3  and  C4_4 
REMARK    3  A    between atoms: C23_22  and  C25_23 
ROOT
ATOM      1  O1  ZIN A   1      21.159   0.662  11.919  0.00  0.00    -0.238 OA
ATOM      2  C2  ZIN A   1      20.031   0.218  11.840  0.00  0.00     0.364 C 
ATOM      3  N14 ZIN A   1      19.113   0.545  12.771  0.00  0.00    -0.315 N 
ATOM      4  C15 ZIN A   1      17.739   0.020  12.708  0.00  0.00     0.134 C 
ATOM      5  C16 ZIN A   1      17.517  -0.865  13.934  0.00  0.00     0.059 C 
ATOM      6  C17 ZIN A   1      17.987  -0.172  15.187  0.00  0.00    -0.048 A 
ATOM      7  C18 ZIN A   1      17.487  -0.626  16.401  0.00  0.00     0.008 A 
ATOM      8  C19 ZIN A   1      17.885  -0.043  17.586  0.00  0.00     0.001 A 
ATOM      9  C20 ZIN A   1      18.789   1.001  17.568  0.00  0.00     0.001 A 
ATOM     10  C21 ZIN A   1      19.286   1.456  16.364  0.00  0.00     0.010 A 
ATOM     11  C22 ZIN A   1      18.882   0.874  15.170  0.00  0.00    -0.024 A 
ATOM     12  C23 ZIN A   1      19.444   1.432  13.892  0.00  0.00     0.156 C 
ENDROOT
BRANCH   2  13
ATOM     13  O3  ZIN A   1      19.700  -0.603  10.827  0.00  0.00    -0.296 OA
BRANCH  13  14
ATOM     14  C4  ZIN A   1      19.927  -0.112   9.480  0.00  0.00     0.163 C 
ATOM     15  C11 ZIN A   1      19.082   1.146   9.241  0.00  0.00     0.020 C 
ATOM     16  C10 ZIN A   1      17.600   0.766   9.393  0.00  0.00     0.035 C 
ATOM     17  C12 ZIN A   1      19.314   1.620   7.800  0.00  0.00     0.035 C 
ATOM     18  C9  ZIN A   1      17.265  -0.334   8.384  0.00  0.00     0.235 C 
ATOM     19  N7  ZIN A   1      18.454  -0.673   7.598  0.00  0.00    -0.069 N 
ATOM     20  C6  ZIN A   1      19.516  -1.185   8.467  0.00  0.00     0.267 C 
ATOM     21  H8  ZIN A   1      18.205  -1.396   6.939  0.00  0.00     0.280 HD
ATOM     22  C13 ZIN A   1      18.918   0.497   6.850  0.00  0.00     0.235 C 
ENDBRANCH  13  14
ENDBRANCH   2  13
BRANCH  12  23
ATOM     23  C25 ZIN A   1      18.852   2.794  13.636  0.00  0.00    -0.031 A 
ATOM     24  C30 ZIN A   1      17.912   3.313  14.505  0.00  0.00     0.009 A 
ATOM     25  C29 ZIN A   1      17.372   4.565  14.274  0.00  0.00     0.001 A 
ATOM     26  C28 ZIN A   1      17.766   5.293  13.166  0.00  0.00     0.000 A 
ATOM     27  C27 ZIN A   1      18.703   4.772  12.294  0.00  0.00     0.001 A 
ATOM     28  C26 ZIN A   1      19.245   3.522  12.529  0.00  0.00     0.009 A 
ENDBRANCH  12  23
TORSDOF 3
ENDMDL
MODEL 4
REMARK VINA RESULT:      -8.8      2.467      7.396
REMARK  3 active torsions:
REMARK  status: ('A' for Active; 'I' for Inactive)
REMARK    1  A    between atoms: C2_2  and  O3_3 
REMARK       I    between atoms: C2_2  and  N14_13 
REMARK    2  A    between atoms: O3_3  and  C4_4 
REMARK    3  A    between atoms: C23_22  and  C25_23 
ROOT
ATOM      1  O1  ZIN A   1      16.924  -3.026  11.279  0.00  0.00    -0.238 OA
ATOM      2  C2  ZIN A   1      18.077  -2.838  10.947  0.00  0.00     0.364 C 
ATOM      3  N14 ZIN A   1      18.646  -1.632  11.143  0.00  0.00    -0.315 N 
ATOM      4  C15 ZIN A   1      20.040  -1.371  10.745  0.00  0.00     0.134 C 
ATOM      5  C16 ZIN A   1      20.023  -0.308   9.646  0.00  0.00     0.059 C 
ATOM      6  C17 ZIN A   1      19.134   0.845  10.029  0.00  0.00    -0.048 A 
ATOM      7  C18 ZIN A   1      19.329   2.055   9.374  0.00  0.00     0.008 A 
ATOM      8  C19 ZIN A   1      18.542   3.148   9.671  0.00  0.00     0.001 A 
ATOM      9  C20 ZIN A   1      17.550   3.042  10.626  0.00  0.00     0.001 A 
ATOM     10  C21 ZIN A   1      17.355   1.843  11.281  0.00  0.00     0.010 A 
ATOM     11  C22 ZIN A   1      18.150   0.744  10.988  0.00  0.00    -0.024 A 
ATOM     12  C23 ZIN A   1      17.901  -0.526  11.753  0.00  0.00     0.156 C 
ENDROOT
BRANCH   2  13
ATOM     13  O3  ZIN A   1      18.784  -3.833  10.378  0.00  0.00    -0.296 OA
BRANCH  13  14
ATOM     14  C4  ZIN A   1      18.123  -4.601   9.340  0.00  0.00     0.163 C 
ATOM     15  C11 ZIN A   1      18.703  -6.021   9.301  0.00  0.00     0.020 C 
ATOM     16  C10 ZIN A   1      20.202  -5.918   8.972  0.00  0.00     0.035 C 
ATOM     17  C12 ZIN A   1      18.013  -6.797   8.172  0.00  0.00     0.035 C 
ATOM     18  C9  ZIN A   1      20.366  -5.209   7.627  0.00  0.00     0.235 C 
ATOM     19  N7  ZIN A   1      19.053  -4.855   7.083  0.00  0.00    -0.069 N 
ATOM     20  C6  ZIN A   1      18.354  -3.933   7.982  0.00  0.00     0.267 C 
ATOM     21  H8  ZIN A   1      19.188  -4.394   6.195  0.00  0.00     0.280 HD
ATOM     22  C13 ZIN A   1      18.255  -6.063   6.859  0.00  0.00     0.235 C 
ENDBRANCH  13  14
ENDBRANCH   2  13
BRANCH  12  23
ATOM     23  C25 ZIN A   1      18.357  -0.350  13.179  0.00  0.00    -0.031 A 
ATOM     24  C30 ZIN A   1      18.206  -1.383  14.085  0.00  0.00     0.009 A 
ATOM     25  C29 ZIN A   1      18.628  -1.223  15.391  0.00  0.00     0.001 A 
ATOM     26  C28 ZIN A   1      19.193  -0.027  15.794  0.00  0.00     0.000 A 
ATOM     27  C27 ZIN A   1      19.340   1.007  14.889  0.00  0.00     0.001 A 
ATOM     28  C26 ZIN A   1      18.921   0.845  13.581  0.00  0.00     0.009 A 
ENDBRANCH  12  23
TORSDOF 3
ENDMDL
MODEL 5
REMARK VINA RESULT:      -8.6      1.738      4.230
REMARK  3 active torsions:
REMARK  status: ('A' for Active; 'I' for Inactive)
REMARK    1  A    between atoms: C2_2  and  O3_3 
REMARK       I    between atoms: C2_2  and  N14_13 
REMARK    2  A    between atoms: O3_3  and  C4_4 
REMARK    3  A    between atoms: C23_22  and  C25_23 
ROOT
ATOM      1  O1  ZIN A   1      20.840  -0.832  10.717  0.00  0.00    -0.238 OA
ATOM      2  C2  ZIN A   1      19.705  -0.411  10.613  0.00  0.00     0.364 C 
ATOM      3  N14 ZIN A   1      18.881  -0.925   9.678  0.00  0.00    -0.315 N 
ATOM      4  C15 ZIN A   1      17.502  -0.432   9.522  0.00  0.00     0.134 C 
ATOM      5  C16 ZIN A   1      17.386   0.211   8.141  0.00  0.00     0.059 C 
ATOM      6  C17 ZIN A   1      17.978  -0.682   7.081  0.00  0.00    -0.048 A 
ATOM      7  C18 ZIN A   1      17.588  -0.466   5.765  0.00  0.00     0.008 A 
ATOM      8  C19 ZIN A   1      18.100  -1.242   4.746  0.00  0.00     0.001 A 
ATOM      9  C20 ZIN A   1      19.009  -2.242   5.034  0.00  0.00     0.001 A 
ATOM     10  C21 ZIN A   1      19.396  -2.460   6.340  0.00  0.00     0.010 A 
ATOM     11  C22 ZIN A   1      18.878  -1.684   7.368  0.00  0.00    -0.024 A 
ATOM     12  C23 ZIN A   1      19.323  -1.989   8.771  0.00  0.00     0.156 C 
ENDROOT
BRANCH   2  13
ATOM     13  O3  ZIN A   1      19.273   0.569  11.427  0.00  0.00    -0.296 OA
BRANCH  13  14
ATOM     14  C4  ZIN A   1      18.986   0.205  12.803  0.00  0.00     0.163 C 
ATOM     15  C11 ZIN A   1      17.653   0.831  13.233  0.00  0.00     0.020 C 
ATOM     16  C10 ZIN A   1      17.787   2.360  13.136  0.00  0.00     0.035 C 
ATOM     17  C12 ZIN A   1      17.394   0.461  14.699  0.00  0.00     0.035 C 
ATOM     18  C9  ZIN A   1      18.937   2.815  14.037  0.00  0.00     0.235 C 
ATOM     19  N7  ZIN A   1      19.541   1.658  14.702  0.00  0.00    -0.069 N 
ATOM     20  C6  ZIN A   1      20.098   0.730  13.714  0.00  0.00     0.267 C 
ATOM     21  H8  ZIN A   1      20.292   1.984  15.292  0.00  0.00     0.280 HD
ATOM     22  C13 ZIN A   1      18.551   0.982  15.544  0.00  0.00     0.235 C 
ENDBRANCH  13  14
ENDBRANCH   2  13
BRANCH  12  23
ATOM     23  C25 ZIN A   1      18.723  -3.298   9.215  0.00  0.00    -0.031 A 
ATOM     24  C30 ZIN A   1      19.287  -3.995  10.267  0.00  0.00     0.009 A 
ATOM     25  C29 ZIN A   1      18.734  -5.193  10.677  0.00  0.00     0.001 A 
ATOM     26  C28 ZIN A   1      17.622  -5.700  10.028  0.00  0.00     0.000 A 
ATOM     27  C27 ZIN A   1      17.062  -5.005   8.974  0.00  0.00     0.001 A 
ATOM     28  C26 ZIN A   1      17.613  -3.804   8.566  0.00  0.00     0.009 A 
ENDBRANCH  12  23
TORSDOF 3
ENDMDL
MODEL 6
REMARK VINA RESULT:      -8.6      2.484      6.309
REMARK  3 active torsions:
REMARK  status: ('A' for Active; 'I' for Inactive)
REMARK    1  A    between atoms: C2_2  and  O3_3 
REMARK       I    between atoms: C2_2  and  N14_13 
REMARK    2  A    between atoms: O3_3  and  C4_4 
REMARK    3  A    between atoms: C23_22  and  C25_23 
ROOT
ATOM      1  O1  ZIN A   1      20.385  -0.017   9.195  0.00  0.00    -0.238 OA
ATOM      2  C2  ZIN A   1      19.262  -0.428   9.407  0.00  0.00     0.364 C 
ATOM      3  N14 ZIN A   1      18.571   0.022  10.472  0.00  0.00    -0.315 N 
ATOM      4  C15 ZIN A   1      17.209  -0.461  10.760  0.00  0.00     0.134 C 
ATOM      5  C16 ZIN A   1      17.248  -1.209  12.092  0.00  0.00     0.059 C 
ATOM      6  C17 ZIN A   1      17.986  -0.410  13.135  0.00  0.00    -0.048 A 
ATOM      7  C18 ZIN A   1      17.755  -0.721  14.469  0.00  0.00     0.008 A 
ATOM      8  C19 ZIN A   1      18.406  -0.035  15.472  0.00  0.00     0.001 A 
ATOM      9  C20 ZIN A   1      19.296   0.971  15.151  0.00  0.00     0.001 A 
ATOM     10  C21 ZIN A   1      19.526   1.285  13.827  0.00  0.00     0.010 A 
ATOM     11  C22 ZIN A   1      18.868   0.599  12.816  0.00  0.00    -0.024 A 
ATOM     12  C23 ZIN A   1      19.145   1.006  11.396  0.00  0.00     0.156 C 
ENDROOT
BRANCH   2  13
ATOM     13  O3  ZIN A   1      18.710  -1.336   8.580  0.00  0.00    -0.296 OA
BRANCH  13  14
ATOM     14  C4  ZIN A   1      19.252  -1.420   7.236  0.00  0.00     0.163 C 
ATOM     15  C11 ZIN A   1      19.080  -0.070   6.527  0.00  0.00     0.020 C 
ATOM     16  C10 ZIN A   1      17.576   0.240   6.443  0.00  0.00     0.035 C 
ATOM     17  C12 ZIN A   1      19.628  -0.199   5.100  0.00  0.00     0.035 C 
ATOM     18  C9  ZIN A   1      16.881  -0.888   5.678  0.00  0.00     0.235 C 
ATOM     19  N7  ZIN A   1      17.861  -1.898   5.272  0.00  0.00    -0.069 N 
ATOM     20  C6  ZIN A   1      18.502  -2.495   6.446  0.00  0.00     0.267 C 
ATOM     21  H8  ZIN A   1      17.378  -2.627   4.768  0.00  0.00     0.280 HD
ATOM     22  C13 ZIN A   1      18.862  -1.304   4.383  0.00  0.00     0.235 C 
ENDBRANCH  13  14
ENDBRANCH   2  13
BRANCH  12  23
ATOM     23  C25 ZIN A   1      18.527   2.354  11.129  0.00  0.00    -0.031 A 
ATOM     24  C30 ZIN A   1      17.783   2.979  12.112  0.00  0.00     0.009 A 
ATOM     25  C29 ZIN A   1      17.220   4.218  11.870  0.00  0.00     0.001 A 
ATOM     26  C28 ZIN A   1      17.393   4.827  10.641  0.00  0.00     0.000 A 
ATOM     27  C27 ZIN A   1      18.133   4.200   9.657  0.00  0.00     0.001 A 
ATOM     28  C26 ZIN A   1      18.700   2.963   9.901  0.00  0.00     0.009 A 
ENDBRANCH  12  23
TORSDOF 3
ENDMDL
MODEL 7
REMARK VINA RESULT:      -8.6      2.297      7.529
REMARK  3 active torsions:
REMARK  status: ('A' for Active; 'I' for Inactive)
REMARK    1  A    between atoms: C2_2  and  O3_3 
REMARK       I    between atoms: C2_2  and  N14_13 
REMARK    2  A    between atoms: O3_3  and  C4_4 
REMARK    3  A    between atoms: C23_22  and  C25_23 
ROOT
ATOM      1  O1  ZIN A   1      16.521  -1.066  12.064  0.00  0.00    -0.238 OA
ATOM      2  C2  ZIN A   1      17.620  -0.886  11.579  0.00  0.00     0.364 C 
ATOM      3  N14 ZIN A   1      18.178   0.340  11.613  0.00  0.00    -0.315 N 
ATOM      4  C15 ZIN A   1      19.506   0.592  11.029  0.00  0.00     0.134 C 
ATOM      5  C16 ZIN A   1      19.330   1.566   9.864  0.00  0.00     0.059 C 
ATOM      6  C17 ZIN A   1      18.465   2.732  10.267  0.00  0.00    -0.048 A 
ATOM      7  C18 ZIN A   1      18.549   3.891   9.505  0.00  0.00     0.008 A 
ATOM      8  C19 ZIN A   1      17.777   4.991   9.813  0.00  0.00     0.001 A 
ATOM      9  C20 ZIN A   1      16.911   4.943  10.889  0.00  0.00     0.001 A 
ATOM     10  C21 ZIN A   1      16.827   3.795  11.650  0.00  0.00     0.010 A 
ATOM     11  C22 ZIN A   1      17.608   2.689  11.344  0.00  0.00    -0.024 A 
ATOM     12  C23 ZIN A   1      17.486   1.478  12.227  0.00  0.00     0.156 C 
ENDROOT
BRANCH   2  13
ATOM     13  O3  ZIN A   1      18.277  -1.910  11.003  0.00  0.00    -0.296 OA
BRANCH  13  14
ATOM     14  C4  ZIN A   1      17.564  -3.169  10.887  0.00  0.00     0.163 C 
ATOM     15  C11 ZIN A   1      18.194  -4.206  11.827  0.00  0.00     0.020 C 
ATOM     16  C10 ZIN A   1      19.656  -4.416  11.399  0.00  0.00     0.035 C 
ATOM     17  C12 ZIN A   1      17.444  -5.534  11.656  0.00  0.00     0.035 C 
ATOM     18  C9  ZIN A   1      19.683  -4.888   9.944  0.00  0.00     0.235 C 
ATOM     19  N7  ZIN A   1      18.318  -4.990   9.424  0.00  0.00    -0.069 N 
ATOM     20  C6  ZIN A   1      17.659  -3.681   9.448  0.00  0.00     0.267 C 
ATOM     21  H8  ZIN A   1      18.363  -5.306   8.467  0.00  0.00     0.280 HD
ATOM     22  C13 ZIN A   1      17.551  -5.967  10.199  0.00  0.00     0.235 C 
ENDBRANCH  13  14
ENDBRANCH   2  13
BRANCH  12  23
ATOM     23  C25 ZIN A   1      18.107   1.770  13.569  0.00  0.00    -0.031 A 
ATOM     24  C30 ZIN A   1      18.107   0.803  14.555  0.00  0.00     0.009 A 
ATOM     25  C29 ZIN A   1      18.680   1.069  15.784  0.00  0.00     0.001 A 
ATOM     26  C28 ZIN A   1      19.246   2.307  16.029  0.00  0.00     0.000 A 
ATOM     27  C27 ZIN A   1      19.241   3.276  15.044  0.00  0.00     0.001 A 
ATOM     28  C26 ZIN A   1      18.671   3.007  13.813  0.00  0.00     0.009 A 
ENDBRANCH  12  23
TORSDOF 3
ENDMDL
MODEL 8
REMARK VINA RESULT:      -8.5      1.855      2.641
REMARK  3 active torsions:
REMARK  status: ('A' for Active; 'I' for Inactive)
REMARK    1  A    between atoms: C2_2  and  O3_3 
REMARK       I    between atoms: C2_2  and  N14_13 
REMARK    2  A    between atoms: O3_3  and  C4_4 
REMARK    3  A    between atoms: C23_22  and  C25_23 
ROOT
ATOM      1  O1  ZIN A   1      16.396   0.260  10.610  0.00  0.00    -0.238 OA
ATOM      2  C2  ZIN A   1      17.589   0.149  10.816  0.00  0.00     0.364 C 
ATOM      3  N14 ZIN A   1      18.300  -0.789  10.161  0.00  0.00    -0.315 N 
ATOM      4  C15 ZIN A   1      19.745  -0.953  10.394  0.00  0.00     0.134 C 
ATOM      5  C16 ZIN A   1      19.969  -2.336  11.005  0.00  0.00     0.059 C 
ATOM      6  C17 ZIN A   1      19.219  -3.391  10.234  0.00  0.00    -0.048 A 
ATOM      7  C18 ZIN A   1      19.635  -4.709  10.373  0.00  0.00     0.008 A 
ATOM      8  C19 ZIN A   1      18.985  -5.724   9.703  0.00  0.00     0.001 A 
ATOM      9  C20 ZIN A   1      17.911  -5.431   8.885  0.00  0.00     0.001 A 
ATOM     10  C21 ZIN A   1      17.497  -4.122   8.742  0.00  0.00     0.010 A 
ATOM     11  C22 ZIN A   1      18.154  -3.098   9.411  0.00  0.00    -0.024 A 
ATOM     12  C23 ZIN A   1      17.667  -1.692   9.194  0.00  0.00     0.156 C 
ENDROOT
BRANCH   2  13
ATOM     13  O3  ZIN A   1      18.196   0.959  11.703  0.00  0.00    -0.296 OA
BRANCH  13  14
ATOM     14  C4  ZIN A   1      17.699   0.936  13.066  0.00  0.00     0.163 C 
ATOM     15  C11 ZIN A   1      18.768   1.496  14.014  0.00  0.00     0.020 C 
ATOM     16  C10 ZIN A   1      20.012   0.597  13.918  0.00  0.00     0.035 C 
ATOM     17  C12 ZIN A   1      18.230   1.425  15.449  0.00  0.00     0.035 C 
ATOM     18  C9  ZIN A   1      19.620  -0.833  14.296  0.00  0.00     0.235 C 
ATOM     19  N7  ZIN A   1      18.195  -0.892  14.627  0.00  0.00    -0.069 N 
ATOM     20  C6  ZIN A   1      17.381  -0.506  13.471  0.00  0.00     0.267 C 
ATOM     21  H8  ZIN A   1      17.963  -1.842  14.876  0.00  0.00     0.280 HD
ATOM     22  C13 ZIN A   1      17.904  -0.028  15.774  0.00  0.00     0.235 C 
ENDBRANCH  13  14
ENDBRANCH   2  13
BRANCH  12  23
ATOM     23  C25 ZIN A   1      18.021  -1.249   7.798  0.00  0.00    -0.031 A 
ATOM     24  C30 ZIN A   1      17.408  -0.139   7.249  0.00  0.00     0.009 A 
ATOM     25  C29 ZIN A   1      17.735   0.270   5.970  0.00  0.00     0.001 A 
ATOM     26  C28 ZIN A   1      18.671  -0.437   5.237  0.00  0.00     0.000 A 
ATOM     27  C27 ZIN A   1      19.281  -1.549   5.784  0.00  0.00     0.001 A 
ATOM     28  C26 ZIN A   1      18.956  -1.956   7.065  0.00  0.00     0.009 A 
ENDBRANCH  12  23
TORSDOF 3
ENDMDL
MODEL 9
REMARK VINA RESULT:      -8.4      2.499      7.285
REMARK  3 active torsions:
REMARK  status: ('A' for Active; 'I' for Inactive)
REMARK    1  A    between atoms: C2_2  and  O3_3 
REMARK       I    between atoms: C2_2  and  N14_13 
REMARK    2  A    between atoms: O3_3  and  C4_4 
REMARK    3  A    between atoms: C23_22  and  C25_23 
ROOT
ATOM      1  O1  ZIN A   1      16.525  -0.647  12.284  0.00  0.00    -0.238 OA
ATOM      2  C2  ZIN A   1      17.715  -0.505  12.085  0.00  0.00     0.364 C 
ATOM      3  N14 ZIN A   1      18.403   0.436  12.762  0.00  0.00    -0.315 N 
ATOM      4  C15 ZIN A   1      19.844   0.638  12.538  0.00  0.00     0.134 C 
ATOM      5  C16 ZIN A   1      20.038   2.038  11.957  0.00  0.00     0.059 C 
ATOM      6  C17 ZIN A   1      19.261   3.059  12.746  0.00  0.00    -0.048 A 
ATOM      7  C18 ZIN A   1      19.646   4.389  12.635  0.00  0.00     0.008 A 
ATOM      8  C19 ZIN A   1      18.971   5.375  13.324  0.00  0.00     0.001 A 
ATOM      9  C20 ZIN A   1      17.901   5.040  14.131  0.00  0.00     0.001 A 
ATOM     10  C21 ZIN A   1      17.517   3.719  14.246  0.00  0.00     0.010 A 
ATOM     11  C22 ZIN A   1      18.199   2.725  13.558  0.00  0.00    -0.024 A 
ATOM     12  C23 ZIN A   1      17.746   1.304  13.744  0.00  0.00     0.156 C 
ENDROOT
BRANCH   2  13
ATOM     13  O3  ZIN A   1      18.344  -1.283  11.184  0.00  0.00    -0.296 OA
BRANCH  13  14
ATOM     14  C4  ZIN A   1      17.822  -1.278   9.830  0.00  0.00     0.163 C 
ATOM     15  C11 ZIN A   1      18.947  -1.618   8.844  0.00  0.00     0.020 C 
ATOM     16  C10 ZIN A   1      20.035  -0.538   8.965  0.00  0.00     0.035 C 
ATOM     17  C12 ZIN A   1      18.376  -1.570   7.421  0.00  0.00     0.035 C 
ATOM     18  C9  ZIN A   1      19.414   0.827   8.660  0.00  0.00     0.235 C 
ATOM     19  N7  ZIN A   1      17.991   0.672   8.350  0.00  0.00    -0.069 N 
ATOM     20  C6  ZIN A   1      17.272   0.111   9.497  0.00  0.00     0.267 C 
ATOM     21  H8  ZIN A   1      17.606   1.583   8.149  0.00  0.00     0.280 HD
ATOM     22  C13 ZIN A   1      17.817  -0.175   7.168  0.00  0.00     0.235 C 
ENDBRANCH  13  14
ENDBRANCH   2  13
BRANCH  12  23
ATOM     23  C25 ZIN A   1      18.105   0.840  15.133  0.00  0.00    -0.031 A 
ATOM     24  C30 ZIN A   1      17.591  -0.346  15.619  0.00  0.00     0.009 A 
ATOM     25  C29 ZIN A   1      17.924  -0.774  16.891  0.00  0.00     0.001 A 
ATOM     26  C28 ZIN A   1      18.764  -0.009  17.679  0.00  0.00     0.000 A 
ATOM     27  C27 ZIN A   1      19.274   1.180  17.194  0.00  0.00     0.001 A 
ATOM     28  C26 ZIN A   1      18.943   1.605  15.921  0.00  0.00     0.009 A 
ENDBRANCH  12  23
TORSDOF 3
ENDMDL
