MODEL 1
REMARK VINA RESULT:      -9.7      0.000      0.000
REMARK  2 active torsions:
REMARK  status: ('A' for Active; 'I' for Inactive)
REMARK    1  A    between atoms: C2_2  and  S4_4 
REMARK    2  A    between atoms: S4_4  and  C5_5 
ROOT
ATOM      1  C5  ZIN A   1      19.421  -1.986   7.857  0.00  0.00     0.064 C 
ATOM      2  C7  ZIN A   1      19.682  -3.060   6.799  0.00  0.00     0.051 C 
ATOM      3  C8  ZIN A   1      18.519  -4.034   6.794  0.00  0.00    -0.067 C 
ATOM      4  C9  ZIN A   1      17.972  -4.341   5.618  0.00  0.00     0.053 C 
ATOM      5  C10 ZIN A   1      16.856  -5.289   5.552  0.00  0.00     0.149 C 
ATOM      6  O11 ZIN A   1      16.094  -5.314   4.608  0.00  0.00    -0.293 OA
ATOM      7  C12 ZIN A   1      16.703  -6.235   6.726  0.00  0.00     0.084 C 
ATOM      8  C13 ZIN A   1      16.760  -5.395   8.001  0.00  0.00     0.022 C 
ATOM      9  C14 ZIN A   1      18.054  -4.606   8.097  0.00  0.00    -0.016 C 
ATOM     10  C15 ZIN A   1      19.144  -5.546   8.619  0.00  0.00     0.020 C 
ATOM     11  C16 ZIN A   1      17.884  -3.486   9.131  0.00  0.00     0.004 C 
ATOM     12  C18 ZIN A   1      17.523  -4.101  10.481  0.00  0.00     0.007 C 
ATOM     13  C19 ZIN A   1      17.455  -3.040  11.590  0.00  0.00     0.013 C 
ATOM     14  C20 ZIN A   1      18.806  -2.351  11.633  0.00  0.00    -0.008 C 
ATOM     15  C21 ZIN A   1      19.913  -3.396  11.790  0.00  0.00     0.019 C 
ATOM     16  C22 ZIN A   1      18.982  -1.605  10.282  0.00  0.00     0.002 C 
ATOM     17  C24 ZIN A   1      20.199  -0.718  10.571  0.00  0.00     0.009 C 
ATOM     18  C25 ZIN A   1      19.927  -0.213  12.016  0.00  0.00     0.040 C 
ATOM     19  C26 ZIN A   1      18.989  -1.253  12.664  0.00  0.00     0.079 C 
ATOM     20  C27 ZIN A   1      17.647  -0.594  13.025  0.00  0.00     0.049 C 
ATOM     21  C28 ZIN A   1      17.875  -0.231  14.513  0.00  0.00     0.114 C 
ATOM     22  C29 ZIN A   1      18.948  -1.198  14.965  0.00  0.00     0.259 C 
ATOM     23  O30 ZIN A   1      19.222  -1.438  16.117  0.00  0.00    -0.265 OA
ATOM     24  O31 ZIN A   1      19.549  -1.750  13.901  0.00  0.00    -0.309 OA
ATOM     25  C32 ZIN A   1      19.178  -2.660   9.210  0.00  0.00     0.010 C 
ENDROOT
BRANCH   1  26
ATOM     26  S4  ZIN A   1      17.963  -1.021   7.391  0.00  0.00    -0.087 SA
BRANCH  26  27
ATOM     27  C2  ZIN A   1      18.717   0.419   6.854  0.00  0.00     0.182 C 
ATOM     28  C1  ZIN A   1      19.080   1.495   7.846  0.00  0.00     0.104 C 
ATOM     29  O3  ZIN A   1      18.962   0.573   5.676  0.00  0.00    -0.286 OA
ENDBRANCH  26  27
ENDBRANCH   1  26
TORSDOF 2
ENDMDL
MODEL 2
REMARK VINA RESULT:      -9.1      2.641      3.587
REMARK  2 active torsions:
REMARK  status: ('A' for Active; 'I' for Inactive)
REMARK    1  A    between atoms: C2_2  and  S4_4 
REMARK    2  A    between atoms: S4_4  and  C5_5 
ROOT
ATOM      1  C5  ZIN A   1      18.945  -0.806   8.785  0.00  0.00     0.064 C 
ATOM      2  C7  ZIN A   1      19.337  -2.267   8.557  0.00  0.00     0.051 C 
ATOM      3  C8  ZIN A   1      18.395  -3.155   9.350  0.00  0.00    -0.067 C 
ATOM      4  C9  ZIN A   1      17.835  -4.185   8.716  0.00  0.00     0.053 C 
ATOM      5  C10 ZIN A   1      16.929  -5.085   9.438  0.00  0.00     0.149 C 
ATOM      6  O11 ZIN A   1      16.120  -5.777   8.856  0.00  0.00    -0.293 OA
ATOM      7  C12 ZIN A   1      17.057  -5.105  10.948  0.00  0.00     0.084 C 
ATOM      8  C13 ZIN A   1      17.039  -3.653  11.427  0.00  0.00     0.022 C 
ATOM      9  C14 ZIN A   1      18.152  -2.839  10.793  0.00  0.00    -0.016 C 
ATOM     10  C15 ZIN A   1      19.444  -3.120  11.564  0.00  0.00     0.020 C 
ATOM     11  C16 ZIN A   1      17.839  -1.346  10.958  0.00  0.00     0.004 C 
ATOM     12  C18 ZIN A   1      17.709  -1.023  12.444  0.00  0.00     0.007 C 
ATOM     13  C19 ZIN A   1      17.513   0.482  12.684  0.00  0.00     0.013 C 
ATOM     14  C20 ZIN A   1      18.698   1.193  12.059  0.00  0.00    -0.008 C 
ATOM     15  C21 ZIN A   1      20.000   0.605  12.606  0.00  0.00     0.019 C 
ATOM     16  C22 ZIN A   1      18.621   0.950  10.526  0.00  0.00     0.002 C 
ATOM     17  C24 ZIN A   1      19.653   1.952   9.998  0.00  0.00     0.009 C 
ATOM     18  C25 ZIN A   1      19.394   3.213  10.871  0.00  0.00     0.040 C 
ATOM     19  C26 ZIN A   1      18.733   2.706  12.170  0.00  0.00     0.079 C 
ATOM     20  C27 ZIN A   1      17.317   3.292  12.301  0.00  0.00     0.049 C 
ATOM     21  C28 ZIN A   1      17.577   4.524  13.201  0.00  0.00     0.114 C 
ATOM     22  C29 ZIN A   1      18.853   4.176  13.937  0.00  0.00     0.259 C 
ATOM     23  O30 ZIN A   1      19.255   4.737  14.930  0.00  0.00    -0.265 OA
ATOM     24  O31 ZIN A   1      19.472   3.153  13.330  0.00  0.00    -0.309 OA
ATOM     25  C32 ZIN A   1      18.944  -0.513  10.288  0.00  0.00     0.010 C 
ENDROOT
BRANCH   1  26
ATOM     26  S4  ZIN A   1      17.293  -0.511   8.109  0.00  0.00    -0.087 SA
BRANCH  26  27
ATOM     27  C2  ZIN A   1      17.706   0.033   6.539  0.00  0.00     0.182 C 
ATOM     28  C1  ZIN A   1      18.776   1.080   6.362  0.00  0.00     0.104 C 
ATOM     29  O3  ZIN A   1      17.140  -0.425   5.570  0.00  0.00    -0.286 OA
ENDBRANCH  26  27
ENDBRANCH   1  26
TORSDOF 2
ENDMDL
MODEL 3
REMARK VINA RESULT:      -9.1      3.465      7.931
REMARK  2 active torsions:
REMARK  status: ('A' for Active; 'I' for Inactive)
REMARK    1  A    between atoms: C2_2  and  S4_4 
REMARK    2  A    between atoms: S4_4  and  C5_5 
ROOT
ATOM      1  C5  ZIN A   1      18.901   0.718  14.014  0.00  0.00     0.064 C 
ATOM      2  C7  ZIN A   1      19.315   2.169  14.265  0.00  0.00     0.051 C 
ATOM      3  C8  ZIN A   1      18.423   3.080  13.442  0.00  0.00    -0.067 C 
ATOM      4  C9  ZIN A   1      17.861   4.120  14.059  0.00  0.00     0.053 C 
ATOM      5  C10 ZIN A   1      17.003   5.042  13.308  0.00  0.00     0.149 C 
ATOM      6  O11 ZIN A   1      16.187   5.748  13.861  0.00  0.00    -0.293 OA
ATOM      7  C12 ZIN A   1      17.188   5.066  11.804  0.00  0.00     0.084 C 
ATOM      8  C13 ZIN A   1      17.159   3.617  11.317  0.00  0.00     0.022 C 
ATOM      9  C14 ZIN A   1      18.229   2.776  11.988  0.00  0.00    -0.016 C 
ATOM     10  C15 ZIN A   1      19.555   3.033  11.269  0.00  0.00     0.020 C 
ATOM     11  C16 ZIN A   1      17.891   1.291  11.804  0.00  0.00     0.004 C 
ATOM     12  C18 ZIN A   1      17.812   0.978  10.312  0.00  0.00     0.007 C 
ATOM     13  C19 ZIN A   1      17.594  -0.522  10.057  0.00  0.00     0.013 C 
ATOM     14  C20 ZIN A   1      18.738  -1.260  10.723  0.00  0.00    -0.008 C 
ATOM     15  C21 ZIN A   1      20.073  -0.698  10.229  0.00  0.00     0.019 C 
ATOM     16  C22 ZIN A   1      18.607  -1.023  12.253  0.00  0.00     0.002 C 
ATOM     17  C24 ZIN A   1      19.597  -2.049  12.815  0.00  0.00     0.009 C 
ATOM     18  C25 ZIN A   1      19.345  -3.300  11.926  0.00  0.00     0.040 C 
ATOM     19  C26 ZIN A   1      18.746  -2.773  10.606  0.00  0.00     0.079 C 
ATOM     20  C27 ZIN A   1      17.324  -3.328  10.417  0.00  0.00     0.049 C 
ATOM     21  C28 ZIN A   1      17.593  -4.562   9.522  0.00  0.00     0.114 C 
ATOM     22  C29 ZIN A   1      18.903  -4.238   8.836  0.00  0.00     0.259 C 
ATOM     23  O30 ZIN A   1      19.331  -4.803   7.857  0.00  0.00    -0.265 OA
ATOM     24  O31 ZIN A   1      19.519  -3.231   9.472  0.00  0.00    -0.309 OA
ATOM     25  C32 ZIN A   1      18.951   0.432  12.511  0.00  0.00     0.010 C 
ENDROOT
BRANCH   1  26
ATOM     26  S4  ZIN A   1      17.218   0.455  14.625  0.00  0.00    -0.087 SA
BRANCH  26  27
ATOM     27  C2  ZIN A   1      17.559  -0.324  16.111  0.00  0.00     0.182 C 
ATOM     28  C1  ZIN A   1      18.767  -1.217  16.234  0.00  0.00     0.104 C 
ATOM     29  O3  ZIN A   1      16.829  -0.156  17.065  0.00  0.00    -0.286 OA
ENDBRANCH  26  27
ENDBRANCH   1  26
TORSDOF 2
ENDMDL
MODEL 4
REMARK VINA RESULT:      -9.0      4.272      9.808
REMARK  2 active torsions:
REMARK  status: ('A' for Active; 'I' for Inactive)
REMARK    1  A    between atoms: C2_2  and  S4_4 
REMARK    2  A    between atoms: S4_4  and  C5_5 
ROOT
ATOM      1  C5  ZIN A   1      19.263   1.859  15.286  0.00  0.00     0.064 C 
ATOM      2  C7  ZIN A   1      19.601   2.897  16.358  0.00  0.00     0.051 C 
ATOM      3  C8  ZIN A   1      18.540   3.982  16.337  0.00  0.00    -0.067 C 
ATOM      4  C9  ZIN A   1      17.994   4.337  17.500  0.00  0.00     0.053 C 
ATOM      5  C10 ZIN A   1      16.976   5.392  17.541  0.00  0.00     0.149 C 
ATOM      6  O11 ZIN A   1      16.194   5.489  18.463  0.00  0.00    -0.293 OA
ATOM      7  C12 ZIN A   1      16.951   6.354  16.370  0.00  0.00     0.084 C 
ATOM      8  C13 ZIN A   1      16.960   5.517  15.091  0.00  0.00     0.022 C 
ATOM      9  C14 ZIN A   1      18.172   4.604  15.026  0.00  0.00    -0.016 C 
ATOM     10  C15 ZIN A   1      19.364   5.432  14.541  0.00  0.00     0.020 C 
ATOM     11  C16 ZIN A   1      17.921   3.510  13.980  0.00  0.00     0.004 C 
ATOM     12  C18 ZIN A   1      17.660   4.163  12.625  0.00  0.00     0.007 C 
ATOM     13  C19 ZIN A   1      17.519   3.118  11.507  0.00  0.00     0.013 C 
ATOM     14  C20 ZIN A   1      18.795   2.299  11.497  0.00  0.00    -0.008 C 
ATOM     15  C21 ZIN A   1      20.005   3.228  11.378  0.00  0.00     0.019 C 
ATOM     16  C22 ZIN A   1      18.858   1.533  12.847  0.00  0.00     0.002 C 
ATOM     17  C24 ZIN A   1      19.988   0.530  12.587  0.00  0.00     0.009 C 
ATOM     18  C25 ZIN A   1      19.709   0.061  11.130  0.00  0.00     0.040 C 
ATOM     19  C26 ZIN A   1      18.897   1.192  10.464  0.00  0.00     0.079 C 
ATOM     20  C27 ZIN A   1      17.507   0.671  10.061  0.00  0.00     0.049 C 
ATOM     21  C28 ZIN A   1      17.740   0.293   8.578  0.00  0.00     0.114 C 
ATOM     22  C29 ZIN A   1      18.916   1.150   8.162  0.00  0.00     0.259 C 
ATOM     23  O30 ZIN A   1      19.246   1.367   7.020  0.00  0.00    -0.265 OA
ATOM     24  O31 ZIN A   1      19.539   1.635   9.246  0.00  0.00    -0.309 OA
ATOM     25  C32 ZIN A   1      19.128   2.559  13.931  0.00  0.00     0.010 C 
ENDROOT
BRANCH   1  26
ATOM     26  S4  ZIN A   1      17.704   1.042  15.705  0.00  0.00    -0.087 SA
BRANCH  26  27
ATOM     27  C2  ZIN A   1      18.297  -0.288  16.605  0.00  0.00     0.182 C 
ATOM     28  C1  ZIN A   1      18.884  -1.479  15.891  0.00  0.00     0.104 C 
ATOM     29  O3  ZIN A   1      18.246  -0.272  17.816  0.00  0.00    -0.286 OA
ENDBRANCH  26  27
ENDBRANCH   1  26
TORSDOF 2
ENDMDL
MODEL 5
REMARK VINA RESULT:      -8.9      2.981      4.806
REMARK  2 active torsions:
REMARK  status: ('A' for Active; 'I' for Inactive)
REMARK    1  A    between atoms: C2_2  and  S4_4 
REMARK    2  A    between atoms: S4_4  and  C5_5 
ROOT
ATOM      1  C5  ZIN A   1      18.904   2.687  10.950  0.00  0.00     0.064 C 
ATOM      2  C7  ZIN A   1      19.526   2.439   9.574  0.00  0.00     0.051 C 
ATOM      3  C8  ZIN A   1      18.912   1.185   8.980  0.00  0.00    -0.067 C 
ATOM      4  C9  ZIN A   1      18.464   1.248   7.726  0.00  0.00     0.053 C 
ATOM      5  C10 ZIN A   1      17.876   0.062   7.097  0.00  0.00     0.149 C 
ATOM      6  O11 ZIN A   1      17.130   0.148   6.143  0.00  0.00    -0.293 OA
ATOM      7  C12 ZIN A   1      18.247  -1.278   7.699  0.00  0.00     0.084 C 
ATOM      8  C13 ZIN A   1      18.030  -1.176   9.209  0.00  0.00     0.022 C 
ATOM      9  C14 ZIN A   1      18.850  -0.054   9.820  0.00  0.00    -0.016 C 
ATOM     10  C15 ZIN A   1      20.279  -0.564  10.019  0.00  0.00     0.020 C 
ATOM     11  C16 ZIN A   1      18.288   0.281  11.207  0.00  0.00     0.004 C 
ATOM     12  C18 ZIN A   1      18.341  -0.968  12.083  0.00  0.00     0.007 C 
ATOM     13  C19 ZIN A   1      17.903  -0.670  13.526  0.00  0.00     0.013 C 
ATOM     14  C20 ZIN A   1      18.813   0.422  14.054  0.00  0.00    -0.008 C 
ATOM     15  C21 ZIN A   1      20.275   0.002  13.885  0.00  0.00     0.019 C 
ATOM     16  C22 ZIN A   1      18.537   1.697  13.209  0.00  0.00     0.002 C 
ATOM     17  C24 ZIN A   1      19.259   2.776  14.023  0.00  0.00     0.009 C 
ATOM     18  C25 ZIN A   1      18.909   2.398  15.491  0.00  0.00     0.040 C 
ATOM     19  C26 ZIN A   1      18.576   0.891  15.477  0.00  0.00     0.079 C 
ATOM     20  C27 ZIN A   1      17.114   0.674  15.904  0.00  0.00     0.049 C 
ATOM     21  C28 ZIN A   1      17.277   0.378  17.414  0.00  0.00     0.114 C 
ATOM     22  C29 ZIN A   1      18.698  -0.130  17.537  0.00  0.00     0.259 C 
ATOM     23  O30 ZIN A   1      19.140  -0.727  18.491  0.00  0.00    -0.265 OA
ATOM     24  O31 ZIN A   1      19.394   0.176  16.433  0.00  0.00    -0.309 OA
ATOM     25  C32 ZIN A   1      19.090   1.441  11.820  0.00  0.00     0.010 C 
ENDROOT
BRANCH   1  26
ATOM     26  S4  ZIN A   1      17.139   3.037  10.761  0.00  0.00    -0.087 SA
BRANCH  26  27
ATOM     27  C2  ZIN A   1      17.152   4.740  10.935  0.00  0.00     0.182 C 
ATOM     28  C1  ZIN A   1      16.932   5.361  12.291  0.00  0.00     0.104 C 
ATOM     29  O3  ZIN A   1      17.340   5.447   9.968  0.00  0.00    -0.286 OA
ENDBRANCH  26  27
ENDBRANCH   1  26
TORSDOF 2
ENDMDL
MODEL 6
REMARK VINA RESULT:      -8.6      2.462      7.478
REMARK  2 active torsions:
REMARK  status: ('A' for Active; 'I' for Inactive)
REMARK    1  A    between atoms: C2_2  and  S4_4 
REMARK    2  A    between atoms: S4_4  and  C5_5 
ROOT
ATOM      1  C5  ZIN A   1      19.085  -2.709  11.794  0.00  0.00     0.064 C 
ATOM      2  C7  ZIN A   1      19.667  -2.410  13.177  0.00  0.00     0.051 C 
ATOM      3  C8  ZIN A   1      18.907  -1.246  13.785  0.00  0.00    -0.067 C 
ATOM      4  C9  ZIN A   1      18.464  -1.380  15.035  0.00  0.00     0.053 C 
ATOM      5  C10 ZIN A   1      17.737  -0.281  15.678  0.00  0.00     0.149 C 
ATOM      6  O11 ZIN A   1      17.003  -0.468  16.625  0.00  0.00    -0.293 OA
ATOM      7  C12 ZIN A   1      17.952   1.103  15.097  0.00  0.00     0.084 C 
ATOM      8  C13 ZIN A   1      17.756   0.999  13.585  0.00  0.00     0.022 C 
ATOM      9  C14 ZIN A   1      18.704  -0.011  12.963  0.00  0.00    -0.016 C 
ATOM     10  C15 ZIN A   1      20.064   0.667  12.781  0.00  0.00     0.020 C 
ATOM     11  C16 ZIN A   1      18.192  -0.388  11.567  0.00  0.00     0.004 C 
ATOM     12  C18 ZIN A   1      18.102   0.872  10.710  0.00  0.00     0.007 C 
ATOM     13  C19 ZIN A   1      17.709   0.547   9.261  0.00  0.00     0.013 C 
ATOM     14  C20 ZIN A   1      18.743  -0.423   8.723  0.00  0.00    -0.008 C 
ATOM     15  C21 ZIN A   1      20.145   0.162   8.907  0.00  0.00     0.019 C 
ATOM     16  C22 ZIN A   1      18.614  -1.734   9.547  0.00  0.00     0.002 C 
ATOM     17  C24 ZIN A   1      19.462  -2.708   8.722  0.00  0.00     0.009 C 
ATOM     18  C25 ZIN A   1      19.076  -2.352   7.258  0.00  0.00     0.040 C 
ATOM     19  C26 ZIN A   1      18.570  -0.895   7.291  0.00  0.00     0.079 C 
ATOM     20  C27 ZIN A   1      17.095  -0.843   6.859  0.00  0.00     0.049 C 
ATOM     21  C28 ZIN A   1      17.228  -0.507   5.354  0.00  0.00     0.114 C 
ATOM     22  C29 ZIN A   1      18.580   0.165   5.247  0.00  0.00     0.259 C 
ATOM     23  O30 ZIN A   1      18.954   0.824   4.305  0.00  0.00    -0.265 OA
ATOM     24  O31 ZIN A   1      19.302  -0.075   6.351  0.00  0.00    -0.309 OA
ATOM     25  C32 ZIN A   1      19.127  -1.436  10.943  0.00  0.00     0.010 C 
ENDROOT
BRANCH   1  26
ATOM     26  S4  ZIN A   1      17.371  -3.266  11.966  0.00  0.00    -0.087 SA
BRANCH  26  27
ATOM     27  C2  ZIN A   1      17.577  -4.945  11.709  0.00  0.00     0.182 C 
ATOM     28  C1  ZIN A   1      18.011  -5.453  10.357  0.00  0.00     0.104 C 
ATOM     29  O3  ZIN A   1      17.375  -5.727  12.614  0.00  0.00    -0.286 OA
ENDBRANCH  26  27
ENDBRANCH   1  26
TORSDOF 2
ENDMDL
MODEL 7
REMARK VINA RESULT:      -8.5      1.642      2.083
REMARK  2 active torsions:
REMARK  status: ('A' for Active; 'I' for Inactive)
REMARK    1  A    between atoms: C2_2  and  S4_4 
REMARK    2  A    between atoms: S4_4  and  C5_5 
ROOT
ATOM      1  C5  ZIN A   1      19.644  -2.942   7.280  0.00  0.00     0.064 C 
ATOM      2  C7  ZIN A   1      20.106  -4.297   6.739  0.00  0.00     0.051 C 
ATOM      3  C8  ZIN A   1      19.043  -5.334   7.050  0.00  0.00    -0.067 C 
ATOM      4  C9  ZIN A   1      18.645  -6.130   6.058  0.00  0.00     0.053 C 
ATOM      5  C10 ZIN A   1      17.632  -7.161   6.305  0.00  0.00     0.149 C 
ATOM      6  O11 ZIN A   1      16.973  -7.637   5.405  0.00  0.00    -0.293 OA
ATOM      7  C12 ZIN A   1      17.453  -7.601   7.744  0.00  0.00     0.084 C 
ATOM      8  C13 ZIN A   1      17.307  -6.338   8.593  0.00  0.00     0.022 C 
ATOM      9  C14 ZIN A   1      18.507  -5.420   8.446  0.00  0.00    -0.016 C 
ATOM     10  C15 ZIN A   1      19.623  -5.949   9.351  0.00  0.00     0.020 C 
ATOM     11  C16 ZIN A   1      18.135  -4.021   8.952  0.00  0.00     0.004 C 
ATOM     12  C18 ZIN A   1      17.701  -4.116  10.412  0.00  0.00     0.007 C 
ATOM     13  C19 ZIN A   1      17.428  -2.729  11.015  0.00  0.00     0.013 C 
ATOM     14  C20 ZIN A   1      18.698  -1.916  10.861  0.00  0.00    -0.008 C 
ATOM     15  C21 ZIN A   1      19.876  -2.677  11.473  0.00  0.00     0.019 C 
ATOM     16  C22 ZIN A   1      18.937  -1.724   9.338  0.00  0.00     0.002 C 
ATOM     17  C24 ZIN A   1      20.033  -0.652   9.325  0.00  0.00     0.009 C 
ATOM     18  C25 ZIN A   1      19.576   0.328  10.443  0.00  0.00     0.040 C 
ATOM     19  C26 ZIN A   1      18.678  -0.494  11.392  0.00  0.00     0.079 C 
ATOM     20  C27 ZIN A   1      17.252   0.083  11.394  0.00  0.00     0.049 C 
ATOM     21  C28 ZIN A   1      17.299   1.009  12.633  0.00  0.00     0.114 C 
ATOM     22  C29 ZIN A   1      18.407   0.427  13.484  0.00  0.00     0.259 C 
ATOM     23  O30 ZIN A   1      18.588   0.678  14.652  0.00  0.00    -0.265 OA
ATOM     24  O31 ZIN A   1      19.157  -0.410  12.754  0.00  0.00    -0.309 OA
ATOM     25  C32 ZIN A   1      19.334  -3.075   8.774  0.00  0.00     0.010 C 
ENDROOT
BRANCH   1  26
ATOM     26  S4  ZIN A   1      18.157  -2.414   6.396  0.00  0.00    -0.087 SA
BRANCH  26  27
ATOM     27  C2  ZIN A   1      18.736  -2.458   4.786  0.00  0.00     0.182 C 
ATOM     28  C1  ZIN A   1      18.118  -3.405   3.788  0.00  0.00     0.104 C 
ATOM     29  O3  ZIN A   1      19.642  -1.727   4.447  0.00  0.00    -0.286 OA
ENDBRANCH  26  27
ENDBRANCH   1  26
TORSDOF 2
ENDMDL
MODEL 8
REMARK VINA RESULT:      -8.5      4.024      9.078
REMARK  2 active torsions:
REMARK  status: ('A' for Active; 'I' for Inactive)
REMARK    1  A    between atoms: C2_2  and  S4_4 
REMARK    2  A    between atoms: S4_4  and  C5_5 
ROOT
ATOM      1  C5  ZIN A   1      19.250   1.692  15.622  0.00  0.00     0.064 C 
ATOM      2  C7  ZIN A   1      19.628   3.123  16.010  0.00  0.00     0.051 C 
ATOM      3  C8  ZIN A   1      18.611   4.076  15.411  0.00  0.00    -0.067 C 
ATOM      4  C9  ZIN A   1      18.080   4.999  16.213  0.00  0.00     0.053 C 
ATOM      5  C10 ZIN A   1      17.103   5.956  15.683  0.00  0.00     0.149 C 
ATOM      6  O11 ZIN A   1      16.327   6.543  16.407  0.00  0.00    -0.293 OA
ATOM      7  C12 ZIN A   1      17.115   6.175  14.183  0.00  0.00     0.084 C 
ATOM      8  C13 ZIN A   1      17.091   4.798  13.521  0.00  0.00     0.022 C 
ATOM      9  C14 ZIN A   1      18.266   3.942  13.960  0.00  0.00    -0.016 C 
ATOM     10  C15 ZIN A   1      19.489   4.359  13.141  0.00  0.00     0.020 C 
ATOM     11  C16 ZIN A   1      17.972   2.474  13.625  0.00  0.00     0.004 C 
ATOM     12  C18 ZIN A   1      17.736   2.342  12.122  0.00  0.00     0.007 C 
ATOM     13  C19 ZIN A   1      17.554   0.875  11.702  0.00  0.00     0.013 C 
ATOM     14  C20 ZIN A   1      18.797   0.126  12.141  0.00  0.00    -0.008 C 
ATOM     15  C21 ZIN A   1      20.042   0.818  11.583  0.00  0.00     0.019 C 
ATOM     16  C22 ZIN A   1      18.831   0.166  13.694  0.00  0.00     0.002 C 
ATOM     17  C24 ZIN A   1      19.921  -0.864  14.011  0.00  0.00     0.009 C 
ATOM     18  C25 ZIN A   1      19.622  -2.009  13.002  0.00  0.00     0.040 C 
ATOM     19  C26 ZIN A   1      18.855  -1.358  11.831  0.00  0.00     0.079 C 
ATOM     20  C27 ZIN A   1      17.445  -1.965  11.728  0.00  0.00     0.049 C 
ATOM     21  C28 ZIN A   1      17.662  -3.063  10.658  0.00  0.00     0.114 C 
ATOM     22  C29 ZIN A   1      18.871  -2.584   9.883  0.00  0.00     0.259 C 
ATOM     23  O30 ZIN A   1      19.208  -3.000   8.799  0.00  0.00    -0.265 OA
ATOM     24  O31 ZIN A   1      19.512  -1.630  10.572  0.00  0.00    -0.309 OA
ATOM     25  C32 ZIN A   1      19.141   1.595  14.098  0.00  0.00     0.010 C 
ENDROOT
BRANCH   1  26
ATOM     26  S4  ZIN A   1      17.660   1.262  16.372  0.00  0.00    -0.087 SA
BRANCH  26  27
ATOM     27  C2  ZIN A   1      18.095  -0.179  17.186  0.00  0.00     0.182 C 
ATOM     28  C1  ZIN A   1      17.527  -1.501  16.734  0.00  0.00     0.104 C 
ATOM     29  O3  ZIN A   1      18.860  -0.138  18.126  0.00  0.00    -0.286 OA
ENDBRANCH  26  27
ENDBRANCH   1  26
TORSDOF 2
ENDMDL
MODEL 9
REMARK VINA RESULT:      -8.2      2.812      7.130
REMARK  2 active torsions:
REMARK  status: ('A' for Active; 'I' for Inactive)
REMARK    1  A    between atoms: C2_2  and  S4_4 
REMARK    2  A    between atoms: S4_4  and  C5_5 
ROOT
ATOM      1  C5  ZIN A   1      19.724  -0.323  12.650  0.00  0.00     0.064 C 
ATOM      2  C7  ZIN A   1      20.356   1.065  12.530  0.00  0.00     0.051 C 
ATOM      3  C8  ZIN A   1      19.410   1.966  11.758  0.00  0.00    -0.067 C 
ATOM      4  C9  ZIN A   1      19.139   3.165  12.273  0.00  0.00     0.053 C 
ATOM      5  C10 ZIN A   1      18.243   4.083  11.562  0.00  0.00     0.149 C 
ATOM      6  O11 ZIN A   1      17.672   4.989  12.133  0.00  0.00    -0.293 OA
ATOM      7  C12 ZIN A   1      18.068   3.842  10.076  0.00  0.00     0.084 C 
ATOM      8  C13 ZIN A   1      17.751   2.359   9.888  0.00  0.00     0.022 C 
ATOM      9  C14 ZIN A   1      18.842   1.473  10.463  0.00  0.00    -0.016 C 
ATOM     10  C15 ZIN A   1      19.981   1.401   9.443  0.00  0.00     0.020 C 
ATOM     11  C16 ZIN A   1      18.295   0.051  10.637  0.00  0.00     0.004 C 
ATOM     12  C18 ZIN A   1      17.827  -0.475   9.283  0.00  0.00     0.007 C 
ATOM     13  C19 ZIN A   1      17.377  -1.942   9.367  0.00  0.00     0.013 C 
ATOM     14  C20 ZIN A   1      18.551  -2.740   9.902  0.00  0.00    -0.008 C 
ATOM     15  C21 ZIN A   1      19.788  -2.481   9.039  0.00  0.00     0.019 C 
ATOM     16  C22 ZIN A   1      18.815  -2.249  11.352  0.00  0.00     0.002 C 
ATOM     17  C24 ZIN A   1      19.780  -3.319  11.874  0.00  0.00     0.009 C 
ATOM     18  C25 ZIN A   1      19.177  -4.637  11.311  0.00  0.00     0.040 C 
ATOM     19  C26 ZIN A   1      18.350  -4.234  10.073  0.00  0.00     0.079 C 
ATOM     20  C27 ZIN A   1      16.868  -4.579  10.299  0.00  0.00     0.049 C 
ATOM     21  C28 ZIN A   1      16.767  -5.964   9.615  0.00  0.00     0.114 C 
ATOM     22  C29 ZIN A   1      17.907  -5.963   8.619  0.00  0.00     0.259 C 
ATOM     23  O30 ZIN A   1      18.019  -6.735   7.696  0.00  0.00    -0.265 OA
ATOM     24  O31 ZIN A   1      18.772  -4.981   8.908  0.00  0.00    -0.309 OA
ATOM     25  C32 ZIN A   1      19.382  -0.845  11.252  0.00  0.00     0.010 C 
ENDROOT
BRANCH   1  26
ATOM     26  S4  ZIN A   1      18.215  -0.216  13.643  0.00  0.00    -0.087 SA
BRANCH  26  27
ATOM     27  C2  ZIN A   1      18.887  -0.299  15.216  0.00  0.00     0.182 C 
ATOM     28  C1  ZIN A   1      19.028  -1.631  15.906  0.00  0.00     0.104 C 
ATOM     29  O3  ZIN A   1      19.250   0.715  15.774  0.00  0.00    -0.286 OA
ENDBRANCH  26  27
ENDBRANCH   1  26
TORSDOF 2
ENDMDL
