MODEL 1
REMARK VINA RESULT:      -9.4      0.000      0.000
REMARK  5 active torsions:
REMARK  status: ('A' for Active; 'I' for Inactive)
REMARK    1  A    between atoms: O2_2  and  C3_3 
REMARK    2  A    between atoms: C4_4  and  O5_5 
REMARK    3  A    between atoms: C9_9  and  N10_10 
REMARK    4  A    between atoms: C12_12  and  N13_13 
REMARK       I    between atoms: N16_16  and  C17_17 
REMARK    5  A    between atoms: C17_17  and  C19_19 
ROOT
ATOM      1  N13 ZIN A   1      17.961   1.754  10.046  0.00  0.00    -0.248 NA
ATOM      2  C14 ZIN A   1      19.004   2.788  10.043  0.00  0.00     0.118 C 
ATOM      3  C15 ZIN A   1      18.610   3.910  11.009  0.00  0.00     0.140 C 
ATOM      4  N16 ZIN A   1      18.327   3.316  12.324  0.00  0.00    -0.348 N 
ATOM      5  C17 ZIN A   1      18.908   3.797  13.441  0.00  0.00     0.251 C 
ATOM      6  O18 ZIN A   1      19.676   4.732  13.369  0.00  0.00    -0.270 OA
ATOM      7  C30 ZIN A   1      17.392   2.182  12.389  0.00  0.00     0.140 C 
ATOM      8  C31 ZIN A   1      17.834   1.128  11.369  0.00  0.00     0.118 C 
ENDROOT
BRANCH   1   9
ATOM      9  C12 ZIN A   1      18.201   0.805   9.068  0.00  0.00     0.206 A 
ATOM     10  N11 ZIN A   1      18.610   1.214   7.870  0.00  0.00    -0.200 NA
ATOM     11  C9  ZIN A   1      18.856   0.353   6.893  0.00  0.00     0.137 A 
ATOM     12  C8  ZIN A   1      18.672  -1.027   7.148  0.00  0.00     0.041 A 
ATOM     13  C7  ZIN A   1      18.909  -1.998   6.169  0.00  0.00     0.057 A 
ATOM     14  C33 ZIN A   1      18.235  -1.417   8.438  0.00  0.00     0.077 A 
ATOM     15  C4  ZIN A   1      18.717  -3.318   6.464  0.00  0.00     0.102 A 
ATOM     16  C3  ZIN A   1      18.285  -3.711   7.737  0.00  0.00     0.103 A 
ATOM     17  C34 ZIN A   1      18.039  -2.775   8.717  0.00  0.00     0.072 A 
ATOM     18  N32 ZIN A   1      18.013  -0.467   9.361  0.00  0.00    -0.217 NA
BRANCH  11  19
ATOM     19  N10 ZIN A   1      19.280   0.792   5.655  0.00  0.00    -0.383 N 
ATOM     20  H42 ZIN A   1      18.843   0.472   4.851  0.00  0.00     0.157 HD
ATOM     21  H43 ZIN A   1      20.014   1.422   5.589  0.00  0.00     0.157 HD
ENDBRANCH  11  19
BRANCH  15  22
ATOM     22  O5  ZIN A   1      18.949  -4.260   5.510  0.00  0.00    -0.353 OA
ATOM     23  C6  ZIN A   1      17.995  -4.360   4.452  0.00  0.00     0.210 C 
ENDBRANCH  15  22
BRANCH  16  24
ATOM     24  O2  ZIN A   1      18.100  -5.030   8.006  0.00  0.00    -0.353 OA
ATOM     25  C1  ZIN A   1      19.089  -5.673   8.813  0.00  0.00     0.210 C 
ENDBRANCH  16  24
ENDBRANCH   1   9
BRANCH   5  26
ATOM     26  C19 ZIN A   1      18.602   3.174  14.779  0.00  0.00     0.245 C 
ATOM     27  O29 ZIN A   1      18.932   1.781  14.748  0.00  0.00    -0.331 OA
ATOM     28  C28 ZIN A   1      18.997   1.142  15.948  0.00  0.00     0.103 A 
ATOM     29  C23 ZIN A   1      19.107   1.861  17.133  0.00  0.00     0.102 A 
ATOM     30  C27 ZIN A   1      18.957  -0.244  15.984  0.00  0.00     0.040 A 
ATOM     31  O22 ZIN A   1      19.144   3.221  17.121  0.00  0.00    -0.345 OA
ATOM     32  C24 ZIN A   1      19.182   1.188  18.343  0.00  0.00     0.039 A 
ATOM     33  C21 ZIN A   1      19.449   3.846  15.868  0.00  0.00     0.218 C 
ATOM     34  C25 ZIN A   1      19.142  -0.194  18.372  0.00  0.00     0.003 A 
ATOM     35  C26 ZIN A   1      19.029  -0.908  17.194  0.00  0.00     0.003 A 
ENDBRANCH   5  26
TORSDOF 5
ENDMDL
MODEL 2
REMARK VINA RESULT:      -9.3      1.610      2.186
REMARK  5 active torsions:
REMARK  status: ('A' for Active; 'I' for Inactive)
REMARK    1  A    between atoms: O2_2  and  C3_3 
REMARK    2  A    between atoms: C4_4  and  O5_5 
REMARK    3  A    between atoms: C9_9  and  N10_10 
REMARK    4  A    between atoms: C12_12  and  N13_13 
REMARK       I    between atoms: N16_16  and  C17_17 
REMARK    5  A    between atoms: C17_17  and  C19_19 
ROOT
ATOM      1  N13 ZIN A   1      18.128  -0.024   8.614  0.00  0.00    -0.248 NA
ATOM      2  C14 ZIN A   1      19.375   0.751   8.608  0.00  0.00     0.118 C 
ATOM      3  C15 ZIN A   1      19.153   2.076   9.346  0.00  0.00     0.140 C 
ATOM      4  N16 ZIN A   1      18.610   1.782  10.680  0.00  0.00    -0.348 N 
ATOM      5  C17 ZIN A   1      19.170   2.308  11.787  0.00  0.00     0.251 C 
ATOM      6  O18 ZIN A   1      20.135   3.035  11.691  0.00  0.00    -0.270 OA
ATOM      7  C30 ZIN A   1      17.438   0.898  10.775  0.00  0.00     0.140 C 
ATOM      8  C31 ZIN A   1      17.727  -0.380   9.982  0.00  0.00     0.118 C 
ENDROOT
BRANCH   1   9
ATOM      9  C12 ZIN A   1      18.241  -1.151   7.819  0.00  0.00     0.206 A 
ATOM     10  N11 ZIN A   1      18.511  -0.994   6.526  0.00  0.00    -0.200 NA
ATOM     11  C9  ZIN A   1      18.631  -2.035   5.714  0.00  0.00     0.137 A 
ATOM     12  C8  ZIN A   1      18.464  -3.333   6.254  0.00  0.00     0.041 A 
ATOM     13  C7  ZIN A   1      18.574  -4.482   5.462  0.00  0.00     0.057 A 
ATOM     14  C33 ZIN A   1      18.177  -3.453   7.636  0.00  0.00     0.077 A 
ATOM     15  C4  ZIN A   1      18.404  -5.713   6.029  0.00  0.00     0.102 A 
ATOM     16  C3  ZIN A   1      18.120  -5.839   7.396  0.00  0.00     0.103 A 
ATOM     17  C34 ZIN A   1      18.001  -4.724   8.195  0.00  0.00     0.072 A 
ATOM     18  N32 ZIN A   1      18.076  -2.335   8.374  0.00  0.00    -0.217 NA
BRANCH  11  19
ATOM     19  N10 ZIN A   1      18.911  -1.857   4.375  0.00  0.00    -0.383 N 
ATOM     20  H42 ZIN A   1      18.588  -2.498   3.723  0.00  0.00     0.157 HD
ATOM     21  H43 ZIN A   1      19.432  -1.092   4.086  0.00  0.00     0.157 HD
ENDBRANCH  11  19
BRANCH  15  22
ATOM     22  O5  ZIN A   1      18.512  -6.829   5.258  0.00  0.00    -0.353 OA
ATOM     23  C6  ZIN A   1      17.414  -7.130   4.396  0.00  0.00     0.210 C 
ENDBRANCH  15  22
BRANCH  16  24
ATOM     24  O2  ZIN A   1      17.954  -7.075   7.936  0.00  0.00    -0.353 OA
ATOM     25  C1  ZIN A   1      16.612  -7.506   8.169  0.00  0.00     0.210 C 
ENDBRANCH  16  24
ENDBRANCH   1   9
BRANCH   5  26
ATOM     26  C19 ZIN A   1      18.595   1.994  13.145  0.00  0.00     0.245 C 
ATOM     27  O29 ZIN A   1      19.124   0.751  13.617  0.00  0.00    -0.331 OA
ATOM     28  C28 ZIN A   1      18.942   0.471  14.937  0.00  0.00     0.103 A 
ATOM     29  C23 ZIN A   1      18.604   1.474  15.838  0.00  0.00     0.102 A 
ATOM     30  C27 ZIN A   1      19.101  -0.832  15.383  0.00  0.00     0.040 A 
ATOM     31  O22 ZIN A   1      18.438   2.758  15.419  0.00  0.00    -0.345 OA
ATOM     32  C24 ZIN A   1      18.432   1.167  17.179  0.00  0.00     0.039 A 
ATOM     33  C21 ZIN A   1      18.988   3.095  14.140  0.00  0.00     0.218 C 
ATOM     34  C25 ZIN A   1      18.594  -0.134  17.618  0.00  0.00     0.003 A 
ATOM     35  C26 ZIN A   1      18.927  -1.132  16.722  0.00  0.00     0.003 A 
ENDBRANCH   5  26
TORSDOF 5
ENDMDL
MODEL 3
REMARK VINA RESULT:      -9.2      2.402      4.380
REMARK  5 active torsions:
REMARK  status: ('A' for Active; 'I' for Inactive)
REMARK    1  A    between atoms: O2_2  and  C3_3 
REMARK    2  A    between atoms: C4_4  and  O5_5 
REMARK    3  A    between atoms: C9_9  and  N10_10 
REMARK    4  A    between atoms: C12_12  and  N13_13 
REMARK       I    between atoms: N16_16  and  C17_17 
REMARK    5  A    between atoms: C17_17  and  C19_19 
ROOT
ATOM      1  N13 ZIN A   1      19.356  -1.632  11.755  0.00  0.00    -0.248 NA
ATOM      2  C14 ZIN A   1      18.281  -1.951  12.704  0.00  0.00     0.118 C 
ATOM      3  C15 ZIN A   1      18.674  -1.459  14.101  0.00  0.00     0.140 C 
ATOM      4  N16 ZIN A   1      19.024  -0.033  14.013  0.00  0.00    -0.348 N 
ATOM      5  C17 ZIN A   1      18.469   0.869  14.847  0.00  0.00     0.251 C 
ATOM      6  O18 ZIN A   1      17.669   0.508  15.683  0.00  0.00    -0.270 OA
ATOM      7  C30 ZIN A   1      19.996   0.383  12.991  0.00  0.00     0.140 C 
ATOM      8  C31 ZIN A   1      19.551  -0.181  11.637  0.00  0.00     0.118 C 
ENDROOT
BRANCH   1   9
ATOM      9  C12 ZIN A   1      19.111  -2.203  10.518  0.00  0.00     0.206 A 
ATOM     10  N11 ZIN A   1      18.564  -3.415  10.473  0.00  0.00    -0.200 NA
ATOM     11  C9  ZIN A   1      18.305  -4.014   9.320  0.00  0.00     0.137 A 
ATOM     12  C8  ZIN A   1      18.626  -3.333   8.120  0.00  0.00     0.041 A 
ATOM     13  C7  ZIN A   1      18.386  -3.898   6.863  0.00  0.00     0.057 A 
ATOM     14  C33 ZIN A   1      19.208  -2.045   8.216  0.00  0.00     0.077 A 
ATOM     15  C4  ZIN A   1      18.713  -3.202   5.734  0.00  0.00     0.102 A 
ATOM     16  C3  ZIN A   1      19.289  -1.927   5.821  0.00  0.00     0.103 A 
ATOM     17  C34 ZIN A   1      19.541  -1.351   7.047  0.00  0.00     0.072 A 
ATOM     18  N32 ZIN A   1      19.429  -1.524   9.434  0.00  0.00    -0.217 NA
BRANCH  11  19
ATOM     19  N10 ZIN A   1      17.738  -5.271   9.288  0.00  0.00    -0.383 N 
ATOM     20  H42 ZIN A   1      16.976  -5.473   9.853  0.00  0.00     0.157 HD
ATOM     21  H43 ZIN A   1      18.100  -5.952   8.702  0.00  0.00     0.157 HD
ENDBRANCH  11  19
BRANCH  15  22
ATOM     22  O5  ZIN A   1      18.478  -3.752   4.512  0.00  0.00    -0.353 OA
ATOM     23  C6  ZIN A   1      17.137  -3.701   4.025  0.00  0.00     0.210 C 
ENDBRANCH  15  22
BRANCH  16  24
ATOM     24  O2  ZIN A   1      19.607  -1.254   4.684  0.00  0.00    -0.353 OA
ATOM     25  C1  ZIN A   1      18.767  -0.156   4.323  0.00  0.00     0.210 C 
ENDBRANCH  16  24
ENDBRANCH   1   9
BRANCH   5  26
ATOM     26  C19 ZIN A   1      18.843   2.325  14.739  0.00  0.00     0.245 C 
ATOM     27  O29 ZIN A   1      17.699   3.088  14.342  0.00  0.00    -0.331 OA
ATOM     28  C28 ZIN A   1      17.786   4.439  14.486  0.00  0.00     0.103 A 
ATOM     29  C23 ZIN A   1      18.757   5.007  15.303  0.00  0.00     0.102 A 
ATOM     30  C27 ZIN A   1      16.890   5.254  13.811  0.00  0.00     0.040 A 
ATOM     31  O22 ZIN A   1      19.650   4.226  15.970  0.00  0.00    -0.345 OA
ATOM     32  C24 ZIN A   1      18.822   6.386  15.442  0.00  0.00     0.039 A 
ATOM     33  C21 ZIN A   1      19.316   2.840  16.105  0.00  0.00     0.218 C 
ATOM     34  C25 ZIN A   1      17.924   7.193  14.767  0.00  0.00     0.003 A 
ATOM     35  C26 ZIN A   1      16.961   6.628  13.953  0.00  0.00     0.003 A 
ENDBRANCH   5  26
TORSDOF 5
ENDMDL
MODEL 4
REMARK VINA RESULT:      -9.1      1.883      9.331
REMARK  5 active torsions:
REMARK  status: ('A' for Active; 'I' for Inactive)
REMARK    1  A    between atoms: O2_2  and  C3_3 
REMARK    2  A    between atoms: C4_4  and  O5_5 
REMARK    3  A    between atoms: C9_9  and  N10_10 
REMARK    4  A    between atoms: C12_12  and  N13_13 
REMARK       I    between atoms: N16_16  and  C17_17 
REMARK    5  A    between atoms: C17_17  and  C19_19 
ROOT
ATOM      1  N13 ZIN A   1      19.393   1.905  11.439  0.00  0.00    -0.248 NA
ATOM      2  C14 ZIN A   1      18.327   2.284  10.502  0.00  0.00     0.118 C 
ATOM      3  C15 ZIN A   1      18.700   1.812   9.092  0.00  0.00     0.140 C 
ATOM      4  N16 ZIN A   1      19.000   0.374   9.145  0.00  0.00    -0.348 N 
ATOM      5  C17 ZIN A   1      18.411  -0.488   8.292  0.00  0.00     0.251 C 
ATOM      6  O18 ZIN A   1      17.623  -0.079   7.466  0.00  0.00    -0.270 OA
ATOM      7  C30 ZIN A   1      19.959  -0.101  10.154  0.00  0.00     0.140 C 
ATOM      8  C31 ZIN A   1      19.537   0.445  11.522  0.00  0.00     0.118 C 
ENDROOT
BRANCH   1   9
ATOM      9  C12 ZIN A   1      19.171   2.454  12.691  0.00  0.00     0.206 A 
ATOM     10  N11 ZIN A   1      18.900   3.753  12.777  0.00  0.00    -0.200 NA
ATOM     11  C9  ZIN A   1      18.678   4.337  13.946  0.00  0.00     0.137 A 
ATOM     12  C8  ZIN A   1      18.737   3.543  15.117  0.00  0.00     0.041 A 
ATOM     13  C7  ZIN A   1      18.516   4.084  16.388  0.00  0.00     0.057 A 
ATOM     14  C33 ZIN A   1      19.030   2.164  14.977  0.00  0.00     0.077 A 
ATOM     15  C4  ZIN A   1      18.585   3.278  17.488  0.00  0.00     0.102 A 
ATOM     16  C3  ZIN A   1      18.874   1.912  17.359  0.00  0.00     0.103 A 
ATOM     17  C34 ZIN A   1      19.100   1.357  16.119  0.00  0.00     0.072 A 
ATOM     18  N32 ZIN A   1      19.238   1.668  13.747  0.00  0.00    -0.217 NA
BRANCH  11  19
ATOM     19  N10 ZIN A   1      18.398   5.685  14.020  0.00  0.00    -0.383 N 
ATOM     20  H42 ZIN A   1      17.477   5.989  14.046  0.00  0.00     0.157 HD
ATOM     21  H43 ZIN A   1      19.121   6.331  14.046  0.00  0.00     0.157 HD
ENDBRANCH  11  19
BRANCH  15  22
ATOM     22  O5  ZIN A   1      18.369   3.805  18.724  0.00  0.00    -0.353 OA
ATOM     23  C6  ZIN A   1      17.013   4.060  19.093  0.00  0.00     0.210 C 
ENDBRANCH  15  22
BRANCH  16  24
ATOM     24  O2  ZIN A   1      18.937   1.130  18.468  0.00  0.00    -0.353 OA
ATOM     25  C1  ZIN A   1      19.238  -0.253  18.271  0.00  0.00     0.210 C 
ENDBRANCH  16  24
ENDBRANCH   1   9
BRANCH   5  26
ATOM     26  C19 ZIN A   1      18.734  -1.958   8.363  0.00  0.00     0.245 C 
ATOM     27  O29 ZIN A   1      17.710  -2.642   9.093  0.00  0.00    -0.331 OA
ATOM     28  C28 ZIN A   1      17.693  -4.000   8.996  0.00  0.00     0.103 A 
ATOM     29  C23 ZIN A   1      18.376  -4.649   7.973  0.00  0.00     0.102 A 
ATOM     30  C27 ZIN A   1      16.982  -4.739   9.928  0.00  0.00     0.040 A 
ATOM     31  O22 ZIN A   1      19.084  -3.943   7.051  0.00  0.00    -0.345 OA
ATOM     32  C24 ZIN A   1      18.337  -6.033   7.888  0.00  0.00     0.039 A 
ATOM     33  C21 ZIN A   1      18.790  -2.545   6.945  0.00  0.00     0.218 C 
ATOM     34  C25 ZIN A   1      17.624  -6.764   8.820  0.00  0.00     0.003 A 
ATOM     35  C26 ZIN A   1      16.949  -6.119   9.839  0.00  0.00     0.003 A 
ENDBRANCH   5  26
TORSDOF 5
ENDMDL
MODEL 5
REMARK VINA RESULT:      -9.0      2.819     10.506
REMARK  5 active torsions:
REMARK  status: ('A' for Active; 'I' for Inactive)
REMARK    1  A    between atoms: O2_2  and  C3_3 
REMARK    2  A    between atoms: C4_4  and  O5_5 
REMARK    3  A    between atoms: C9_9  and  N10_10 
REMARK    4  A    between atoms: C12_12  and  N13_13 
REMARK       I    between atoms: N16_16  and  C17_17 
REMARK    5  A    between atoms: C17_17  and  C19_19 
ROOT
ATOM      1  N13 ZIN A   1      18.837  -3.037  11.742  0.00  0.00    -0.248 NA
ATOM      2  C14 ZIN A   1      20.108  -3.514  11.182  0.00  0.00     0.118 C 
ATOM      3  C15 ZIN A   1      19.901  -4.900  10.560  0.00  0.00     0.140 C 
ATOM      4  N16 ZIN A   1      18.789  -4.820   9.601  0.00  0.00    -0.348 N 
ATOM      5  C17 ZIN A   1      18.927  -5.278   8.341  0.00  0.00     0.251 C 
ATOM      6  O18 ZIN A   1      19.979  -5.765   7.986  0.00  0.00    -0.270 OA
ATOM      7  C30 ZIN A   1      17.521  -4.226  10.053  0.00  0.00     0.140 C 
ATOM      8  C31 ZIN A   1      17.821  -2.867  10.694  0.00  0.00     0.118 C 
ENDROOT
BRANCH   1   9
ATOM      9  C12 ZIN A   1      19.017  -1.864  12.455  0.00  0.00     0.206 A 
ATOM     10  N11 ZIN A   1      19.713  -0.879  11.892  0.00  0.00    -0.200 NA
ATOM     11  C9  ZIN A   1      19.920   0.268  12.523  0.00  0.00     0.137 A 
ATOM     12  C8  ZIN A   1      19.382   0.428  13.824  0.00  0.00     0.041 A 
ATOM     13  C7  ZIN A   1      19.558   1.607  14.556  0.00  0.00     0.057 A 
ATOM     14  C33 ZIN A   1      18.650  -0.648  14.383  0.00  0.00     0.077 A 
ATOM     15  C4  ZIN A   1      19.021   1.714  15.807  0.00  0.00     0.102 A 
ATOM     16  C3  ZIN A   1      18.295   0.654  16.367  0.00  0.00     0.103 A 
ATOM     17  C34 ZIN A   1      18.112  -0.519  15.669  0.00  0.00     0.072 A 
ATOM     18  N32 ZIN A   1      18.495  -1.770  13.661  0.00  0.00    -0.217 NA
BRANCH  11  19
ATOM     19  N10 ZIN A   1      20.642   1.281  11.928  0.00  0.00    -0.383 N 
ATOM     20  H42 ZIN A   1      21.298   1.072  11.244  0.00  0.00     0.157 HD
ATOM     21  H43 ZIN A   1      20.496   2.202  12.193  0.00  0.00     0.157 HD
ENDBRANCH  11  19
BRANCH  15  22
ATOM     22  O5  ZIN A   1      19.192   2.862  16.517  0.00  0.00    -0.353 OA
ATOM     23  C6  ZIN A   1      19.353   4.069  15.770  0.00  0.00     0.210 C 
ENDBRANCH  15  22
BRANCH  16  24
ATOM     24  O2  ZIN A   1      17.770   0.783  17.614  0.00  0.00    -0.353 OA
ATOM     25  C1  ZIN A   1      18.451   0.114  18.677  0.00  0.00     0.210 C 
ENDBRANCH  16  24
ENDBRANCH   1   9
BRANCH   5  26
ATOM     26  C19 ZIN A   1      17.774  -5.187   7.375  0.00  0.00     0.245 C 
ATOM     27  O29 ZIN A   1      18.152  -4.391   6.247  0.00  0.00    -0.331 OA
ATOM     28  C28 ZIN A   1      17.341  -4.454   5.156  0.00  0.00     0.103 A 
ATOM     29  C23 ZIN A   1      16.429  -5.493   5.005  0.00  0.00     0.102 A 
ATOM     30  C27 ZIN A   1      17.432  -3.470   4.183  0.00  0.00     0.040 A 
ATOM     31  O22 ZIN A   1      16.320  -6.465   5.950  0.00  0.00    -0.345 OA
ATOM     32  C24 ZIN A   1      15.620  -5.542   3.880  0.00  0.00     0.039 A 
ATOM     33  C21 ZIN A   1      17.407  -6.591   6.874  0.00  0.00     0.218 C 
ATOM     34  C25 ZIN A   1      15.717  -4.558   2.913  0.00  0.00     0.003 A 
ATOM     35  C26 ZIN A   1      16.620  -3.524   3.065  0.00  0.00     0.003 A 
ENDBRANCH   5  26
TORSDOF 5
ENDMDL
MODEL 6
REMARK VINA RESULT:      -9.0      2.357      9.814
REMARK  5 active torsions:
REMARK  status: ('A' for Active; 'I' for Inactive)
REMARK    1  A    between atoms: O2_2  and  C3_3 
REMARK    2  A    between atoms: C4_4  and  O5_5 
REMARK    3  A    between atoms: C9_9  and  N10_10 
REMARK    4  A    between atoms: C12_12  and  N13_13 
REMARK       I    between atoms: N16_16  and  C17_17 
REMARK    5  A    between atoms: C17_17  and  C19_19 
ROOT
ATOM      1  N13 ZIN A   1      19.585   1.832  11.118  0.00  0.00    -0.248 NA
ATOM      2  C14 ZIN A   1      18.708   2.268  10.023  0.00  0.00     0.118 C 
ATOM      3  C15 ZIN A   1      19.275   1.766   8.690  0.00  0.00     0.140 C 
ATOM      4  N16 ZIN A   1      19.477   0.313   8.785  0.00  0.00    -0.348 N 
ATOM      5  C17 ZIN A   1      18.983  -0.517   7.845  0.00  0.00     0.251 C 
ATOM      6  O18 ZIN A   1      18.364  -0.068   6.905  0.00  0.00    -0.270 OA
ATOM      7  C30 ZIN A   1      20.232  -0.211   9.933  0.00  0.00     0.140 C 
ATOM      8  C31 ZIN A   1      19.628   0.367  11.217  0.00  0.00     0.118 C 
ENDROOT
BRANCH   1   9
ATOM      9  C12 ZIN A   1      19.197   2.401  12.319  0.00  0.00     0.206 A 
ATOM     10  N11 ZIN A   1      18.677   1.614  13.257  0.00  0.00    -0.200 NA
ATOM     11  C9  ZIN A   1      18.287   2.099  14.427  0.00  0.00     0.137 A 
ATOM     12  C8  ZIN A   1      18.435   3.487  14.664  0.00  0.00     0.041 A 
ATOM     13  C7  ZIN A   1      18.047   4.075  15.873  0.00  0.00     0.057 A 
ATOM     14  C33 ZIN A   1      18.993   4.286  13.637  0.00  0.00     0.077 A 
ATOM     15  C4  ZIN A   1      18.209   5.419  16.054  0.00  0.00     0.102 A 
ATOM     16  C3  ZIN A   1      18.761   6.217  15.043  0.00  0.00     0.103 A 
ATOM     17  C34 ZIN A   1      19.146   5.662  13.842  0.00  0.00     0.072 A 
ATOM     18  N32 ZIN A   1      19.358   3.698  12.486  0.00  0.00    -0.217 NA
BRANCH  11  19
ATOM     19  N10 ZIN A   1      17.749   1.271  15.391  0.00  0.00    -0.383 N 
ATOM     20  H42 ZIN A   1      18.108   0.379  15.519  0.00  0.00     0.157 HD
ATOM     21  H43 ZIN A   1      17.013   1.580  15.940  0.00  0.00     0.157 HD
ENDBRANCH  11  19
BRANCH  15  22
ATOM     22  O5  ZIN A   1      17.832   5.990  17.230  0.00  0.00    -0.353 OA
ATOM     23  C6  ZIN A   1      17.262   5.128  18.216  0.00  0.00     0.210 C 
ENDBRANCH  15  22
BRANCH  16  24
ATOM     24  O2  ZIN A   1      18.912   7.552  15.246  0.00  0.00    -0.353 OA
ATOM     25  C1  ZIN A   1      17.850   8.400  14.802  0.00  0.00     0.210 C 
ENDBRANCH  16  24
ENDBRANCH   1   9
BRANCH   5  26
ATOM     26  C19 ZIN A   1      19.203  -2.004   7.962  0.00  0.00     0.245 C 
ATOM     27  O29 ZIN A   1      18.071  -2.610   8.593  0.00  0.00    -0.331 OA
ATOM     28  C28 ZIN A   1      17.977  -3.966   8.507  0.00  0.00     0.103 A 
ATOM     29  C23 ZIN A   1      18.714  -4.673   7.564  0.00  0.00     0.102 A 
ATOM     30  C27 ZIN A   1      17.131  -4.645   9.370  0.00  0.00     0.040 A 
ATOM     31  O22 ZIN A   1      19.554  -4.027   6.711  0.00  0.00    -0.345 OA
ATOM     32  C24 ZIN A   1      18.596  -6.052   7.489  0.00  0.00     0.039 A 
ATOM     33  C21 ZIN A   1      19.361  -2.615   6.563  0.00  0.00     0.218 C 
ATOM     34  C25 ZIN A   1      17.749  -6.723   8.352  0.00  0.00     0.003 A 
ATOM     35  C26 ZIN A   1      17.019  -6.021   9.291  0.00  0.00     0.003 A 
ENDBRANCH   5  26
TORSDOF 5
ENDMDL
MODEL 7
REMARK VINA RESULT:      -8.9      3.411      9.910
REMARK  5 active torsions:
REMARK  status: ('A' for Active; 'I' for Inactive)
REMARK    1  A    between atoms: O2_2  and  C3_3 
REMARK    2  A    between atoms: C4_4  and  O5_5 
REMARK    3  A    between atoms: C9_9  and  N10_10 
REMARK    4  A    between atoms: C12_12  and  N13_13 
REMARK       I    between atoms: N16_16  and  C17_17 
REMARK    5  A    between atoms: C17_17  and  C19_19 
ROOT
ATOM      1  N13 ZIN A   1      19.256  -2.938   8.434  0.00  0.00    -0.248 NA
ATOM      2  C14 ZIN A   1      19.569  -3.238   7.031  0.00  0.00     0.118 C 
ATOM      3  C15 ZIN A   1      19.845  -4.739   6.883  0.00  0.00     0.140 C 
ATOM      4  N16 ZIN A   1      18.704  -5.481   7.439  0.00  0.00    -0.348 N 
ATOM      5  C17 ZIN A   1      18.095  -6.449   6.727  0.00  0.00     0.251 C 
ATOM      6  O18 ZIN A   1      18.486  -6.719   5.612  0.00  0.00    -0.270 OA
ATOM      7  C30 ZIN A   1      18.245  -5.138   8.794  0.00  0.00     0.140 C 
ATOM      8  C31 ZIN A   1      18.030  -3.623   8.867  0.00  0.00     0.118 C 
ENDROOT
BRANCH   1   9
ATOM      9  C12 ZIN A   1      19.160  -1.572   8.639  0.00  0.00     0.206 A 
ATOM     10  N11 ZIN A   1      19.042  -0.776   7.579  0.00  0.00    -0.200 NA
ATOM     11  C9  ZIN A   1      18.947   0.539   7.711  0.00  0.00     0.137 A 
ATOM     12  C8  ZIN A   1      18.973   1.090   9.015  0.00  0.00     0.041 A 
ATOM     13  C7  ZIN A   1      18.879   2.468   9.237  0.00  0.00     0.057 A 
ATOM     14  C33 ZIN A   1      19.101   0.205  10.114  0.00  0.00     0.077 A 
ATOM     15  C4  ZIN A   1      18.909   2.952  10.514  0.00  0.00     0.102 A 
ATOM     16  C3  ZIN A   1      19.035   2.082  11.606  0.00  0.00     0.103 A 
ATOM     17  C34 ZIN A   1      19.135   0.722  11.414  0.00  0.00     0.072 A 
ATOM     18  N32 ZIN A   1      19.190  -1.114   9.875  0.00  0.00    -0.217 NA
BRANCH  11  19
ATOM     19  N10 ZIN A   1      18.825   1.352   6.603  0.00  0.00    -0.383 N 
ATOM     20  H42 ZIN A   1      19.616   1.621   6.109  0.00  0.00     0.157 HD
ATOM     21  H43 ZIN A   1      17.950   1.656   6.317  0.00  0.00     0.157 HD
ENDBRANCH  11  19
BRANCH  15  22
ATOM     22  O5  ZIN A   1      18.817   4.292  10.729  0.00  0.00    -0.353 OA
ATOM     23  C6  ZIN A   1      17.535   4.893  10.538  0.00  0.00     0.210 C 
ENDBRANCH  15  22
BRANCH  16  24
ATOM     24  O2  ZIN A   1      19.064   2.587  12.867  0.00  0.00    -0.353 OA
ATOM     25  C1  ZIN A   1      18.139   2.038  13.808  0.00  0.00     0.210 C 
ENDBRANCH  16  24
ENDBRANCH   1   9
BRANCH   5  26
ATOM     26  C19 ZIN A   1      16.927  -7.198   7.317  0.00  0.00     0.245 C 
ATOM     27  O29 ZIN A   1      15.766  -6.361   7.312  0.00  0.00    -0.331 OA
ATOM     28  C28 ZIN A   1      14.570  -6.975   7.531  0.00  0.00     0.103 A 
ATOM     29  C23 ZIN A   1      14.441  -8.352   7.396  0.00  0.00     0.102 A 
ATOM     30  C27 ZIN A   1      13.470  -6.211   7.889  0.00  0.00     0.040 A 
ATOM     31  O22 ZIN A   1      15.509  -9.121   7.050  0.00  0.00    -0.345 OA
ATOM     32  C24 ZIN A   1      13.211  -8.954   7.615  0.00  0.00     0.039 A 
ATOM     33  C21 ZIN A   1      16.629  -8.443   6.470  0.00  0.00     0.218 C 
ATOM     34  C25 ZIN A   1      12.117  -8.186   7.970  0.00  0.00     0.003 A 
ATOM     35  C26 ZIN A   1      12.247  -6.818   8.108  0.00  0.00     0.003 A 
ENDBRANCH   5  26
TORSDOF 5
ENDMDL
MODEL 8
REMARK VINA RESULT:      -8.9      1.936      3.451
REMARK  5 active torsions:
REMARK  status: ('A' for Active; 'I' for Inactive)
REMARK    1  A    between atoms: O2_2  and  C3_3 
REMARK    2  A    between atoms: C4_4  and  O5_5 
REMARK    3  A    between atoms: C9_9  and  N10_10 
REMARK    4  A    between atoms: C12_12  and  N13_13 
REMARK       I    between atoms: N16_16  and  C17_17 
REMARK    5  A    between atoms: C17_17  and  C19_19 
ROOT
ATOM      1  N13 ZIN A   1      19.596  -1.178  11.207  0.00  0.00    -0.248 NA
ATOM      2  C14 ZIN A   1      18.476  -1.683  12.011  0.00  0.00     0.118 C 
ATOM      3  C15 ZIN A   1      18.859  -1.648  13.495  0.00  0.00     0.140 C 
ATOM      4  N16 ZIN A   1      19.301  -0.286  13.830  0.00  0.00    -0.348 N 
ATOM      5  C17 ZIN A   1      18.781   0.370  14.886  0.00  0.00     0.251 C 
ATOM      6  O18 ZIN A   1      17.935  -0.162  15.573  0.00  0.00    -0.270 OA
ATOM      7  C30 ZIN A   1      20.328   0.340  12.984  0.00  0.00     0.140 C 
ATOM      8  C31 ZIN A   1      19.888   0.227  11.520  0.00  0.00     0.118 C 
ENDROOT
BRANCH   1   9
ATOM      9  C12 ZIN A   1      19.352  -1.346   9.855  0.00  0.00     0.206 A 
ATOM     10  N11 ZIN A   1      19.278  -0.265   9.083  0.00  0.00    -0.200 NA
ATOM     11  C9  ZIN A   1      19.046  -0.360   7.782  0.00  0.00     0.137 A 
ATOM     12  C8  ZIN A   1      18.876  -1.649   7.220  0.00  0.00     0.041 A 
ATOM     13  C7  ZIN A   1      18.627  -1.834   5.856  0.00  0.00     0.057 A 
ATOM     14  C33 ZIN A   1      18.962  -2.771   8.080  0.00  0.00     0.077 A 
ATOM     15  C4  ZIN A   1      18.469  -3.097   5.361  0.00  0.00     0.102 A 
ATOM     16  C3  ZIN A   1      18.553  -4.212   6.206  0.00  0.00     0.103 A 
ATOM     17  C34 ZIN A   1      18.792  -4.057   7.553  0.00  0.00     0.072 A 
ATOM     18  N32 ZIN A   1      19.201  -2.568   9.386  0.00  0.00    -0.217 NA
BRANCH  11  19
ATOM     19  N10 ZIN A   1      18.973   0.769   6.993  0.00  0.00    -0.383 N 
ATOM     20  H42 ZIN A   1      19.066   0.695   6.030  0.00  0.00     0.157 HD
ATOM     21  H43 ZIN A   1      18.828   1.637   7.400  0.00  0.00     0.157 HD
ENDBRANCH  11  19
BRANCH  15  22
ATOM     22  O5  ZIN A   1      18.228  -3.274   4.034  0.00  0.00    -0.353 OA
ATOM     23  C6  ZIN A   1      16.864  -3.230   3.611  0.00  0.00     0.210 C 
ENDBRANCH  15  22
BRANCH  16  24
ATOM     24  O2  ZIN A   1      18.391  -5.459   5.691  0.00  0.00    -0.353 OA
ATOM     25  C1  ZIN A   1      18.128  -6.515   6.617  0.00  0.00     0.210 C 
ENDBRANCH  16  24
ENDBRANCH   1   9
BRANCH   5  26
ATOM     26  C19 ZIN A   1      19.250   1.765  15.213  0.00  0.00     0.245 C 
ATOM     27  O29 ZIN A   1      18.360   2.722  14.629  0.00  0.00    -0.331 OA
ATOM     28  C28 ZIN A   1      18.468   4.005  15.071  0.00  0.00     0.103 A 
ATOM     29  C23 ZIN A   1      19.126   4.296  16.261  0.00  0.00     0.102 A 
ATOM     30  C27 ZIN A   1      17.909   5.031  14.324  0.00  0.00     0.040 A 
ATOM     31  O22 ZIN A   1      19.685   3.305  17.007  0.00  0.00    -0.345 OA
ATOM     32  C24 ZIN A   1      19.215   5.609  16.696  0.00  0.00     0.039 A 
ATOM     33  C21 ZIN A   1      19.248   1.968  16.734  0.00  0.00     0.218 C 
ATOM     34  C25 ZIN A   1      18.654   6.627  15.947  0.00  0.00     0.003 A 
ATOM     35  C26 ZIN A   1      18.004   6.338  14.763  0.00  0.00     0.003 A 
ENDBRANCH   5  26
TORSDOF 5
ENDMDL
MODEL 9
REMARK VINA RESULT:      -8.9      2.611     10.259
REMARK  5 active torsions:
REMARK  status: ('A' for Active; 'I' for Inactive)
REMARK    1  A    between atoms: O2_2  and  C3_3 
REMARK    2  A    between atoms: C4_4  and  O5_5 
REMARK    3  A    between atoms: C9_9  and  N10_10 
REMARK    4  A    between atoms: C12_12  and  N13_13 
REMARK       I    between atoms: N16_16  and  C17_17 
REMARK    5  A    between atoms: C17_17  and  C19_19 
ROOT
ATOM      1  N13 ZIN A   1      19.108  -0.930   7.051  0.00  0.00    -0.248 NA
ATOM      2  C14 ZIN A   1      17.829  -0.576   6.423  0.00  0.00     0.118 C 
ATOM      3  C15 ZIN A   1      17.781  -1.158   5.006  0.00  0.00     0.140 C 
ATOM      4  N16 ZIN A   1      18.058  -2.600   5.084  0.00  0.00    -0.348 N 
ATOM      5  C17 ZIN A   1      17.239  -3.495   4.498  0.00  0.00     0.251 C 
ATOM      6  O18 ZIN A   1      16.257  -3.115   3.896  0.00  0.00    -0.270 OA
ATOM      7  C30 ZIN A   1      19.255  -3.040   5.818  0.00  0.00     0.140 C 
ATOM      8  C31 ZIN A   1      19.244  -2.385   7.203  0.00  0.00     0.118 C 
ENDROOT
BRANCH   1   9
ATOM      9  C12 ZIN A   1      19.257  -0.288   8.269  0.00  0.00     0.206 A 
ATOM     10  N11 ZIN A   1      20.240  -0.675   9.077  0.00  0.00    -0.200 NA
ATOM     11  C9  ZIN A   1      20.433  -0.099  10.254  0.00  0.00     0.137 A 
ATOM     12  C8  ZIN A   1      19.564   0.948  10.643  0.00  0.00     0.041 A 
ATOM     13  C7  ZIN A   1      19.702   1.606  11.871  0.00  0.00     0.057 A 
ATOM     14  C33 ZIN A   1      18.531   1.327   9.751  0.00  0.00     0.077 A 
ATOM     15  C4  ZIN A   1      18.838   2.611  12.201  0.00  0.00     0.102 A 
ATOM     16  C3  ZIN A   1      17.813   2.991  11.324  0.00  0.00     0.103 A 
ATOM     17  C34 ZIN A   1      17.653   2.356  10.112  0.00  0.00     0.072 A 
ATOM     18  N32 ZIN A   1      18.419   0.681   8.579  0.00  0.00    -0.217 NA
BRANCH  11  19
ATOM     19  N10 ZIN A   1      21.457  -0.512  11.082  0.00  0.00    -0.383 N 
ATOM     20  H42 ZIN A   1      21.304  -0.601  12.036  0.00  0.00     0.157 HD
ATOM     21  H43 ZIN A   1      22.330  -0.712  10.711  0.00  0.00     0.157 HD
ENDBRANCH  11  19
BRANCH  15  22
ATOM     22  O5  ZIN A   1      18.973   3.249  13.395  0.00  0.00    -0.353 OA
ATOM     23  C6  ZIN A   1      18.791   2.464  14.574  0.00  0.00     0.210 C 
ENDBRANCH  15  22
BRANCH  16  24
ATOM     24  O2  ZIN A   1      16.965   3.993  11.675  0.00  0.00    -0.353 OA
ATOM     25  C1  ZIN A   1      16.948   5.152  10.839  0.00  0.00     0.210 C 
ENDBRANCH  16  24
ENDBRANCH   1   9
BRANCH   5  26
ATOM     26  C19 ZIN A   1      17.543  -4.969   4.589  0.00  0.00     0.245 C 
ATOM     27  O29 ZIN A   1      17.058  -5.485   5.834  0.00  0.00    -0.331 OA
ATOM     28  C28 ZIN A   1      16.986  -6.839   5.946  0.00  0.00     0.103 A 
ATOM     29  C23 ZIN A   1      17.019  -7.651   4.818  0.00  0.00     0.102 A 
ATOM     30  C27 ZIN A   1      16.872  -7.412   7.204  0.00  0.00     0.040 A 
ATOM     31  O22 ZIN A   1      17.135  -7.110   3.575  0.00  0.00    -0.345 OA
ATOM     32  C24 ZIN A   1      16.934  -9.028   4.956  0.00  0.00     0.039 A 
ATOM     33  C21 ZIN A   1      16.836  -5.715   3.449  0.00  0.00     0.218 C 
ATOM     34  C25 ZIN A   1      16.820  -9.593   6.213  0.00  0.00     0.003 A 
ATOM     35  C26 ZIN A   1      16.790  -8.786   7.335  0.00  0.00     0.003 A 
ENDBRANCH   5  26
TORSDOF 5
ENDMDL
