MODEL 1
REMARK VINA RESULT:      -7.3      0.000      0.000
REMARK  7 active torsions:
REMARK  status: ('A' for Active; 'I' for Inactive)
REMARK    1  A    between atoms: C2_2  and  N4_4 
REMARK    2  A    between atoms: C13_11  and  O15_12 
REMARK    3  A    between atoms: O15_12  and  C16_13 
REMARK    4  A    between atoms: C16_13  and  C18_15 
REMARK    5  A    between atoms: C18_15  and  C20_16 
REMARK    6  A    between atoms: C18_15  and  C22_18 
REMARK    7  A    between atoms: C20_16  and  O21_17 
ROOT
ATOM      1  O15 <0> d   1      18.505   0.340  11.208  0.00  0.00    -0.315 OA
ENDROOT
BRANCH   1   2
ATOM      2  C13 <0> d   1      18.064   1.059  10.025  0.00  0.00     0.136 C 
ATOM      3  C12 <0> d   1      17.039   0.210   9.266  0.00  0.00     0.066 C 
ATOM      4  C10 <0> d   1      17.739  -1.046   8.723  0.00  0.00     0.193 C 
ATOM      5  N4  <0> d   1      18.757  -0.606   7.732  0.00  0.00    -0.059 N 
ATOM      6  C9  <0> d   1      18.569  -1.660   9.873  0.00  0.00     0.036 C 
ATOM      7  C5  <0> d   1      19.273  -1.755   6.977  0.00  0.00     0.274 C 
ATOM      8  C6  <0> d   1      19.824  -0.008   8.575  0.00  0.00     0.193 C 
ATOM      9  C28 <0> d   1      19.295   1.340   9.091  0.00  0.00     0.066 C 
ATOM     10  C8  <0> d   1      19.947  -0.973   9.776  0.00  0.00     0.036 C 
BRANCH   5  11
ATOM     11  C2  <0> d   1      18.192   0.399   6.821  0.00  0.00     0.183 C 
ATOM     12  C1  <0> d   1      19.260   0.834   5.817  0.00  0.00     0.040 C 
ATOM     13  C3  <0> d   1      17.002  -0.204   6.071  0.00  0.00     0.040 C 
ENDBRANCH   5  11
ENDBRANCH   1   2
BRANCH   1  14
ATOM     14  C16 <0> d   1      18.145   0.846  12.398  0.00  0.00     0.270 C 
ATOM     15  O17 <0> d   1      16.995   1.157  12.600  0.00  0.00    -0.264 OA
BRANCH  14  16
ATOM     16  C18 <0> d   1      19.176   1.027  13.481  0.00  0.00     0.142 C 
BRANCH  16  17
ATOM     17  C20 <0> d   1      20.493   0.384  13.045  0.00  0.00     0.183 C 
BRANCH  17  18
ATOM     18  O21 <0> d   1      21.161   1.246  12.121  0.00  0.00    -0.400 OA
ATOM     19  H47 <0> d   1      21.866   1.777  12.517  0.00  0.00     0.209 HD
ENDBRANCH  17  18
ENDBRANCH  16  17
BRANCH  16  20
ATOM     20  C22 <0> d   1      18.693   0.371  14.750  0.00  0.00    -0.043 A 
ATOM     21  C27 <0> d   1      18.273   1.148  15.813  0.00  0.00     0.008 A 
ATOM     22  C26 <0> d   1      17.825   0.546  16.974  0.00  0.00     0.001 A 
ATOM     23  C25 <0> d   1      17.806  -0.832  17.075  0.00  0.00     0.000 A 
ATOM     24  C24 <0> d   1      18.230  -1.609  16.013  0.00  0.00     0.001 A 
ATOM     25  C23 <0> d   1      18.673  -1.007  14.851  0.00  0.00     0.008 A 
ENDBRANCH  16  20
ENDBRANCH  14  16
ENDBRANCH   1  14
TORSDOF 7
ENDMDL
MODEL 2
REMARK VINA RESULT:      -7.3      1.895      3.652
REMARK  7 active torsions:
REMARK  status: ('A' for Active; 'I' for Inactive)
REMARK    1  A    between atoms: C2_2  and  N4_4 
REMARK    2  A    between atoms: C13_11  and  O15_12 
REMARK    3  A    between atoms: O15_12  and  C16_13 
REMARK    4  A    between atoms: C16_13  and  C18_15 
REMARK    5  A    between atoms: C18_15  and  C20_16 
REMARK    6  A    between atoms: C18_15  and  C22_18 
REMARK    7  A    between atoms: C20_16  and  O21_17 
ROOT
ATOM      1  O15 <0> d   1      19.218   0.142  10.468  0.00  0.00    -0.315 OA
ENDROOT
BRANCH   1   2
ATOM      2  C13 <0> d   1      19.980  -0.299   9.313  0.00  0.00     0.136 C 
ATOM      3  C12 <0> d   1      19.977   0.803   8.250  0.00  0.00     0.066 C 
ATOM      4  C10 <0> d   1      18.543   0.984   7.727  0.00  0.00     0.193 C 
ATOM      5  N4  <0> d   1      18.146  -0.277   7.045  0.00  0.00    -0.059 N 
ATOM      6  C9  <0> d   1      17.601   1.070   8.948  0.00  0.00     0.036 C 
ATOM      7  C5  <0> d   1      16.901  -0.086   6.290  0.00  0.00     0.274 C 
ATOM      8  C6  <0> d   1      17.938  -1.226   8.170  0.00  0.00     0.193 C 
ATOM      9  C28 <0> d   1      19.326  -1.597   8.715  0.00  0.00     0.066 C 
ATOM     10  C8  <0> d   1      17.201  -0.391   9.242  0.00  0.00     0.036 C 
BRANCH   5  11
ATOM     11  C2  <0> d   1      19.219  -0.748   6.161  0.00  0.00     0.183 C 
ATOM     12  C1  <0> d   1      18.885  -2.154   5.658  0.00  0.00     0.040 C 
ATOM     13  C3  <0> d   1      19.353   0.201   4.969  0.00  0.00     0.040 C 
ENDBRANCH   5  11
ENDBRANCH   1   2
BRANCH   1  14
ATOM     14  C16 <0> d   1      19.722  -0.149  11.678  0.00  0.00     0.270 C 
ATOM     15  O17 <0> d   1      20.821   0.245  11.985  0.00  0.00    -0.264 OA
BRANCH  14  16
ATOM     16  C18 <0> d   1      18.915  -0.967  12.652  0.00  0.00     0.142 C 
BRANCH  16  17
ATOM     17  C20 <0> d   1      19.640  -1.021  13.998  0.00  0.00     0.183 C 
BRANCH  17  18
ATOM     18  O21 <0> d   1      19.601   0.269  14.612  0.00  0.00    -0.400 OA
ATOM     19  H47 <0> d   1      18.742   0.499  14.990  0.00  0.00     0.209 HD
ENDBRANCH  17  18
ENDBRANCH  16  17
BRANCH  16  20
ATOM     20  C22 <0> d   1      18.748  -2.366  12.115  0.00  0.00    -0.043 A 
ATOM     21  C27 <0> d   1      17.488  -2.847  11.819  0.00  0.00     0.008 A 
ATOM     22  C26 <0> d   1      17.335  -4.128  11.322  0.00  0.00     0.001 A 
ATOM     23  C25 <0> d   1      18.444  -4.931  11.130  0.00  0.00     0.000 A 
ATOM     24  C24 <0> d   1      19.704  -4.452  11.431  0.00  0.00     0.001 A 
ATOM     25  C23 <0> d   1      19.857  -3.169  11.924  0.00  0.00     0.008 A 
ENDBRANCH  16  20
ENDBRANCH  14  16
ENDBRANCH   1  14
TORSDOF 7
ENDMDL
MODEL 3
REMARK VINA RESULT:      -7.2      2.138      3.232
REMARK  7 active torsions:
REMARK  status: ('A' for Active; 'I' for Inactive)
REMARK    1  A    between atoms: C2_2  and  N4_4 
REMARK    2  A    between atoms: C13_11  and  O15_12 
REMARK    3  A    between atoms: O15_12  and  C16_13 
REMARK    4  A    between atoms: C16_13  and  C18_15 
REMARK    5  A    between atoms: C18_15  and  C20_16 
REMARK    6  A    between atoms: C18_15  and  C22_18 
REMARK    7  A    between atoms: C20_16  and  O21_17 
ROOT
ATOM      1  O15 <0> d   1      18.520  -0.461  11.483  0.00  0.00    -0.315 OA
ENDROOT
BRANCH   1   2
ATOM      2  C13 <0> d   1      17.437  -1.329  11.054  0.00  0.00     0.136 C 
ATOM      3  C12 <0> d   1      17.421  -2.591  11.921  0.00  0.00     0.066 C 
ATOM      4  C10 <0> d   1      18.701  -3.397  11.649  0.00  0.00     0.193 C 
ATOM      5  N4  <0> d   1      18.662  -3.845  10.231  0.00  0.00    -0.059 N 
ATOM      6  C9  <0> d   1      19.897  -2.420  11.706  0.00  0.00     0.036 C 
ATOM      7  C5  <0> d   1      19.711  -4.841   9.975  0.00  0.00     0.274 C 
ATOM      8  C6  <0> d   1      18.925  -2.597   9.467  0.00  0.00     0.193 C 
ATOM      9  C28 <0> d   1      17.654  -1.736   9.552  0.00  0.00     0.066 C 
ATOM     10  C8  <0> d   1      20.045  -1.891  10.265  0.00  0.00     0.036 C 
BRANCH   5  11
ATOM     11  C2  <0> d   1      17.340  -4.389   9.896  0.00  0.00     0.183 C 
ATOM     12  C1  <0> d   1      17.328  -4.835   8.432  0.00  0.00     0.040 C 
ATOM     13  C3  <0> d   1      17.039  -5.589  10.796  0.00  0.00     0.040 C 
ENDBRANCH   5  11
ENDBRANCH   1   2
BRANCH   1  14
ATOM     14  C16 <0> d   1      18.187   0.607  12.226  0.00  0.00     0.270 C 
ATOM     15  O17 <0> d   1      17.231   1.280  11.922  0.00  0.00    -0.264 OA
BRANCH  14  16
ATOM     16  C18 <0> d   1      19.007   0.965  13.438  0.00  0.00     0.142 C 
BRANCH  16  17
ATOM     17  C20 <0> d   1      20.481   0.660  13.166  0.00  0.00     0.183 C 
BRANCH  17  18
ATOM     18  O21 <0> d   1      20.895   1.330  11.974  0.00  0.00    -0.400 OA
ATOM     19  H47 <0> d   1      21.797   1.120  11.698  0.00  0.00     0.209 HD
ENDBRANCH  17  18
ENDBRANCH  16  17
BRANCH  16  20
ATOM     20  C22 <0> d   1      18.536   0.158  14.621  0.00  0.00    -0.043 A 
ATOM     21  C27 <0> d   1      19.174  -1.023  14.950  0.00  0.00     0.008 A 
ATOM     22  C26 <0> d   1      18.746  -1.761  16.037  0.00  0.00     0.001 A 
ATOM     23  C25 <0> d   1      17.674  -1.321  16.791  0.00  0.00     0.000 A 
ATOM     24  C24 <0> d   1      17.033  -0.143  16.460  0.00  0.00     0.001 A 
ATOM     25  C23 <0> d   1      17.464   0.597  15.374  0.00  0.00     0.008 A 
ENDBRANCH  16  20
ENDBRANCH  14  16
ENDBRANCH   1  14
TORSDOF 7
ENDMDL
MODEL 4
REMARK VINA RESULT:      -7.0      2.022      7.300
REMARK  7 active torsions:
REMARK  status: ('A' for Active; 'I' for Inactive)
REMARK    1  A    between atoms: C2_2  and  N4_4 
REMARK    2  A    between atoms: C13_11  and  O15_12 
REMARK    3  A    between atoms: O15_12  and  C16_13 
REMARK    4  A    between atoms: C16_13  and  C18_15 
REMARK    5  A    between atoms: C18_15  and  C20_16 
REMARK    6  A    between atoms: C18_15  and  C22_18 
REMARK    7  A    between atoms: C20_16  and  O21_17 
ROOT
ATOM      1  O15 <0> d   1      18.778   0.050  11.016  0.00  0.00    -0.315 OA
ENDROOT
BRANCH   1   2
ATOM      2  C13 <0> d   1      18.241  -0.845  12.025  0.00  0.00     0.136 C 
ATOM      3  C12 <0> d   1      17.151  -0.122  12.821  0.00  0.00     0.066 C 
ATOM      4  C10 <0> d   1      17.795   1.024  13.617  0.00  0.00     0.193 C 
ATOM      5  N4  <0> d   1      18.727   0.421  14.608  0.00  0.00    -0.059 N 
ATOM      6  C9  <0> d   1      18.717   1.809  12.656  0.00  0.00     0.036 C 
ATOM      7  C5  <0> d   1      19.171   1.429  15.579  0.00  0.00     0.274 C 
ATOM      8  C6  <0> d   1      19.866  -0.042  13.772  0.00  0.00     0.193 C 
ATOM      9  C28 <0> d   1      19.390  -1.285  13.003  0.00  0.00     0.066 C 
ATOM     10  C8  <0> d   1      20.086   1.104  12.758  0.00  0.00     0.036 C 
BRANCH   5  11
ATOM     11  C2  <0> d   1      18.092  -0.712  15.293  0.00  0.00     0.183 C 
ATOM     12  C1  <0> d   1      19.149  -1.490  16.080  0.00  0.00     0.040 C 
ATOM     13  C3  <0> d   1      17.020  -0.192  16.253  0.00  0.00     0.040 C 
ENDBRANCH   5  11
ENDBRANCH   1   2
BRANCH   1  14
ATOM     14  C16 <0> d   1      19.235  -0.509   9.884  0.00  0.00     0.270 C 
ATOM     15  O17 <0> d   1      20.420  -0.524   9.653  0.00  0.00    -0.264 OA
BRANCH  14  16
ATOM     16  C18 <0> d   1      18.268  -1.117   8.902  0.00  0.00     0.142 C 
BRANCH  16  17
ATOM     17  C20 <0> d   1      18.334  -2.642   8.998  0.00  0.00     0.183 C 
BRANCH  17  18
ATOM     18  O21 <0> d   1      19.527  -3.026   9.685  0.00  0.00    -0.400 OA
ATOM     19  H47 <0> d   1      20.071  -2.281   9.973  0.00  0.00     0.209 HD
ENDBRANCH  17  18
ENDBRANCH  16  17
BRANCH  16  20
ATOM     20  C22 <0> d   1      18.633  -0.685   7.504  0.00  0.00    -0.043 A 
ATOM     21  C27 <0> d   1      18.972  -1.631   6.555  0.00  0.00     0.008 A 
ATOM     22  C26 <0> d   1      19.302  -1.235   5.272  0.00  0.00     0.001 A 
ATOM     23  C25 <0> d   1      19.300   0.107   4.941  0.00  0.00     0.000 A 
ATOM     24  C24 <0> d   1      18.965   1.053   5.892  0.00  0.00     0.001 A 
ATOM     25  C23 <0> d   1      18.632   0.656   7.173  0.00  0.00     0.008 A 
ENDBRANCH  16  20
ENDBRANCH  14  16
ENDBRANCH   1  14
TORSDOF 7
ENDMDL
MODEL 5
REMARK VINA RESULT:      -6.9      3.173      5.866
REMARK  7 active torsions:
REMARK  status: ('A' for Active; 'I' for Inactive)
REMARK    1  A    between atoms: C2_2  and  N4_4 
REMARK    2  A    between atoms: C13_11  and  O15_12 
REMARK    3  A    between atoms: O15_12  and  C16_13 
REMARK    4  A    between atoms: C16_13  and  C18_15 
REMARK    5  A    between atoms: C18_15  and  C20_16 
REMARK    6  A    between atoms: C18_15  and  C22_18 
REMARK    7  A    between atoms: C20_16  and  O21_17 
ROOT
ATOM      1  O15 <0> d   1      19.000  -1.812   8.696  0.00  0.00    -0.315 OA
ENDROOT
BRANCH   1   2
ATOM      2  C13 <0> d   1      19.614  -0.499   8.622  0.00  0.00     0.136 C 
ATOM      3  C12 <0> d   1      20.328  -0.195   9.943  0.00  0.00     0.066 C 
ATOM      4  C10 <0> d   1      19.278  -0.074  11.059  0.00  0.00     0.193 C 
ATOM      5  N4  <0> d   1      18.420   1.101  10.750  0.00  0.00    -0.059 N 
ATOM      6  C9  <0> d   1      18.323  -1.284  10.943  0.00  0.00     0.036 C 
ATOM      7  C5  <0> d   1      17.573   1.439  11.901  0.00  0.00     0.274 C 
ATOM      8  C6  <0> d   1      17.592   0.633   9.607  0.00  0.00     0.193 C 
ATOM      9  C28 <0> d   1      18.506   0.587   8.372  0.00  0.00     0.066 C 
ATOM     10  C8  <0> d   1      17.209  -0.817   9.983  0.00  0.00     0.036 C 
BRANCH   5  11
ATOM     11  C2  <0> d   1      19.242   2.253  10.357  0.00  0.00     0.183 C 
ATOM     12  C1  <0> d   1      18.336   3.374   9.844  0.00  0.00     0.040 C 
ATOM     13  C3  <0> d   1      20.035   2.751  11.567  0.00  0.00     0.040 C 
ENDBRANCH   5  11
ENDBRANCH   1   2
BRANCH   1  14
ATOM     14  C16 <0> d   1      19.225  -2.649   7.671  0.00  0.00     0.270 C 
ATOM     15  O17 <0> d   1      19.298  -2.219   6.545  0.00  0.00    -0.264 OA
BRANCH  14  16
ATOM     16  C18 <0> d   1      19.385  -4.125   7.925  0.00  0.00     0.142 C 
BRANCH  16  17
ATOM     17  C20 <0> d   1      18.839  -4.911   6.732  0.00  0.00     0.183 C 
BRANCH  17  18
ATOM     18  O21 <0> d   1      19.735  -5.977   6.413  0.00  0.00    -0.400 OA
ATOM     19  H47 <0> d   1      20.042  -6.477   7.181  0.00  0.00     0.209 HD
ENDBRANCH  17  18
ENDBRANCH  16  17
BRANCH  16  20
ATOM     20  C22 <0> d   1      18.623  -4.507   9.169  0.00  0.00    -0.043 A 
ATOM     21  C27 <0> d   1      19.291  -4.665  10.368  0.00  0.00     0.008 A 
ATOM     22  C26 <0> d   1      18.592  -5.009  11.510  0.00  0.00     0.001 A 
ATOM     23  C25 <0> d   1      17.225  -5.204  11.450  0.00  0.00     0.000 A 
ATOM     24  C24 <0> d   1      16.557  -5.050  10.250  0.00  0.00     0.001 A 
ATOM     25  C23 <0> d   1      17.256  -4.702   9.109  0.00  0.00     0.008 A 
ENDBRANCH  16  20
ENDBRANCH  14  16
ENDBRANCH   1  14
TORSDOF 7
ENDMDL
MODEL 6
REMARK VINA RESULT:      -6.9      1.365      2.615
REMARK  7 active torsions:
REMARK  status: ('A' for Active; 'I' for Inactive)
REMARK    1  A    between atoms: C2_2  and  N4_4 
REMARK    2  A    between atoms: C13_11  and  O15_12 
REMARK    3  A    between atoms: O15_12  and  C16_13 
REMARK    4  A    between atoms: C16_13  and  C18_15 
REMARK    5  A    between atoms: C18_15  and  C20_16 
REMARK    6  A    between atoms: C18_15  and  C22_18 
REMARK    7  A    between atoms: C20_16  and  O21_17 
ROOT
ATOM      1  O15 <0> d   1      19.293   0.715  11.886  0.00  0.00    -0.315 OA
ENDROOT
BRANCH   1   2
ATOM      2  C13 <0> d   1      19.688  -0.545  11.282  0.00  0.00     0.136 C 
ATOM      3  C12 <0> d   1      20.332  -0.276   9.919  0.00  0.00     0.066 C 
ATOM      4  C10 <0> d   1      19.267   0.297   8.970  0.00  0.00     0.193 C 
ATOM      5  N4  <0> d   1      18.233  -0.752   8.762  0.00  0.00    -0.059 N 
ATOM      6  C9  <0> d   1      18.521   1.423   9.721  0.00  0.00     0.036 C 
ATOM      7  C5  <0> d   1      17.333  -0.379   7.663  0.00  0.00     0.274 C 
ATOM      8  C6  <0> d   1      17.502  -0.778  10.056  0.00  0.00     0.193 C 
ATOM      9  C28 <0> d   1      18.421  -1.454  11.085  0.00  0.00     0.066 C 
ATOM     10  C8  <0> d   1      17.354   0.712  10.439  0.00  0.00     0.036 C 
BRANCH   5  11
ATOM     11  C2  <0> d   1      18.862  -2.053   8.496  0.00  0.00     0.183 C 
ATOM     12  C1  <0> d   1      17.817  -3.162   8.635  0.00  0.00     0.040 C 
ATOM     13  C3  <0> d   1      19.431  -2.064   7.076  0.00  0.00     0.040 C 
ENDBRANCH   5  11
ENDBRANCH   1   2
BRANCH   1  14
ATOM     14  C16 <0> d   1      19.395   0.809  13.222  0.00  0.00     0.270 C 
ATOM     15  O17 <0> d   1      20.382   0.397  13.783  0.00  0.00    -0.264 OA
BRANCH  14  16
ATOM     16  C18 <0> d   1      18.276   1.426  14.020  0.00  0.00     0.142 C 
BRANCH  16  17
ATOM     17  C20 <0> d   1      18.451   2.945  14.054  0.00  0.00     0.183 C 
BRANCH  17  18
ATOM     18  O21 <0> d   1      19.607   3.309  13.297  0.00  0.00    -0.400 OA
ATOM     19  H47 <0> d   1      20.382   2.759  13.474  0.00  0.00     0.209 HD
ENDBRANCH  17  18
ENDBRANCH  16  17
BRANCH  16  20
ATOM     20  C22 <0> d   1      18.305   0.886  15.427  0.00  0.00    -0.043 A 
ATOM     21  C27 <0> d   1      19.006   1.556  16.411  0.00  0.00     0.008 A 
ATOM     22  C26 <0> d   1      19.028   1.063  17.703  0.00  0.00     0.001 A 
ATOM     23  C25 <0> d   1      18.355  -0.105  18.007  0.00  0.00     0.000 A 
ATOM     24  C24 <0> d   1      17.656  -0.777  17.023  0.00  0.00     0.001 A 
ATOM     25  C23 <0> d   1      17.631  -0.282  15.732  0.00  0.00     0.008 A 
ENDBRANCH  16  20
ENDBRANCH  14  16
ENDBRANCH   1  14
TORSDOF 7
ENDMDL
MODEL 7
REMARK VINA RESULT:      -6.9      2.411      6.052
REMARK  7 active torsions:
REMARK  status: ('A' for Active; 'I' for Inactive)
REMARK    1  A    between atoms: C2_2  and  N4_4 
REMARK    2  A    between atoms: C13_11  and  O15_12 
REMARK    3  A    between atoms: O15_12  and  C16_13 
REMARK    4  A    between atoms: C16_13  and  C18_15 
REMARK    5  A    between atoms: C18_15  and  C20_16 
REMARK    6  A    between atoms: C18_15  and  C22_18 
REMARK    7  A    between atoms: C20_16  and  O21_17 
ROOT
ATOM      1  O15 <0> d   1      19.316  -0.644  11.126  0.00  0.00    -0.315 OA
ENDROOT
BRANCH   1   2
ATOM      2  C13 <0> d   1      19.703   0.620  11.727  0.00  0.00     0.136 C 
ATOM      3  C12 <0> d   1      20.374   0.357  13.078  0.00  0.00     0.066 C 
ATOM      4  C10 <0> d   1      19.334  -0.234  14.043  0.00  0.00     0.193 C 
ATOM      5  N4  <0> d   1      18.289   0.799  14.272  0.00  0.00    -0.059 N 
ATOM      6  C9  <0> d   1      18.592  -1.369  13.302  0.00  0.00     0.036 C 
ATOM      7  C5  <0> d   1      17.413   0.410  15.385  0.00  0.00     0.274 C 
ATOM      8  C6  <0> d   1      17.534   0.817  12.991  0.00  0.00     0.193 C 
ATOM      9  C28 <0> d   1      18.426   1.509  11.948  0.00  0.00     0.066 C 
ATOM     10  C8  <0> d   1      17.403  -0.674  12.606  0.00  0.00     0.036 C 
BRANCH   5  11
ATOM     11  C2  <0> d   1      18.902   2.108  14.530  0.00  0.00     0.183 C 
ATOM     12  C1  <0> d   1      17.866   3.211  14.307  0.00  0.00     0.040 C 
ATOM     13  C3  <0> d   1      19.400   2.162  15.976  0.00  0.00     0.040 C 
ENDBRANCH   5  11
ENDBRANCH   1   2
BRANCH   1  14
ATOM     14  C16 <0> d   1      19.673  -0.846   9.847  0.00  0.00     0.270 C 
ATOM     15  O17 <0> d   1      20.502  -0.134   9.332  0.00  0.00    -0.264 OA
BRANCH  14  16
ATOM     16  C18 <0> d   1      19.038  -1.959   9.055  0.00  0.00     0.142 C 
BRANCH  16  17
ATOM     17  C20 <0> d   1      17.794  -1.431   8.339  0.00  0.00     0.183 C 
BRANCH  17  18
ATOM     18  O21 <0> d   1      17.510  -0.105   8.792  0.00  0.00    -0.400 OA
ATOM     19  H47 <0> d   1      18.107   0.567   8.437  0.00  0.00     0.209 HD
ENDBRANCH  17  18
ENDBRANCH  16  17
BRANCH  16  20
ATOM     20  C22 <0> d   1      18.645  -3.078   9.986  0.00  0.00    -0.043 A 
ATOM     21  C27 <0> d   1      17.311  -3.377  10.183  0.00  0.00     0.008 A 
ATOM     22  C26 <0> d   1      16.951  -4.407  11.032  0.00  0.00     0.001 A 
ATOM     23  C25 <0> d   1      17.926  -5.131  11.692  0.00  0.00     0.000 A 
ATOM     24  C24 <0> d   1      19.261  -4.828  11.499  0.00  0.00     0.001 A 
ATOM     25  C23 <0> d   1      19.620  -3.802  10.646  0.00  0.00     0.008 A 
ENDBRANCH  16  20
ENDBRANCH  14  16
ENDBRANCH   1  14
TORSDOF 7
ENDMDL
MODEL 8
REMARK VINA RESULT:      -6.9      2.664      6.811
REMARK  7 active torsions:
REMARK  status: ('A' for Active; 'I' for Inactive)
REMARK    1  A    between atoms: C2_2  and  N4_4 
REMARK    2  A    between atoms: C13_11  and  O15_12 
REMARK    3  A    between atoms: O15_12  and  C16_13 
REMARK    4  A    between atoms: C16_13  and  C18_15 
REMARK    5  A    between atoms: C18_15  and  C20_16 
REMARK    6  A    between atoms: C18_15  and  C22_18 
REMARK    7  A    between atoms: C20_16  and  O21_17 
ROOT
ATOM      1  O15 <0> d   1      18.539   0.817  10.939  0.00  0.00    -0.315 OA
ENDROOT
BRANCH   1   2
ATOM      2  C13 <0> d   1      17.456   1.565  11.553  0.00  0.00     0.136 C 
ATOM      3  C12 <0> d   1      17.346   2.940  10.887  0.00  0.00     0.066 C 
ATOM      4  C10 <0> d   1      18.612   3.750  11.208  0.00  0.00     0.193 C 
ATOM      5  N4  <0> d   1      18.644   3.981  12.677  0.00  0.00    -0.059 N 
ATOM      6  C9  <0> d   1      19.835   2.844  10.939  0.00  0.00     0.036 C 
ATOM      7  C5  <0> d   1      19.672   4.971  13.023  0.00  0.00     0.274 C 
ATOM      8  C6  <0> d   1      18.993   2.645  13.229  0.00  0.00     0.193 C 
ATOM      9  C28 <0> d   1      17.749   1.754  13.085  0.00  0.00     0.066 C 
ATOM     10  C8  <0> d   1      20.086   2.113  12.274  0.00  0.00     0.036 C 
BRANCH   5  11
ATOM     11  C2  <0> d   1      17.326   4.413  13.162  0.00  0.00     0.183 C 
ATOM     12  C1  <0> d   1      17.423   4.776  14.645  0.00  0.00     0.040 C 
ATOM     13  C3  <0> d   1      16.866   5.636  12.367  0.00  0.00     0.040 C 
ENDBRANCH   5  11
ENDBRANCH   1   2
BRANCH   1  14
ATOM     14  C16 <0> d   1      18.197  -0.201  10.133  0.00  0.00     0.270 C 
ATOM     15  O17 <0> d   1      17.041  -0.536  10.042  0.00  0.00    -0.264 OA
BRANCH  14  16
ATOM     16  C18 <0> d   1      19.257  -0.924   9.344  0.00  0.00     0.142 C 
BRANCH  16  17
ATOM     17  C20 <0> d   1      20.638  -0.563   9.893  0.00  0.00     0.183 C 
BRANCH  17  18
ATOM     18  O21 <0> d   1      20.874  -1.285  11.103  0.00  0.00    -0.400 OA
ATOM     19  H47 <0> d   1      21.344  -2.121  10.977  0.00  0.00     0.209 HD
ENDBRANCH  17  18
ENDBRANCH  16  17
BRANCH  16  20
ATOM     20  C22 <0> d   1      19.170  -0.518   7.895  0.00  0.00    -0.043 A 
ATOM     21  C27 <0> d   1      19.230  -1.478   6.903  0.00  0.00     0.008 A 
ATOM     22  C26 <0> d   1      19.145  -1.106   5.574  0.00  0.00     0.001 A 
ATOM     23  C25 <0> d   1      19.009   0.227   5.238  0.00  0.00     0.000 A 
ATOM     24  C24 <0> d   1      18.954   1.188   6.230  0.00  0.00     0.001 A 
ATOM     25  C23 <0> d   1      19.034   0.815   7.558  0.00  0.00     0.008 A 
ENDBRANCH  16  20
ENDBRANCH  14  16
ENDBRANCH   1  14
TORSDOF 7
ENDMDL
MODEL 9
REMARK VINA RESULT:      -6.8      2.109      7.174
REMARK  7 active torsions:
REMARK  status: ('A' for Active; 'I' for Inactive)
REMARK    1  A    between atoms: C2_2  and  N4_4 
REMARK    2  A    between atoms: C13_11  and  O15_12 
REMARK    3  A    between atoms: O15_12  and  C16_13 
REMARK    4  A    between atoms: C16_13  and  C18_15 
REMARK    5  A    between atoms: C18_15  and  C20_16 
REMARK    6  A    between atoms: C18_15  and  C22_18 
REMARK    7  A    between atoms: C20_16  and  O21_17 
ROOT
ATOM      1  O15 <0> d   1      19.250  -0.647  11.066  0.00  0.00    -0.315 OA
ENDROOT
BRANCH   1   2
ATOM      2  C13 <0> d   1      19.634   0.622  11.659  0.00  0.00     0.136 C 
ATOM      3  C12 <0> d   1      20.336   0.367  12.996  0.00  0.00     0.066 C 
ATOM      4  C10 <0> d   1      19.323  -0.236  13.982  0.00  0.00     0.193 C 
ATOM      5  N4  <0> d   1      18.270   0.784  14.233  0.00  0.00    -0.059 N 
ATOM      6  C9  <0> d   1      18.579  -1.380  13.256  0.00  0.00     0.036 C 
ATOM      7  C5  <0> d   1      17.423   0.385  15.364  0.00  0.00     0.274 C 
ATOM      8  C6  <0> d   1      17.490   0.794  12.968  0.00  0.00     0.193 C 
ATOM      9  C28 <0> d   1      18.352   1.496  11.907  0.00  0.00     0.066 C 
ATOM     10  C8  <0> d   1      17.368  -0.699  12.585  0.00  0.00     0.036 C 
BRANCH   5  11
ATOM     11  C2  <0> d   1      18.874   2.100  14.479  0.00  0.00     0.183 C 
ATOM     12  C1  <0> d   1      17.831   3.193  14.238  0.00  0.00     0.040 C 
ATOM     13  C3  <0> d   1      19.364   2.174  15.927  0.00  0.00     0.040 C 
ENDBRANCH   5  11
ENDBRANCH   1   2
BRANCH   1  14
ATOM     14  C16 <0> d   1      19.438  -0.783   9.743  0.00  0.00     0.270 C 
ATOM     15  O17 <0> d   1      20.439  -0.345   9.227  0.00  0.00    -0.264 OA
BRANCH  14  16
ATOM     16  C18 <0> d   1      18.401  -1.481   8.903  0.00  0.00     0.142 C 
BRANCH  16  17
ATOM     17  C20 <0> d   1      18.622  -2.993   8.970  0.00  0.00     0.183 C 
BRANCH  17  18
ATOM     18  O21 <0> d   1      19.767  -3.272   9.779  0.00  0.00    -0.400 OA
ATOM     19  H47 <0> d   1      19.614  -3.164  10.727  0.00  0.00     0.209 HD
ENDBRANCH  17  18
ENDBRANCH  16  17
BRANCH  16  20
ATOM     20  C22 <0> d   1      18.517  -1.018   7.473  0.00  0.00    -0.043 A 
ATOM     21  C27 <0> d   1      19.158  -1.811   6.540  0.00  0.00     0.008 A 
ATOM     22  C26 <0> d   1      19.260  -1.389   5.228  0.00  0.00     0.001 A 
ATOM     23  C25 <0> d   1      18.729  -0.170   4.851  0.00  0.00     0.000 A 
ATOM     24  C24 <0> d   1      18.092   0.625   5.784  0.00  0.00     0.001 A 
ATOM     25  C23 <0> d   1      17.986   0.200   7.096  0.00  0.00     0.008 A 
ENDBRANCH  16  20
ENDBRANCH  14  16
ENDBRANCH   1  14
TORSDOF 7
ENDMDL
