MODEL 1
REMARK VINA RESULT:      -8.6      0.000      0.000
REMARK  5 active torsions:
REMARK  status: ('A' for Active; 'I' for Inactive)
REMARK    1  A    between atoms: N2_2  and  C4_4 
REMARK    2  A    between atoms: C8_7  and  C9_8 
REMARK       I    between atoms: C9_8  and  N10_9 
REMARK    3  A    between atoms: C14_13  and  O15_14 
REMARK    4  A    between atoms: C22_21  and  O23_22 
REMARK    5  A    between atoms: C28_27  and  O30_29 
ROOT
ATOM      1  C4  ZIN A   1      17.226   4.773  14.690  0.00  0.00     0.304 C 
ATOM      2  C6  ZIN A   1      18.518   5.350  15.193  0.00  0.00     0.201 C 
ATOM      3  O7  ZIN A   1      18.614   5.719  16.346  0.00  0.00    -0.290 OA
ATOM      4  C8  ZIN A   1      19.661   5.463  14.289  0.00  0.00     0.115 C 
ATOM      5  C12 ZIN A   1      19.607   4.904  13.037  0.00  0.00     0.146 C 
ATOM      6  O13 ZIN A   1      20.679   5.012  12.240  0.00  0.00    -0.192 OA
ATOM      7  C14 ZIN A   1      18.400   4.180  12.524  0.00  0.00     0.181 C 
ATOM      8  C16 ZIN A   1      18.827   3.036  11.652  0.00  0.00     0.200 C 
ATOM      9  O17 ZIN A   1      19.421   3.290  10.623  0.00  0.00    -0.289 OA
ATOM     10  C18 ZIN A   1      18.580   1.703  11.957  0.00  0.00     0.036 C 
ATOM     11  C19 ZIN A   1      18.967   0.725  11.059  0.00  0.00     0.131 C 
ATOM     12  O20 ZIN A   1      19.518   1.069   9.874  0.00  0.00    -0.190 OA
ATOM     13  C21 ZIN A   1      18.776  -0.691  11.404  0.00  0.00     0.043 A 
ATOM     14  C22 ZIN A   1      18.850  -1.684  10.419  0.00  0.00     0.079 A 
ATOM     15  C24 ZIN A   1      18.651  -3.011  10.769  0.00  0.00     0.037 A 
ATOM     16  C25 ZIN A   1      18.381  -3.348  12.081  0.00  0.00     0.003 A 
ATOM     17  C26 ZIN A   1      18.312  -2.368  13.059  0.00  0.00     0.011 A 
ATOM     18  C27 ZIN A   1      18.512  -1.047  12.731  0.00  0.00    -0.008 A 
ATOM     19  C28 ZIN A   1      18.472   0.020  13.794  0.00  0.00     0.090 C 
ATOM     20  C29 ZIN A   1      17.617  -0.465  14.967  0.00  0.00     0.052 C 
ATOM     21  C31 ZIN A   1      17.869   1.302  13.222  0.00  0.00     0.065 C 
ATOM     22  C33 ZIN A   1      17.987   2.426  14.256  0.00  0.00     0.024 C 
ATOM     23  C34 ZIN A   1      17.475   3.722  13.627  0.00  0.00     0.077 C 
ENDROOT
BRANCH   4  24
ATOM     24  C9  ZIN A   1      20.871   6.179  14.723  0.00  0.00     0.255 C 
ATOM     25  N10 ZIN A   1      21.709   5.609  15.611  0.00  0.00    -0.366 N 
ATOM     26  H42 ZIN A   1      21.552   4.701  15.913  0.00  0.00     0.159 HD
ATOM     27  H43 ZIN A   1      22.469   6.108  15.950  0.00  0.00     0.159 HD
ATOM     28  O11 ZIN A   1      21.115   7.285  14.279  0.00  0.00    -0.268 OA
ENDBRANCH   4  24
BRANCH   1  29
ATOM     29  N2  ZIN A   1      16.406   5.851  14.119  0.00  0.00     0.092 N 
ATOM     30  C1  ZIN A   1      15.041   5.818  14.660  0.00  0.00     0.310 C 
ATOM     31  C3  ZIN A   1      17.031   7.161  14.345  0.00  0.00     0.310 C 
ENDBRANCH   1  29
BRANCH   7  32
ATOM     32  O15 ZIN A   1      17.671   5.085  11.694  0.00  0.00    -0.374 OA
ATOM     33  H44 ZIN A   1      17.444   5.920  12.126  0.00  0.00     0.211 HD
ENDBRANCH   7  32
BRANCH  19  34
ATOM     34  O30 ZIN A   1      19.799   0.285  14.252  0.00  0.00    -0.385 OA
ATOM     35  H52 ZIN A   1      20.369   0.699  13.589  0.00  0.00     0.211 HD
ENDBRANCH  19  34
BRANCH  14  36
ATOM     36  O23 ZIN A   1      19.113  -1.350   9.130  0.00  0.00    -0.360 OA
ATOM     37  H45 ZIN A   1      20.050  -1.195   8.947  0.00  0.00     0.217 HD
ENDBRANCH  14  36
TORSDOF 5
ENDMDL
MODEL 2
REMARK VINA RESULT:      -8.6      4.423      9.308
REMARK  5 active torsions:
REMARK  status: ('A' for Active; 'I' for Inactive)
REMARK    1  A    between atoms: N2_2  and  C4_4 
REMARK    2  A    between atoms: C8_7  and  C9_8 
REMARK       I    between atoms: C9_8  and  N10_9 
REMARK    3  A    between atoms: C14_13  and  O15_14 
REMARK    4  A    between atoms: C22_21  and  O23_22 
REMARK    5  A    between atoms: C28_27  and  O30_29 
ROOT
ATOM      1  C4  ZIN A   1      17.368  -4.793   8.290  0.00  0.00     0.304 C 
ATOM      2  C6  ZIN A   1      18.706  -5.357   7.905  0.00  0.00     0.201 C 
ATOM      3  O7  ZIN A   1      18.881  -5.804   6.790  0.00  0.00    -0.290 OA
ATOM      4  C8  ZIN A   1      19.795  -5.367   8.879  0.00  0.00     0.115 C 
ATOM      5  C12 ZIN A   1      19.650  -4.723  10.081  0.00  0.00     0.146 C 
ATOM      6  O13 ZIN A   1      20.676  -4.735  10.945  0.00  0.00    -0.192 OA
ATOM      7  C14 ZIN A   1      18.393  -4.007  10.471  0.00  0.00     0.181 C 
ATOM      8  C16 ZIN A   1      18.731  -2.790  11.280  0.00  0.00     0.200 C 
ATOM      9  O17 ZIN A   1      19.270  -2.949  12.358  0.00  0.00    -0.289 OA
ATOM     10  C18 ZIN A   1      18.462  -1.491  10.866  0.00  0.00     0.036 C 
ATOM     11  C19 ZIN A   1      18.764  -0.440  11.712  0.00  0.00     0.131 C 
ATOM     12  O20 ZIN A   1      19.254  -0.679  12.947  0.00  0.00    -0.190 OA
ATOM     13  C21 ZIN A   1      18.550   0.941  11.254  0.00  0.00     0.043 A 
ATOM     14  C22 ZIN A   1      18.534   2.004  12.167  0.00  0.00     0.079 A 
ATOM     15  C24 ZIN A   1      18.315   3.294  11.710  0.00  0.00     0.037 A 
ATOM     16  C25 ZIN A   1      18.113   3.528  10.365  0.00  0.00     0.003 A 
ATOM     17  C26 ZIN A   1      18.133   2.480   9.458  0.00  0.00     0.011 A 
ATOM     18  C27 ZIN A   1      18.354   1.193   9.892  0.00  0.00    -0.008 A 
ATOM     19  C28 ZIN A   1      18.410   0.053   8.909  0.00  0.00     0.090 C 
ATOM     20  C29 ZIN A   1      17.612   0.423   7.657  0.00  0.00     0.052 C 
ATOM     21  C31 ZIN A   1      17.815  -1.206   9.536  0.00  0.00     0.065 C 
ATOM     22  C33 ZIN A   1      18.029  -2.395   8.596  0.00  0.00     0.024 C 
ATOM     23  C34 ZIN A   1      17.520  -3.661   9.287  0.00  0.00     0.077 C 
ENDROOT
BRANCH   4  24
ATOM     24  C9  ZIN A   1      21.051  -6.068   8.568  0.00  0.00     0.255 C 
ATOM     25  N10 ZIN A   1      21.889  -5.569   7.638  0.00  0.00    -0.366 N 
ATOM     26  H42 ZIN A   1      21.700  -4.713   7.223  0.00  0.00     0.159 HD
ATOM     27  H43 ZIN A   1      22.682  -6.067   7.383  0.00  0.00     0.159 HD
ATOM     28  O11 ZIN A   1      21.332  -7.098   9.151  0.00  0.00    -0.268 OA
ENDBRANCH   4  24
BRANCH   1  29
ATOM     29  N2  ZIN A   1      16.550  -5.856   8.891  0.00  0.00     0.092 N 
ATOM     30  C1  ZIN A   1      15.122  -5.635   8.626  0.00  0.00     0.310 C 
ATOM     31  C3  ZIN A   1      16.976  -7.179   8.414  0.00  0.00     0.310 C 
ENDBRANCH   1  29
BRANCH   7  32
ATOM     32  O15 ZIN A   1      17.644  -4.876  11.322  0.00  0.00    -0.374 OA
ATOM     33  H44 ZIN A   1      18.174  -5.569  11.741  0.00  0.00     0.211 HD
ENDBRANCH   7  32
BRANCH  19  34
ATOM     34  O30 ZIN A   1      19.770  -0.197   8.547  0.00  0.00    -0.385 OA
ATOM     35  H52 ZIN A   1      20.265   0.598   8.305  0.00  0.00     0.211 HD
ENDBRANCH  19  34
BRANCH  14  36
ATOM     36  O23 ZIN A   1      18.730   1.770  13.490  0.00  0.00    -0.360 OA
ATOM     37  H45 ZIN A   1      19.572   2.107  13.828  0.00  0.00     0.217 HD
ENDBRANCH  14  36
TORSDOF 5
ENDMDL
MODEL 3
REMARK VINA RESULT:      -6.5      3.791      7.434
REMARK  5 active torsions:
REMARK  status: ('A' for Active; 'I' for Inactive)
REMARK    1  A    between atoms: N2_2  and  C4_4 
REMARK    2  A    between atoms: C8_7  and  C9_8 
REMARK       I    between atoms: C9_8  and  N10_9 
REMARK    3  A    between atoms: C14_13  and  O15_14 
REMARK    4  A    between atoms: C22_21  and  O23_22 
REMARK    5  A    between atoms: C28_27  and  O30_29 
ROOT
ATOM      1  C4  ZIN A   1      19.111  -3.087  11.750  0.00  0.00     0.304 C 
ATOM      2  C6  ZIN A   1      18.121  -2.720  10.680  0.00  0.00     0.201 C 
ATOM      3  O7  ZIN A   1      17.312  -3.537  10.291  0.00  0.00    -0.290 OA
ATOM      4  C8  ZIN A   1      18.136  -1.373  10.111  0.00  0.00     0.115 C 
ATOM      5  C12 ZIN A   1      18.939  -0.404  10.657  0.00  0.00     0.146 C 
ATOM      6  O13 ZIN A   1      18.915   0.825  10.122  0.00  0.00    -0.192 OA
ATOM      7  C14 ZIN A   1      19.841  -0.661  11.825  0.00  0.00     0.181 C 
ATOM      8  C16 ZIN A   1      19.904   0.558  12.696  0.00  0.00     0.200 C 
ATOM      9  O17 ZIN A   1      20.383   1.573  12.231  0.00  0.00    -0.289 OA
ATOM     10  C18 ZIN A   1      19.444   0.591  14.008  0.00  0.00     0.036 C 
ATOM     11  C19 ZIN A   1      19.597   1.750  14.745  0.00  0.00     0.131 C 
ATOM     12  O20 ZIN A   1      20.244   2.812  14.217  0.00  0.00    -0.190 OA
ATOM     13  C21 ZIN A   1      19.049   1.818  16.108  0.00  0.00     0.043 A 
ATOM     14  C22 ZIN A   1      19.453   2.828  16.992  0.00  0.00     0.079 A 
ATOM     15  C24 ZIN A   1      18.932   2.860  18.276  0.00  0.00     0.037 A 
ATOM     16  C25 ZIN A   1      18.023   1.902  18.680  0.00  0.00     0.003 A 
ATOM     17  C26 ZIN A   1      17.619   0.904  17.806  0.00  0.00     0.011 A 
ATOM     18  C27 ZIN A   1      18.121   0.860  16.526  0.00  0.00    -0.008 A 
ATOM     19  C28 ZIN A   1      17.661  -0.201  15.560  0.00  0.00     0.090 C 
ATOM     20  C29 ZIN A   1      17.166  -1.420  16.344  0.00  0.00     0.052 C 
ATOM     21  C31 ZIN A   1      18.817  -0.617  14.654  0.00  0.00     0.065 C 
ATOM     22  C33 ZIN A   1      18.300  -1.568  13.570  0.00  0.00     0.024 C 
ATOM     23  C34 ZIN A   1      19.449  -1.888  12.614  0.00  0.00     0.077 C 
ENDROOT
BRANCH   4  24
ATOM     24  C9  ZIN A   1      17.287  -1.058   8.951  0.00  0.00     0.255 C 
ATOM     25  N10 ZIN A   1      17.437  -1.743   7.800  0.00  0.00    -0.366 N 
ATOM     26  H42 ZIN A   1      18.054  -2.489   7.757  0.00  0.00     0.159 HD
ATOM     27  H43 ZIN A   1      16.927  -1.488   7.016  0.00  0.00     0.159 HD
ATOM     28  O11 ZIN A   1      16.451  -0.178   9.032  0.00  0.00    -0.268 OA
ENDBRANCH   4  24
BRANCH   1  29
ATOM     29  N2  ZIN A   1      20.339  -3.588  11.118  0.00  0.00     0.092 N 
ATOM     30  C1  ZIN A   1      21.255  -4.149  12.120  0.00  0.00     0.310 C 
ATOM     31  C3  ZIN A   1      20.030  -4.574  10.075  0.00  0.00     0.310 C 
ENDBRANCH   1  29
BRANCH   7  32
ATOM     32  O15 ZIN A   1      21.159  -0.875  11.316  0.00  0.00    -0.374 OA
ATOM     33  H44 ZIN A   1      21.460  -0.190  10.703  0.00  0.00     0.211 HD
ENDBRANCH   7  32
BRANCH  19  34
ATOM     34  O30 ZIN A   1      16.594   0.313  14.761  0.00  0.00    -0.385 OA
ATOM     35  H52 ZIN A   1      16.675   1.255  14.556  0.00  0.00     0.211 HD
ENDBRANCH  19  34
BRANCH  14  36
ATOM     36  O23 ZIN A   1      20.348   3.767  16.593  0.00  0.00    -0.360 OA
ATOM     37  H45 ZIN A   1      20.344   4.569  17.134  0.00  0.00     0.217 HD
ENDBRANCH  14  36
TORSDOF 5
ENDMDL
MODEL 4
REMARK VINA RESULT:      -5.6      4.179      8.621
REMARK  5 active torsions:
REMARK  status: ('A' for Active; 'I' for Inactive)
REMARK    1  A    between atoms: N2_2  and  C4_4 
REMARK    2  A    between atoms: C8_7  and  C9_8 
REMARK       I    between atoms: C9_8  and  N10_9 
REMARK    3  A    between atoms: C14_13  and  O15_14 
REMARK    4  A    between atoms: C22_21  and  O23_22 
REMARK    5  A    between atoms: C28_27  and  O30_29 
ROOT
ATOM      1  C4  ZIN A   1      19.079  -4.013  10.975  0.00  0.00     0.304 C 
ATOM      2  C6  ZIN A   1      17.867  -4.723  10.440  0.00  0.00     0.201 C 
ATOM      3  O7  ZIN A   1      17.358  -5.623  11.074  0.00  0.00    -0.290 OA
ATOM      4  C8  ZIN A   1      17.305  -4.324   9.151  0.00  0.00     0.115 C 
ATOM      5  C12 ZIN A   1      17.778  -3.208   8.509  0.00  0.00     0.146 C 
ATOM      6  O13 ZIN A   1      17.228  -2.860   7.337  0.00  0.00    -0.192 OA
ATOM      7  C14 ZIN A   1      18.886  -2.363   9.061  0.00  0.00     0.181 C 
ATOM      8  C16 ZIN A   1      18.641  -0.922   8.724  0.00  0.00     0.200 C 
ATOM      9  O17 ZIN A   1      18.641  -0.598   7.553  0.00  0.00    -0.289 OA
ATOM     10  C18 ZIN A   1      18.414   0.063   9.679  0.00  0.00     0.036 C 
ATOM     11  C19 ZIN A   1      18.253   1.373   9.267  0.00  0.00     0.131 C 
ATOM     12  O20 ZIN A   1      18.380   1.697   7.962  0.00  0.00    -0.190 OA
ATOM     13  C21 ZIN A   1      17.941   2.410  10.262  0.00  0.00     0.043 A 
ATOM     14  C22 ZIN A   1      18.087   3.768   9.950  0.00  0.00     0.079 A 
ATOM     15  C24 ZIN A   1      17.799   4.725  10.911  0.00  0.00     0.037 A 
ATOM     16  C25 ZIN A   1      17.375   4.340  12.167  0.00  0.00     0.003 A 
ATOM     17  C26 ZIN A   1      17.225   2.997  12.478  0.00  0.00     0.011 A 
ATOM     18  C27 ZIN A   1      17.500   2.033  11.534  0.00  0.00    -0.008 A 
ATOM     19  C28 ZIN A   1      17.308   0.574  11.854  0.00  0.00     0.090 C 
ATOM     20  C29 ZIN A   1      17.417   0.367  13.367  0.00  0.00     0.052 C 
ATOM     21  C31 ZIN A   1      18.377  -0.259  11.150  0.00  0.00     0.065 C 
ATOM     22  C33 ZIN A   1      18.074  -1.747  11.342  0.00  0.00     0.024 C 
ATOM     23  C34 ZIN A   1      19.094  -2.560  10.544  0.00  0.00     0.077 C 
ENDROOT
BRANCH   4  24
ATOM     24  C9  ZIN A   1      16.227  -5.120   8.543  0.00  0.00     0.255 C 
ATOM     25  N10 ZIN A   1      16.340  -5.546   7.270  0.00  0.00    -0.366 N 
ATOM     26  H42 ZIN A   1      17.159  -5.388   6.776  0.00  0.00     0.159 HD
ATOM     27  H43 ZIN A   1      15.600  -6.010   6.847  0.00  0.00     0.159 HD
ATOM     28  O11 ZIN A   1      15.234  -5.393   9.191  0.00  0.00    -0.268 OA
ENDBRANCH   4  24
BRANCH   1  29
ATOM     29  N2  ZIN A   1      20.289  -4.678  10.470  0.00  0.00     0.092 N 
ATOM     30  C1  ZIN A   1      21.253  -4.908  11.555  0.00  0.00     0.310 C 
ATOM     31  C3  ZIN A   1      19.953  -5.934   9.788  0.00  0.00     0.310 C 
ENDBRANCH   1  29
BRANCH   7  32
ATOM     32  O15 ZIN A   1      20.093  -2.744   8.399  0.00  0.00    -0.374 OA
ATOM     33  H44 ZIN A   1      20.859  -2.203   8.637  0.00  0.00     0.211 HD
ENDBRANCH   7  32
BRANCH  19  34
ATOM     34  O30 ZIN A   1      16.015   0.156  11.411  0.00  0.00    -0.385 OA
ATOM     35  H52 ZIN A   1      15.737  -0.701  11.761  0.00  0.00     0.211 HD
ENDBRANCH  19  34
BRANCH  14  36
ATOM     36  O23 ZIN A   1      18.507   4.144   8.715  0.00  0.00    -0.360 OA
ATOM     37  H45 ZIN A   1      17.939   4.802   8.290  0.00  0.00     0.217 HD
ENDBRANCH  14  36
TORSDOF 5
ENDMDL
