MODEL 1
REMARK VINA RESULT:      -9.2      0.000      0.000
REMARK  7 active torsions:
REMARK  status: ('A' for Active; 'I' for Inactive)
REMARK    1  A    between atoms: C2_2  and  C3_3 
REMARK    2  A    between atoms: C6_6  and  O8_7 
REMARK    3  A    between atoms: O8_7  and  C9_8 
REMARK    4  A    between atoms: C9_8  and  C11_10 
REMARK    5  A    between atoms: C11_10  and  S12_11 
REMARK    6  A    between atoms: S12_11  and  C13_12 
REMARK    7  A    between atoms: C43_36  and  O45_37 
ROOT
ATOM      1  C3  ZIN A   1      18.036  -1.096   7.768  0.00  0.00     0.002 C 
ATOM      2  C4  ZIN A   1      16.994  -0.137   7.159  0.00  0.00     0.022 C 
ATOM      3  C5  ZIN A   1      17.767  -1.211   9.285  0.00  0.00     0.049 C 
ATOM      4  C6  ZIN A   1      18.773  -2.093  10.038  0.00  0.00     0.142 C 
ATOM      5  C26 ZIN A   1      18.306  -3.536  10.222  0.00  0.00    -0.003 C 
ATOM      6  C27 ZIN A   1      17.478  -3.411  11.512  0.00  0.00     0.019 C 
ATOM      7  C28 ZIN A   1      17.355  -4.116   9.264  0.00  0.00     0.075 C 
ATOM      8  C30 ZIN A   1      16.439  -5.246   9.594  0.00  0.00     0.132 C 
ATOM      9  O31 ZIN A   1      16.061  -5.628  10.674  0.00  0.00    -0.298 OA
ATOM     10  C32 ZIN A   1      16.048  -5.874   8.254  0.00  0.00     0.079 C 
ATOM     11  C33 ZIN A   1      16.976  -5.243   7.182  0.00  0.00     0.018 C 
ATOM     12  C34 ZIN A   1      18.122  -4.687   7.995  0.00  0.00    -0.023 C 
ATOM     13  C35 ZIN A   1      19.067  -5.766   8.503  0.00  0.00     0.011 C 
ATOM     14  C36 ZIN A   1      20.098  -5.136   9.444  0.00  0.00     0.006 C 
ATOM     15  C37 ZIN A   1      19.393  -4.508  10.645  0.00  0.00    -0.007 C 
ATOM     16  C39 ZIN A   1      20.426  -3.852  11.554  0.00  0.00     0.011 C 
ATOM     17  C40 ZIN A   1      18.875  -3.470   7.515  0.00  0.00     0.021 C 
ATOM     18  C42 ZIN A   1      19.695  -3.854   6.266  0.00  0.00     0.013 C 
ATOM     19  C43 ZIN A   1      17.877  -2.411   7.120  0.00  0.00     0.134 C 
ENDROOT
BRANCH   4  20
ATOM     20  O8  ZIN A   1      18.913  -1.492  11.367  0.00  0.00    -0.315 OA
BRANCH  20  21
ATOM     21  C9  ZIN A   1      19.745  -0.445  11.478  0.00  0.00     0.268 C 
ATOM     22  O10 ZIN A   1      20.800  -0.447  10.889  0.00  0.00    -0.264 OA
BRANCH  21  23
ATOM     23  C11 ZIN A   1      19.363   0.733  12.336  0.00  0.00     0.185 C 
BRANCH  23  24
ATOM     24  S12 ZIN A   1      17.588   0.664  12.703  0.00  0.00    -0.154 SA
BRANCH  24  25
ATOM     25  C13 ZIN A   1      17.552   0.208  14.459  0.00  0.00     0.051 C 
ATOM     26  C22 ZIN A   1      18.555  -0.921  14.712  0.00  0.00     0.048 C 
ATOM     27  C20 ZIN A   1      18.597  -1.205  16.223  0.00  0.00     0.189 C 
ATOM     28  C19 ZIN A   1      17.148  -1.292  16.754  0.00  0.00     0.035 C 
ATOM     29  N23 ZIN A   1      19.159   0.028  16.870  0.00  0.00    -0.066 N 
ATOM     30  C18 ZIN A   1      16.774   0.159  17.123  0.00  0.00     0.035 C 
ATOM     31  C16 ZIN A   1      18.030   0.991  16.780  0.00  0.00     0.189 C 
ATOM     32  C15 ZIN A   1      17.919   1.427  15.310  0.00  0.00     0.048 C 
ATOM     33  H24 ZIN A   1      19.964   0.362  16.361  0.00  0.00     0.280 HD
ATOM     34  C25 ZIN A   1      19.510  -0.238  18.272  0.00  0.00     0.270 C 
ENDBRANCH  24  25
ENDBRANCH  23  24
ENDBRANCH  21  23
ENDBRANCH  20  21
ENDBRANCH   4  20
BRANCH   1  35
ATOM     35  C2  ZIN A   1      19.403  -0.525   7.502  0.00  0.00    -0.025 C 
ATOM     36  C1  ZIN A   1      19.633   0.748   7.711  0.00  0.00     0.008 C 
ENDBRANCH   1  35
BRANCH  19  37
ATOM     37  O45 ZIN A   1      17.986  -2.213   5.701  0.00  0.00    -0.394 OA
ATOM     38  H84 ZIN A   1      17.781  -2.999   5.177  0.00  0.00     0.210 HD
ENDBRANCH  19  37
TORSDOF 7
ENDMDL
MODEL 2
REMARK VINA RESULT:      -9.0      2.068      3.197
REMARK  7 active torsions:
REMARK  status: ('A' for Active; 'I' for Inactive)
REMARK    1  A    between atoms: C2_2  and  C3_3 
REMARK    2  A    between atoms: C6_6  and  O8_7 
REMARK    3  A    between atoms: O8_7  and  C9_8 
REMARK    4  A    between atoms: C9_8  and  C11_10 
REMARK    5  A    between atoms: C11_10  and  S12_11 
REMARK    6  A    between atoms: S12_11  and  C13_12 
REMARK    7  A    between atoms: C43_36  and  O45_37 
ROOT
ATOM      1  C3  ZIN A   1      18.061  -1.093   8.081  0.00  0.00     0.002 C 
ATOM      2  C4  ZIN A   1      17.057  -0.064   7.524  0.00  0.00     0.022 C 
ATOM      3  C5  ZIN A   1      17.586  -1.530   9.484  0.00  0.00     0.049 C 
ATOM      4  C6  ZIN A   1      18.529  -2.516  10.191  0.00  0.00     0.142 C 
ATOM      5  C26 ZIN A   1      18.135  -3.980  10.007  0.00  0.00    -0.003 C 
ATOM      6  C27 ZIN A   1      17.124  -4.155  11.152  0.00  0.00     0.019 C 
ATOM      7  C28 ZIN A   1      17.371  -4.380   8.817  0.00  0.00     0.075 C 
ATOM      8  C30 ZIN A   1      16.494  -5.585   8.768  0.00  0.00     0.132 C 
ATOM      9  O31 ZIN A   1      15.990  -6.196   9.678  0.00  0.00    -0.298 OA
ATOM     10  C32 ZIN A   1      16.341  -5.933   7.286  0.00  0.00     0.079 C 
ATOM     11  C33 ZIN A   1      17.370  -5.061   6.518  0.00  0.00     0.018 C 
ATOM     12  C34 ZIN A   1      18.349  -4.647   7.593  0.00  0.00    -0.023 C 
ATOM     13  C35 ZIN A   1      19.280  -5.776   8.014  0.00  0.00     0.011 C 
ATOM     14  C36 ZIN A   1      20.121  -5.320   9.209  0.00  0.00     0.006 C 
ATOM     15  C37 ZIN A   1      19.211  -4.981  10.389  0.00  0.00    -0.007 C 
ATOM     16  C39 ZIN A   1      20.058  -4.493  11.559  0.00  0.00     0.011 C 
ATOM     17  C40 ZIN A   1      19.082  -3.332   7.489  0.00  0.00     0.021 C 
ATOM     18  C42 ZIN A   1      20.096  -3.419   6.330  0.00  0.00     0.013 C 
ATOM     19  C43 ZIN A   1      18.084  -2.249   7.166  0.00  0.00     0.134 C 
ENDROOT
BRANCH   4  20
ATOM     20  O8  ZIN A   1      18.436  -2.200  11.619  0.00  0.00    -0.315 OA
BRANCH  20  21
ATOM     21  C9  ZIN A   1      19.359  -1.363  12.119  0.00  0.00     0.268 C 
ATOM     22  O10 ZIN A   1      20.239  -0.940  11.407  0.00  0.00    -0.264 OA
BRANCH  21  23
ATOM     23  C11 ZIN A   1      19.296  -0.951  13.567  0.00  0.00     0.185 C 
BRANCH  23  24
ATOM     24  S12 ZIN A   1      17.875   0.147  13.823  0.00  0.00    -0.154 SA
BRANCH  24  25
ATOM     25  C13 ZIN A   1      18.283   1.588  12.798  0.00  0.00     0.051 C 
ATOM     26  C22 ZIN A   1      17.454   1.549  11.511  0.00  0.00     0.048 C 
ATOM     27  C20 ZIN A   1      17.725   2.839  10.720  0.00  0.00     0.189 C 
ATOM     28  C19 ZIN A   1      19.249   3.089  10.679  0.00  0.00     0.035 C 
ATOM     29  N23 ZIN A   1      17.182   3.967  11.550  0.00  0.00    -0.066 N 
ATOM     30  C18 ZIN A   1      19.551   3.907  11.951  0.00  0.00     0.035 C 
ATOM     31  C16 ZIN A   1      18.181   4.077  12.646  0.00  0.00     0.189 C 
ATOM     32  C15 ZIN A   1      17.971   2.870  13.575  0.00  0.00     0.048 C 
ATOM     33  H24 ZIN A   1      16.269   3.736  11.910  0.00  0.00     0.280 HD
ATOM     34  C25 ZIN A   1      17.129   5.208  10.764  0.00  0.00     0.270 C 
ENDBRANCH  24  25
ENDBRANCH  23  24
ENDBRANCH  21  23
ENDBRANCH  20  21
ENDBRANCH   4  20
BRANCH   1  35
ATOM     35  C2  ZIN A   1      19.412  -0.432   8.149  0.00  0.00    -0.025 C 
ATOM     36  C1  ZIN A   1      19.527   0.851   7.908  0.00  0.00     0.008 C 
ENDBRANCH   1  35
BRANCH  19  37
ATOM     37  O45 ZIN A   1      18.383  -1.755   5.849  0.00  0.00    -0.394 OA
ATOM     38  H84 ZIN A   1      17.735  -1.122   5.510  0.00  0.00     0.210 HD
ENDBRANCH  19  37
TORSDOF 7
ENDMDL
MODEL 3
REMARK VINA RESULT:      -8.8      2.060      2.660
REMARK  7 active torsions:
REMARK  status: ('A' for Active; 'I' for Inactive)
REMARK    1  A    between atoms: C2_2  and  C3_3 
REMARK    2  A    between atoms: C6_6  and  O8_7 
REMARK    3  A    between atoms: O8_7  and  C9_8 
REMARK    4  A    between atoms: C9_8  and  C11_10 
REMARK    5  A    between atoms: C11_10  and  S12_11 
REMARK    6  A    between atoms: S12_11  and  C13_12 
REMARK    7  A    between atoms: C43_36  and  O45_37 
ROOT
ATOM      1  C3  ZIN A   1      18.081  -0.958   7.890  0.00  0.00     0.002 C 
ATOM      2  C4  ZIN A   1      17.056  -0.015   7.230  0.00  0.00     0.022 C 
ATOM      3  C5  ZIN A   1      17.658  -1.191   9.357  0.00  0.00     0.049 C 
ATOM      4  C6  ZIN A   1      18.628  -2.070  10.161  0.00  0.00     0.142 C 
ATOM      5  C26 ZIN A   1      18.231  -3.544  10.201  0.00  0.00    -0.003 C 
ATOM      6  C27 ZIN A   1      17.262  -3.552  11.395  0.00  0.00     0.019 C 
ATOM      7  C28 ZIN A   1      17.425  -4.105   9.108  0.00  0.00     0.075 C 
ATOM      8  C30 ZIN A   1      16.549  -5.302   9.261  0.00  0.00     0.132 C 
ATOM      9  O31 ZIN A   1      16.079  -5.777  10.266  0.00  0.00    -0.298 OA
ATOM     10  C32 ZIN A   1      16.342  -5.856   7.850  0.00  0.00     0.079 C 
ATOM     11  C33 ZIN A   1      17.341  -5.105   6.930  0.00  0.00     0.018 C 
ATOM     12  C34 ZIN A   1      18.357  -4.546   7.899  0.00  0.00    -0.023 C 
ATOM     13  C35 ZIN A   1      19.305  -5.607   8.441  0.00  0.00     0.011 C 
ATOM     14  C36 ZIN A   1      20.189  -4.990   9.528  0.00  0.00     0.006 C 
ATOM     15  C37 ZIN A   1      19.322  -4.484  10.680  0.00  0.00    -0.007 C 
ATOM     16  C39 ZIN A   1      20.210  -3.839  11.738  0.00  0.00     0.011 C 
ATOM     17  C40 ZIN A   1      19.084  -3.261   7.583  0.00  0.00     0.021 C 
ATOM     18  C42 ZIN A   1      20.055  -3.514   6.413  0.00  0.00     0.013 C 
ATOM     19  C43 ZIN A   1      18.073  -2.232   7.147  0.00  0.00     0.134 C 
ENDROOT
BRANCH   4  20
ATOM     20  O8  ZIN A   1      18.587  -1.555  11.533  0.00  0.00    -0.315 OA
BRANCH  20  21
ATOM     21  C9  ZIN A   1      18.839  -0.248  11.701  0.00  0.00     0.268 C 
ATOM     22  O10 ZIN A   1      19.952   0.182  11.511  0.00  0.00    -0.264 OA
BRANCH  21  23
ATOM     23  C11 ZIN A   1      17.733   0.684  12.126  0.00  0.00     0.185 C 
BRANCH  23  24
ATOM     24  S12 ZIN A   1      17.924   2.276  11.277  0.00  0.00    -0.154 SA
BRANCH  24  25
ATOM     25  C13 ZIN A   1      18.058   3.456  12.649  0.00  0.00     0.051 C 
ATOM     26  C22 ZIN A   1      18.128   2.691  13.974  0.00  0.00     0.048 C 
ATOM     27  C20 ZIN A   1      18.365   3.703  15.107  0.00  0.00     0.189 C 
ATOM     28  C19 ZIN A   1      17.396   4.893  14.925  0.00  0.00     0.035 C 
ATOM     29  N23 ZIN A   1      19.728   4.290  14.874  0.00  0.00    -0.066 N 
ATOM     30  C18 ZIN A   1      18.147   5.877  14.004  0.00  0.00     0.035 C 
ATOM     31  C16 ZIN A   1      19.502   5.192  13.713  0.00  0.00     0.189 C 
ATOM     32  C15 ZIN A   1      19.322   4.302  12.473  0.00  0.00     0.048 C 
ATOM     33  H24 ZIN A   1      20.393   3.566  14.648  0.00  0.00     0.280 HD
ATOM     34  C25 ZIN A   1      20.171   5.051  16.050  0.00  0.00     0.270 C 
ENDBRANCH  24  25
ENDBRANCH  23  24
ENDBRANCH  21  23
ENDBRANCH  20  21
ENDBRANCH   4  20
BRANCH   1  35
ATOM     35  C2  ZIN A   1      19.433  -0.298   7.815  0.00  0.00    -0.025 C 
ATOM     36  C1  ZIN A   1      19.550   0.984   8.055  0.00  0.00     0.008 C 
ENDBRANCH   1  35
BRANCH  19  37
ATOM     37  O45 ZIN A   1      18.322  -1.930   5.764  0.00  0.00    -0.394 OA
ATOM     38  H84 ZIN A   1      18.355  -2.709   5.191  0.00  0.00     0.210 HD
ENDBRANCH  19  37
TORSDOF 7
ENDMDL
MODEL 4
REMARK VINA RESULT:      -8.3      3.608      9.396
REMARK  7 active torsions:
REMARK  status: ('A' for Active; 'I' for Inactive)
REMARK    1  A    between atoms: C2_2  and  C3_3 
REMARK    2  A    between atoms: C6_6  and  O8_7 
REMARK    3  A    between atoms: O8_7  and  C9_8 
REMARK    4  A    between atoms: C9_8  and  C11_10 
REMARK    5  A    between atoms: C11_10  and  S12_11 
REMARK    6  A    between atoms: S12_11  and  C13_12 
REMARK    7  A    between atoms: C43_36  and  O45_37 
ROOT
ATOM      1  C3  ZIN A   1      18.054   1.002  15.121  0.00  0.00     0.002 C 
ATOM      2  C4  ZIN A   1      16.973   0.044  15.662  0.00  0.00     0.022 C 
ATOM      3  C5  ZIN A   1      17.885   1.115  13.591  0.00  0.00     0.049 C 
ATOM      4  C6  ZIN A   1      18.939   1.996  12.904  0.00  0.00     0.142 C 
ATOM      5  C26 ZIN A   1      18.487   3.439  12.688  0.00  0.00    -0.003 C 
ATOM      6  C27 ZIN A   1      17.745   3.314  11.348  0.00  0.00     0.019 C 
ATOM      7  C28 ZIN A   1      17.476   4.021  13.582  0.00  0.00     0.075 C 
ATOM      8  C30 ZIN A   1      16.586   5.152  13.192  0.00  0.00     0.132 C 
ATOM      9  O31 ZIN A   1      16.279   5.533  12.089  0.00  0.00    -0.298 OA
ATOM     10  C32 ZIN A   1      16.109   5.782  14.503  0.00  0.00     0.079 C 
ATOM     11  C33 ZIN A   1      16.964   5.150  15.634  0.00  0.00     0.018 C 
ATOM     12  C34 ZIN A   1      18.160   4.592  14.898  0.00  0.00    -0.023 C 
ATOM     13  C35 ZIN A   1      19.138   5.669  14.451  0.00  0.00     0.011 C 
ATOM     14  C36 ZIN A   1      20.227   5.037  13.581  0.00  0.00     0.006 C 
ATOM     15  C37 ZIN A   1      19.601   4.408  12.336  0.00  0.00    -0.007 C 
ATOM     16  C39 ZIN A   1      20.691   3.750  11.498  0.00  0.00     0.011 C 
ATOM     17  C40 ZIN A   1      18.878   3.374  15.427  0.00  0.00     0.021 C 
ATOM     18  C42 ZIN A   1      19.616   3.758  16.726  0.00  0.00     0.013 C 
ATOM     19  C43 ZIN A   1      17.855   2.317  15.756  0.00  0.00     0.134 C 
ENDROOT
BRANCH   4  20
ATOM     20  O8  ZIN A   1      19.165   1.393  11.587  0.00  0.00    -0.315 OA
BRANCH  20  21
ATOM     21  C9  ZIN A   1      20.078   0.412  11.513  0.00  0.00     0.268 C 
ATOM     22  O10 ZIN A   1      21.082   0.471  12.184  0.00  0.00    -0.264 OA
BRANCH  21  23
ATOM     23  C11 ZIN A   1      19.851  -0.762  10.597  0.00  0.00     0.185 C 
BRANCH  23  24
ATOM     24  S12 ZIN A   1      18.137  -0.742  10.002  0.00  0.00    -0.154 SA
BRANCH  24  25
ATOM     25  C13 ZIN A   1      18.331  -0.605   8.203  0.00  0.00     0.051 C 
ATOM     26  C22 ZIN A   1      18.768  -1.958   7.634  0.00  0.00     0.048 C 
ATOM     27  C20 ZIN A   1      18.805  -1.850   6.100  0.00  0.00     0.189 C 
ATOM     28  C19 ZIN A   1      19.538  -0.547   5.709  0.00  0.00     0.035 C 
ATOM     29  N23 ZIN A   1      17.387  -1.630   5.656  0.00  0.00    -0.066 N 
ATOM     30  C18 ZIN A   1      18.435   0.532   5.673  0.00  0.00     0.035 C 
ATOM     31  C16 ZIN A   1      17.136  -0.218   6.046  0.00  0.00     0.189 C 
ATOM     32  C15 ZIN A   1      16.998  -0.186   7.577  0.00  0.00     0.048 C 
ATOM     33  H24 ZIN A   1      16.762  -2.258   6.138  0.00  0.00     0.280 HD
ATOM     34  C25 ZIN A   1      17.270  -1.801   4.201  0.00  0.00     0.270 C 
ENDBRANCH  24  25
ENDBRANCH  23  24
ENDBRANCH  21  23
ENDBRANCH  20  21
ENDBRANCH   4  20
BRANCH   1  35
ATOM     35  C2  ZIN A   1      19.400   0.428  15.477  0.00  0.00    -0.025 C 
ATOM     36  C1  ZIN A   1      19.632  -0.850  15.311  0.00  0.00     0.008 C 
ENDBRANCH   1  35
BRANCH  19  37
ATOM     37  O45 ZIN A   1      17.871   2.120  17.180  0.00  0.00    -0.394 OA
ATOM     38  H84 ZIN A   1      17.173   1.533  17.504  0.00  0.00     0.210 HD
ENDBRANCH  19  37
TORSDOF 7
ENDMDL
MODEL 5
REMARK VINA RESULT:      -8.3      3.433      9.120
REMARK  7 active torsions:
REMARK  status: ('A' for Active; 'I' for Inactive)
REMARK    1  A    between atoms: C2_2  and  C3_3 
REMARK    2  A    between atoms: C6_6  and  O8_7 
REMARK    3  A    between atoms: O8_7  and  C9_8 
REMARK    4  A    between atoms: C9_8  and  C11_10 
REMARK    5  A    between atoms: C11_10  and  S12_11 
REMARK    6  A    between atoms: S12_11  and  C13_12 
REMARK    7  A    between atoms: C43_36  and  O45_37 
ROOT
ATOM      1  C3  ZIN A   1      17.947   1.005  15.336  0.00  0.00     0.002 C 
ATOM      2  C4  ZIN A   1      16.875   0.122  16.005  0.00  0.00     0.022 C 
ATOM      3  C5  ZIN A   1      17.580   1.171  13.845  0.00  0.00     0.049 C 
ATOM      4  C6  ZIN A   1      18.600   1.984  13.032  0.00  0.00     0.142 C 
ATOM      5  C26 ZIN A   1      18.242   3.463  12.903  0.00  0.00    -0.003 C 
ATOM      6  C27 ZIN A   1      17.315   3.432  11.676  0.00  0.00     0.019 C 
ATOM      7  C28 ZIN A   1      17.413   4.099  13.937  0.00  0.00     0.075 C 
ATOM      8  C30 ZIN A   1      16.574   5.307  13.691  0.00  0.00     0.132 C 
ATOM      9  O31 ZIN A   1      16.151   5.740  12.647  0.00  0.00    -0.298 OA
ATOM     10  C32 ZIN A   1      16.333   5.938  15.064  0.00  0.00     0.079 C 
ATOM     11  C33 ZIN A   1      17.280   5.212  16.056  0.00  0.00     0.018 C 
ATOM     12  C34 ZIN A   1      18.314   4.580  15.154  0.00  0.00    -0.023 C 
ATOM     13  C35 ZIN A   1      19.307   5.589  14.593  0.00  0.00     0.011 C 
ATOM     14  C36 ZIN A   1      20.211   4.895  13.571  0.00  0.00     0.006 C 
ATOM     15  C37 ZIN A   1      19.372   4.351  12.415  0.00  0.00    -0.007 C 
ATOM     16  C39 ZIN A   1      20.280   3.631  11.424  0.00  0.00     0.011 C 
ATOM     17  C40 ZIN A   1      18.996   3.296  15.560  0.00  0.00     0.021 C 
ATOM     18  C42 ZIN A   1      19.933   3.587  16.750  0.00  0.00     0.013 C 
ATOM     19  C43 ZIN A   1      17.945   2.315  16.012  0.00  0.00     0.134 C 
ENDROOT
BRANCH   4  20
ATOM     20  O8  ZIN A   1      18.593   1.400  11.688  0.00  0.00    -0.315 OA
BRANCH  20  21
ATOM     21  C9  ZIN A   1      18.944   0.109  11.582  0.00  0.00     0.268 C 
ATOM     22  O10 ZIN A   1      20.048  -0.246  11.922  0.00  0.00    -0.264 OA
BRANCH  21  23
ATOM     23  C11 ZIN A   1      17.962  -0.897  11.041  0.00  0.00     0.185 C 
BRANCH  23  24
ATOM     24  S12 ZIN A   1      18.167  -2.474  11.916  0.00  0.00    -0.154 SA
BRANCH  24  25
ATOM     25  C13 ZIN A   1      18.310  -3.675  10.563  0.00  0.00     0.051 C 
ATOM     26  C22 ZIN A   1      18.306  -2.936   9.223  0.00  0.00     0.048 C 
ATOM     27  C20 ZIN A   1      18.552  -3.959   8.102  0.00  0.00     0.189 C 
ATOM     28  C19 ZIN A   1      17.642  -5.186   8.338  0.00  0.00     0.035 C 
ATOM     29  N23 ZIN A   1      19.945  -4.482   8.304  0.00  0.00    -0.066 N 
ATOM     30  C18 ZIN A   1      18.464  -6.118   9.253  0.00  0.00     0.035 C 
ATOM     31  C16 ZIN A   1      19.795  -5.368   9.488  0.00  0.00     0.189 C 
ATOM     32  C15 ZIN A   1      19.615  -4.461  10.716  0.00  0.00     0.048 C 
ATOM     33  H24 ZIN A   1      20.585  -3.725   8.494  0.00  0.00     0.280 HD
ATOM     34  C25 ZIN A   1      20.385  -5.247   7.129  0.00  0.00     0.270 C 
ENDBRANCH  24  25
ENDBRANCH  23  24
ENDBRANCH  21  23
ENDBRANCH  20  21
ENDBRANCH   4  20
BRANCH   1  35
ATOM     35  C2  ZIN A   1      19.277   0.318  15.493  0.00  0.00    -0.025 C 
ATOM     36  C1  ZIN A   1      19.366  -0.981  15.346  0.00  0.00     0.008 C 
ENDBRANCH   1  35
BRANCH  19  37
ATOM     37  O45 ZIN A   1      18.139   2.080  17.417  0.00  0.00    -0.394 OA
ATOM     38  H84 ZIN A   1      17.863   2.816  17.980  0.00  0.00     0.210 HD
ENDBRANCH  19  37
TORSDOF 7
ENDMDL
MODEL 6
REMARK VINA RESULT:      -8.1      3.416      9.004
REMARK  7 active torsions:
REMARK  status: ('A' for Active; 'I' for Inactive)
REMARK    1  A    between atoms: C2_2  and  C3_3 
REMARK    2  A    between atoms: C6_6  and  O8_7 
REMARK    3  A    between atoms: O8_7  and  C9_8 
REMARK    4  A    between atoms: C9_8  and  C11_10 
REMARK    5  A    between atoms: C11_10  and  S12_11 
REMARK    6  A    between atoms: S12_11  and  C13_12 
REMARK    7  A    between atoms: C43_36  and  O45_37 
ROOT
ATOM      1  C3  ZIN A   1      17.937   1.009  15.395  0.00  0.00     0.002 C 
ATOM      2  C4  ZIN A   1      16.870   0.171  16.126  0.00  0.00     0.022 C 
ATOM      3  C5  ZIN A   1      17.564   1.076  13.898  0.00  0.00     0.049 C 
ATOM      4  C6  ZIN A   1      18.579   1.834  13.029  0.00  0.00     0.142 C 
ATOM      5  C26 ZIN A   1      18.219   3.301  12.804  0.00  0.00    -0.003 C 
ATOM      6  C27 ZIN A   1      17.287   3.189  11.586  0.00  0.00     0.019 C 
ATOM      7  C28 ZIN A   1      17.394   4.003  13.797  0.00  0.00     0.075 C 
ATOM      8  C30 ZIN A   1      16.552   5.192  13.475  0.00  0.00     0.132 C 
ATOM      9  O31 ZIN A   1      16.125   5.555  12.407  0.00  0.00    -0.298 OA
ATOM     10  C32 ZIN A   1      16.317   5.912  14.805  0.00  0.00     0.079 C 
ATOM     11  C33 ZIN A   1      17.269   5.254  15.839  0.00  0.00     0.018 C 
ATOM     12  C34 ZIN A   1      18.300   4.565  14.976  0.00  0.00    -0.023 C 
ATOM     13  C35 ZIN A   1      19.289   5.535  14.345  0.00  0.00     0.011 C 
ATOM     14  C36 ZIN A   1      20.190   4.776  13.366  0.00  0.00     0.006 C 
ATOM     15  C37 ZIN A   1      19.346   4.156  12.253  0.00  0.00    -0.007 C 
ATOM     16  C39 ZIN A   1      20.250   3.373  11.308  0.00  0.00     0.011 C 
ATOM     17  C40 ZIN A   1      18.985   3.311  15.463  0.00  0.00     0.021 C 
ATOM     18  C42 ZIN A   1      19.927   3.680  16.627  0.00  0.00     0.013 C 
ATOM     19  C43 ZIN A   1      17.937   2.360  15.983  0.00  0.00     0.134 C 
ENDROOT
BRANCH   4  20
ATOM     20  O8  ZIN A   1      18.567   1.163  11.726  0.00  0.00    -0.315 OA
BRANCH  20  21
ATOM     21  C9  ZIN A   1      19.253   0.013  11.626  0.00  0.00     0.268 C 
ATOM     22  O10 ZIN A   1      20.378  -0.059  12.062  0.00  0.00    -0.264 OA
BRANCH  21  23
ATOM     23  C11 ZIN A   1      18.620  -1.188  10.972  0.00  0.00     0.185 C 
BRANCH  23  24
ATOM     24  S12 ZIN A   1      19.818  -2.550  10.919  0.00  0.00    -0.154 SA
BRANCH  24  25
ATOM     25  C13 ZIN A   1      18.798  -3.972  10.442  0.00  0.00     0.051 C 
ATOM     26  C22 ZIN A   1      17.410  -3.838  11.073  0.00  0.00     0.048 C 
ATOM     27  C20 ZIN A   1      16.527  -4.986  10.556  0.00  0.00     0.189 C 
ATOM     28  C19 ZIN A   1      17.321  -6.308  10.651  0.00  0.00     0.035 C 
ATOM     29  N23 ZIN A   1      16.355  -4.756   9.081  0.00  0.00    -0.066 N 
ATOM     30  C18 ZIN A   1      18.086  -6.407   9.314  0.00  0.00     0.035 C 
ATOM     31  C16 ZIN A   1      17.685  -5.134   8.534  0.00  0.00     0.189 C 
ATOM     32  C15 ZIN A   1      18.670  -4.017   8.917  0.00  0.00     0.048 C 
ATOM     33  H24 ZIN A   1      16.146  -3.788   8.893  0.00  0.00     0.280 HD
ATOM     34  C25 ZIN A   1      15.301  -5.626   8.542  0.00  0.00     0.270 C 
ENDBRANCH  24  25
ENDBRANCH  23  24
ENDBRANCH  21  23
ENDBRANCH  20  21
ENDBRANCH   4  20
BRANCH   1  35
ATOM     35  C2  ZIN A   1      19.269   0.335  15.591  0.00  0.00    -0.025 C 
ATOM     36  C1  ZIN A   1      19.365  -0.968  15.493  0.00  0.00     0.008 C 
ENDBRANCH   1  35
BRANCH  19  37
ATOM     37  O45 ZIN A   1      18.138   2.219  17.399  0.00  0.00    -0.394 OA
ATOM     38  H84 ZIN A   1      19.068   2.188  17.664  0.00  0.00     0.210 HD
ENDBRANCH  19  37
TORSDOF 7
ENDMDL
MODEL 7
REMARK VINA RESULT:      -6.9      4.428      7.129
REMARK  7 active torsions:
REMARK  status: ('A' for Active; 'I' for Inactive)
REMARK    1  A    between atoms: C2_2  and  C3_3 
REMARK    2  A    between atoms: C6_6  and  O8_7 
REMARK    3  A    between atoms: O8_7  and  C9_8 
REMARK    4  A    between atoms: C9_8  and  C11_10 
REMARK    5  A    between atoms: C11_10  and  S12_11 
REMARK    6  A    between atoms: S12_11  and  C13_12 
REMARK    7  A    between atoms: C43_36  and  O45_37 
ROOT
ATOM      1  C3  ZIN A   1      18.162   4.279  13.729  0.00  0.00     0.002 C 
ATOM      2  C4  ZIN A   1      17.115   5.408  13.650  0.00  0.00     0.022 C 
ATOM      3  C5  ZIN A   1      17.550   3.100  14.517  0.00  0.00     0.049 C 
ATOM      4  C6  ZIN A   1      18.508   1.918  14.729  0.00  0.00     0.142 C 
ATOM      5  C26 ZIN A   1      18.359   0.814  13.684  0.00  0.00    -0.003 C 
ATOM      6  C27 ZIN A   1      17.224  -0.019  14.302  0.00  0.00     0.019 C 
ATOM      7  C28 ZIN A   1      17.846   1.146  12.348  0.00  0.00     0.075 C 
ATOM      8  C30 ZIN A   1      17.166   0.161  11.458  0.00  0.00     0.132 C 
ATOM      9  O31 ZIN A   1      16.625  -0.877  11.747  0.00  0.00    -0.298 OA
ATOM     10  C32 ZIN A   1      17.287   0.723  10.040  0.00  0.00     0.079 C 
ATOM     11  C33 ZIN A   1      18.284   1.910  10.118  0.00  0.00     0.018 C 
ATOM     12  C34 ZIN A   1      19.022   1.662  11.413  0.00  0.00    -0.023 C 
ATOM     13  C35 ZIN A   1      20.032   0.527  11.312  0.00  0.00     0.011 C 
ATOM     14  C36 ZIN A   1      20.612   0.239  12.699  0.00  0.00     0.006 C 
ATOM     15  C37 ZIN A   1      19.498  -0.190  13.653  0.00  0.00    -0.007 C 
ATOM     16  C39 ZIN A   1      20.083  -0.436  15.038  0.00  0.00     0.011 C 
ATOM     17  C40 ZIN A   1      19.567   2.821  12.212  0.00  0.00     0.021 C 
ATOM     18  C42 ZIN A   1      20.745   3.448  11.438  0.00  0.00     0.013 C 
ATOM     19  C43 ZIN A   1      18.485   3.860  12.353  0.00  0.00     0.134 C 
ENDROOT
BRANCH   4  20
ATOM     20  O8  ZIN A   1      18.160   1.353  16.035  0.00  0.00    -0.315 OA
BRANCH  20  21
ATOM     21  C9  ZIN A   1      18.614   2.000  17.120  0.00  0.00     0.268 C 
ATOM     22  O10 ZIN A   1      19.771   2.343  17.178  0.00  0.00    -0.264 OA
BRANCH  21  23
ATOM     23  C11 ZIN A   1      17.681   2.299  18.264  0.00  0.00     0.185 C 
BRANCH  23  24
ATOM     24  S12 ZIN A   1      18.389   3.614  19.294  0.00  0.00    -0.154 SA
BRANCH  24  25
ATOM     25  C13 ZIN A   1      17.308   5.030  18.950  0.00  0.00     0.051 C 
ATOM     26  C22 ZIN A   1      17.316   5.323  17.447  0.00  0.00     0.048 C 
ATOM     27  C20 ZIN A   1      16.300   6.442  17.164  0.00  0.00     0.189 C 
ATOM     28  C19 ZIN A   1      16.503   7.573  18.197  0.00  0.00     0.035 C 
ATOM     29  N23 ZIN A   1      14.946   5.877  17.488  0.00  0.00    -0.066 N 
ATOM     30  C18 ZIN A   1      15.611   7.181  19.394  0.00  0.00     0.035 C 
ATOM     31  C16 ZIN A   1      14.950   5.848  18.975  0.00  0.00     0.189 C 
ATOM     32  C15 ZIN A   1      15.883   4.705  19.406  0.00  0.00     0.048 C 
ATOM     33  H24 ZIN A   1      14.847   4.949  17.106  0.00  0.00     0.280 HD
ATOM     34  C25 ZIN A   1      13.884   6.759  16.984  0.00  0.00     0.270 C 
ENDBRANCH  24  25
ENDBRANCH  23  24
ENDBRANCH  21  23
ENDBRANCH  20  21
ENDBRANCH   4  20
BRANCH   1  35
ATOM     35  C2  ZIN A   1      19.379   4.823  14.427  0.00  0.00    -0.025 C 
ATOM     36  C1  ZIN A   1      19.474   6.107  14.675  0.00  0.00     0.008 C 
ENDBRANCH   1  35
BRANCH  19  37
ATOM     37  O45 ZIN A   1      18.903   5.030  11.629  0.00  0.00    -0.394 OA
ATOM     38  H84 ZIN A   1      18.368   5.816  11.809  0.00  0.00     0.210 HD
ENDBRANCH  19  37
TORSDOF 7
ENDMDL
