MODEL 1
REMARK VINA RESULT:      -8.4      0.000      0.000
REMARK  4 active torsions:
REMARK  status: ('A' for Active; 'I' for Inactive)
REMARK    1  A    between atoms: C5_5  and  C6_6 
REMARK    2  A    between atoms: C6_6  and  C15_15 
REMARK    3  A    between atoms: C7_7  and  C8_8 
REMARK    4  A    between atoms: C8_8  and  N9_9 
ROOT
ATOM      1  C6  ZIN A   1      18.822   2.096  10.874  0.00  0.00     0.001 C 
ATOM      2  C7  ZIN A   1      19.735   1.562  11.693  0.00  0.00     0.015 C 
ENDROOT
BRANCH   1   3
ATOM      3  C5  ZIN A   1      18.550   1.469   9.558  0.00  0.00    -0.024 A 
ATOM      4  C4  ZIN A   1      17.558   0.497   9.438  0.00  0.00     0.013 A 
ATOM      5  C3  ZIN A   1      17.310  -0.083   8.211  0.00  0.00     0.007 A 
ATOM      6  C2  ZIN A   1      18.041   0.299   7.101  0.00  0.00    -0.062 A 
ATOM      7  C1  ZIN A   1      17.765  -0.338   5.764  0.00  0.00     0.048 C 
ATOM      8  C22 ZIN A   1      19.030   1.260   7.215  0.00  0.00     0.007 A 
ATOM      9  C21 ZIN A   1      19.284   1.851   8.436  0.00  0.00     0.013 A 
ENDBRANCH   1   3
BRANCH   1  10
ATOM     10  C15 ZIN A   1      18.082   3.314  11.284  0.00  0.00     0.067 A 
ATOM     11  N20 ZIN A   1      17.818   3.523  12.568  0.00  0.00    -0.260 NA
ATOM     12  C19 ZIN A   1      17.168   4.593  12.974  0.00  0.00     0.117 A 
ATOM     13  C18 ZIN A   1      16.723   5.539  12.069  0.00  0.00     0.019 A 
ATOM     14  C17 ZIN A   1      16.973   5.357  10.716  0.00  0.00     0.004 A 
ATOM     15  C16 ZIN A   1      17.662   4.226  10.318  0.00  0.00     0.032 A 
ENDBRANCH   1  10
BRANCH   2  16
ATOM     16  C8  ZIN A   1      20.487   0.324  11.279  0.00  0.00     0.263 C 
BRANCH  16  17
ATOM     17  N9  ZIN A   1      20.357  -0.701  12.324  0.00  0.00    -0.068 N 
ATOM     18  H10 ZIN A   1      21.214  -1.224  12.408  0.00  0.00     0.280 HD
ATOM     19  C14 ZIN A   1      19.234  -1.612  12.007  0.00  0.00     0.235 C 
ATOM     20  C13 ZIN A   1      18.575  -1.997  13.346  0.00  0.00     0.029 C 
ATOM     21  C12 ZIN A   1      19.373  -1.229  14.424  0.00  0.00     0.029 C 
ATOM     22  C11 ZIN A   1      20.012  -0.068  13.622  0.00  0.00     0.235 C 
ENDBRANCH  16  17
ENDBRANCH   2  16
TORSDOF 4
ENDMDL
MODEL 2
REMARK VINA RESULT:      -8.0      2.352      5.646
REMARK  4 active torsions:
REMARK  status: ('A' for Active; 'I' for Inactive)
REMARK    1  A    between atoms: C5_5  and  C6_6 
REMARK    2  A    between atoms: C6_6  and  C15_15 
REMARK    3  A    between atoms: C7_7  and  C8_8 
REMARK    4  A    between atoms: C8_8  and  N9_9 
ROOT
ATOM      1  C6  ZIN A   1      19.171  -1.164  12.757  0.00  0.00     0.001 C 
ATOM      2  C7  ZIN A   1      19.891  -0.239  12.112  0.00  0.00     0.015 C 
ENDROOT
BRANCH   1   3
ATOM      3  C5  ZIN A   1      18.807  -2.430  12.075  0.00  0.00    -0.024 A 
ATOM      4  C4  ZIN A   1      19.771  -3.414  11.865  0.00  0.00     0.013 A 
ATOM      5  C3  ZIN A   1      19.426  -4.589  11.228  0.00  0.00     0.007 A 
ATOM      6  C2  ZIN A   1      18.126  -4.791  10.801  0.00  0.00    -0.062 A 
ATOM      7  C1  ZIN A   1      17.756  -6.077  10.106  0.00  0.00     0.048 C 
ATOM      8  C22 ZIN A   1      17.166  -3.815  11.001  0.00  0.00     0.007 A 
ATOM      9  C21 ZIN A   1      17.499  -2.639  11.641  0.00  0.00     0.013 A 
ENDBRANCH   1   3
BRANCH   1  10
ATOM     10  C15 ZIN A   1      18.740  -0.925  14.156  0.00  0.00     0.067 A 
ATOM     11  N20 ZIN A   1      17.792  -0.031  14.408  0.00  0.00    -0.260 NA
ATOM     12  C19 ZIN A   1      17.377   0.209  15.635  0.00  0.00     0.117 A 
ATOM     13  C18 ZIN A   1      17.928  -0.459  16.713  0.00  0.00     0.019 A 
ATOM     14  C17 ZIN A   1      18.926  -1.398  16.495  0.00  0.00     0.004 A 
ATOM     15  C16 ZIN A   1      19.339  -1.633  15.195  0.00  0.00     0.032 A 
ENDBRANCH   1  10
BRANCH   2  16
ATOM     16  C8  ZIN A   1      20.330  -0.482  10.691  0.00  0.00     0.263 C 
BRANCH  16  17
ATOM     17  N9  ZIN A   1      20.207   0.763   9.921  0.00  0.00    -0.068 N 
ATOM     18  H10 ZIN A   1      21.120   1.149   9.734  0.00  0.00     0.280 HD
ATOM     19  C14 ZIN A   1      19.383   1.743  10.663  0.00  0.00     0.235 C 
ATOM     20  C13 ZIN A   1      18.564   2.525   9.619  0.00  0.00     0.029 C 
ATOM     21  C12 ZIN A   1      18.954   1.910   8.256  0.00  0.00     0.029 C 
ATOM     22  C11 ZIN A   1      19.487   0.509   8.648  0.00  0.00     0.235 C 
ENDBRANCH  16  17
ENDBRANCH   2  16
TORSDOF 4
ENDMDL
MODEL 3
REMARK VINA RESULT:      -8.0      2.284      7.038
REMARK  4 active torsions:
REMARK  status: ('A' for Active; 'I' for Inactive)
REMARK    1  A    between atoms: C5_5  and  C6_6 
REMARK    2  A    between atoms: C6_6  and  C15_15 
REMARK    3  A    between atoms: C7_7  and  C8_8 
REMARK    4  A    between atoms: C8_8  and  N9_9 
ROOT
ATOM      1  C6  ZIN A   1      19.234  -1.371  12.295  0.00  0.00     0.001 C 
ATOM      2  C7  ZIN A   1      20.001  -0.560  11.556  0.00  0.00     0.015 C 
ENDROOT
BRANCH   1   3
ATOM      3  C5  ZIN A   1      18.789  -0.945  13.644  0.00  0.00    -0.024 A 
ATOM      4  C4  ZIN A   1      17.769  -0.005  13.780  0.00  0.00     0.013 A 
ATOM      5  C3  ZIN A   1      17.360   0.388  15.039  0.00  0.00     0.007 A 
ATOM      6  C2  ZIN A   1      17.960  -0.150  16.163  0.00  0.00    -0.062 A 
ATOM      7  C1  ZIN A   1      17.508   0.283  17.534  0.00  0.00     0.048 C 
ATOM      8  C22 ZIN A   1      18.976  -1.079  16.034  0.00  0.00     0.007 A 
ATOM      9  C21 ZIN A   1      19.390  -1.483  14.780  0.00  0.00     0.013 A 
ENDBRANCH   1   3
BRANCH   1  10
ATOM     10  C15 ZIN A   1      18.828  -2.694  11.763  0.00  0.00     0.067 A 
ATOM     11  N20 ZIN A   1      17.539  -2.978  11.620  0.00  0.00    -0.260 NA
ATOM     12  C19 ZIN A   1      17.136  -4.139  11.148  0.00  0.00     0.117 A 
ATOM     13  C18 ZIN A   1      18.048  -5.115  10.791  0.00  0.00     0.019 A 
ATOM     14  C17 ZIN A   1      19.405  -4.861  10.928  0.00  0.00     0.004 A 
ATOM     15  C16 ZIN A   1      19.801  -3.631  11.423  0.00  0.00     0.032 A 
ENDBRANCH   1  10
BRANCH   2  16
ATOM     16  C8  ZIN A   1      20.413   0.785  12.095  0.00  0.00     0.263 C 
BRANCH  16  17
ATOM     17  N9  ZIN A   1      20.162   1.817  11.080  0.00  0.00    -0.068 N 
ATOM     18  H10 ZIN A   1      21.034   2.205  10.753  0.00  0.00     0.280 HD
ATOM     19  C14 ZIN A   1      19.307   2.887  11.642  0.00  0.00     0.235 C 
ATOM     20  C13 ZIN A   1      18.382   3.367  10.507  0.00  0.00     0.029 C 
ATOM     21  C12 ZIN A   1      18.746   2.486   9.289  0.00  0.00     0.029 C 
ATOM     22  C11 ZIN A   1      19.398   1.242   9.944  0.00  0.00     0.235 C 
ENDBRANCH  16  17
ENDBRANCH   2  16
TORSDOF 4
ENDMDL
MODEL 4
REMARK VINA RESULT:      -7.8      1.967      5.009
REMARK  4 active torsions:
REMARK  status: ('A' for Active; 'I' for Inactive)
REMARK    1  A    between atoms: C5_5  and  C6_6 
REMARK    2  A    between atoms: C6_6  and  C15_15 
REMARK    3  A    between atoms: C7_7  and  C8_8 
REMARK    4  A    between atoms: C8_8  and  N9_9 
ROOT
ATOM      1  C6  ZIN A   1      17.911   0.430   9.659  0.00  0.00     0.001 C 
ATOM      2  C7  ZIN A   1      17.402  -0.641  10.280  0.00  0.00     0.015 C 
ENDROOT
BRANCH   1   3
ATOM      3  C5  ZIN A   1      18.382   1.592  10.452  0.00  0.00    -0.024 A 
ATOM      4  C4  ZIN A   1      19.626   1.553  11.079  0.00  0.00     0.013 A 
ATOM      5  C3  ZIN A   1      20.058   2.638  11.816  0.00  0.00     0.007 A 
ATOM      6  C2  ZIN A   1      19.260   3.761  11.930  0.00  0.00    -0.062 A 
ATOM      7  C1  ZIN A   1      19.738   4.942  12.736  0.00  0.00     0.048 C 
ATOM      8  C22 ZIN A   1      18.022   3.803  11.314  0.00  0.00     0.007 A 
ATOM      9  C21 ZIN A   1      17.582   2.727  10.571  0.00  0.00     0.013 A 
ENDBRANCH   1   3
BRANCH   1  10
ATOM     10  C15 ZIN A   1      18.007   0.453   8.180  0.00  0.00     0.067 A 
ATOM     11  N20 ZIN A   1      17.111  -0.203   7.452  0.00  0.00    -0.260 NA
ATOM     12  C19 ZIN A   1      17.157  -0.205   6.136  0.00  0.00     0.117 A 
ATOM     13  C18 ZIN A   1      18.155   0.473   5.461  0.00  0.00     0.019 A 
ATOM     14  C17 ZIN A   1      19.115   1.168   6.182  0.00  0.00     0.004 A 
ATOM     15  C16 ZIN A   1      19.040   1.156   7.564  0.00  0.00     0.032 A 
ENDBRANCH   1  10
BRANCH   2  16
ATOM     16  C8  ZIN A   1      17.306  -0.666  11.783  0.00  0.00     0.263 C 
BRANCH  16  17
ATOM     17  N9  ZIN A   1      17.848  -1.935  12.287  0.00  0.00    -0.068 N 
ATOM     18  H10 ZIN A   1      17.529  -2.101  13.229  0.00  0.00     0.280 HD
ATOM     19  C14 ZIN A   1      19.328  -1.909  12.248  0.00  0.00     0.235 C 
ATOM     20  C13 ZIN A   1      19.794  -3.333  11.889  0.00  0.00     0.029 C 
ATOM     21  C12 ZIN A   1      18.494  -4.148  11.702  0.00  0.00     0.029 C 
ATOM     22  C11 ZIN A   1      17.439  -3.054  11.402  0.00  0.00     0.235 C 
ENDBRANCH  16  17
ENDBRANCH   2  16
TORSDOF 4
ENDMDL
MODEL 5
REMARK VINA RESULT:      -7.6      1.495      1.988
REMARK  4 active torsions:
REMARK  status: ('A' for Active; 'I' for Inactive)
REMARK    1  A    between atoms: C5_5  and  C6_6 
REMARK    2  A    between atoms: C6_6  and  C15_15 
REMARK    3  A    between atoms: C7_7  and  C8_8 
REMARK    4  A    between atoms: C8_8  and  N9_9 
ROOT
ATOM      1  C6  ZIN A   1      18.874   1.200  10.492  0.00  0.00     0.001 C 
ATOM      2  C7  ZIN A   1      19.440   0.276  11.277  0.00  0.00     0.015 C 
ENDROOT
BRANCH   1   3
ATOM      3  C5  ZIN A   1      18.587   0.889   9.070  0.00  0.00    -0.024 A 
ATOM      4  C4  ZIN A   1      17.508   0.071   8.737  0.00  0.00     0.013 A 
ATOM      5  C3  ZIN A   1      17.246  -0.215   7.412  0.00  0.00     0.007 A 
ATOM      6  C2  ZIN A   1      18.051   0.309   6.417  0.00  0.00    -0.062 A 
ATOM      7  C1  ZIN A   1      17.759  -0.008   4.973  0.00  0.00     0.048 C 
ATOM      8  C22 ZIN A   1      19.126   1.117   6.742  0.00  0.00     0.007 A 
ATOM      9  C21 ZIN A   1      19.394   1.413   8.063  0.00  0.00     0.013 A 
ENDBRANCH   1   3
BRANCH   1  10
ATOM     10  C15 ZIN A   1      18.532   2.533  11.044  0.00  0.00     0.067 A 
ATOM     11  N20 ZIN A   1      17.307   3.018  10.880  0.00  0.00    -0.260 NA
ATOM     12  C19 ZIN A   1      16.962   4.196  11.358  0.00  0.00     0.117 A 
ATOM     13  C18 ZIN A   1      17.873   4.979  12.042  0.00  0.00     0.019 A 
ATOM     14  C17 ZIN A   1      19.166   4.512  12.231  0.00  0.00     0.004 A 
ATOM     15  C16 ZIN A   1      19.500   3.269  11.722  0.00  0.00     0.032 A 
ENDBRANCH   1  10
BRANCH   2  16
ATOM     16  C8  ZIN A   1      19.786  -1.079  10.718  0.00  0.00     0.263 C 
BRANCH  16  17
ATOM     17  N9  ZIN A   1      19.244  -2.125  11.596  0.00  0.00    -0.068 N 
ATOM     18  H10 ZIN A   1      19.268  -1.820  12.557  0.00  0.00     0.280 HD
ATOM     19  C14 ZIN A   1      20.018  -3.376  11.439  0.00  0.00     0.235 C 
ATOM     20  C13 ZIN A   1      19.021  -4.543  11.574  0.00  0.00     0.029 C 
ATOM     21  C12 ZIN A   1      17.644  -3.875  11.785  0.00  0.00     0.029 C 
ATOM     22  C11 ZIN A   1      17.852  -2.456  11.198  0.00  0.00     0.235 C 
ENDBRANCH  16  17
ENDBRANCH   2  16
TORSDOF 4
ENDMDL
MODEL 6
REMARK VINA RESULT:      -7.4      2.721      5.637
REMARK  4 active torsions:
REMARK  status: ('A' for Active; 'I' for Inactive)
REMARK    1  A    between atoms: C5_5  and  C6_6 
REMARK    2  A    between atoms: C6_6  and  C15_15 
REMARK    3  A    between atoms: C7_7  and  C8_8 
REMARK    4  A    between atoms: C8_8  and  N9_9 
ROOT
ATOM      1  C6  ZIN A   1      18.757  -1.976  11.901  0.00  0.00     0.001 C 
ATOM      2  C7  ZIN A   1      19.154  -1.797  13.166  0.00  0.00     0.015 C 
ENDROOT
BRANCH   1   3
ATOM      3  C5  ZIN A   1      18.782  -0.839  10.949  0.00  0.00    -0.024 A 
ATOM      4  C4  ZIN A   1      19.890  -0.640  10.126  0.00  0.00     0.013 A 
ATOM      5  C3  ZIN A   1      19.907   0.420   9.242  0.00  0.00     0.007 A 
ATOM      6  C2  ZIN A   1      18.829   1.283   9.171  0.00  0.00    -0.062 A 
ATOM      7  C1  ZIN A   1      18.854   2.438   8.204  0.00  0.00     0.048 C 
ATOM      8  C22 ZIN A   1      17.729   1.093   9.989  0.00  0.00     0.007 A 
ATOM      9  C21 ZIN A   1      17.698   0.034  10.872  0.00  0.00     0.013 A 
ENDBRANCH   1   3
BRANCH   1  10
ATOM     10  C15 ZIN A   1      18.293  -3.310  11.451  0.00  0.00     0.067 A 
ATOM     11  N20 ZIN A   1      17.018  -3.649  11.601  0.00  0.00    -0.260 NA
ATOM     12  C19 ZIN A   1      16.565  -4.822  11.211  0.00  0.00     0.117 A 
ATOM     13  C18 ZIN A   1      17.410  -5.755  10.638  0.00  0.00     0.019 A 
ATOM     14  C17 ZIN A   1      18.752  -5.444  10.468  0.00  0.00     0.004 A 
ATOM     15  C16 ZIN A   1      19.200  -4.202  10.882  0.00  0.00     0.032 A 
ENDBRANCH   1  10
BRANCH   2  16
ATOM     16  C8  ZIN A   1      19.627  -0.442  13.624  0.00  0.00     0.263 C 
BRANCH  16  17
ATOM     17  N9  ZIN A   1      19.133  -0.185  14.984  0.00  0.00    -0.068 N 
ATOM     18  H10 ZIN A   1      19.745   0.459  15.461  0.00  0.00     0.280 HD
ATOM     19  C14 ZIN A   1      19.039  -1.454  15.740  0.00  0.00     0.235 C 
ATOM     20  C13 ZIN A   1      17.802  -1.344  16.652  0.00  0.00     0.029 C 
ATOM     21  C12 ZIN A   1      17.194   0.043  16.342  0.00  0.00     0.029 C 
ATOM     22  C11 ZIN A   1      17.753   0.360  14.932  0.00  0.00     0.235 C 
ENDBRANCH  16  17
ENDBRANCH   2  16
TORSDOF 4
ENDMDL
MODEL 7
REMARK VINA RESULT:      -7.3      2.238      4.740
REMARK  4 active torsions:
REMARK  status: ('A' for Active; 'I' for Inactive)
REMARK    1  A    between atoms: C5_5  and  C6_6 
REMARK    2  A    between atoms: C6_6  and  C15_15 
REMARK    3  A    between atoms: C7_7  and  C8_8 
REMARK    4  A    between atoms: C8_8  and  N9_9 
ROOT
ATOM      1  C6  ZIN A   1      19.331   0.988  13.692  0.00  0.00     0.001 C 
ATOM      2  C7  ZIN A   1      20.328   0.197  13.277  0.00  0.00     0.015 C 
ENDROOT
BRANCH   1   3
ATOM      3  C5  ZIN A   1      18.826   2.068  12.809  0.00  0.00    -0.024 A 
ATOM      4  C4  ZIN A   1      17.931   1.770  11.782  0.00  0.00     0.013 A 
ATOM      5  C3  ZIN A   1      17.465   2.779  10.964  0.00  0.00     0.007 A 
ATOM      6  C2  ZIN A   1      17.882   4.083  11.162  0.00  0.00    -0.062 A 
ATOM      7  C1  ZIN A   1      17.368   5.180  10.265  0.00  0.00     0.048 C 
ATOM      8  C22 ZIN A   1      18.773   4.383  12.177  0.00  0.00     0.007 A 
ATOM      9  C21 ZIN A   1      19.242   3.383  13.005  0.00  0.00     0.013 A 
ENDBRANCH   1   3
BRANCH   1  10
ATOM     10  C15 ZIN A   1      18.732   0.784  15.033  0.00  0.00     0.067 A 
ATOM     11  N20 ZIN A   1      19.137   1.529  16.055  0.00  0.00    -0.260 NA
ATOM     12  C19 ZIN A   1      18.628   1.382  17.260  0.00  0.00     0.117 A 
ATOM     13  C18 ZIN A   1      17.654   0.432  17.509  0.00  0.00     0.019 A 
ATOM     14  C17 ZIN A   1      17.206  -0.371  16.470  0.00  0.00     0.004 A 
ATOM     15  C16 ZIN A   1      17.755  -0.192  15.212  0.00  0.00     0.032 A 
ENDBRANCH   1  10
BRANCH   2  16
ATOM     16  C8  ZIN A   1      20.937   0.403  11.915  0.00  0.00     0.263 C 
BRANCH  16  17
ATOM     17  N9  ZIN A   1      20.719  -0.797  11.095  0.00  0.00    -0.068 N 
ATOM     18  H10 ZIN A   1      21.588  -1.295  10.969  0.00  0.00     0.280 HD
ATOM     19  C14 ZIN A   1      20.151  -0.422   9.782  0.00  0.00     0.235 C 
ATOM     20  C13 ZIN A   1      19.165  -1.537   9.382  0.00  0.00     0.029 C 
ATOM     21  C12 ZIN A   1      19.193  -2.540  10.558  0.00  0.00     0.029 C 
ATOM     22  C11 ZIN A   1      19.712  -1.679  11.737  0.00  0.00     0.235 C 
ENDBRANCH  16  17
ENDBRANCH   2  16
TORSDOF 4
ENDMDL
MODEL 8
REMARK VINA RESULT:      -7.1      2.611      5.704
REMARK  4 active torsions:
REMARK  status: ('A' for Active; 'I' for Inactive)
REMARK    1  A    between atoms: C5_5  and  C6_6 
REMARK    2  A    between atoms: C6_6  and  C15_15 
REMARK    3  A    between atoms: C7_7  and  C8_8 
REMARK    4  A    between atoms: C8_8  and  N9_9 
ROOT
ATOM      1  C6  ZIN A   1      18.934  -1.083  12.861  0.00  0.00     0.001 C 
ATOM      2  C7  ZIN A   1      19.292  -1.017  14.149  0.00  0.00     0.015 C 
ENDROOT
BRANCH   1   3
ATOM      3  C5  ZIN A   1      18.723   0.164  12.086  0.00  0.00    -0.024 A 
ATOM      4  C4  ZIN A   1      17.542   0.890  12.238  0.00  0.00     0.013 A 
ATOM      5  C3  ZIN A   1      17.351   2.050  11.514  0.00  0.00     0.007 A 
ATOM      6  C2  ZIN A   1      18.328   2.492  10.641  0.00  0.00    -0.062 A 
ATOM      7  C1  ZIN A   1      18.113   3.759   9.854  0.00  0.00     0.048 C 
ATOM      8  C22 ZIN A   1      19.500   1.774  10.483  0.00  0.00     0.007 A 
ATOM      9  C21 ZIN A   1      19.704   0.616  11.206  0.00  0.00     0.013 A 
ENDBRANCH   1   3
BRANCH   1  10
ATOM     10  C15 ZIN A   1      18.751  -2.401  12.209  0.00  0.00     0.067 A 
ATOM     11  N20 ZIN A   1      19.801  -3.192  12.017  0.00  0.00    -0.260 NA
ATOM     12  C19 ZIN A   1      19.681  -4.372  11.446  0.00  0.00     0.117 A 
ATOM     13  C18 ZIN A   1      18.450  -4.829  11.012  0.00  0.00     0.019 A 
ATOM     14  C17 ZIN A   1      17.328  -4.032  11.188  0.00  0.00     0.004 A 
ATOM     15  C16 ZIN A   1      17.482  -2.799  11.795  0.00  0.00     0.032 A 
ENDBRANCH   1  10
BRANCH   2  16
ATOM     16  C8  ZIN A   1      19.479   0.322  14.812  0.00  0.00     0.263 C 
BRANCH  16  17
ATOM     17  N9  ZIN A   1      18.727   0.353  16.074  0.00  0.00    -0.068 N 
ATOM     18  H10 ZIN A   1      17.736   0.308  15.890  0.00  0.00     0.280 HD
ATOM     19  C14 ZIN A   1      19.048   1.585  16.829  0.00  0.00     0.235 C 
ATOM     20  C13 ZIN A   1      19.041   1.211  18.324  0.00  0.00     0.029 C 
ATOM     21  C12 ZIN A   1      18.727  -0.302  18.360  0.00  0.00     0.029 C 
ATOM     22  C11 ZIN A   1      19.140  -0.776  16.944  0.00  0.00     0.235 C 
ENDBRANCH  16  17
ENDBRANCH   2  16
TORSDOF 4
ENDMDL
MODEL 9
REMARK VINA RESULT:      -7.1      2.745      5.900
REMARK  4 active torsions:
REMARK  status: ('A' for Active; 'I' for Inactive)
REMARK    1  A    between atoms: C5_5  and  C6_6 
REMARK    2  A    between atoms: C6_6  and  C15_15 
REMARK    3  A    between atoms: C7_7  and  C8_8 
REMARK    4  A    between atoms: C8_8  and  N9_9 
ROOT
ATOM      1  C6  ZIN A   1      18.231  -1.206  11.098  0.00  0.00     0.001 C 
ATOM      2  C7  ZIN A   1      17.773  -2.366  10.611  0.00  0.00     0.015 C 
ENDROOT
BRANCH   1   3
ATOM      3  C5  ZIN A   1      18.388  -1.029  12.562  0.00  0.00    -0.024 A 
ATOM      4  C4  ZIN A   1      19.473  -1.602  13.224  0.00  0.00     0.013 A 
ATOM      5  C3  ZIN A   1      19.614  -1.434  14.587  0.00  0.00     0.007 A 
ATOM      6  C2  ZIN A   1      18.683  -0.697  15.295  0.00  0.00    -0.062 A 
ATOM      7  C1  ZIN A   1      18.843  -0.517  16.783  0.00  0.00     0.048 C 
ATOM      8  C22 ZIN A   1      17.601  -0.130  14.645  0.00  0.00     0.007 A 
ATOM      9  C21 ZIN A   1      17.453  -0.287  13.282  0.00  0.00     0.013 A 
ENDBRANCH   1   3
BRANCH   1  10
ATOM     10  C15 ZIN A   1      18.582  -0.101  10.175  0.00  0.00     0.067 A 
ATOM     11  N20 ZIN A   1      18.573  -0.311   8.864  0.00  0.00    -0.260 NA
ATOM     12  C19 ZIN A   1      18.874   0.644   8.009  0.00  0.00     0.117 A 
ATOM     13  C18 ZIN A   1      19.224   1.907   8.451  0.00  0.00     0.019 A 
ATOM     14  C17 ZIN A   1      19.251   2.168   9.813  0.00  0.00     0.004 A 
ATOM     15  C16 ZIN A   1      18.925   1.147  10.689  0.00  0.00     0.032 A 
ENDBRANCH   1  10
BRANCH   2  16
ATOM     16  C8  ZIN A   1      17.417  -3.490  11.548  0.00  0.00     0.263 C 
BRANCH  16  17
ATOM     17  N9  ZIN A   1      17.999  -4.744  11.051  0.00  0.00    -0.068 N 
ATOM     18  H10 ZIN A   1      17.924  -5.465  11.752  0.00  0.00     0.280 HD
ATOM     19  C14 ZIN A   1      19.417  -4.538  10.681  0.00  0.00     0.235 C 
ATOM     20  C13 ZIN A   1      19.693  -5.419   9.448  0.00  0.00     0.029 C 
ATOM     21  C12 ZIN A   1      18.345  -6.106   9.131  0.00  0.00     0.029 C 
ATOM     22  C11 ZIN A   1      17.312  -5.168   9.805  0.00  0.00     0.235 C 
ENDBRANCH  16  17
ENDBRANCH   2  16
TORSDOF 4
ENDMDL
