MODEL 1
REMARK VINA RESULT:      -6.0      0.000      0.000
REMARK  8 active torsions:
REMARK  status: ('A' for Active; 'I' for Inactive)
REMARK    1  A    between atoms: N1_1  and  C2_2 
REMARK    2  A    between atoms: N6_6  and  C7_7 
REMARK    3  A    between atoms: C7_7  and  C8_8 
REMARK    4  A    between atoms: C8_8  and  C10_9 
REMARK    5  A    between atoms: C8_8  and  O12_11 
REMARK    6  A    between atoms: C10_9  and  O11_10 
REMARK    7  A    between atoms: O12_11  and  C13_12 
REMARK    8  A    between atoms: C13_12  and  P14_13 
ROOT
ATOM      1  C7  ZIN A   1      18.107   0.210   9.517  0.00  0.00     0.167 C 
ENDROOT
BRANCH   1   2
ATOM      2  N6  ZIN A   1      18.078   1.434  10.319  0.00  0.00    -0.306 N 
ATOM      3  C4  ZIN A   1      17.310   1.495  11.421  0.00  0.00     0.350 A 
ATOM      4  N3  ZIN A   1      17.264   2.597  12.169  0.00  0.00    -0.177 NA
ATOM      5  O5  ZIN A   1      16.644   0.525  11.742  0.00  0.00    -0.244 OA
ATOM      6  C2  ZIN A   1      17.978   3.666  11.844  0.00  0.00     0.128 A 
ATOM      7  C19 ZIN A   1      18.790   3.637  10.690  0.00  0.00     0.067 A 
ATOM      8  C18 ZIN A   1      18.830   2.508   9.944  0.00  0.00     0.099 A 
BRANCH   6   9
ATOM      9  N1  ZIN A   1      17.924   4.798  12.622  0.00  0.00    -0.384 N 
ATOM     10  H20 ZIN A   1      18.205   4.763  13.550  0.00  0.00     0.157 HD
ATOM     11  H21 ZIN A   1      17.609   5.633  12.242  0.00  0.00     0.157 HD
ENDBRANCH   6   9
ENDBRANCH   1   2
BRANCH   1  12
ATOM     12  C8  ZIN A   1      19.559  -0.222   9.296  0.00  0.00     0.164 C 
BRANCH  12  13
ATOM     13  C10 ZIN A   1      20.082  -0.917  10.555  0.00  0.00     0.197 C 
BRANCH  13  14
ATOM     14  O11 ZIN A   1      21.458  -0.583  10.747  0.00  0.00    -0.398 OA
ATOM     15  H26 ZIN A   1      21.638  -0.124  11.578  0.00  0.00     0.209 HD
ENDBRANCH  13  14
ENDBRANCH  12  13
BRANCH  12  16
ATOM     16  O12 ZIN A   1      19.624  -1.126   8.191  0.00  0.00    -0.369 OA
BRANCH  16  17
ATOM     17  C13 ZIN A   1      18.703  -0.825   7.139  0.00  0.00     0.313 C 
BRANCH  17  18
ATOM     18  P14 ZIN A   1      19.116  -1.819   5.667  0.00  0.00     0.283 P 
ATOM     19  O15 ZIN A   1      19.953  -0.949   4.668  0.00  0.00    -0.638 OA
ATOM     20  O16 ZIN A   1      19.954  -3.069   6.101  0.00  0.00    -0.638 OA
ATOM     21  O17 ZIN A   1      17.796  -2.291   4.970  0.00  0.00    -0.638 OA
ENDBRANCH  17  18
ENDBRANCH  16  17
ENDBRANCH  12  16
ENDBRANCH   1  12
TORSDOF 8
ENDMDL
MODEL 2
REMARK VINA RESULT:      -5.8      4.052      5.894
REMARK  8 active torsions:
REMARK  status: ('A' for Active; 'I' for Inactive)
REMARK    1  A    between atoms: N1_1  and  C2_2 
REMARK    2  A    between atoms: N6_6  and  C7_7 
REMARK    3  A    between atoms: C7_7  and  C8_8 
REMARK    4  A    between atoms: C8_8  and  C10_9 
REMARK    5  A    between atoms: C8_8  and  O12_11 
REMARK    6  A    between atoms: C10_9  and  O11_10 
REMARK    7  A    between atoms: O12_11  and  C13_12 
REMARK    8  A    between atoms: C13_12  and  P14_13 
ROOT
ATOM      1  C7  ZIN A   1      20.215   1.146  12.113  0.00  0.00     0.167 C 
ENDROOT
BRANCH   1   2
ATOM      2  N6  ZIN A   1      19.401   2.226  11.551  0.00  0.00    -0.306 N 
ATOM      3  C4  ZIN A   1      18.854   3.146  12.366  0.00  0.00     0.350 A 
ATOM      4  N3  ZIN A   1      18.108   4.138  11.883  0.00  0.00    -0.177 NA
ATOM      5  O5  ZIN A   1      19.043   3.069  13.569  0.00  0.00    -0.244 OA
ATOM      6  C2  ZIN A   1      17.887   4.245  10.579  0.00  0.00     0.128 A 
ATOM      7  C19 ZIN A   1      18.441   3.294   9.697  0.00  0.00     0.067 A 
ATOM      8  C18 ZIN A   1      19.201   2.295  10.204  0.00  0.00     0.099 A 
BRANCH   6   9
ATOM      9  N1  ZIN A   1      17.116   5.274  10.090  0.00  0.00    -0.384 N 
ATOM     10  H20 ZIN A   1      17.396   5.756   9.297  0.00  0.00     0.157 HD
ATOM     11  H21 ZIN A   1      16.288   5.514  10.536  0.00  0.00     0.157 HD
ENDBRANCH   6   9
ENDBRANCH   1   2
BRANCH   1  12
ATOM     12  C8  ZIN A   1      19.457  -0.178  11.996  0.00  0.00     0.164 C 
BRANCH  12  13
ATOM     13  C10 ZIN A   1      20.235  -1.133  11.087  0.00  0.00     0.197 C 
BRANCH  13  14
ATOM     14  O11 ZIN A   1      21.541  -0.605  10.849  0.00  0.00    -0.398 OA
ATOM     15  H26 ZIN A   1      22.184  -1.266  10.559  0.00  0.00     0.209 HD
ENDBRANCH  13  14
ENDBRANCH  12  13
BRANCH  12  16
ATOM     16  O12 ZIN A   1      19.318  -0.762  13.292  0.00  0.00    -0.369 OA
BRANCH  16  17
ATOM     17  C13 ZIN A   1      18.097  -0.422  13.955  0.00  0.00     0.313 C 
BRANCH  17  18
ATOM     18  P14 ZIN A   1      18.387  -0.330  15.753  0.00  0.00     0.283 P 
ATOM     19  O15 ZIN A   1      19.202  -1.585  16.215  0.00  0.00    -0.638 OA
ATOM     20  O16 ZIN A   1      19.196   0.970  16.084  0.00  0.00    -0.638 OA
ATOM     21  O17 ZIN A   1      17.013  -0.295  16.502  0.00  0.00    -0.638 OA
ENDBRANCH  17  18
ENDBRANCH  16  17
ENDBRANCH  12  16
ENDBRANCH   1  12
TORSDOF 8
ENDMDL
MODEL 3
REMARK VINA RESULT:      -5.8      4.561      6.905
REMARK  8 active torsions:
REMARK  status: ('A' for Active; 'I' for Inactive)
REMARK    1  A    between atoms: N1_1  and  C2_2 
REMARK    2  A    between atoms: N6_6  and  C7_7 
REMARK    3  A    between atoms: C7_7  and  C8_8 
REMARK    4  A    between atoms: C8_8  and  C10_9 
REMARK    5  A    between atoms: C8_8  and  O12_11 
REMARK    6  A    between atoms: C10_9  and  O11_10 
REMARK    7  A    between atoms: O12_11  and  C13_12 
REMARK    8  A    between atoms: C13_12  and  P14_13 
ROOT
ATOM      1  C7  ZIN A   1      19.685   0.995  12.420  0.00  0.00     0.167 C 
ENDROOT
BRANCH   1   2
ATOM      2  N6  ZIN A   1      18.990   2.183  11.921  0.00  0.00    -0.306 N 
ATOM      3  C4  ZIN A   1      17.985   2.049  11.037  0.00  0.00     0.350 A 
ATOM      4  N3  ZIN A   1      17.335   3.112  10.566  0.00  0.00    -0.177 NA
ATOM      5  O5  ZIN A   1      17.663   0.934  10.660  0.00  0.00    -0.244 OA
ATOM      6  C2  ZIN A   1      17.664   4.335  10.959  0.00  0.00     0.128 A 
ATOM      7  C19 ZIN A   1      18.717   4.512  11.882  0.00  0.00     0.067 A 
ATOM      8  C18 ZIN A   1      19.363   3.420  12.355  0.00  0.00     0.099 A 
BRANCH   6   9
ATOM      9  N1  ZIN A   1      16.987   5.427  10.467  0.00  0.00    -0.384 N 
ATOM     10  H20 ZIN A   1      17.470   6.238  10.246  0.00  0.00     0.157 HD
ATOM     11  H21 ZIN A   1      16.027   5.383  10.336  0.00  0.00     0.157 HD
ENDBRANCH   6   9
ENDBRANCH   1   2
BRANCH   1  12
ATOM     12  C8  ZIN A   1      18.964   0.465  13.662  0.00  0.00     0.164 C 
BRANCH  12  13
ATOM     13  C10 ZIN A   1      18.882  -1.061  13.592  0.00  0.00     0.197 C 
BRANCH  13  14
ATOM     14  O11 ZIN A   1      19.988  -1.630  14.295  0.00  0.00    -0.398 OA
ATOM     15  H26 ZIN A   1      20.543  -0.980  14.746  0.00  0.00     0.209 HD
ENDBRANCH  13  14
ENDBRANCH  12  13
BRANCH  12  16
ATOM     16  O12 ZIN A   1      19.688   0.850  14.833  0.00  0.00    -0.369 OA
BRANCH  16  17
ATOM     17  C13 ZIN A   1      18.904   1.566  15.790  0.00  0.00     0.313 C 
BRANCH  17  18
ATOM     18  P14 ZIN A   1      18.817   0.611  17.341  0.00  0.00     0.283 P 
ATOM     19  O15 ZIN A   1      19.853   1.184  18.366  0.00  0.00    -0.638 OA
ATOM     20  O16 ZIN A   1      17.374   0.719  17.940  0.00  0.00    -0.638 OA
ATOM     21  O17 ZIN A   1      19.149  -0.891  17.047  0.00  0.00    -0.638 OA
ENDBRANCH  17  18
ENDBRANCH  16  17
ENDBRANCH  12  16
ENDBRANCH   1  12
TORSDOF 8
ENDMDL
MODEL 4
REMARK VINA RESULT:      -5.8      2.550      3.450
REMARK  8 active torsions:
REMARK  status: ('A' for Active; 'I' for Inactive)
REMARK    1  A    between atoms: N1_1  and  C2_2 
REMARK    2  A    between atoms: N6_6  and  C7_7 
REMARK    3  A    between atoms: C7_7  and  C8_8 
REMARK    4  A    between atoms: C8_8  and  C10_9 
REMARK    5  A    between atoms: C8_8  and  O12_11 
REMARK    6  A    between atoms: C10_9  and  O11_10 
REMARK    7  A    between atoms: O12_11  and  C13_12 
REMARK    8  A    between atoms: C13_12  and  P14_13 
ROOT
ATOM      1  C7  ZIN A   1      20.411  -0.435   9.920  0.00  0.00     0.167 C 
ENDROOT
BRANCH   1   2
ATOM      2  N6  ZIN A   1      20.022  -0.695  11.307  0.00  0.00    -0.306 N 
ATOM      3  C4  ZIN A   1      20.137   0.278  12.229  0.00  0.00     0.350 A 
ATOM      4  N3  ZIN A   1      19.792   0.069  13.498  0.00  0.00    -0.177 NA
ATOM      5  O5  ZIN A   1      20.566   1.370  11.896  0.00  0.00    -0.244 OA
ATOM      6  C2  ZIN A   1      19.323  -1.110  13.887  0.00  0.00     0.128 A 
ATOM      7  C19 ZIN A   1      19.195  -2.154  12.947  0.00  0.00     0.067 A 
ATOM      8  C18 ZIN A   1      19.545  -1.923  11.660  0.00  0.00     0.099 A 
BRANCH   6   9
ATOM      9  N1  ZIN A   1      18.969  -1.315  15.200  0.00  0.00    -0.384 N 
ATOM     10  H20 ZIN A   1      18.061  -1.571  15.424  0.00  0.00     0.157 HD
ATOM     11  H21 ZIN A   1      19.630  -1.209  15.903  0.00  0.00     0.157 HD
ENDBRANCH   6   9
ENDBRANCH   1   2
BRANCH   1  12
ATOM     12  C8  ZIN A   1      19.164  -0.430   9.033  0.00  0.00     0.164 C 
BRANCH  12  13
ATOM     13  C10 ZIN A   1      18.755   1.014   8.735  0.00  0.00     0.197 C 
BRANCH  13  14
ATOM     14  O11 ZIN A   1      19.863   1.883   8.979  0.00  0.00    -0.398 OA
ATOM     15  H26 ZIN A   1      20.563   1.485   9.513  0.00  0.00     0.209 HD
ENDBRANCH  13  14
ENDBRANCH  12  13
BRANCH  12  16
ATOM     16  O12 ZIN A   1      19.449  -1.107   7.807  0.00  0.00    -0.369 OA
BRANCH  16  17
ATOM     17  C13 ZIN A   1      18.372  -1.084   6.867  0.00  0.00     0.313 C 
BRANCH  17  18
ATOM     18  P14 ZIN A   1      18.947  -1.749   5.269  0.00  0.00     0.283 P 
ATOM     19  O15 ZIN A   1      19.941  -0.735   4.609  0.00  0.00    -0.638 OA
ATOM     20  O16 ZIN A   1      19.674  -3.116   5.505  0.00  0.00    -0.638 OA
ATOM     21  O17 ZIN A   1      17.719  -1.967   4.322  0.00  0.00    -0.638 OA
ENDBRANCH  17  18
ENDBRANCH  16  17
ENDBRANCH  12  16
ENDBRANCH   1  12
TORSDOF 8
ENDMDL
MODEL 5
REMARK VINA RESULT:      -5.8      4.043      5.658
REMARK  8 active torsions:
REMARK  status: ('A' for Active; 'I' for Inactive)
REMARK    1  A    between atoms: N1_1  and  C2_2 
REMARK    2  A    between atoms: N6_6  and  C7_7 
REMARK    3  A    between atoms: C7_7  and  C8_8 
REMARK    4  A    between atoms: C8_8  and  C10_9 
REMARK    5  A    between atoms: C8_8  and  O12_11 
REMARK    6  A    between atoms: C10_9  and  O11_10 
REMARK    7  A    between atoms: O12_11  and  C13_12 
REMARK    8  A    between atoms: C13_12  and  P14_13 
ROOT
ATOM      1  C7  ZIN A   1      18.321   0.515  12.061  0.00  0.00     0.167 C 
ENDROOT
BRANCH   1   2
ATOM      2  N6  ZIN A   1      18.499   0.232  13.487  0.00  0.00    -0.306 N 
ATOM      3  C4  ZIN A   1      18.251   1.192  14.396  0.00  0.00     0.350 A 
ATOM      4  N3  ZIN A   1      18.406   0.962  15.699  0.00  0.00    -0.177 NA
ATOM      5  O5  ZIN A   1      17.879   2.291  14.021  0.00  0.00    -0.244 OA
ATOM      6  C2  ZIN A   1      18.810  -0.224  16.134  0.00  0.00     0.128 A 
ATOM      7  C19 ZIN A   1      19.084  -1.251  15.206  0.00  0.00     0.067 A 
ATOM      8  C18 ZIN A   1      18.916  -1.003  13.886  0.00  0.00     0.099 A 
BRANCH   6   9
ATOM      9  N1  ZIN A   1      18.966  -0.450  17.482  0.00  0.00    -0.384 N 
ATOM     10  H20 ZIN A   1      18.932  -1.355  17.829  0.00  0.00     0.157 HD
ATOM     11  H21 ZIN A   1      19.116   0.295  18.085  0.00  0.00     0.157 HD
ENDBRANCH   6   9
ENDBRANCH   1   2
BRANCH   1  12
ATOM     12  C8  ZIN A   1      19.666   0.910  11.447  0.00  0.00     0.164 C 
BRANCH  12  13
ATOM     13  C10 ZIN A   1      20.147  -0.202  10.512  0.00  0.00     0.197 C 
BRANCH  13  14
ATOM     14  O11 ZIN A   1      21.500  -0.536  10.826  0.00  0.00    -0.398 OA
ATOM     15  H26 ZIN A   1      21.949  -1.044  10.137  0.00  0.00     0.209 HD
ENDBRANCH  13  14
ENDBRANCH  12  13
BRANCH  12  16
ATOM     16  O12 ZIN A   1      19.513   2.122  10.706  0.00  0.00    -0.369 OA
BRANCH  16  17
ATOM     17  C13 ZIN A   1      18.158   2.429  10.366  0.00  0.00     0.313 C 
BRANCH  17  18
ATOM     18  P14 ZIN A   1      17.807   4.170  10.778  0.00  0.00     0.283 P 
ATOM     19  O15 ZIN A   1      17.780   5.022   9.464  0.00  0.00    -0.638 OA
ATOM     20  O16 ZIN A   1      16.417   4.266  11.494  0.00  0.00    -0.638 OA
ATOM     21  O17 ZIN A   1      18.924   4.716  11.731  0.00  0.00    -0.638 OA
ENDBRANCH  17  18
ENDBRANCH  16  17
ENDBRANCH  12  16
ENDBRANCH   1  12
TORSDOF 8
ENDMDL
MODEL 6
REMARK VINA RESULT:      -5.7      3.528      5.147
REMARK  8 active torsions:
REMARK  status: ('A' for Active; 'I' for Inactive)
REMARK    1  A    between atoms: N1_1  and  C2_2 
REMARK    2  A    between atoms: N6_6  and  C7_7 
REMARK    3  A    between atoms: C7_7  and  C8_8 
REMARK    4  A    between atoms: C8_8  and  C10_9 
REMARK    5  A    between atoms: C8_8  and  O12_11 
REMARK    6  A    between atoms: C10_9  and  O11_10 
REMARK    7  A    between atoms: O12_11  and  C13_12 
REMARK    8  A    between atoms: C13_12  and  P14_13 
ROOT
ATOM      1  C7  ZIN A   1      18.338   0.215  10.086  0.00  0.00     0.167 C 
ENDROOT
BRANCH   1   2
ATOM      2  N6  ZIN A   1      18.615   0.196   8.648  0.00  0.00    -0.306 N 
ATOM      3  C4  ZIN A   1      18.929   1.338   8.012  0.00  0.00     0.350 A 
ATOM      4  N3  ZIN A   1      19.185   1.351   6.704  0.00  0.00    -0.177 NA
ATOM      5  O5  ZIN A   1      18.980   2.381   8.643  0.00  0.00    -0.244 OA
ATOM      6  C2  ZIN A   1      19.137   0.231   5.995  0.00  0.00     0.128 A 
ATOM      7  C19 ZIN A   1      18.805  -0.984   6.630  0.00  0.00     0.067 A 
ATOM      8  C18 ZIN A   1      18.553  -0.980   7.960  0.00  0.00     0.099 A 
BRANCH   6   9
ATOM      9  N1  ZIN A   1      19.403   0.255   4.645  0.00  0.00    -0.384 N 
ATOM     10  H20 ZIN A   1      18.732   0.577   4.024  0.00  0.00     0.157 HD
ATOM     11  H21 ZIN A   1      20.264  -0.046   4.316  0.00  0.00     0.157 HD
ENDBRANCH   6   9
ENDBRANCH   1   2
BRANCH   1  12
ATOM     12  C8  ZIN A   1      19.281  -0.756  10.800  0.00  0.00     0.164 C 
BRANCH  12  13
ATOM     13  C10 ZIN A   1      20.479   0.014  11.359  0.00  0.00     0.197 C 
BRANCH  13  14
ATOM     14  O11 ZIN A   1      21.690  -0.610  10.928  0.00  0.00    -0.398 OA
ATOM     15  H26 ZIN A   1      21.921  -1.405  11.427  0.00  0.00     0.209 HD
ENDBRANCH  13  14
ENDBRANCH  12  13
BRANCH  12  16
ATOM     16  O12 ZIN A   1      18.584  -1.396  11.871  0.00  0.00    -0.369 OA
BRANCH  16  17
ATOM     17  C13 ZIN A   1      17.750  -2.480  11.456  0.00  0.00     0.313 C 
BRANCH  17  18
ATOM     18  P14 ZIN A   1      18.780  -3.949  11.132  0.00  0.00     0.283 P 
ATOM     19  O15 ZIN A   1      18.062  -5.224  11.692  0.00  0.00    -0.638 OA
ATOM     20  O16 ZIN A   1      18.994  -4.105   9.588  0.00  0.00    -0.638 OA
ATOM     21  O17 ZIN A   1      20.168  -3.779  11.837  0.00  0.00    -0.638 OA
ENDBRANCH  17  18
ENDBRANCH  16  17
ENDBRANCH  12  16
ENDBRANCH   1  12
TORSDOF 8
ENDMDL
MODEL 7
REMARK VINA RESULT:      -5.7      1.908      2.248
REMARK  8 active torsions:
REMARK  status: ('A' for Active; 'I' for Inactive)
REMARK    1  A    between atoms: N1_1  and  C2_2 
REMARK    2  A    between atoms: N6_6  and  C7_7 
REMARK    3  A    between atoms: C7_7  and  C8_8 
REMARK    4  A    between atoms: C8_8  and  C10_9 
REMARK    5  A    between atoms: C8_8  and  O12_11 
REMARK    6  A    between atoms: C10_9  and  O11_10 
REMARK    7  A    between atoms: O12_11  and  C13_12 
REMARK    8  A    between atoms: C13_12  and  P14_13 
ROOT
ATOM      1  C7  ZIN A   1      17.716  -1.922  10.470  0.00  0.00     0.167 C 
ENDROOT
BRANCH   1   2
ATOM      2  N6  ZIN A   1      18.231  -0.698  11.087  0.00  0.00    -0.306 N 
ATOM      3  C4  ZIN A   1      17.375   0.221  11.567  0.00  0.00     0.350 A 
ATOM      4  N3  ZIN A   1      17.815   1.344  12.132  0.00  0.00    -0.177 NA
ATOM      5  O5  ZIN A   1      16.174   0.024  11.482  0.00  0.00    -0.244 OA
ATOM      6  C2  ZIN A   1      19.115   1.584  12.238  0.00  0.00     0.128 A 
ATOM      7  C19 ZIN A   1      20.041   0.643  11.740  0.00  0.00     0.067 A 
ATOM      8  C18 ZIN A   1      19.577  -0.496  11.173  0.00  0.00     0.099 A 
BRANCH   6   9
ATOM      9  N1  ZIN A   1      19.560   2.746  12.824  0.00  0.00    -0.384 N 
ATOM     10  H20 ZIN A   1      20.246   2.713  13.508  0.00  0.00     0.157 HD
ATOM     11  H21 ZIN A   1      19.191   3.600  12.548  0.00  0.00     0.157 HD
ENDBRANCH   6   9
ENDBRANCH   1   2
BRANCH   1  12
ATOM     12  C8  ZIN A   1      18.599  -2.304   9.279  0.00  0.00     0.164 C 
BRANCH  12  13
ATOM     13  C10 ZIN A   1      18.739  -3.826   9.215  0.00  0.00     0.197 C 
BRANCH  13  14
ATOM     14  O11 ZIN A   1      19.953  -4.165   8.541  0.00  0.00    -0.398 OA
ATOM     15  H26 ZIN A   1      20.748  -4.030   9.074  0.00  0.00     0.209 HD
ENDBRANCH  13  14
ENDBRANCH  12  13
BRANCH  12  16
ATOM     16  O12 ZIN A   1      18.001  -1.829   8.072  0.00  0.00    -0.369 OA
BRANCH  16  17
ATOM     17  C13 ZIN A   1      18.866  -1.019   7.274  0.00  0.00     0.313 C 
BRANCH  17  18
ATOM     18  P14 ZIN A   1      19.099  -1.801   5.643  0.00  0.00     0.283 P 
ATOM     19  O15 ZIN A   1      19.946  -0.855   4.726  0.00  0.00    -0.638 OA
ATOM     20  O16 ZIN A   1      19.849  -3.165   5.822  0.00  0.00    -0.638 OA
ATOM     21  O17 ZIN A   1      17.703  -2.056   4.982  0.00  0.00    -0.638 OA
ENDBRANCH  17  18
ENDBRANCH  16  17
ENDBRANCH  12  16
ENDBRANCH   1  12
TORSDOF 8
ENDMDL
MODEL 8
REMARK VINA RESULT:      -5.7      4.470      5.821
REMARK  8 active torsions:
REMARK  status: ('A' for Active; 'I' for Inactive)
REMARK    1  A    between atoms: N1_1  and  C2_2 
REMARK    2  A    between atoms: N6_6  and  C7_7 
REMARK    3  A    between atoms: C7_7  and  C8_8 
REMARK    4  A    between atoms: C8_8  and  C10_9 
REMARK    5  A    between atoms: C8_8  and  O12_11 
REMARK    6  A    between atoms: C10_9  and  O11_10 
REMARK    7  A    between atoms: O12_11  and  C13_12 
REMARK    8  A    between atoms: C13_12  and  P14_13 
ROOT
ATOM      1  C7  ZIN A   1      18.883  -0.351  13.573  0.00  0.00     0.167 C 
ENDROOT
BRANCH   1   2
ATOM      2  N6  ZIN A   1      18.957   0.266  14.899  0.00  0.00    -0.306 N 
ATOM      3  C4  ZIN A   1      18.799  -0.492  15.999  0.00  0.00     0.350 A 
ATOM      4  N3  ZIN A   1      18.861   0.043  17.218  0.00  0.00    -0.177 NA
ATOM      5  O5  ZIN A   1      18.594  -1.688  15.879  0.00  0.00    -0.244 OA
ATOM      6  C2  ZIN A   1      19.083   1.341  17.377  0.00  0.00     0.128 A 
ATOM      7  C19 ZIN A   1      19.248   2.164  16.243  0.00  0.00     0.067 A 
ATOM      8  C18 ZIN A   1      19.187   1.605  15.012  0.00  0.00     0.099 A 
BRANCH   6   9
ATOM      9  N1  ZIN A   1      19.146   1.883  18.640  0.00  0.00    -0.384 N 
ATOM     10  H20 ZIN A   1      19.589   2.734  18.781  0.00  0.00     0.157 HD
ATOM     11  H21 ZIN A   1      18.742   1.417  19.388  0.00  0.00     0.157 HD
ENDBRANCH   6   9
ENDBRANCH   1   2
BRANCH   1  12
ATOM     12  C8  ZIN A   1      19.356   0.650  12.517  0.00  0.00     0.164 C 
BRANCH  12  13
ATOM     13  C10 ZIN A   1      20.570   0.080  11.780  0.00  0.00     0.197 C 
BRANCH  13  14
ATOM     14  O11 ZIN A   1      21.759   0.707  12.266  0.00  0.00    -0.398 OA
ATOM     15  H26 ZIN A   1      22.022   0.417  13.150  0.00  0.00     0.209 HD
ENDBRANCH  13  14
ENDBRANCH  12  13
BRANCH  12  16
ATOM     16  O12 ZIN A   1      18.301   0.890  11.582  0.00  0.00    -0.369 OA
BRANCH  16  17
ATOM     17  C13 ZIN A   1      17.426   1.958  11.955  0.00  0.00     0.313 C 
BRANCH  17  18
ATOM     18  P14 ZIN A   1      17.883   3.466  11.037  0.00  0.00     0.283 P 
ATOM     19  O15 ZIN A   1      19.032   4.211  11.796  0.00  0.00    -0.638 OA
ATOM     20  O16 ZIN A   1      18.371   3.074   9.602  0.00  0.00    -0.638 OA
ATOM     21  O17 ZIN A   1      16.635   4.406  10.926  0.00  0.00    -0.638 OA
ENDBRANCH  17  18
ENDBRANCH  16  17
ENDBRANCH  12  16
ENDBRANCH   1  12
TORSDOF 8
ENDMDL
MODEL 9
REMARK VINA RESULT:      -5.7      5.578      8.070
REMARK  8 active torsions:
REMARK  status: ('A' for Active; 'I' for Inactive)
REMARK    1  A    between atoms: N1_1  and  C2_2 
REMARK    2  A    between atoms: N6_6  and  C7_7 
REMARK    3  A    between atoms: C7_7  and  C8_8 
REMARK    4  A    between atoms: C8_8  and  C10_9 
REMARK    5  A    between atoms: C8_8  and  O12_11 
REMARK    6  A    between atoms: C10_9  and  O11_10 
REMARK    7  A    between atoms: O12_11  and  C13_12 
REMARK    8  A    between atoms: C13_12  and  P14_13 
ROOT
ATOM      1  C7  ZIN A   1      17.852   2.368  13.992  0.00  0.00     0.167 C 
ENDROOT
BRANCH   1   2
ATOM      2  N6  ZIN A   1      18.349   2.176  12.629  0.00  0.00    -0.306 N 
ATOM      3  C4  ZIN A   1      17.845   2.912  11.622  0.00  0.00     0.350 A 
ATOM      4  N3  ZIN A   1      18.278   2.757  10.372  0.00  0.00    -0.177 NA
ATOM      5  O5  ZIN A   1      16.975   3.734  11.858  0.00  0.00    -0.244 OA
ATOM      6  C2  ZIN A   1      19.222   1.871  10.087  0.00  0.00     0.128 A 
ATOM      7  C19 ZIN A   1      19.769   1.079  11.119  0.00  0.00     0.067 A 
ATOM      8  C18 ZIN A   1      19.321   1.252  12.385  0.00  0.00     0.099 A 
BRANCH   6   9
ATOM      9  N1  ZIN A   1      19.663   1.719   8.793  0.00  0.00    -0.384 N 
ATOM     10  H20 ZIN A   1      19.090   1.972   8.053  0.00  0.00     0.157 HD
ATOM     11  H21 ZIN A   1      20.549   1.364   8.621  0.00  0.00     0.157 HD
ENDBRANCH   6   9
ENDBRANCH   1   2
BRANCH   1  12
ATOM     12  C8  ZIN A   1      18.863   3.192  14.793  0.00  0.00     0.164 C 
BRANCH  12  13
ATOM     13  C10 ZIN A   1      18.154   4.388  15.433  0.00  0.00     0.197 C 
BRANCH  13  14
ATOM     14  O11 ZIN A   1      16.885   4.581  14.806  0.00  0.00    -0.398 OA
ATOM     15  H26 ZIN A   1      16.421   5.378  15.096  0.00  0.00     0.209 HD
ENDBRANCH  13  14
ENDBRANCH  12  13
BRANCH  12  16
ATOM     16  O12 ZIN A   1      19.438   2.376  15.816  0.00  0.00    -0.369 OA
BRANCH  16  17
ATOM     17  C13 ZIN A   1      18.532   1.422  16.376  0.00  0.00     0.313 C 
BRANCH  17  18
ATOM     18  P14 ZIN A   1      18.861   1.247  18.161  0.00  0.00     0.283 P 
ATOM     19  O15 ZIN A   1      19.690   2.478  18.662  0.00  0.00    -0.638 OA
ATOM     20  O16 ZIN A   1      17.502   1.181  18.937  0.00  0.00    -0.638 OA
ATOM     21  O17 ZIN A   1      19.672  -0.067  18.416  0.00  0.00    -0.638 OA
ENDBRANCH  17  18
ENDBRANCH  16  17
ENDBRANCH  12  16
ENDBRANCH   1  12
TORSDOF 8
ENDMDL
