MODEL 1
REMARK VINA RESULT:      -9.3      0.000      0.000
REMARK  11 active torsions:
REMARK  status: ('A' for Active; 'I' for Inactive)
REMARK    1  A    between atoms: C2_2  and  C3_3 
REMARK    2  A    between atoms: C3_3  and  N6_5 
REMARK    3  A    between atoms: N9_8  and  C10_9 
REMARK    4  A    between atoms: C13_12  and  N14_13 
REMARK    5  A    between atoms: N17_16  and  C18_17 
REMARK    6  A    between atoms: C21_20  and  O22_21 
REMARK    7  A    between atoms: O22_21  and  C23_22 
REMARK    8  A    between atoms: C23_22  and  C24_23 
REMARK    9  A    between atoms: C28_26  and  C29_27 
REMARK   10  A    between atoms: C28_26  and  C35_33 
REMARK   11  A    between atoms: C29_27  and  N30_28 
ROOT
ATOM      1  C18 ZIN A   1      18.270  -3.112  12.001  0.00  0.00     0.010 A 
ATOM      2  C19 ZIN A   1      17.136  -3.751  11.516  0.00  0.00     0.026 A 
ATOM      3  C20 ZIN A   1      17.263  -4.858  10.702  0.00  0.00     0.038 A 
ATOM      4  C21 ZIN A   1      18.524  -5.333  10.367  0.00  0.00     0.069 A 
ATOM      5  C44 ZIN A   1      19.657  -4.695  10.850  0.00  0.00     0.038 A 
ATOM      6  C45 ZIN A   1      19.531  -3.584  11.661  0.00  0.00     0.026 A 
ENDROOT
BRANCH   1   7
ATOM      7  N17 ZIN A   1      18.142  -1.990  12.827  0.00  0.00    -0.281 NA
ATOM      8  C16 ZIN A   1      17.577  -0.853  12.087  0.00  0.00     0.110 C 
ATOM      9  C15 ZIN A   1      17.380   0.327  13.041  0.00  0.00     0.110 C 
ATOM     10  N14 ZIN A   1      18.670   0.685  13.645  0.00  0.00    -0.281 NA
ATOM     11  C47 ZIN A   1      19.237  -0.451  14.385  0.00  0.00     0.110 C 
ATOM     12  C46 ZIN A   1      19.434  -1.630  13.430  0.00  0.00     0.110 C 
BRANCH  10  13
ATOM     13  C13 ZIN A   1      18.544   1.808  14.470  0.00  0.00     0.010 A 
ATOM     14  C12 ZIN A   1      17.920   2.954  13.993  0.00  0.00     0.026 A 
ATOM     15  C11 ZIN A   1      17.795   4.061  14.806  0.00  0.00     0.032 A 
ATOM     16  C10 ZIN A   1      18.292   4.030  16.102  0.00  0.00     0.045 A 
ATOM     17  C49 ZIN A   1      18.919   2.887  16.579  0.00  0.00     0.032 A 
ATOM     18  C48 ZIN A   1      19.040   1.777  15.766  0.00  0.00     0.026 A 
BRANCH  16  19
ATOM     19  N9  ZIN A   1      18.165   5.157  16.931  0.00  0.00    -0.256 N 
ATOM     20  C8  ZIN A   1      18.706   6.398  16.690  0.00  0.00     0.242 A 
ATOM     21  N7  ZIN A   1      18.385   7.188  17.663  0.00  0.00    -0.163 NA
ATOM     22  N6  ZIN A   1      17.610   6.462  18.578  0.00  0.00    -0.214 N 
ATOM     23  C50 ZIN A   1      17.496   5.205  18.099  0.00  0.00     0.351 A 
ATOM     24  O51 ZIN A   1      16.893   4.286  18.624  0.00  0.00    -0.244 OA
BRANCH  22  25
ATOM     25  C3  ZIN A   1      17.035   6.971  19.826  0.00  0.00     0.111 C 
ATOM     26  C5  ZIN A   1      17.723   8.284  20.205  0.00  0.00     0.034 C 
BRANCH  25  27
ATOM     27  C2  ZIN A   1      15.538   7.216  19.635  0.00  0.00     0.022 C 
ATOM     28  C1  ZIN A   1      15.268   8.722  19.597  0.00  0.00     0.007 C 
ENDBRANCH  25  27
ENDBRANCH  22  25
ENDBRANCH  16  19
ENDBRANCH  10  13
ENDBRANCH   1   7
BRANCH   4  29
ATOM     29  O22 ZIN A   1      18.647  -6.424   9.565  0.00  0.00    -0.349 OA
BRANCH  29  30
ATOM     30  C23 ZIN A   1      18.777  -6.185   8.162  0.00  0.00     0.209 C 
BRANCH  30  31
ATOM     31  C24 ZIN A   1      19.374  -4.795   7.934  0.00  0.00     0.173 C 
ATOM     32  O43 ZIN A   1      18.342  -3.847   7.594  0.00  0.00    -0.340 OA
ATOM     33  C28 ZIN A   1      18.869  -3.000   6.560  0.00  0.00     0.213 C 
ATOM     34  O27 ZIN A   1      20.219  -3.402   6.275  0.00  0.00    -0.347 OA
ATOM     35  C26 ZIN A   1      20.287  -4.789   6.682  0.00  0.00     0.206 C 
BRANCH  33  36
ATOM     36  C29 ZIN A   1      18.015  -3.133   5.297  0.00  0.00     0.226 C 
BRANCH  36  37
ATOM     37  N30 ZIN A   1      17.502  -4.502   5.198  0.00  0.00    -0.257 N 
ATOM     38  N34 ZIN A   1      16.373  -5.028   5.847  0.00  0.00    -0.165 NA
ATOM     39  C33 ZIN A   1      16.275  -6.279   5.481  0.00  0.00     0.256 A 
ATOM     40  N32 ZIN A   1      17.276  -6.567   4.651  0.00  0.00    -0.234 NA
ATOM     41  C31 ZIN A   1      18.023  -5.506   4.472  0.00  0.00     0.230 A 
ENDBRANCH  36  37
ENDBRANCH  33  36
BRANCH  33  42
ATOM     42  C35 ZIN A   1      18.855  -1.568   7.032  0.00  0.00     0.027 A 
ATOM     43  C41 ZIN A   1      19.045  -0.540   6.125  0.00  0.00     0.047 A 
ATOM     44  C40 ZIN A   1      19.026   0.774   6.556  0.00  0.00     0.048 A 
ATOM     45 Cl42 ZIN A   1      19.294  -0.898   4.444  0.00  0.00    -0.084 Cl
ATOM     46  C38 ZIN A   1      18.829   1.059   7.896  0.00  0.00     0.035 A 
ATOM     47  C37 ZIN A   1      18.644   0.030   8.802  0.00  0.00     0.024 A 
ATOM     48 Cl39 ZIN A   1      18.812   2.708   8.440  0.00  0.00    -0.084 Cl
ATOM     49  C36 ZIN A   1      18.658  -1.283   8.368  0.00  0.00     0.016 A 
ENDBRANCH  33  42
ENDBRANCH  30  31
ENDBRANCH  29  30
ENDBRANCH   4  29
TORSDOF 11
ENDMDL
MODEL 2
REMARK VINA RESULT:      -9.2      3.346      5.479
REMARK  11 active torsions:
REMARK  status: ('A' for Active; 'I' for Inactive)
REMARK    1  A    between atoms: C2_2  and  C3_3 
REMARK    2  A    between atoms: C3_3  and  N6_5 
REMARK    3  A    between atoms: N9_8  and  C10_9 
REMARK    4  A    between atoms: C13_12  and  N14_13 
REMARK    5  A    between atoms: N17_16  and  C18_17 
REMARK    6  A    between atoms: C21_20  and  O22_21 
REMARK    7  A    between atoms: O22_21  and  C23_22 
REMARK    8  A    between atoms: C23_22  and  C24_23 
REMARK    9  A    between atoms: C28_26  and  C29_27 
REMARK   10  A    between atoms: C28_26  and  C35_33 
REMARK   11  A    between atoms: C29_27  and  N30_28 
ROOT
ATOM      1  C18 ZIN A   1      18.174  -0.551   7.091  0.00  0.00     0.010 A 
ATOM      2  C19 ZIN A   1      17.414  -0.502   5.929  0.00  0.00     0.026 A 
ATOM      3  C20 ZIN A   1      17.550  -1.490   4.974  0.00  0.00     0.038 A 
ATOM      4  C21 ZIN A   1      18.445  -2.531   5.174  0.00  0.00     0.069 A 
ATOM      5  C44 ZIN A   1      19.205  -2.581   6.333  0.00  0.00     0.038 A 
ATOM      6  C45 ZIN A   1      19.074  -1.590   7.287  0.00  0.00     0.026 A 
ENDROOT
BRANCH   1   7
ATOM      7  N17 ZIN A   1      18.038   0.449   8.059  0.00  0.00    -0.281 NA
ATOM      8  C16 ZIN A   1      19.269   1.243   8.172  0.00  0.00     0.110 C 
ATOM      9  C15 ZIN A   1      19.053   2.373   9.183  0.00  0.00     0.110 C 
ATOM     10  N14 ZIN A   1      18.680   1.799  10.482  0.00  0.00    -0.281 NA
ATOM     11  C47 ZIN A   1      17.449   1.004  10.370  0.00  0.00     0.110 C 
ATOM     12  C46 ZIN A   1      17.665  -0.125   9.360  0.00  0.00     0.110 C 
BRANCH  10  13
ATOM     13  C13 ZIN A   1      18.544   2.799  11.451  0.00  0.00     0.010 A 
ATOM     14  C12 ZIN A   1      17.918   3.996  11.131  0.00  0.00     0.026 A 
ATOM     15  C11 ZIN A   1      17.785   4.983  12.087  0.00  0.00     0.032 A 
ATOM     16  C10 ZIN A   1      18.275   4.778  13.369  0.00  0.00     0.045 A 
ATOM     17  C49 ZIN A   1      18.906   3.583  13.690  0.00  0.00     0.032 A 
ATOM     18  C48 ZIN A   1      19.035   2.594  12.734  0.00  0.00     0.026 A 
BRANCH  16  19
ATOM     19  N9  ZIN A   1      18.140   5.781  14.342  0.00  0.00    -0.256 N 
ATOM     20  C8  ZIN A   1      19.148   6.588  14.813  0.00  0.00     0.242 A 
ATOM     21  N7  ZIN A   1      18.659   7.393  15.700  0.00  0.00    -0.163 NA
ATOM     22  N6  ZIN A   1      17.290   7.122  15.828  0.00  0.00    -0.214 N 
ATOM     23  C50 ZIN A   1      16.999   6.114  14.978  0.00  0.00     0.351 A 
ATOM     24  O51 ZIN A   1      15.905   5.605  14.811  0.00  0.00    -0.244 OA
BRANCH  22  25
ATOM     25  C3  ZIN A   1      16.350   7.802  16.722  0.00  0.00     0.111 C 
ATOM     26  C5  ZIN A   1      17.073   8.209  18.007  0.00  0.00     0.034 C 
BRANCH  25  27
ATOM     27  C2  ZIN A   1      15.797   9.048  16.029  0.00  0.00     0.022 C 
ATOM     28  C1  ZIN A   1      14.360   8.785  15.575  0.00  0.00     0.007 C 
ENDBRANCH  25  27
ENDBRANCH  22  25
ENDBRANCH  16  19
ENDBRANCH  10  13
ENDBRANCH   1   7
BRANCH   4  29
ATOM     29  O22 ZIN A   1      18.577  -3.504   4.232  0.00  0.00    -0.349 OA
BRANCH  29  30
ATOM     30  C23 ZIN A   1      17.444  -3.757   3.399  0.00  0.00     0.209 C 
BRANCH  30  31
ATOM     31  C24 ZIN A   1      16.794  -5.080   3.809  0.00  0.00     0.173 C 
ATOM     32  O43 ZIN A   1      16.627  -5.144   5.240  0.00  0.00    -0.340 OA
ATOM     33  C28 ZIN A   1      16.953  -6.483   5.645  0.00  0.00     0.213 C 
ATOM     34  O27 ZIN A   1      17.297  -7.249   4.479  0.00  0.00    -0.347 OA
ATOM     35  C26 ZIN A   1      17.740  -6.270   3.510  0.00  0.00     0.206 C 
BRANCH  33  36
ATOM     36  C29 ZIN A   1      18.138  -6.457   6.613  0.00  0.00     0.226 C 
BRANCH  36  37
ATOM     37  N30 ZIN A   1      17.687  -5.986   7.924  0.00  0.00    -0.257 N 
ATOM     38  N34 ZIN A   1      17.322  -4.674   8.269  0.00  0.00    -0.165 NA
ATOM     39  C33 ZIN A   1      16.985  -4.696   9.532  0.00  0.00     0.256 A 
ATOM     40  N32 ZIN A   1      17.124  -5.936   9.997  0.00  0.00    -0.234 NA
ATOM     41  C31 ZIN A   1      17.546  -6.724   9.040  0.00  0.00     0.230 A 
ENDBRANCH  36  37
ENDBRANCH  33  36
BRANCH  33  42
ATOM     42  C35 ZIN A   1      15.759  -7.103   6.325  0.00  0.00     0.027 A 
ATOM     43  C41 ZIN A   1      15.760  -8.453   6.629  0.00  0.00     0.047 A 
ATOM     44  C40 ZIN A   1      14.667  -9.022   7.258  0.00  0.00     0.048 A 
ATOM     45 Cl42 ZIN A   1      17.139  -9.432   6.233  0.00  0.00    -0.084 Cl
ATOM     46  C38 ZIN A   1      13.568  -8.242   7.573  0.00  0.00     0.035 A 
ATOM     47  C37 ZIN A   1      13.566  -6.893   7.263  0.00  0.00     0.024 A 
ATOM     48 Cl39 ZIN A   1      12.192  -8.954   8.356  0.00  0.00    -0.084 Cl
ATOM     49  C36 ZIN A   1      14.662  -6.325   6.640  0.00  0.00     0.016 A 
ENDBRANCH  33  42
ENDBRANCH  30  31
ENDBRANCH  29  30
ENDBRANCH   4  29
TORSDOF 11
ENDMDL
MODEL 3
REMARK VINA RESULT:      -9.2      2.987      5.025
REMARK  11 active torsions:
REMARK  status: ('A' for Active; 'I' for Inactive)
REMARK    1  A    between atoms: C2_2  and  C3_3 
REMARK    2  A    between atoms: C3_3  and  N6_5 
REMARK    3  A    between atoms: N9_8  and  C10_9 
REMARK    4  A    between atoms: C13_12  and  N14_13 
REMARK    5  A    between atoms: N17_16  and  C18_17 
REMARK    6  A    between atoms: C21_20  and  O22_21 
REMARK    7  A    between atoms: O22_21  and  C23_22 
REMARK    8  A    between atoms: C23_22  and  C24_23 
REMARK    9  A    between atoms: C28_26  and  C29_27 
REMARK   10  A    between atoms: C28_26  and  C35_33 
REMARK   11  A    between atoms: C29_27  and  N30_28 
ROOT
ATOM      1  C18 ZIN A   1      18.224  -0.730   6.427  0.00  0.00     0.010 A 
ATOM      2  C19 ZIN A   1      19.196  -1.716   6.526  0.00  0.00     0.026 A 
ATOM      3  C20 ZIN A   1      19.313  -2.671   5.536  0.00  0.00     0.038 A 
ATOM      4  C21 ZIN A   1      18.460  -2.645   4.442  0.00  0.00     0.069 A 
ATOM      5  C44 ZIN A   1      17.489  -1.661   4.342  0.00  0.00     0.038 A 
ATOM      6  C45 ZIN A   1      17.367  -0.708   5.335  0.00  0.00     0.026 A 
ENDROOT
BRANCH   1   7
ATOM      7  N17 ZIN A   1      18.105   0.239   7.430  0.00  0.00    -0.281 NA
ATOM      8  C16 ZIN A   1      19.307   1.081   7.495  0.00  0.00     0.110 C 
ATOM      9  C15 ZIN A   1      19.105   2.174   8.547  0.00  0.00     0.110 C 
ATOM     10  N14 ZIN A   1      18.831   1.552   9.849  0.00  0.00    -0.281 NA
ATOM     11  C47 ZIN A   1      17.629   0.709   9.785  0.00  0.00     0.110 C 
ATOM     12  C46 ZIN A   1      17.831  -0.384   8.733  0.00  0.00     0.110 C 
BRANCH  10  13
ATOM     13  C13 ZIN A   1      18.711   2.520  10.852  0.00  0.00     0.010 A 
ATOM     14  C12 ZIN A   1      18.251   3.792  10.539  0.00  0.00     0.026 A 
ATOM     15  C11 ZIN A   1      18.134   4.747  11.528  0.00  0.00     0.032 A 
ATOM     16  C10 ZIN A   1      18.475   4.436  12.837  0.00  0.00     0.045 A 
ATOM     17  C49 ZIN A   1      18.939   3.165  13.152  0.00  0.00     0.032 A 
ATOM     18  C48 ZIN A   1      19.051   2.208  12.162  0.00  0.00     0.026 A 
BRANCH  16  19
ATOM     19  N9  ZIN A   1      18.355   5.407  13.844  0.00  0.00    -0.256 N 
ATOM     20  C8  ZIN A   1      19.392   6.102  14.420  0.00  0.00     0.242 A 
ATOM     21  N7  ZIN A   1      18.910   6.911  15.308  0.00  0.00    -0.163 NA
ATOM     22  N6  ZIN A   1      17.518   6.756  15.329  0.00  0.00    -0.214 N 
ATOM     23  C50 ZIN A   1      17.204   5.813  14.416  0.00  0.00     0.351 A 
ATOM     24  O51 ZIN A   1      16.085   5.409  14.151  0.00  0.00    -0.244 OA
BRANCH  22  25
ATOM     25  C3  ZIN A   1      16.577   7.480  16.188  0.00  0.00     0.111 C 
ATOM     26  C5  ZIN A   1      17.269   7.854  17.500  0.00  0.00     0.034 C 
BRANCH  25  27
ATOM     27  C2  ZIN A   1      16.110   8.750  15.476  0.00  0.00     0.022 C 
ATOM     28  C1  ZIN A   1      14.594   8.891  15.626  0.00  0.00     0.007 C 
ENDBRANCH  25  27
ENDBRANCH  22  25
ENDBRANCH  16  19
ENDBRANCH  10  13
ENDBRANCH   1   7
BRANCH   4  29
ATOM     29  O22 ZIN A   1      18.577  -3.586   3.467  0.00  0.00    -0.349 OA
BRANCH  29  30
ATOM     30  C23 ZIN A   1      17.570  -4.599   3.420  0.00  0.00     0.209 C 
BRANCH  30  31
ATOM     31  C24 ZIN A   1      16.900  -4.717   4.791  0.00  0.00     0.173 C 
ATOM     32  O43 ZIN A   1      17.738  -5.452   5.706  0.00  0.00    -0.340 OA
ATOM     33  C28 ZIN A   1      16.878  -6.310   6.472  0.00  0.00     0.213 C 
ATOM     34  O27 ZIN A   1      15.519  -6.095   6.055  0.00  0.00    -0.347 OA
ATOM     35  C26 ZIN A   1      15.622  -5.588   4.703  0.00  0.00     0.206 C 
BRANCH  33  36
ATOM     36  C29 ZIN A   1      17.264  -7.772   6.238  0.00  0.00     0.226 C 
BRANCH  36  37
ATOM     37  N30 ZIN A   1      16.071  -8.615   6.348  0.00  0.00    -0.257 N 
ATOM     38  N34 ZIN A   1      15.418  -9.001   7.530  0.00  0.00    -0.165 NA
ATOM     39  C33 ZIN A   1      14.404  -9.746   7.175  0.00  0.00     0.256 A 
ATOM     40  N32 ZIN A   1      14.390  -9.855   5.848  0.00  0.00    -0.234 NA
ATOM     41  C31 ZIN A   1      15.388  -9.179   5.336  0.00  0.00     0.230 A 
ENDBRANCH  36  37
ENDBRANCH  33  36
BRANCH  33  42
ATOM     42  C35 ZIN A   1      17.016  -5.978   7.936  0.00  0.00     0.027 A 
ATOM     43  C41 ZIN A   1      18.272  -5.786   8.486  0.00  0.00     0.047 A 
ATOM     44  C40 ZIN A   1      18.399  -5.475   9.828  0.00  0.00     0.048 A 
ATOM     45 Cl42 ZIN A   1      19.687  -5.922   7.489  0.00  0.00    -0.084 Cl
ATOM     46  C38 ZIN A   1      17.271  -5.368  10.622  0.00  0.00     0.035 A 
ATOM     47  C37 ZIN A   1      16.017  -5.566  10.072  0.00  0.00     0.024 A 
ATOM     48 Cl39 ZIN A   1      17.429  -4.985  12.308  0.00  0.00    -0.084 Cl
ATOM     49  C36 ZIN A   1      15.891  -5.870   8.729  0.00  0.00     0.016 A 
ENDBRANCH  33  42
ENDBRANCH  30  31
ENDBRANCH  29  30
ENDBRANCH   4  29
TORSDOF 11
ENDMDL
MODEL 4
REMARK VINA RESULT:      -9.0      3.042      5.232
REMARK  11 active torsions:
REMARK  status: ('A' for Active; 'I' for Inactive)
REMARK    1  A    between atoms: C2_2  and  C3_3 
REMARK    2  A    between atoms: C3_3  and  N6_5 
REMARK    3  A    between atoms: N9_8  and  C10_9 
REMARK    4  A    between atoms: C13_12  and  N14_13 
REMARK    5  A    between atoms: N17_16  and  C18_17 
REMARK    6  A    between atoms: C21_20  and  O22_21 
REMARK    7  A    between atoms: O22_21  and  C23_22 
REMARK    8  A    between atoms: C23_22  and  C24_23 
REMARK    9  A    between atoms: C28_26  and  C29_27 
REMARK   10  A    between atoms: C28_26  and  C35_33 
REMARK   11  A    between atoms: C29_27  and  N30_28 
ROOT
ATOM      1  C18 ZIN A   1      18.525   0.751   9.643  0.00  0.00     0.010 A 
ATOM      2  C19 ZIN A   1      19.732   0.193   9.243  0.00  0.00     0.026 A 
ATOM      3  C20 ZIN A   1      19.755  -0.759   8.244  0.00  0.00     0.038 A 
ATOM      4  C21 ZIN A   1      18.572  -1.158   7.638  0.00  0.00     0.069 A 
ATOM      5  C44 ZIN A   1      17.365  -0.602   8.037  0.00  0.00     0.038 A 
ATOM      6  C45 ZIN A   1      17.340   0.347   9.041  0.00  0.00     0.026 A 
ENDROOT
BRANCH   1   7
ATOM      7  N17 ZIN A   1      18.500   1.716  10.656  0.00  0.00    -0.281 NA
ATOM      8  C16 ZIN A   1      17.673   1.271  11.786  0.00  0.00     0.110 C 
ATOM      9  C15 ZIN A   1      17.736   2.316  12.904  0.00  0.00     0.110 C 
ATOM     10  N14 ZIN A   1      17.265   3.609  12.388  0.00  0.00    -0.281 NA
ATOM     11  C47 ZIN A   1      18.091   4.054  11.257  0.00  0.00     0.110 C 
ATOM     12  C46 ZIN A   1      18.028   3.009  10.140  0.00  0.00     0.110 C 
BRANCH  10  13
ATOM     13  C13 ZIN A   1      17.240   4.573  13.400  0.00  0.00     0.010 A 
ATOM     14  C12 ZIN A   1      18.129   4.488  14.463  0.00  0.00     0.026 A 
ATOM     15  C11 ZIN A   1      18.104   5.439  15.463  0.00  0.00     0.032 A 
ATOM     16  C10 ZIN A   1      17.190   6.482  15.405  0.00  0.00     0.045 A 
ATOM     17  C49 ZIN A   1      16.297   6.566  14.345  0.00  0.00     0.032 A 
ATOM     18  C48 ZIN A   1      16.326   5.617  13.342  0.00  0.00     0.026 A 
BRANCH  16  19
ATOM     19  N9  ZIN A   1      17.164   7.451  16.422  0.00  0.00    -0.256 N 
ATOM     20  C8  ZIN A   1      17.742   8.697  16.361  0.00  0.00     0.242 A 
ATOM     21  N7  ZIN A   1      17.518   9.315  17.476  0.00  0.00    -0.163 NA
ATOM     22  N6  ZIN A   1      16.771   8.465  18.304  0.00  0.00    -0.214 N 
ATOM     23  C50 ZIN A   1      16.574   7.315  17.625  0.00  0.00     0.351 A 
ATOM     24  O51 ZIN A   1      15.965   6.338  18.025  0.00  0.00    -0.244 OA
BRANCH  22  25
ATOM     25  C3  ZIN A   1      16.299   8.767  19.658  0.00  0.00     0.111 C 
ATOM     26  C5  ZIN A   1      14.770   8.810  19.666  0.00  0.00     0.034 C 
BRANCH  25  27
ATOM     27  C2  ZIN A   1      16.785   7.682  20.620  0.00  0.00     0.022 C 
ATOM     28  C1  ZIN A   1      18.284   7.859  20.873  0.00  0.00     0.007 C 
ENDBRANCH  25  27
ENDBRANCH  22  25
ENDBRANCH  16  19
ENDBRANCH  10  13
ENDBRANCH   1   7
BRANCH   4  29
ATOM     29  O22 ZIN A   1      18.596  -2.095   6.653  0.00  0.00    -0.349 OA
BRANCH  29  30
ATOM     30  C23 ZIN A   1      19.444  -3.227   6.856  0.00  0.00     0.209 C 
BRANCH  30  31
ATOM     31  C24 ZIN A   1      18.624  -4.511   6.712  0.00  0.00     0.173 C 
ATOM     32  O43 ZIN A   1      17.678  -4.635   7.793  0.00  0.00    -0.340 OA
ATOM     33  C28 ZIN A   1      17.665  -6.017   8.189  0.00  0.00     0.213 C 
ATOM     34  O27 ZIN A   1      18.575  -6.747   7.349  0.00  0.00    -0.347 OA
ATOM     35  C26 ZIN A   1      19.526  -5.759   6.886  0.00  0.00     0.206 C 
BRANCH  33  36
ATOM     36  C29 ZIN A   1      18.100  -6.140   9.650  0.00  0.00     0.226 C 
BRANCH  36  37
ATOM     37  N30 ZIN A   1      18.318  -4.804  10.209  0.00  0.00    -0.257 N 
ATOM     38  N34 ZIN A   1      19.553  -4.206  10.505  0.00  0.00    -0.165 NA
ATOM     39  C33 ZIN A   1      19.293  -3.017  10.983  0.00  0.00     0.256 A 
ATOM     40  N32 ZIN A   1      17.973  -2.841  11.010  0.00  0.00    -0.234 NA
ATOM     41  C31 ZIN A   1      17.373  -3.909  10.547  0.00  0.00     0.230 A 
ENDBRANCH  36  37
ENDBRANCH  33  36
BRANCH  33  42
ATOM     42  C35 ZIN A   1      16.272  -6.569   8.026  0.00  0.00     0.027 A 
ATOM     43  C41 ZIN A   1      16.091  -7.886   7.640  0.00  0.00     0.047 A 
ATOM     44  C40 ZIN A   1      14.813  -8.395   7.497  0.00  0.00     0.048 A 
ATOM     45 Cl42 ZIN A   1      17.468  -8.903   7.348  0.00  0.00    -0.084 Cl
ATOM     46  C38 ZIN A   1      13.716  -7.584   7.729  0.00  0.00     0.035 A 
ATOM     47  C37 ZIN A   1      13.898  -6.266   8.109  0.00  0.00     0.024 A 
ATOM     48 Cl39 ZIN A   1      12.111  -8.220   7.543  0.00  0.00    -0.084 Cl
ATOM     49  C36 ZIN A   1      15.177  -5.760   8.258  0.00  0.00     0.016 A 
ENDBRANCH  33  42
ENDBRANCH  30  31
ENDBRANCH  29  30
ENDBRANCH   4  29
TORSDOF 11
ENDMDL
MODEL 5
REMARK VINA RESULT:      -9.0      3.137      4.959
REMARK  11 active torsions:
REMARK  status: ('A' for Active; 'I' for Inactive)
REMARK    1  A    between atoms: C2_2  and  C3_3 
REMARK    2  A    between atoms: C3_3  and  N6_5 
REMARK    3  A    between atoms: N9_8  and  C10_9 
REMARK    4  A    between atoms: C13_12  and  N14_13 
REMARK    5  A    between atoms: N17_16  and  C18_17 
REMARK    6  A    between atoms: C21_20  and  O22_21 
REMARK    7  A    between atoms: O22_21  and  C23_22 
REMARK    8  A    between atoms: C23_22  and  C24_23 
REMARK    9  A    between atoms: C28_26  and  C29_27 
REMARK   10  A    between atoms: C28_26  and  C35_33 
REMARK   11  A    between atoms: C29_27  and  N30_28 
ROOT
ATOM      1  C18 ZIN A   1      19.002  -0.402   8.324  0.00  0.00     0.010 A 
ATOM      2  C19 ZIN A   1      19.003   0.003   6.996  0.00  0.00     0.026 A 
ATOM      3  C20 ZIN A   1      19.160  -0.929   5.989  0.00  0.00     0.038 A 
ATOM      4  C21 ZIN A   1      19.317  -2.271   6.305  0.00  0.00     0.069 A 
ATOM      5  C44 ZIN A   1      19.318  -2.677   7.631  0.00  0.00     0.038 A 
ATOM      6  C45 ZIN A   1      19.166  -1.745   8.639  0.00  0.00     0.026 A 
ENDROOT
BRANCH   1   7
ATOM      7  N17 ZIN A   1      18.842   0.541   9.344  0.00  0.00    -0.281 NA
ATOM      8  C16 ZIN A   1      17.576   0.333  10.060  0.00  0.00     0.110 C 
ATOM      9  C15 ZIN A   1      17.476   1.332  11.216  0.00  0.00     0.110 C 
ATOM     10  N14 ZIN A   1      17.559   2.700  10.686  0.00  0.00    -0.281 NA
ATOM     11  C47 ZIN A   1      18.825   2.908   9.969  0.00  0.00     0.110 C 
ATOM     12  C46 ZIN A   1      18.925   1.910   8.814  0.00  0.00     0.110 C 
BRANCH  10  13
ATOM     13  C13 ZIN A   1      17.399   3.643  11.706  0.00  0.00     0.010 A 
ATOM     14  C12 ZIN A   1      16.779   4.857  11.438  0.00  0.00     0.026 A 
ATOM     15  C11 ZIN A   1      16.621   5.788  12.445  0.00  0.00     0.032 A 
ATOM     16  C10 ZIN A   1      17.081   5.512  13.725  0.00  0.00     0.045 A 
ATOM     17  C49 ZIN A   1      17.706   4.301  13.992  0.00  0.00     0.032 A 
ATOM     18  C48 ZIN A   1      17.859   3.367  12.987  0.00  0.00     0.026 A 
BRANCH  16  19
ATOM     19  N9  ZIN A   1      16.921   6.459  14.749  0.00  0.00    -0.256 N 
ATOM     20  C8  ZIN A   1      17.883   7.335  15.193  0.00  0.00     0.242 A 
ATOM     21  N7  ZIN A   1      17.382   8.056  16.144  0.00  0.00    -0.163 NA
ATOM     22  N6  ZIN A   1      16.054   7.656  16.343  0.00  0.00    -0.214 N 
ATOM     23  C50 ZIN A   1      15.799   6.660  15.468  0.00  0.00     0.351 A 
ATOM     24  O51 ZIN A   1      14.746   6.060  15.345  0.00  0.00    -0.244 OA
BRANCH  22  25
ATOM     25  C3  ZIN A   1      15.117   8.211  17.323  0.00  0.00     0.111 C 
ATOM     26  C5  ZIN A   1      13.844   8.670  16.609  0.00  0.00     0.034 C 
BRANCH  25  27
ATOM     27  C2  ZIN A   1      14.766   7.139  18.356  0.00  0.00     0.022 C 
ATOM     28  C1  ZIN A   1      13.251   6.928  18.376  0.00  0.00     0.007 C 
ENDBRANCH  25  27
ENDBRANCH  22  25
ENDBRANCH  16  19
ENDBRANCH  10  13
ENDBRANCH   1   7
BRANCH   4  29
ATOM     29  O22 ZIN A   1      19.472  -3.188   5.312  0.00  0.00    -0.349 OA
BRANCH  29  30
ATOM     30  C23 ZIN A   1      18.694  -3.000   4.128  0.00  0.00     0.209 C 
BRANCH  30  31
ATOM     31  C24 ZIN A   1      17.374  -3.762   4.259  0.00  0.00     0.173 C 
ATOM     32  O43 ZIN A   1      17.379  -4.590   5.440  0.00  0.00    -0.340 OA
ATOM     33  C28 ZIN A   1      16.754  -5.835   5.086  0.00  0.00     0.213 C 
ATOM     34  O27 ZIN A   1      16.346  -5.774   3.710  0.00  0.00    -0.347 OA
ATOM     35  C26 ZIN A   1      17.217  -4.787   3.108  0.00  0.00     0.206 C 
BRANCH  33  36
ATOM     36  C29 ZIN A   1      17.746  -6.984   5.279  0.00  0.00     0.226 C 
BRANCH  36  37
ATOM     37  N30 ZIN A   1      17.119  -8.243   4.869  0.00  0.00    -0.257 N 
ATOM     38  N34 ZIN A   1      16.508  -9.192   5.704  0.00  0.00    -0.165 NA
ATOM     39  C33 ZIN A   1      16.082 -10.156   4.932  0.00  0.00     0.256 A 
ATOM     40  N32 ZIN A   1      16.397  -9.872   3.669  0.00  0.00    -0.234 NA
ATOM     41  C31 ZIN A   1      17.022  -8.722   3.616  0.00  0.00     0.230 A 
ENDBRANCH  36  37
ENDBRANCH  33  36
BRANCH  33  42
ATOM     42  C35 ZIN A   1      15.548  -6.055   5.963  0.00  0.00     0.027 A 
ATOM     43  C41 ZIN A   1      15.677  -6.009   7.340  0.00  0.00     0.047 A 
ATOM     44  C40 ZIN A   1      14.569  -6.205   8.145  0.00  0.00     0.048 A 
ATOM     45 Cl42 ZIN A   1      17.226  -5.693   8.059  0.00  0.00    -0.084 Cl
ATOM     46  C38 ZIN A   1      13.334  -6.458   7.572  0.00  0.00     0.035 A 
ATOM     47  C37 ZIN A   1      13.208  -6.509   6.195  0.00  0.00     0.024 A 
ATOM     48 Cl39 ZIN A   1      11.944  -6.710   8.581  0.00  0.00    -0.084 Cl
ATOM     49  C36 ZIN A   1      14.316  -6.307   5.392  0.00  0.00     0.016 A 
ENDBRANCH  33  42
ENDBRANCH  30  31
ENDBRANCH  29  30
ENDBRANCH   4  29
TORSDOF 11
ENDMDL
MODEL 6
REMARK VINA RESULT:      -8.9      2.140      3.254
REMARK  11 active torsions:
REMARK  status: ('A' for Active; 'I' for Inactive)
REMARK    1  A    between atoms: C2_2  and  C3_3 
REMARK    2  A    between atoms: C3_3  and  N6_5 
REMARK    3  A    between atoms: N9_8  and  C10_9 
REMARK    4  A    between atoms: C13_12  and  N14_13 
REMARK    5  A    between atoms: N17_16  and  C18_17 
REMARK    6  A    between atoms: C21_20  and  O22_21 
REMARK    7  A    between atoms: O22_21  and  C23_22 
REMARK    8  A    between atoms: C23_22  and  C24_23 
REMARK    9  A    between atoms: C28_26  and  C29_27 
REMARK   10  A    between atoms: C28_26  and  C35_33 
REMARK   11  A    between atoms: C29_27  and  N30_28 
ROOT
ATOM      1  C18 ZIN A   1      17.915  -4.784  10.235  0.00  0.00     0.010 A 
ATOM      2  C19 ZIN A   1      16.732  -5.425   9.891  0.00  0.00     0.026 A 
ATOM      3  C20 ZIN A   1      16.761  -6.525   9.057  0.00  0.00     0.038 A 
ATOM      4  C21 ZIN A   1      17.972  -6.989   8.562  0.00  0.00     0.069 A 
ATOM      5  C44 ZIN A   1      19.153  -6.349   8.903  0.00  0.00     0.038 A 
ATOM      6  C45 ZIN A   1      19.125  -5.245   9.734  0.00  0.00     0.026 A 
ENDROOT
BRANCH   1   7
ATOM      7  N17 ZIN A   1      17.887  -3.669  11.080  0.00  0.00    -0.281 NA
ATOM      8  C16 ZIN A   1      17.475  -2.464  10.348  0.00  0.00     0.110 C 
ATOM      9  C15 ZIN A   1      17.380  -1.286  11.322  0.00  0.00     0.110 C 
ATOM     10  N14 ZIN A   1      18.683  -1.084  11.969  0.00  0.00    -0.281 NA
ATOM     11  C47 ZIN A   1      19.097  -2.290  12.701  0.00  0.00     0.110 C 
ATOM     12  C46 ZIN A   1      19.191  -3.467  11.728  0.00  0.00     0.110 C 
BRANCH  10  13
ATOM     13  C13 ZIN A   1      18.656   0.030  12.814  0.00  0.00     0.010 A 
ATOM     14  C12 ZIN A   1      19.295   1.204  12.435  0.00  0.00     0.026 A 
ATOM     15  C11 ZIN A   1      19.269   2.304  13.269  0.00  0.00     0.032 A 
ATOM     16  C10 ZIN A   1      18.603   2.238  14.485  0.00  0.00     0.045 A 
ATOM     17  C49 ZIN A   1      17.968   1.063  14.867  0.00  0.00     0.032 A 
ATOM     18  C48 ZIN A   1      17.990  -0.036  14.030  0.00  0.00     0.026 A 
BRANCH  16  19
ATOM     19  N9  ZIN A   1      18.576   3.356  15.333  0.00  0.00    -0.256 N 
ATOM     20  C8  ZIN A   1      19.348   3.534  16.457  0.00  0.00     0.242 A 
ATOM     21  N7  ZIN A   1      19.056   4.678  16.987  0.00  0.00    -0.163 NA
ATOM     22  N6  ZIN A   1      18.066   5.283  16.201  0.00  0.00    -0.214 N 
ATOM     23  C50 ZIN A   1      17.785   4.437  15.187  0.00  0.00     0.351 A 
ATOM     24  O51 ZIN A   1      16.971   4.621  14.300  0.00  0.00    -0.244 OA
BRANCH  22  25
ATOM     25  C3  ZIN A   1      17.446   6.589  16.440  0.00  0.00     0.111 C 
ATOM     26  C5  ZIN A   1      17.631   6.980  17.907  0.00  0.00     0.034 C 
BRANCH  25  27
ATOM     27  C2  ZIN A   1      18.107   7.638  15.544  0.00  0.00     0.022 C 
ATOM     28  C1  ZIN A   1      17.051   8.271  14.636  0.00  0.00     0.007 C 
ENDBRANCH  25  27
ENDBRANCH  22  25
ENDBRANCH  16  19
ENDBRANCH  10  13
ENDBRANCH   1   7
BRANCH   4  29
ATOM     29  O22 ZIN A   1      17.998  -8.073   7.740  0.00  0.00    -0.349 OA
BRANCH  29  30
ATOM     30  C23 ZIN A   1      17.296  -7.964   6.501  0.00  0.00     0.209 C 
BRANCH  30  31
ATOM     31  C24 ZIN A   1      17.888  -6.817   5.678  0.00  0.00     0.173 C 
ATOM     32  O43 ZIN A   1      17.089  -5.625   5.815  0.00  0.00    -0.340 OA
ATOM     33  C28 ZIN A   1      17.016  -5.012   4.518  0.00  0.00     0.213 C 
ATOM     34  O27 ZIN A   1      17.780  -5.800   3.590  0.00  0.00    -0.347 OA
ATOM     35  C26 ZIN A   1      17.802  -7.129   4.162  0.00  0.00     0.206 C 
BRANCH  33  36
ATOM     36  C29 ZIN A   1      15.559  -4.943   4.059  0.00  0.00     0.226 C 
BRANCH  36  37
ATOM     37  N30 ZIN A   1      14.792  -6.009   4.709  0.00  0.00    -0.257 N 
ATOM     38  N34 ZIN A   1      14.289  -6.006   6.020  0.00  0.00    -0.165 NA
ATOM     39  C33 ZIN A   1      13.670  -7.145   6.190  0.00  0.00     0.256 A 
ATOM     40  N32 ZIN A   1      13.764  -7.861   5.070  0.00  0.00    -0.234 NA
ATOM     41  C31 ZIN A   1      14.437  -7.189   4.170  0.00  0.00     0.230 A 
ENDBRANCH  36  37
ENDBRANCH  33  36
BRANCH  33  42
ATOM     42  C35 ZIN A   1      17.590  -3.619   4.592  0.00  0.00     0.027 A 
ATOM     43  C41 ZIN A   1      18.743  -3.384   5.320  0.00  0.00     0.047 A 
ATOM     44  C40 ZIN A   1      19.273  -2.108   5.382  0.00  0.00     0.048 A 
ATOM     45 Cl42 ZIN A   1      19.532  -4.693   6.145  0.00  0.00    -0.084 Cl
ATOM     46  C38 ZIN A   1      18.643  -1.065   4.726  0.00  0.00     0.035 A 
ATOM     47  C37 ZIN A   1      17.487  -1.301   4.003  0.00  0.00     0.024 A 
ATOM     48 Cl39 ZIN A   1      19.302   0.538   4.809  0.00  0.00    -0.084 Cl
ATOM     49  C36 ZIN A   1      16.962  -2.579   3.936  0.00  0.00     0.016 A 
ENDBRANCH  33  42
ENDBRANCH  30  31
ENDBRANCH  29  30
ENDBRANCH   4  29
TORSDOF 11
ENDMDL
MODEL 7
REMARK VINA RESULT:      -8.9      2.944     13.310
REMARK  11 active torsions:
REMARK  status: ('A' for Active; 'I' for Inactive)
REMARK    1  A    between atoms: C2_2  and  C3_3 
REMARK    2  A    between atoms: C3_3  and  N6_5 
REMARK    3  A    between atoms: N9_8  and  C10_9 
REMARK    4  A    between atoms: C13_12  and  N14_13 
REMARK    5  A    between atoms: N17_16  and  C18_17 
REMARK    6  A    between atoms: C21_20  and  O22_21 
REMARK    7  A    between atoms: O22_21  and  C23_22 
REMARK    8  A    between atoms: C23_22  and  C24_23 
REMARK    9  A    between atoms: C28_26  and  C29_27 
REMARK   10  A    between atoms: C28_26  and  C35_33 
REMARK   11  A    between atoms: C29_27  and  N30_28 
ROOT
ATOM      1  C18 ZIN A   1      18.238   3.280  11.309  0.00  0.00     0.010 A 
ATOM      2  C19 ZIN A   1      19.510   3.716  11.656  0.00  0.00     0.026 A 
ATOM      3  C20 ZIN A   1      19.662   4.769  12.537  0.00  0.00     0.038 A 
ATOM      4  C21 ZIN A   1      18.545   5.391  13.075  0.00  0.00     0.069 A 
ATOM      5  C44 ZIN A   1      17.274   4.957  12.728  0.00  0.00     0.038 A 
ATOM      6  C45 ZIN A   1      17.120   3.908  11.843  0.00  0.00     0.026 A 
ENDROOT
BRANCH   1   7
ATOM      7  N17 ZIN A   1      18.082   2.214  10.417  0.00  0.00    -0.281 NA
ATOM      8  C16 ZIN A   1      17.710   0.983  11.127  0.00  0.00     0.110 C 
ATOM      9  C15 ZIN A   1      17.472  -0.138  10.112  0.00  0.00     0.110 C 
ATOM     10  N14 ZIN A   1      18.691  -0.340   9.316  0.00  0.00    -0.281 NA
ATOM     11  C47 ZIN A   1      19.064   0.891   8.606  0.00  0.00     0.110 C 
ATOM     12  C46 ZIN A   1      19.302   2.010   9.621  0.00  0.00     0.110 C 
BRANCH  10  13
ATOM     13  C13 ZIN A   1      18.536  -1.407   8.425  0.00  0.00     0.010 A 
ATOM     14  C12 ZIN A   1      18.888  -1.253   7.090  0.00  0.00     0.026 A 
ATOM     15  C11 ZIN A   1      18.735  -2.305   6.210  0.00  0.00     0.032 A 
ATOM     16  C10 ZIN A   1      18.229  -3.517   6.659  0.00  0.00     0.045 A 
ATOM     17  C49 ZIN A   1      17.873  -3.671   7.992  0.00  0.00     0.032 A 
ATOM     18  C48 ZIN A   1      18.031  -2.620   8.874  0.00  0.00     0.026 A 
BRANCH  16  19
ATOM     19  N9  ZIN A   1      18.074  -4.588   5.764  0.00  0.00    -0.256 N 
ATOM     20  C8  ZIN A   1      18.523  -5.873   5.959  0.00  0.00     0.242 A 
ATOM     21  N7  ZIN A   1      18.202  -6.588   4.929  0.00  0.00    -0.163 NA
ATOM     22  N6  ZIN A   1      17.522  -5.765   4.021  0.00  0.00    -0.214 N 
ATOM     23  C50 ZIN A   1      17.463  -4.530   4.564  0.00  0.00     0.351 A 
ATOM     24  O51 ZIN A   1      16.946  -3.547   4.064  0.00  0.00    -0.244 OA
BRANCH  22  25
ATOM     25  C3  ZIN A   1      16.980  -6.169   2.722  0.00  0.00     0.111 C 
ATOM     26  C5  ZIN A   1      17.864  -7.262   2.119  0.00  0.00     0.034 C 
BRANCH  25  27
ATOM     27  C2  ZIN A   1      15.559  -6.705   2.906  0.00  0.00     0.022 C 
ATOM     28  C1  ZIN A   1      14.551  -5.625   2.507  0.00  0.00     0.007 C 
ENDBRANCH  25  27
ENDBRANCH  22  25
ENDBRANCH  16  19
ENDBRANCH  10  13
ENDBRANCH   1   7
BRANCH   4  29
ATOM     29  O22 ZIN A   1      18.696   6.427  13.942  0.00  0.00    -0.349 OA
BRANCH  29  30
ATOM     30  C23 ZIN A   1      18.577   6.130  15.335  0.00  0.00     0.209 C 
BRANCH  30  31
ATOM     31  C24 ZIN A   1      18.985   4.676  15.583  0.00  0.00     0.173 C 
ATOM     32  O43 ZIN A   1      18.037   4.022  16.450  0.00  0.00    -0.340 OA
ATOM     33  C28 ZIN A   1      18.789   3.199  17.357  0.00  0.00     0.213 C 
ATOM     34  O27 ZIN A   1      20.186   3.323  17.043  0.00  0.00    -0.347 OA
ATOM     35  C26 ZIN A   1      20.307   4.608  16.388  0.00  0.00     0.206 C 
BRANCH  33  36
ATOM     36  C29 ZIN A   1      18.541   3.656  18.796  0.00  0.00     0.226 C 
BRANCH  36  37
ATOM     37  N30 ZIN A   1      17.463   4.646  18.814  0.00  0.00    -0.257 N 
ATOM     38  N34 ZIN A   1      16.083   4.389  18.863  0.00  0.00    -0.165 NA
ATOM     39  C33 ZIN A   1      15.482   5.550  18.865  0.00  0.00     0.256 A 
ATOM     40  N32 ZIN A   1      16.400   6.513  18.812  0.00  0.00    -0.234 NA
ATOM     41  C31 ZIN A   1      17.597   5.984  18.781  0.00  0.00     0.230 A 
ENDBRANCH  36  37
ENDBRANCH  33  36
BRANCH  33  42
ATOM     42  C35 ZIN A   1      18.360   1.762  17.200  0.00  0.00     0.027 A 
ATOM     43  C41 ZIN A   1      18.534   1.117  15.989  0.00  0.00     0.047 A 
ATOM     44  C40 ZIN A   1      18.146  -0.203  15.847  0.00  0.00     0.048 A 
ATOM     45 Cl42 ZIN A   1      19.251   1.960  14.650  0.00  0.00    -0.084 Cl
ATOM     46  C38 ZIN A   1      17.574  -0.874  16.914  0.00  0.00     0.035 A 
ATOM     47  C37 ZIN A   1      17.396  -0.226  18.123  0.00  0.00     0.024 A 
ATOM     48 Cl39 ZIN A   1      17.081  -2.529  16.735  0.00  0.00    -0.084 Cl
ATOM     49  C36 ZIN A   1      17.790   1.092  18.265  0.00  0.00     0.016 A 
ENDBRANCH  33  42
ENDBRANCH  30  31
ENDBRANCH  29  30
ENDBRANCH   4  29
TORSDOF 11
ENDMDL
MODEL 8
REMARK VINA RESULT:      -8.8      3.423     13.406
REMARK  11 active torsions:
REMARK  status: ('A' for Active; 'I' for Inactive)
REMARK    1  A    between atoms: C2_2  and  C3_3 
REMARK    2  A    between atoms: C3_3  and  N6_5 
REMARK    3  A    between atoms: N9_8  and  C10_9 
REMARK    4  A    between atoms: C13_12  and  N14_13 
REMARK    5  A    between atoms: N17_16  and  C18_17 
REMARK    6  A    between atoms: C21_20  and  O22_21 
REMARK    7  A    between atoms: O22_21  and  C23_22 
REMARK    8  A    between atoms: C23_22  and  C24_23 
REMARK    9  A    between atoms: C28_26  and  C29_27 
REMARK   10  A    between atoms: C28_26  and  C35_33 
REMARK   11  A    between atoms: C29_27  and  N30_28 
ROOT
ATOM      1  C18 ZIN A   1      17.958   5.450  13.367  0.00  0.00     0.010 A 
ATOM      2  C19 ZIN A   1      19.106   5.728  14.097  0.00  0.00     0.026 A 
ATOM      3  C20 ZIN A   1      19.149   6.836  14.920  0.00  0.00     0.038 A 
ATOM      4  C21 ZIN A   1      18.045   7.671  15.019  0.00  0.00     0.069 A 
ATOM      5  C44 ZIN A   1      16.898   7.395  14.291  0.00  0.00     0.038 A 
ATOM      6  C45 ZIN A   1      16.855   6.290  13.462  0.00  0.00     0.026 A 
ENDROOT
BRANCH   1   7
ATOM      7  N17 ZIN A   1      17.912   4.328  12.533  0.00  0.00    -0.281 NA
ATOM      8  C16 ZIN A   1      18.091   3.091  13.304  0.00  0.00     0.110 C 
ATOM      9  C15 ZIN A   1      17.956   1.886  12.369  0.00  0.00     0.110 C 
ATOM     10  N14 ZIN A   1      18.959   1.985  11.300  0.00  0.00    -0.281 NA
ATOM     11  C47 ZIN A   1      18.782   3.223  10.528  0.00  0.00     0.110 C 
ATOM     12  C46 ZIN A   1      18.916   4.427  11.463  0.00  0.00     0.110 C 
BRANCH  10  13
ATOM     13  C13 ZIN A   1      18.915   0.864  10.465  0.00  0.00     0.010 A 
ATOM     14  C12 ZIN A   1      18.145   0.888   9.309  0.00  0.00     0.026 A 
ATOM     15  C11 ZIN A   1      18.101  -0.219   8.486  0.00  0.00     0.032 A 
ATOM     16  C10 ZIN A   1      18.827  -1.356   8.812  0.00  0.00     0.045 A 
ATOM     17  C49 ZIN A   1      19.593  -1.383   9.970  0.00  0.00     0.032 A 
ATOM     18  C48 ZIN A   1      19.641  -0.274  10.791  0.00  0.00     0.026 A 
BRANCH  16  19
ATOM     19  N9  ZIN A   1      18.782  -2.482   7.975  0.00  0.00    -0.256 N 
ATOM     20  C8  ZIN A   1      19.523  -2.665   6.831  0.00  0.00     0.242 A 
ATOM     21  N7  ZIN A   1      19.223  -3.814   6.318  0.00  0.00    -0.163 NA
ATOM     22  N6  ZIN A   1      18.260  -4.419   7.137  0.00  0.00    -0.214 N 
ATOM     23  C50 ZIN A   1      18.002  -3.567   8.152  0.00  0.00     0.351 A 
ATOM     24  O51 ZIN A   1      17.216  -3.749   9.064  0.00  0.00    -0.244 OA
BRANCH  22  25
ATOM     25  C3  ZIN A   1      17.642  -5.731   6.927  0.00  0.00     0.111 C 
ATOM     26  C5  ZIN A   1      18.055  -6.275   5.558  0.00  0.00     0.034 C 
BRANCH  25  27
ATOM     27  C2  ZIN A   1      18.105  -6.694   8.022  0.00  0.00     0.022 C 
ATOM     28  C1  ZIN A   1      16.889  -7.215   8.790  0.00  0.00     0.007 C 
ENDBRANCH  25  27
ENDBRANCH  22  25
ENDBRANCH  16  19
ENDBRANCH  10  13
ENDBRANCH   1   7
BRANCH   4  29
ATOM     29  O22 ZIN A   1      18.090   8.761  15.831  0.00  0.00    -0.349 OA
BRANCH  29  30
ATOM     30  C23 ZIN A   1      17.323   8.704  17.036  0.00  0.00     0.209 C 
BRANCH  30  31
ATOM     31  C24 ZIN A   1      17.742   7.478  17.850  0.00  0.00     0.173 C 
ATOM     32  O43 ZIN A   1      16.960   6.326  17.474  0.00  0.00    -0.340 OA
ATOM     33  C28 ZIN A   1      16.650   5.612  18.682  0.00  0.00     0.213 C 
ATOM     34  O27 ZIN A   1      17.250   6.300  19.793  0.00  0.00    -0.347 OA
ATOM     35  C26 ZIN A   1      17.394   7.669  19.347  0.00  0.00     0.206 C 
BRANCH  33  36
ATOM     36  C29 ZIN A   1      15.133   5.552  18.872  0.00  0.00     0.226 C 
BRANCH  36  37
ATOM     37  N30 ZIN A   1      14.485   6.439  17.904  0.00  0.00    -0.257 N 
ATOM     38  N34 ZIN A   1      14.319   6.208  16.528  0.00  0.00    -0.165 NA
ATOM     39  C33 ZIN A   1      13.692   7.248  16.043  0.00  0.00     0.256 A 
ATOM     40  N32 ZIN A   1      13.464   8.115  17.029  0.00  0.00    -0.234 NA
ATOM     41  C31 ZIN A   1      13.937   7.641  18.154  0.00  0.00     0.230 A 
ENDBRANCH  36  37
ENDBRANCH  33  36
BRANCH  33  42
ATOM     42  C35 ZIN A   1      17.205   4.213  18.593  0.00  0.00     0.027 A 
ATOM     43  C41 ZIN A   1      16.882   3.279  19.561  0.00  0.00     0.047 A 
ATOM     44  C40 ZIN A   1      17.386   1.993  19.476  0.00  0.00     0.048 A 
ATOM     45 Cl42 ZIN A   1      15.833   3.714  20.874  0.00  0.00    -0.084 Cl
ATOM     46  C38 ZIN A   1      18.222   1.646  18.429  0.00  0.00     0.035 A 
ATOM     47  C37 ZIN A   1      18.549   2.584  17.465  0.00  0.00     0.024 A 
ATOM     48 Cl39 ZIN A   1      18.861   0.036  18.325  0.00  0.00    -0.084 Cl
ATOM     49  C36 ZIN A   1      18.039   3.867  17.548  0.00  0.00     0.016 A 
ENDBRANCH  33  42
ENDBRANCH  30  31
ENDBRANCH  29  30
ENDBRANCH   4  29
TORSDOF 11
ENDMDL
MODEL 9
REMARK VINA RESULT:      -8.8      3.609     13.634
REMARK  11 active torsions:
REMARK  status: ('A' for Active; 'I' for Inactive)
REMARK    1  A    between atoms: C2_2  and  C3_3 
REMARK    2  A    between atoms: C3_3  and  N6_5 
REMARK    3  A    between atoms: N9_8  and  C10_9 
REMARK    4  A    between atoms: C13_12  and  N14_13 
REMARK    5  A    between atoms: N17_16  and  C18_17 
REMARK    6  A    between atoms: C21_20  and  O22_21 
REMARK    7  A    between atoms: O22_21  and  C23_22 
REMARK    8  A    between atoms: C23_22  and  C24_23 
REMARK    9  A    between atoms: C28_26  and  C29_27 
REMARK   10  A    between atoms: C28_26  and  C35_33 
REMARK   11  A    between atoms: C29_27  and  N30_28 
ROOT
ATOM      1  C18 ZIN A   1      16.590   5.739  13.573  0.00  0.00     0.010 A 
ATOM      2  C19 ZIN A   1      17.641   6.586  13.898  0.00  0.00     0.026 A 
ATOM      3  C20 ZIN A   1      17.461   7.580  14.839  0.00  0.00     0.038 A 
ATOM      4  C21 ZIN A   1      16.229   7.733  15.460  0.00  0.00     0.069 A 
ATOM      5  C44 ZIN A   1      15.178   6.888  15.136  0.00  0.00     0.038 A 
ATOM      6  C45 ZIN A   1      15.356   5.897  14.190  0.00  0.00     0.026 A 
ENDROOT
BRANCH   1   7
ATOM      7  N17 ZIN A   1      16.772   4.731  12.620  0.00  0.00    -0.281 NA
ATOM      8  C16 ZIN A   1      17.677   3.688  13.122  0.00  0.00     0.110 C 
ATOM      9  C15 ZIN A   1      17.787   2.568  12.084  0.00  0.00     0.110 C 
ATOM     10  N14 ZIN A   1      18.282   3.125  10.818  0.00  0.00    -0.281 NA
ATOM     11  C47 ZIN A   1      17.378   4.169  10.315  0.00  0.00     0.110 C 
ATOM     12  C46 ZIN A   1      17.268   5.288  11.353  0.00  0.00     0.110 C 
BRANCH  10  13
ATOM     13  C13 ZIN A   1      18.464   2.118   9.865  0.00  0.00     0.010 A 
ATOM     14  C12 ZIN A   1      19.266   2.349   8.755  0.00  0.00     0.026 A 
ATOM     15  C11 ZIN A   1      19.446   1.356   7.814  0.00  0.00     0.032 A 
ATOM     16  C10 ZIN A   1      18.826   0.124   7.977  0.00  0.00     0.045 A 
ATOM     17  C49 ZIN A   1      18.021  -0.107   9.085  0.00  0.00     0.032 A 
ATOM     18  C48 ZIN A   1      17.845   0.886  10.029  0.00  0.00     0.026 A 
BRANCH  16  19
ATOM     19  N9  ZIN A   1      19.009  -0.887   7.020  0.00  0.00    -0.256 N 
ATOM     20  C8  ZIN A   1      19.254  -0.693   5.681  0.00  0.00     0.242 A 
ATOM     21  N7  ZIN A   1      19.368  -1.847   5.107  0.00  0.00    -0.163 NA
ATOM     22  N6  ZIN A   1      19.197  -2.839   6.083  0.00  0.00    -0.214 N 
ATOM     23  C50 ZIN A   1      18.970  -2.213   7.257  0.00  0.00     0.351 A 
ATOM     24  O51 ZIN A   1      18.774  -2.748   8.334  0.00  0.00    -0.244 OA
BRANCH  22  25
ATOM     25  C3  ZIN A   1      19.248  -4.287   5.867  0.00  0.00     0.111 C 
ATOM     26  C5  ZIN A   1      20.068  -4.940   6.981  0.00  0.00     0.034 C 
BRANCH  25  27
ATOM     27  C2  ZIN A   1      17.827  -4.854   5.879  0.00  0.00     0.022 C 
ATOM     28  C1  ZIN A   1      17.209  -4.710   4.486  0.00  0.00     0.007 C 
ENDBRANCH  25  27
ENDBRANCH  22  25
ENDBRANCH  16  19
ENDBRANCH  10  13
ENDBRANCH   1   7
BRANCH   4  29
ATOM     29  O22 ZIN A   1      16.053   8.713  16.387  0.00  0.00    -0.349 OA
BRANCH  29  30
ATOM     30  C23 ZIN A   1      15.841   8.296  17.738  0.00  0.00     0.209 C 
BRANCH  30  31
ATOM     31  C24 ZIN A   1      16.827   7.179  18.087  0.00  0.00     0.173 C 
ATOM     32  O43 ZIN A   1      16.143   5.914  18.200  0.00  0.00    -0.340 OA
ATOM     33  C28 ZIN A   1      16.714   5.223  19.323  0.00  0.00     0.213 C 
ATOM     34  O27 ZIN A   1      17.754   6.037  19.888  0.00  0.00    -0.347 OA
ATOM     35  C26 ZIN A   1      17.415   7.391  19.505  0.00  0.00     0.206 C 
BRANCH  33  36
ATOM     36  C29 ZIN A   1      15.633   4.964  20.375  0.00  0.00     0.226 C 
BRANCH  36  37
ATOM     37  N30 ZIN A   1      14.515   5.887  20.162  0.00  0.00    -0.257 N 
ATOM     38  N34 ZIN A   1      13.543   5.814  19.152  0.00  0.00    -0.165 NA
ATOM     39  C33 ZIN A   1      12.737   6.827  19.329  0.00  0.00     0.256 A 
ATOM     40  N32 ZIN A   1      13.151   7.531  20.382  0.00  0.00    -0.234 NA
ATOM     41  C31 ZIN A   1      14.221   6.976  20.893  0.00  0.00     0.230 A 
ENDBRANCH  36  37
ENDBRANCH  33  36
BRANCH  33  42
ATOM     42  C35 ZIN A   1      17.293   3.910  18.859  0.00  0.00     0.027 A 
ATOM     43  C41 ZIN A   1      18.269   3.894  17.878  0.00  0.00     0.047 A 
ATOM     44  C40 ZIN A   1      18.805   2.690  17.457  0.00  0.00     0.048 A 
ATOM     45 Cl42 ZIN A   1      18.830   5.384  17.185  0.00  0.00    -0.084 Cl
ATOM     46  C38 ZIN A   1      18.357   1.503  18.008  0.00  0.00     0.035 A 
ATOM     47  C37 ZIN A   1      17.377   1.521  18.985  0.00  0.00     0.024 A 
ATOM     48 Cl39 ZIN A   1      19.023  -0.009  17.476  0.00  0.00    -0.084 Cl
ATOM     49  C36 ZIN A   1      16.846   2.725  19.410  0.00  0.00     0.016 A 
ENDBRANCH  33  42
ENDBRANCH  30  31
ENDBRANCH  29  30
ENDBRANCH   4  29
TORSDOF 11
ENDMDL
