MODEL 1
REMARK VINA RESULT:      -7.9      0.000      0.000
REMARK  3 active torsions:
REMARK  status: ('A' for Active; 'I' for Inactive)
REMARK    1  A    between atoms: C8_8  and  O9_9 
REMARK    2  A    between atoms: C10_10  and  C12_11 
REMARK    3  A    between atoms: C15_14  and  O16_15 
ROOT
ATOM      1  O1  <0> d   1      17.011   5.620  12.421  0.00  0.00    -0.187 OA
ATOM      2  C2  <0> d   1      17.559   4.474  11.933  0.00  0.00     0.162 A 
ATOM      3  C3  <0> d   1      17.914   3.451  12.796  0.00  0.00     0.080 A 
ATOM      4 Cl4  <0> d   1      17.649   3.630  14.502  0.00  0.00    -0.081 Cl
ATOM      5  C5  <0> d   1      18.479   2.281  12.304  0.00  0.00    -0.025 A 
ATOM      6  C6  <0> d   1      18.702   2.140  10.954  0.00  0.00    -0.037 A 
ATOM      7  C7  <0> d   1      18.333   3.158  10.084  0.00  0.00     0.048 A 
ATOM      8  C8  <0> d   1      17.759   4.321  10.565  0.00  0.00     0.104 A 
ATOM      9  C10 <0> d   1      19.373   0.924  10.363  0.00  0.00     0.078 C 
ATOM     10  C19 <0> d   1      19.107  -0.317  11.215  0.00  0.00     0.246 C 
ATOM     11  N20 <0> d   1      20.199  -0.465  12.183  0.00  0.00    -0.074 N 
ATOM     12  H21 <0> d   1      20.049  -1.301  12.730  0.00  0.00     0.277 HD
ATOM     13  H22 <0> d   1      21.076  -0.541  11.690  0.00  0.00     0.277 HD
ATOM     14  C23 <0> d   1      20.247   0.694  13.075  0.00  0.00     0.237 C 
ATOM     15  C24 <0> d   1      18.814   1.191  13.289  0.00  0.00     0.068 C 
ENDROOT
BRANCH   9  16
ATOM     16  C12 <0> d   1      18.839   0.692   8.973  0.00  0.00    -0.048 A 
ATOM     17  C18 <0> d   1      17.698  -0.066   8.789  0.00  0.00     0.011 A 
ATOM     18  C17 <0> d   1      17.203  -0.276   7.516  0.00  0.00     0.037 A 
ATOM     19  C15 <0> d   1      17.859   0.268   6.420  0.00  0.00     0.065 A 
ATOM     20  C14 <0> d   1      19.007   1.025   6.608  0.00  0.00     0.037 A 
ATOM     21  C13 <0> d   1      19.494   1.236   7.882  0.00  0.00     0.011 A 
BRANCH  19  22
ATOM     22  O16 <0> d   1      17.378   0.059   5.166  0.00  0.00    -0.361 OA
ATOM     23  H29 <0> d   1      17.654   0.726   4.523  0.00  0.00     0.217 HD
ENDBRANCH  19  22
ENDBRANCH   9  16
BRANCH   8  24
ATOM     24  O9  <0> d   1      17.403   5.313   9.706  0.00  0.00    -0.358 OA
ATOM     25  H26 <0> d   1      18.063   5.498   9.025  0.00  0.00     0.217 HD
ENDBRANCH   8  24
TORSDOF 3
ENDMDL
MODEL 2
REMARK VINA RESULT:      -7.6      3.403      4.849
REMARK  3 active torsions:
REMARK  status: ('A' for Active; 'I' for Inactive)
REMARK    1  A    between atoms: C8_8  and  O9_9 
REMARK    2  A    between atoms: C10_10  and  C12_11 
REMARK    3  A    between atoms: C15_14  and  O16_15 
ROOT
ATOM      1  O1  <0> d   1      19.130   2.063   7.962  0.00  0.00    -0.187 OA
ATOM      2  C2  <0> d   1      19.190   1.095   8.916  0.00  0.00     0.162 A 
ATOM      3  C3  <0> d   1      19.175   1.439  10.258  0.00  0.00     0.080 A 
ATOM      4 Cl4  <0> d   1      19.068   3.109  10.719  0.00  0.00    -0.081 Cl
ATOM      5  C5  <0> d   1      19.242   0.455  11.236  0.00  0.00    -0.025 A 
ATOM      6  C6  <0> d   1      19.339  -0.869  10.875  0.00  0.00    -0.037 A 
ATOM      7  C7  <0> d   1      19.339  -1.219   9.531  0.00  0.00     0.048 A 
ATOM      8  C8  <0> d   1      19.261  -0.245   8.551  0.00  0.00     0.104 A 
ATOM      9  C10 <0> d   1      19.482  -1.980  11.886  0.00  0.00     0.078 C 
ATOM     10  C19 <0> d   1      18.810  -1.609  13.208  0.00  0.00     0.246 C 
ATOM     11  N20 <0> d   1      19.807  -0.987  14.085  0.00  0.00    -0.074 N 
ATOM     12  H21 <0> d   1      19.380  -0.767  14.973  0.00  0.00     0.277 HD
ATOM     13  H22 <0> d   1      20.571  -1.629  14.231  0.00  0.00     0.277 HD
ATOM     14  C23 <0> d   1      20.322   0.242  13.478  0.00  0.00     0.237 C 
ATOM     15  C24 <0> d   1      19.188   0.889  12.678  0.00  0.00     0.068 C 
ENDROOT
BRANCH   9  16
ATOM     16  C12 <0> d   1      18.842  -3.230  11.340  0.00  0.00    -0.048 A 
ATOM     17  C18 <0> d   1      17.480  -3.424  11.474  0.00  0.00     0.011 A 
ATOM     18  C17 <0> d   1      16.890  -4.567  10.970  0.00  0.00     0.037 A 
ATOM     19  C15 <0> d   1      17.668  -5.526  10.338  0.00  0.00     0.065 A 
ATOM     20  C14 <0> d   1      19.035  -5.331  10.209  0.00  0.00     0.037 A 
ATOM     21  C13 <0> d   1      19.620  -4.185  10.710  0.00  0.00     0.011 A 
BRANCH  19  22
ATOM     22  O16 <0> d   1      17.091  -6.654   9.845  0.00  0.00    -0.361 OA
ATOM     23  H29 <0> d   1      16.719  -7.233  10.524  0.00  0.00     0.217 HD
ENDBRANCH  19  22
ENDBRANCH   9  16
BRANCH   8  24
ATOM     24  O9  <0> d   1      19.265  -0.597   7.237  0.00  0.00    -0.358 OA
ATOM     25  H26 <0> d   1      20.104  -0.966   6.932  0.00  0.00     0.217 HD
ENDBRANCH   8  24
TORSDOF 3
ENDMDL
MODEL 3
REMARK VINA RESULT:      -7.6      2.934      3.749
REMARK  3 active torsions:
REMARK  status: ('A' for Active; 'I' for Inactive)
REMARK    1  A    between atoms: C8_8  and  O9_9 
REMARK    2  A    between atoms: C10_10  and  C12_11 
REMARK    3  A    between atoms: C15_14  and  O16_15 
ROOT
ATOM      1  O1  <0> d   1      18.184   1.382  16.051  0.00  0.00    -0.187 OA
ATOM      2  C2  <0> d   1      18.083   1.608  14.714  0.00  0.00     0.162 A 
ATOM      3  C3  <0> d   1      18.159   2.899  14.218  0.00  0.00     0.080 A 
ATOM      4 Cl4  <0> d   1      18.393   4.229  15.309  0.00  0.00    -0.081 Cl
ATOM      5  C5  <0> d   1      18.050   3.135  12.854  0.00  0.00    -0.025 A 
ATOM      6  C6  <0> d   1      17.852   2.085  11.988  0.00  0.00    -0.037 A 
ATOM      7  C7  <0> d   1      17.791   0.787  12.479  0.00  0.00     0.048 A 
ATOM      8  C8  <0> d   1      17.910   0.543  13.835  0.00  0.00     0.104 A 
ATOM      9  C10 <0> d   1      17.660   2.280  10.503  0.00  0.00     0.078 C 
ATOM     10  C19 <0> d   1      18.392   3.529  10.015  0.00  0.00     0.246 C 
ATOM     11  N20 <0> d   1      17.464   4.665  10.055  0.00  0.00    -0.074 N 
ATOM     12  H21 <0> d   1      17.929   5.489   9.704  0.00  0.00     0.277 HD
ATOM     13  H22 <0> d   1      16.661   4.462   9.478  0.00  0.00     0.277 HD
ATOM     14  C23 <0> d   1      17.019   4.908  11.428  0.00  0.00     0.237 C 
ATOM     15  C24 <0> d   1      18.173   4.557  12.371  0.00  0.00     0.068 C 
ENDROOT
BRANCH   9  16
ATOM     16  C12 <0> d   1      18.197   1.076   9.773  0.00  0.00    -0.048 A 
ATOM     17  C18 <0> d   1      17.345   0.286   9.024  0.00  0.00     0.011 A 
ATOM     18  C17 <0> d   1      17.836  -0.815   8.349  0.00  0.00     0.037 A 
ATOM     19  C15 <0> d   1      19.184  -1.135   8.434  0.00  0.00     0.065 A 
ATOM     20  C14 <0> d   1      20.035  -0.343   9.191  0.00  0.00     0.037 A 
ATOM     21  C13 <0> d   1      19.541   0.759   9.859  0.00  0.00     0.011 A 
BRANCH  19  22
ATOM     22  O16 <0> d   1      19.668  -2.221   7.775  0.00  0.00    -0.361 OA
ATOM     23  H29 <0> d   1      20.449  -2.037   7.235  0.00  0.00     0.217 HD
ENDBRANCH  19  22
ENDBRANCH   9  16
BRANCH   8  24
ATOM     24  O9  <0> d   1      17.846  -0.730  14.308  0.00  0.00    -0.358 OA
ATOM     25  H26 <0> d   1      18.111  -0.819  15.234  0.00  0.00     0.217 HD
ENDBRANCH   8  24
TORSDOF 3
ENDMDL
MODEL 4
REMARK VINA RESULT:      -7.5      3.303      6.193
REMARK  3 active torsions:
REMARK  status: ('A' for Active; 'I' for Inactive)
REMARK    1  A    between atoms: C8_8  and  O9_9 
REMARK    2  A    between atoms: C10_10  and  C12_11 
REMARK    3  A    between atoms: C15_14  and  O16_15 
ROOT
ATOM      1  O1  <0> d   1      19.761  -1.347   4.746  0.00  0.00    -0.187 OA
ATOM      2  C2  <0> d   1      19.352  -1.231   6.038  0.00  0.00     0.162 A 
ATOM      3  C3  <0> d   1      19.273  -2.353   6.846  0.00  0.00     0.080 A 
ATOM      4 Cl4  <0> d   1      19.708  -3.908   6.209  0.00  0.00    -0.081 Cl
ATOM      5  C5  <0> d   1      18.849  -2.241   8.165  0.00  0.00    -0.025 A 
ATOM      6  C6  <0> d   1      18.492  -1.012   8.670  0.00  0.00    -0.037 A 
ATOM      7  C7  <0> d   1      18.585   0.118   7.867  0.00  0.00     0.048 A 
ATOM      8  C8  <0> d   1      19.016   0.015   6.557  0.00  0.00     0.104 A 
ATOM      9  C10 <0> d   1      17.962  -0.832  10.071  0.00  0.00     0.078 C 
ATOM     10  C19 <0> d   1      18.524  -1.897  11.012  0.00  0.00     0.246 C 
ATOM     11  N20 <0> d   1      17.596  -3.031  11.049  0.00  0.00    -0.074 N 
ATOM     12  H21 <0> d   1      17.943  -3.727  11.693  0.00  0.00     0.277 HD
ATOM     13  H22 <0> d   1      16.689  -2.712  11.358  0.00  0.00     0.277 HD
ATOM     14  C23 <0> d   1      17.467  -3.626   9.717  0.00  0.00     0.237 C 
ATOM     15  C24 <0> d   1      18.816  -3.491   9.004  0.00  0.00     0.068 C 
ENDROOT
BRANCH   9  16
ATOM     16  C12 <0> d   1      18.355   0.532  10.577  0.00  0.00    -0.048 A 
ATOM     17  C18 <0> d   1      19.589   0.718  11.172  0.00  0.00     0.011 A 
ATOM     18  C17 <0> d   1      19.955   1.969  11.632  0.00  0.00     0.037 A 
ATOM     19  C15 <0> d   1      19.077   3.037  11.505  0.00  0.00     0.065 A 
ATOM     20  C14 <0> d   1      17.838   2.846  10.911  0.00  0.00     0.037 A 
ATOM     21  C13 <0> d   1      17.479   1.595  10.449  0.00  0.00     0.011 A 
BRANCH  19  22
ATOM     22  O16 <0> d   1      19.433   4.267  11.961  0.00  0.00    -0.361 OA
ATOM     23  H29 <0> d   1      18.739   4.714  12.465  0.00  0.00     0.217 HD
ENDBRANCH  19  22
ENDBRANCH   9  16
BRANCH   8  24
ATOM     24  O9  <0> d   1      19.101   1.126   5.777  0.00  0.00    -0.358 OA
ATOM     25  H26 <0> d   1      19.936   1.205   5.296  0.00  0.00     0.217 HD
ENDBRANCH   8  24
TORSDOF 3
ENDMDL
MODEL 5
REMARK VINA RESULT:      -7.5      4.824      7.250
REMARK  3 active torsions:
REMARK  status: ('A' for Active; 'I' for Inactive)
REMARK    1  A    between atoms: C8_8  and  O9_9 
REMARK    2  A    between atoms: C10_10  and  C12_11 
REMARK    3  A    between atoms: C15_14  and  O16_15 
ROOT
ATOM      1  O1  <0> d   1      18.764  -0.213  18.757  0.00  0.00    -0.187 OA
ATOM      2  C2  <0> d   1      18.774   0.532  17.619  0.00  0.00     0.162 A 
ATOM      3  C3  <0> d   1      18.338  -0.015  16.425  0.00  0.00     0.080 A 
ATOM      4 Cl4  <0> d   1      17.769  -1.655  16.384  0.00  0.00    -0.081 Cl
ATOM      5  C5  <0> d   1      18.352   0.740  15.259  0.00  0.00    -0.025 A 
ATOM      6  C6  <0> d   1      18.815   2.036  15.285  0.00  0.00    -0.037 A 
ATOM      7  C7  <0> d   1      19.238   2.594  16.484  0.00  0.00     0.048 A 
ATOM      8  C8  <0> d   1      19.216   1.851  17.651  0.00  0.00     0.104 A 
ATOM      9  C10 <0> d   1      18.918   2.887  14.043  0.00  0.00     0.078 C 
ATOM     10  C19 <0> d   1      17.862   2.486  13.013  0.00  0.00     0.246 C 
ATOM     11  N20 <0> d   1      18.444   1.491  12.106  0.00  0.00    -0.074 N 
ATOM     12  H21 <0> d   1      17.764   1.243  11.402  0.00  0.00     0.277 HD
ATOM     13  H22 <0> d   1      19.260   1.882  11.659  0.00  0.00     0.277 HD
ATOM     14  C23 <0> d   1      18.831   0.291  12.849  0.00  0.00     0.237 C 
ATOM     15  C24 <0> d   1      17.834   0.101  13.997  0.00  0.00     0.068 C 
ENDROOT
BRANCH   9  16
ATOM     16  C12 <0> d   1      18.718   4.334  14.418  0.00  0.00    -0.048 A 
ATOM     17  C18 <0> d   1      17.452   4.800  14.717  0.00  0.00     0.011 A 
ATOM     18  C17 <0> d   1      17.267   6.125  15.066  0.00  0.00     0.037 A 
ATOM     19  C15 <0> d   1      18.352   6.988  15.105  0.00  0.00     0.065 A 
ATOM     20  C14 <0> d   1      19.621   6.518  14.799  0.00  0.00     0.037 A 
ATOM     21  C13 <0> d   1      19.802   5.193  14.456  0.00  0.00     0.011 A 
BRANCH  19  22
ATOM     22  O16 <0> d   1      18.172   8.293  15.443  0.00  0.00    -0.361 OA
ATOM     23  H29 <0> d   1      18.665   8.913  14.889  0.00  0.00     0.217 HD
ENDBRANCH  19  22
ENDBRANCH   9  16
BRANCH   8  24
ATOM     24  O9  <0> d   1      19.635   2.404  18.820  0.00  0.00    -0.358 OA
ATOM     25  H26 <0> d   1      19.099   2.156  19.586  0.00  0.00     0.217 HD
ENDBRANCH   8  24
TORSDOF 3
ENDMDL
MODEL 6
REMARK VINA RESULT:      -7.5      3.240      4.336
REMARK  3 active torsions:
REMARK  status: ('A' for Active; 'I' for Inactive)
REMARK    1  A    between atoms: C8_8  and  O9_9 
REMARK    2  A    between atoms: C10_10  and  C12_11 
REMARK    3  A    between atoms: C15_14  and  O16_15 
ROOT
ATOM      1  O1  <0> d   1      19.675  -2.714  12.700  0.00  0.00    -0.187 OA
ATOM      2  C2  <0> d   1      19.288  -1.740  11.834  0.00  0.00     0.162 A 
ATOM      3  C3  <0> d   1      19.457  -0.406  12.166  0.00  0.00     0.080 A 
ATOM      4 Cl4  <0> d   1      20.175   0.019  13.689  0.00  0.00    -0.081 Cl
ATOM      5  C5  <0> d   1      19.058   0.593  11.288  0.00  0.00    -0.025 A 
ATOM      6  C6  <0> d   1      18.477   0.260  10.086  0.00  0.00    -0.037 A 
ATOM      7  C7  <0> d   1      18.320  -1.076   9.742  0.00  0.00     0.048 A 
ATOM      8  C8  <0> d   1      18.725  -2.077  10.607  0.00  0.00     0.104 A 
ATOM      9  C10 <0> d   1      17.962   1.296   9.117  0.00  0.00     0.078 C 
ATOM     10  C19 <0> d   1      18.752   2.599   9.235  0.00  0.00     0.246 C 
ATOM     11  N20 <0> d   1      18.070   3.480  10.189  0.00  0.00    -0.074 N 
ATOM     12  H21 <0> d   1      18.567   4.356  10.250  0.00  0.00     0.277 HD
ATOM     13  H22 <0> d   1      17.128   3.651   9.871  0.00  0.00     0.277 HD
ATOM     14  C23 <0> d   1      18.025   2.856  11.513  0.00  0.00     0.237 C 
ATOM     15  C24 <0> d   1      19.299   2.025  11.691  0.00  0.00     0.068 C 
ENDROOT
BRANCH   9  16
ATOM     16  C12 <0> d   1      18.090   0.766   7.712  0.00  0.00    -0.048 A 
ATOM     17  C18 <0> d   1      19.187   1.106   6.943  0.00  0.00     0.011 A 
ATOM     18  C17 <0> d   1      19.310   0.617   5.657  0.00  0.00     0.037 A 
ATOM     19  C15 <0> d   1      18.325  -0.208   5.133  0.00  0.00     0.065 A 
ATOM     20  C14 <0> d   1      17.223  -0.544   5.906  0.00  0.00     0.037 A 
ATOM     21  C13 <0> d   1      17.107  -0.057   7.193  0.00  0.00     0.011 A 
BRANCH  19  22
ATOM     22  O16 <0> d   1      18.440  -0.687   3.866  0.00  0.00    -0.361 OA
ATOM     23  H29 <0> d   1      18.954  -0.117   3.277  0.00  0.00     0.217 HD
ENDBRANCH  19  22
ENDBRANCH   9  16
BRANCH   8  24
ATOM     24  O9  <0> d   1      18.565  -3.383  10.264  0.00  0.00    -0.358 OA
ATOM     25  H26 <0> d   1      17.659  -3.706  10.361  0.00  0.00     0.217 HD
ENDBRANCH   8  24
TORSDOF 3
ENDMDL
MODEL 7
REMARK VINA RESULT:      -7.2      4.095      6.928
REMARK  3 active torsions:
REMARK  status: ('A' for Active; 'I' for Inactive)
REMARK    1  A    between atoms: C8_8  and  O9_9 
REMARK    2  A    between atoms: C10_10  and  C12_11 
REMARK    3  A    between atoms: C15_14  and  O16_15 
ROOT
ATOM      1  O1  <0> d   1      19.655  -1.833   6.125  0.00  0.00    -0.187 OA
ATOM      2  C2  <0> d   1      19.149  -2.039   7.370  0.00  0.00     0.162 A 
ATOM      3  C3  <0> d   1      18.826  -3.319   7.788  0.00  0.00     0.080 A 
ATOM      4 Cl4  <0> d   1      19.078  -4.664   6.719  0.00  0.00    -0.081 Cl
ATOM      5  C5  <0> d   1      18.303  -3.534   9.057  0.00  0.00    -0.025 A 
ATOM      6  C6  <0> d   1      18.090  -2.470   9.902  0.00  0.00    -0.037 A 
ATOM      7  C7  <0> d   1      18.427  -1.186   9.493  0.00  0.00     0.048 A 
ATOM      8  C8  <0> d   1      18.958  -0.966   8.235  0.00  0.00     0.104 A 
ATOM      9  C10 <0> d   1      17.464  -2.627  11.266  0.00  0.00     0.078 C 
ATOM     10  C19 <0> d   1      17.769  -4.004  11.854  0.00  0.00     0.246 C 
ATOM     11  N20 <0> d   1      16.680  -4.920  11.498  0.00  0.00    -0.074 N 
ATOM     12  H21 <0> d   1      16.856  -5.825  11.909  0.00  0.00     0.277 HD
ATOM     13  H22 <0> d   1      15.807  -4.556  11.852  0.00  0.00     0.277 HD
ATOM     14  C23 <0> d   1      16.588  -5.059  10.044  0.00  0.00     0.237 C 
ATOM     15  C24 <0> d   1      18.002  -4.953   9.466  0.00  0.00     0.068 C 
ENDROOT
BRANCH   9  16
ATOM     16  C12 <0> d   1      18.011  -1.565  12.185  0.00  0.00    -0.048 A 
ATOM     17  C18 <0> d   1      19.213  -1.767  12.835  0.00  0.00     0.011 A 
ATOM     18  C17 <0> d   1      19.719  -0.793  13.675  0.00  0.00     0.037 A 
ATOM     19  C15 <0> d   1      19.013   0.385  13.873  0.00  0.00     0.065 A 
ATOM     20  C14 <0> d   1      17.804   0.583  13.223  0.00  0.00     0.037 A 
ATOM     21  C13 <0> d   1      17.305  -0.391  12.381  0.00  0.00     0.011 A 
BRANCH  19  22
ATOM     22  O16 <0> d   1      19.506   1.343  14.702  0.00  0.00    -0.361 OA
ATOM     23  H29 <0> d   1      20.273   1.813  14.347  0.00  0.00     0.217 HD
ENDBRANCH  19  22
ENDBRANCH   9  16
BRANCH   8  24
ATOM     24  O9  <0> d   1      19.283   0.295   7.841  0.00  0.00    -0.358 OA
ATOM     25  H26 <0> d   1      19.662   0.840   8.544  0.00  0.00     0.217 HD
ENDBRANCH   8  24
TORSDOF 3
ENDMDL
MODEL 8
REMARK VINA RESULT:      -7.2      3.017      3.937
REMARK  3 active torsions:
REMARK  status: ('A' for Active; 'I' for Inactive)
REMARK    1  A    between atoms: C8_8  and  O9_9 
REMARK    2  A    between atoms: C10_10  and  C12_11 
REMARK    3  A    between atoms: C15_14  and  O16_15 
ROOT
ATOM      1  O1  <0> d   1      19.084  -0.971  15.605  0.00  0.00    -0.187 OA
ATOM      2  C2  <0> d   1      18.788  -0.155  14.558  0.00  0.00     0.162 A 
ATOM      3  C3  <0> d   1      18.826   1.220  14.715  0.00  0.00     0.080 A 
ATOM      4 Cl4  <0> d   1      19.261   1.901  16.252  0.00  0.00    -0.081 Cl
ATOM      5  C5  <0> d   1      18.518   2.058  13.651  0.00  0.00    -0.025 A 
ATOM      6  C6  <0> d   1      18.160   1.523  12.435  0.00  0.00    -0.037 A 
ATOM      7  C7  <0> d   1      18.137   0.144  12.269  0.00  0.00     0.048 A 
ATOM      8  C8  <0> d   1      18.453  -0.697  13.321  0.00  0.00     0.104 A 
ATOM      9  C10 <0> d   1      17.752   2.376  11.260  0.00  0.00     0.078 C 
ATOM     10  C19 <0> d   1      18.438   3.741  11.307  0.00  0.00     0.246 C 
ATOM     11  N20 <0> d   1      17.560   4.684  12.008  0.00  0.00    -0.074 N 
ATOM     12  H21 <0> d   1      17.990   5.598  12.016  0.00  0.00     0.277 HD
ATOM     13  H22 <0> d   1      16.674   4.737  11.528  0.00  0.00     0.277 HD
ATOM     14  C23 <0> d   1      17.336   4.242  13.385  0.00  0.00     0.237 C 
ATOM     15  C24 <0> d   1      18.609   3.546  13.874  0.00  0.00     0.068 C 
ENDROOT
BRANCH   9  16
ATOM     16  C12 <0> d   1      18.137   1.674   9.982  0.00  0.00    -0.048 A 
ATOM     17  C18 <0> d   1      17.378   0.615   9.521  0.00  0.00     0.011 A 
ATOM     18  C17 <0> d   1      17.725  -0.027   8.348  0.00  0.00     0.037 A 
ATOM     19  C15 <0> d   1      18.844   0.386   7.638  0.00  0.00     0.065 A 
ATOM     20  C14 <0> d   1      19.606   1.446   8.106  0.00  0.00     0.037 A 
ATOM     21  C13 <0> d   1      19.252   2.088   9.276  0.00  0.00     0.011 A 
BRANCH  19  22
ATOM     22  O16 <0> d   1      19.191  -0.247   6.486  0.00  0.00    -0.361 OA
ATOM     23  H29 <0> d   1      19.122  -1.210   6.531  0.00  0.00     0.217 HD
ENDBRANCH  19  22
ENDBRANCH   9  16
BRANCH   8  24
ATOM     24  O9  <0> d   1      18.424  -2.045  13.150  0.00  0.00    -0.358 OA
ATOM     25  H26 <0> d   1      17.969  -2.330  12.347  0.00  0.00     0.217 HD
ENDBRANCH   8  24
TORSDOF 3
ENDMDL
MODEL 9
REMARK VINA RESULT:      -7.2      2.906      4.074
REMARK  3 active torsions:
REMARK  status: ('A' for Active; 'I' for Inactive)
REMARK    1  A    between atoms: C8_8  and  O9_9 
REMARK    2  A    between atoms: C10_10  and  C12_11 
REMARK    3  A    between atoms: C15_14  and  O16_15 
ROOT
ATOM      1  O1  <0> d   1      18.757   3.927  10.929  0.00  0.00    -0.187 OA
ATOM      2  C2  <0> d   1      18.840   2.729  11.566  0.00  0.00     0.162 A 
ATOM      3  C3  <0> d   1      18.478   2.623  12.899  0.00  0.00     0.080 A 
ATOM      4 Cl4  <0> d   1      17.910   4.024  13.752  0.00  0.00    -0.081 Cl
ATOM      5  C5  <0> d   1      18.567   1.402  13.556  0.00  0.00    -0.025 A 
ATOM      6  C6  <0> d   1      19.028   0.293  12.887  0.00  0.00    -0.037 A 
ATOM      7  C7  <0> d   1      19.376   0.391  11.546  0.00  0.00     0.048 A 
ATOM      8  C8  <0> d   1      19.281   1.601  10.882  0.00  0.00     0.104 A 
ATOM      9  C10 <0> d   1      19.210  -1.046  13.560  0.00  0.00     0.078 C 
ATOM     10  C19 <0> d   1      18.220  -1.220  14.711  0.00  0.00     0.246 C 
ATOM     11  N20 <0> d   1      18.856  -0.764  15.952  0.00  0.00    -0.074 N 
ATOM     12  H21 <0> d   1      18.221  -0.905  16.724  0.00  0.00     0.277 HD
ATOM     13  H22 <0> d   1      19.699  -1.295  16.111  0.00  0.00     0.277 HD
ATOM     14  C23 <0> d   1      19.194   0.657  15.857  0.00  0.00     0.237 C 
ATOM     15  C24 <0> d   1      18.128   1.343  14.997  0.00  0.00     0.068 C 
ENDROOT
BRANCH   9  16
ATOM     16  C12 <0> d   1      18.989  -2.141  12.549  0.00  0.00    -0.048 A 
ATOM     17  C18 <0> d   1      17.726  -2.362  12.035  0.00  0.00     0.011 A 
ATOM     18  C17 <0> d   1      17.521  -3.362  11.103  0.00  0.00     0.037 A 
ATOM     19  C15 <0> d   1      18.585  -4.152  10.692  0.00  0.00     0.065 A 
ATOM     20  C14 <0> d   1      19.852  -3.932  11.214  0.00  0.00     0.037 A 
ATOM     21  C13 <0> d   1      20.052  -2.928  12.140  0.00  0.00     0.011 A 
BRANCH  19  22
ATOM     22  O16 <0> d   1      18.386  -5.141   9.780  0.00  0.00    -0.361 OA
ATOM     23  H29 <0> d   1      17.702  -4.940   9.127  0.00  0.00     0.217 HD
ENDBRANCH  19  22
ENDBRANCH   9  16
BRANCH   8  24
ATOM     24  O9  <0> d   1      19.627   1.689   9.570  0.00  0.00    -0.358 OA
ATOM     25  H26 <0> d   1      18.885   1.581   8.960  0.00  0.00     0.217 HD
ENDBRANCH   8  24
TORSDOF 3
ENDMDL
