MODEL 1
REMARK VINA RESULT:      -6.7      0.000      0.000
REMARK  5 active torsions:
REMARK  status: ('A' for Active; 'I' for Inactive)
REMARK    1  A    between atoms: C2_2  and  O4_3 
REMARK    2  A    between atoms: C2_2  and  C5_4 
REMARK    3  A    between atoms: C5_4  and  O7_5 
REMARK    4  A    between atoms: C5_4  and  C8_6 
REMARK    5  A    between atoms: C18_15  and  N19_16 
ROOT
ATOM      1  C8  <0> d   1      18.085  -1.335   7.368  0.00  0.00     0.131 C 
ATOM      2  C10 <0> d   1      18.185  -2.475   8.392  0.00  0.00     0.149 C 
ATOM      3  N11 <0> d   1      19.367  -2.239   9.232  0.00  0.00    -0.370 N 
ATOM      4  C12 <0> d   1      19.590  -0.968   9.739  0.00  0.00     0.175 A 
ATOM      5  C13 <0> d   1      18.937   0.122   9.183  0.00  0.00     0.144 A 
ATOM      6  N14 <0> d   1      18.041  -0.061   8.105  0.00  0.00    -0.373 N 
ATOM      7  C15 <0> d   1      19.177   1.398   9.704  0.00  0.00     0.290 A 
ATOM      8  O16 <0> d   1      18.617   2.378   9.238  0.00  0.00    -0.265 OA
ATOM      9  N17 <0> d   1      20.041   1.521  10.736  0.00  0.00    -0.153 N 
ATOM     10  C18 <0> d   1      20.655   0.420  11.247  0.00  0.00     0.703 A 
ATOM     11  N20 <0> d   1      20.434  -0.783  10.761  0.00  0.00    -0.045 NA
ATOM     12  H28 <0> d   1      19.982  -2.963   9.431  0.00  0.00     0.161 HD
ATOM     13  H29 <0> d   1      17.413   0.635   7.857  0.00  0.00     0.160 HD
ATOM     14  H30 <0> d   1      20.223   2.396  11.113  0.00  0.00     0.187 HD
ENDROOT
BRANCH   1  15
ATOM     15  C5  <0> d   1      19.307  -1.358   6.447  0.00  0.00     0.170 C 
BRANCH  15  16
ATOM     16  C2  <0> d   1      18.888  -0.947   5.034  0.00  0.00     0.145 C 
ATOM     17  C1  <0> d   1      17.413  -1.294   4.819  0.00  0.00     0.042 C 
BRANCH  16  18
ATOM     18  O4  <0> d   1      19.686  -1.647   4.077  0.00  0.00    -0.393 OA
ATOM     19  H24 <0> d   1      20.609  -1.362   4.051  0.00  0.00     0.210 HD
ENDBRANCH  16  18
ENDBRANCH  15  16
BRANCH  15  20
ATOM     20  O7  <0> d   1      19.856  -2.676   6.417  0.00  0.00    -0.391 OA
ATOM     21  H25 <0> d   1      19.436  -3.262   5.772  0.00  0.00     0.210 HD
ENDBRANCH  15  20
ENDBRANCH   1  15
BRANCH  10  22
ATOM     22  N19 <0> d   1      21.528   0.567  12.297  0.00  0.00    -0.233 N 
ATOM     23  H31 <0> d   1      21.957   1.423  12.453  0.00  0.00     0.174 HD
ATOM     24  H32 <0> d   1      21.716  -0.184  12.880  0.00  0.00     0.174 HD
ENDBRANCH  10  22
TORSDOF 5
ENDMDL
MODEL 2
REMARK VINA RESULT:      -6.4      5.018      8.173
REMARK  5 active torsions:
REMARK  status: ('A' for Active; 'I' for Inactive)
REMARK    1  A    between atoms: C2_2  and  O4_3 
REMARK    2  A    between atoms: C2_2  and  C5_4 
REMARK    3  A    between atoms: C5_4  and  O7_5 
REMARK    4  A    between atoms: C5_4  and  C8_6 
REMARK    5  A    between atoms: C18_15  and  N19_16 
ROOT
ATOM      1  C8  <0> d   1      18.139   1.957  15.395  0.00  0.00     0.131 C 
ATOM      2  C10 <0> d   1      18.375   3.022  14.313  0.00  0.00     0.149 C 
ATOM      3  N11 <0> d   1      19.538   2.618  13.512  0.00  0.00    -0.370 N 
ATOM      4  C12 <0> d   1      19.633   1.305  13.078  0.00  0.00     0.175 A 
ATOM      5  C13 <0> d   1      18.860   0.321  13.677  0.00  0.00     0.144 A 
ATOM      6  N14 <0> d   1      17.972   0.656  14.725  0.00  0.00    -0.373 N 
ATOM      7  C15 <0> d   1      18.971  -0.999  13.230  0.00  0.00     0.290 A 
ATOM      8  O16 <0> d   1      18.304  -1.889  13.736  0.00  0.00    -0.265 OA
ATOM      9  N17 <0> d   1      19.832  -1.269  12.224  0.00  0.00    -0.153 N 
ATOM     10  C18 <0> d   1      20.568  -0.268  11.668  0.00  0.00     0.703 A 
ATOM     11  N20 <0> d   1      20.468   0.977  12.085  0.00  0.00    -0.045 NA
ATOM     12  H28 <0> d   1      20.229   3.261  13.288  0.00  0.00     0.161 HD
ATOM     13  H29 <0> d   1      17.270   0.045  14.996  0.00  0.00     0.160 HD
ATOM     14  H30 <0> d   1      19.927  -2.178  11.898  0.00  0.00     0.187 HD
ENDROOT
BRANCH   1  15
ATOM     15  C5  <0> d   1      19.343   1.902  16.338  0.00  0.00     0.170 C 
BRANCH  15  16
ATOM     16  C2  <0> d   1      18.869   1.550  17.749  0.00  0.00     0.145 C 
ATOM     17  C1  <0> d   1      19.395   0.165  18.133  0.00  0.00     0.042 C 
BRANCH  16  18
ATOM     18  O4  <0> d   1      17.440   1.543  17.784  0.00  0.00    -0.393 OA
ATOM     19  H24 <0> d   1      17.025   1.524  16.912  0.00  0.00     0.210 HD
ENDBRANCH  16  18
ENDBRANCH  15  16
BRANCH  15  20
ATOM     20  O7  <0> d   1      19.991   3.175  16.357  0.00  0.00    -0.391 OA
ATOM     21  H25 <0> d   1      19.513   3.852  16.855  0.00  0.00     0.210 HD
ENDBRANCH  15  20
ENDBRANCH   1  15
BRANCH  10  22
ATOM     22  N19 <0> d   1      21.436  -0.563  10.646  0.00  0.00    -0.233 N 
ATOM     23  H31 <0> d   1      21.399  -0.059   9.819  0.00  0.00     0.174 HD
ATOM     24  H32 <0> d   1      22.083  -1.277  10.752  0.00  0.00     0.174 HD
ENDBRANCH  10  22
TORSDOF 5
ENDMDL
MODEL 3
REMARK VINA RESULT:      -6.3      4.359      5.981
REMARK  5 active torsions:
REMARK  status: ('A' for Active; 'I' for Inactive)
REMARK    1  A    between atoms: C2_2  and  O4_3 
REMARK    2  A    between atoms: C2_2  and  C5_4 
REMARK    3  A    between atoms: C5_4  and  O7_5 
REMARK    4  A    between atoms: C5_4  and  C8_6 
REMARK    5  A    between atoms: C18_15  and  N19_16 
ROOT
ATOM      1  C8  <0> d   1      18.782   0.435  12.793  0.00  0.00     0.131 C 
ATOM      2  C10 <0> d   1      18.866   0.533  14.324  0.00  0.00     0.149 C 
ATOM      3  N11 <0> d   1      19.324   1.884  14.675  0.00  0.00    -0.370 N 
ATOM      4  C12 <0> d   1      18.749   2.976  14.043  0.00  0.00     0.175 A 
ATOM      5  C13 <0> d   1      18.035   2.797  12.867  0.00  0.00     0.144 A 
ATOM      6  N14 <0> d   1      17.890   1.504  12.315  0.00  0.00    -0.373 N 
ATOM      7  C15 <0> d   1      17.465   3.910  12.241  0.00  0.00     0.290 A 
ATOM      8  O16 <0> d   1      16.830   3.787  11.204  0.00  0.00    -0.265 OA
ATOM      9  N17 <0> d   1      17.631   5.125  12.808  0.00  0.00    -0.153 N 
ATOM     10  C18 <0> d   1      18.339   5.248  13.964  0.00  0.00     0.703 A 
ATOM     11  N20 <0> d   1      18.879   4.204  14.558  0.00  0.00    -0.045 NA
ATOM     12  H28 <0> d   1      20.019   2.011  15.340  0.00  0.00     0.161 HD
ATOM     13  H29 <0> d   1      17.218   1.325  11.638  0.00  0.00     0.160 HD
ATOM     14  H30 <0> d   1      17.245   5.911  12.391  0.00  0.00     0.187 HD
ENDROOT
BRANCH   1  15
ATOM     15  C5  <0> d   1      20.175   0.612  12.185  0.00  0.00     0.170 C 
BRANCH  15  16
ATOM     16  C2  <0> d   1      20.363  -0.385  11.041  0.00  0.00     0.145 C 
ATOM     17  C1  <0> d   1      19.656  -1.697  11.388  0.00  0.00     0.042 C 
BRANCH  16  18
ATOM     18  O4  <0> d   1      21.757  -0.632  10.847  0.00  0.00    -0.393 OA
ATOM     19  H24 <0> d   1      22.241  -0.816  11.663  0.00  0.00     0.210 HD
ENDBRANCH  16  18
ENDBRANCH  15  16
BRANCH  15  20
ATOM     20  O7  <0> d   1      21.165   0.379  13.188  0.00  0.00    -0.391 OA
ATOM     21  H25 <0> d   1      21.550  -0.507  13.162  0.00  0.00     0.210 HD
ENDBRANCH  15  20
ENDBRANCH   1  15
BRANCH  10  22
ATOM     22  N19 <0> d   1      18.494   6.491  14.525  0.00  0.00    -0.233 N 
ATOM     23  H31 <0> d   1      19.316   6.986  14.386  0.00  0.00     0.174 HD
ATOM     24  H32 <0> d   1      17.782   6.873  15.060  0.00  0.00     0.174 HD
ENDBRANCH  10  22
TORSDOF 5
ENDMDL
MODEL 4
REMARK VINA RESULT:      -6.2      3.119      5.557
REMARK  5 active torsions:
REMARK  status: ('A' for Active; 'I' for Inactive)
REMARK    1  A    between atoms: C2_2  and  O4_3 
REMARK    2  A    between atoms: C2_2  and  C5_4 
REMARK    3  A    between atoms: C5_4  and  O7_5 
REMARK    4  A    between atoms: C5_4  and  C8_6 
REMARK    5  A    between atoms: C18_15  and  N19_16 
ROOT
ATOM      1  C8  <0> d   1      18.972  -0.417  10.066  0.00  0.00     0.131 C 
ATOM      2  C10 <0> d   1      19.188  -0.558   8.551  0.00  0.00     0.149 C 
ATOM      3  N11 <0> d   1      19.623  -1.933   8.273  0.00  0.00    -0.370 N 
ATOM      4  C12 <0> d   1      18.952  -2.986   8.875  0.00  0.00     0.175 A 
ATOM      5  C13 <0> d   1      18.144  -2.751   9.978  0.00  0.00     0.144 A 
ATOM      6  N14 <0> d   1      18.000  -1.440  10.485  0.00  0.00    -0.373 N 
ATOM      7  C15 <0> d   1      17.478  -3.826  10.575  0.00  0.00     0.290 A 
ATOM      8  O16 <0> d   1      16.759  -3.653  11.547  0.00  0.00    -0.265 OA
ATOM      9  N17 <0> d   1      17.647  -5.061  10.052  0.00  0.00    -0.153 N 
ATOM     10  C18 <0> d   1      18.449  -5.239   8.968  0.00  0.00     0.703 A 
ATOM     11  N20 <0> d   1      19.080  -4.232   8.401  0.00  0.00    -0.045 NA
ATOM     12  H28 <0> d   1      20.369  -2.102   7.676  0.00  0.00     0.161 HD
ATOM     13  H29 <0> d   1      17.279  -1.220  11.095  0.00  0.00     0.160 HD
ATOM     14  H30 <0> d   1      17.196  -5.821  10.450  0.00  0.00     0.187 HD
ENDROOT
BRANCH   1  15
ATOM     15  C5  <0> d   1      20.297  -0.629  10.800  0.00  0.00     0.170 C 
BRANCH  15  16
ATOM     16  C2  <0> d   1      20.401   0.360  11.962  0.00  0.00     0.145 C 
ATOM     17  C1  <0> d   1      19.661   1.650  11.600  0.00  0.00     0.042 C 
BRANCH  16  18
ATOM     18  O4  <0> d   1      21.776   0.656  12.216  0.00  0.00    -0.393 OA
ATOM     19  H24 <0> d   1      22.392   0.012  11.841  0.00  0.00     0.210 HD
ENDBRANCH  16  18
ENDBRANCH  15  16
BRANCH  15  20
ATOM     20  O7  <0> d   1      21.382  -0.417   9.895  0.00  0.00    -0.391 OA
ATOM     21  H25 <0> d   1      22.055   0.194  10.225  0.00  0.00     0.210 HD
ENDBRANCH  15  20
ENDBRANCH   1  15
BRANCH  10  22
ATOM     22  N19 <0> d   1      18.606  -6.501   8.451  0.00  0.00    -0.233 N 
ATOM     23  H31 <0> d   1      19.402  -6.722   7.944  0.00  0.00     0.174 HD
ATOM     24  H32 <0> d   1      17.919  -7.171   8.592  0.00  0.00     0.174 HD
ENDBRANCH  10  22
TORSDOF 5
ENDMDL
MODEL 5
REMARK VINA RESULT:      -6.1      3.193      3.629
REMARK  5 active torsions:
REMARK  status: ('A' for Active; 'I' for Inactive)
REMARK    1  A    between atoms: C2_2  and  O4_3 
REMARK    2  A    between atoms: C2_2  and  C5_4 
REMARK    3  A    between atoms: C5_4  and  O7_5 
REMARK    4  A    between atoms: C5_4  and  C8_6 
REMARK    5  A    between atoms: C18_15  and  N19_16 
ROOT
ATOM      1  C8  <0> d   1      18.344  -3.595  11.066  0.00  0.00     0.131 C 
ATOM      2  C10 <0> d   1      19.751  -3.595  11.684  0.00  0.00     0.149 C 
ATOM      3  N11 <0> d   1      20.406  -2.325  11.343  0.00  0.00    -0.370 N 
ATOM      4  C12 <0> d   1      19.697  -1.142  11.487  0.00  0.00     0.175 A 
ATOM      5  C13 <0> d   1      18.314  -1.174  11.594  0.00  0.00     0.144 A 
ATOM      6  N14 <0> d   1      17.628  -2.409  11.562  0.00  0.00    -0.373 N 
ATOM      7  C15 <0> d   1      17.615   0.029  11.735  0.00  0.00     0.290 A 
ATOM      8  O16 <0> d   1      16.397   0.036  11.832  0.00  0.00    -0.265 OA
ATOM      9  N17 <0> d   1      18.316   1.184  11.761  0.00  0.00    -0.153 N 
ATOM     10  C18 <0> d   1      19.672   1.161  11.653  0.00  0.00     0.703 A 
ATOM     11  N20 <0> d   1      20.336   0.033  11.520  0.00  0.00    -0.045 NA
ATOM     12  H28 <0> d   1      21.321  -2.314  11.022  0.00  0.00     0.161 HD
ATOM     13  H29 <0> d   1      16.707  -2.474  11.861  0.00  0.00     0.160 HD
ATOM     14  H30 <0> d   1      17.852   2.030  11.856  0.00  0.00     0.187 HD
ENDROOT
BRANCH   1  15
ATOM     15  C5  <0> d   1      18.450  -3.536   9.541  0.00  0.00     0.170 C 
BRANCH  15  16
ATOM     16  C2  <0> d   1      17.345  -4.393   8.920  0.00  0.00     0.145 C 
ATOM     17  C1  <0> d   1      17.527  -5.849   9.352  0.00  0.00     0.042 C 
BRANCH  16  18
ATOM     18  O4  <0> d   1      17.417  -4.305   7.495  0.00  0.00    -0.393 OA
ATOM     19  H24 <0> d   1      17.406  -3.401   7.155  0.00  0.00     0.210 HD
ENDBRANCH  16  18
ENDBRANCH  15  16
BRANCH  15  20
ATOM     20  O7  <0> d   1      19.724  -4.032   9.131  0.00  0.00    -0.391 OA
ATOM     21  H25 <0> d   1      20.047  -4.773   9.663  0.00  0.00     0.210 HD
ENDBRANCH  15  20
ENDBRANCH   1  15
BRANCH  10  22
ATOM     22  N19 <0> d   1      20.366   2.346  11.684  0.00  0.00    -0.233 N 
ATOM     23  H31 <0> d   1      20.312   2.918  12.465  0.00  0.00     0.174 HD
ATOM     24  H32 <0> d   1      20.908   2.610  10.925  0.00  0.00     0.174 HD
ENDBRANCH  10  22
TORSDOF 5
ENDMDL
MODEL 6
REMARK VINA RESULT:      -6.1      2.448      2.929
REMARK  5 active torsions:
REMARK  status: ('A' for Active; 'I' for Inactive)
REMARK    1  A    between atoms: C2_2  and  O4_3 
REMARK    2  A    between atoms: C2_2  and  C5_4 
REMARK    3  A    between atoms: C5_4  and  O7_5 
REMARK    4  A    between atoms: C5_4  and  C8_6 
REMARK    5  A    between atoms: C18_15  and  N19_16 
ROOT
ATOM      1  C8  <0> d   1      17.671  -3.587   9.240  0.00  0.00     0.131 C 
ATOM      2  C10 <0> d   1      17.405  -3.595  10.753  0.00  0.00     0.149 C 
ATOM      3  N11 <0> d   1      18.598  -3.075  11.434  0.00  0.00    -0.370 N 
ATOM      4  C12 <0> d   1      19.205  -1.927  10.947  0.00  0.00     0.175 A 
ATOM      5  C13 <0> d   1      18.928  -1.493   9.660  0.00  0.00     0.144 A 
ATOM      6  N14 <0> d   1      18.024  -2.213   8.846  0.00  0.00    -0.373 N 
ATOM      7  C15 <0> d   1      19.552  -0.335   9.183  0.00  0.00     0.290 A 
ATOM      8  O16 <0> d   1      19.330   0.075   8.054  0.00  0.00    -0.265 OA
ATOM      9  N17 <0> d   1      20.407   0.320   9.999  0.00  0.00    -0.153 N 
ATOM     10  C18 <0> d   1      20.645  -0.148  11.255  0.00  0.00     0.703 A 
ATOM     11  N20 <0> d   1      20.060  -1.236  11.709  0.00  0.00    -0.045 NA
ATOM     12  H28 <0> d   1      18.955  -3.527  12.215  0.00  0.00     0.161 HD
ATOM     13  H29 <0> d   1      17.646  -1.813   8.048  0.00  0.00     0.160 HD
ATOM     14  H30 <0> d   1      20.853   1.123   9.689  0.00  0.00     0.187 HD
ENDROOT
BRANCH   1  15
ATOM     15  C5  <0> d   1      18.828  -4.533   8.913  0.00  0.00     0.170 C 
BRANCH  15  16
ATOM     16  C2  <0> d   1      18.764  -4.925   7.435  0.00  0.00     0.145 C 
ATOM     17  C1  <0> d   1      19.973  -4.342   6.701  0.00  0.00     0.042 C 
BRANCH  16  18
ATOM     18  O4  <0> d   1      17.562  -4.411   6.857  0.00  0.00    -0.393 OA
ATOM     19  H24 <0> d   1      16.837  -4.305   7.487  0.00  0.00     0.210 HD
ENDBRANCH  16  18
ENDBRANCH  15  16
BRANCH  15  20
ATOM     20  O7  <0> d   1      18.727  -5.706   9.721  0.00  0.00    -0.391 OA
ATOM     21  H25 <0> d   1      19.075  -5.597  10.617  0.00  0.00     0.210 HD
ENDBRANCH  15  20
ENDBRANCH   1  15
BRANCH  10  22
ATOM     22  N19 <0> d   1      21.515   0.534  12.069  0.00  0.00    -0.233 N 
ATOM     23  H31 <0> d   1      22.249   1.035  11.681  0.00  0.00     0.174 HD
ATOM     24  H32 <0> d   1      21.396   0.513  13.031  0.00  0.00     0.174 HD
ENDBRANCH  10  22
TORSDOF 5
ENDMDL
MODEL 7
REMARK VINA RESULT:      -5.9      2.302      5.436
REMARK  5 active torsions:
REMARK  status: ('A' for Active; 'I' for Inactive)
REMARK    1  A    between atoms: C2_2  and  O4_3 
REMARK    2  A    between atoms: C2_2  and  C5_4 
REMARK    3  A    between atoms: C5_4  and  O7_5 
REMARK    4  A    between atoms: C5_4  and  C8_6 
REMARK    5  A    between atoms: C18_15  and  N19_16 
ROOT
ATOM      1  C8  <0> d   1      19.319   2.563  10.433  0.00  0.00     0.131 C 
ATOM      2  C10 <0> d   1      19.640   1.428  11.417  0.00  0.00     0.149 C 
ATOM      3  N11 <0> d   1      18.797   0.272  11.081  0.00  0.00    -0.370 N 
ATOM      4  C12 <0> d   1      18.680  -0.112   9.754  0.00  0.00     0.175 A 
ATOM      5  C13 <0> d   1      19.039   0.770   8.745  0.00  0.00     0.144 A 
ATOM      6  N14 <0> d   1      19.529   2.056   9.067  0.00  0.00    -0.373 N 
ATOM      7  C15 <0> d   1      18.910   0.367   7.412  0.00  0.00     0.290 A 
ATOM      8  O16 <0> d   1      19.218   1.119   6.499  0.00  0.00    -0.265 OA
ATOM      9  N17 <0> d   1      18.438  -0.873   7.155  0.00  0.00    -0.153 N 
ATOM     10  C18 <0> d   1      18.100  -1.700   8.181  0.00  0.00     0.703 A 
ATOM     11  N20 <0> d   1      18.219  -1.327   9.438  0.00  0.00    -0.045 NA
ATOM     12  H28 <0> d   1      18.331  -0.215  11.778  0.00  0.00     0.161 HD
ATOM     13  H29 <0> d   1      19.994   2.591   8.404  0.00  0.00     0.160 HD
ATOM     14  H30 <0> d   1      18.339  -1.173   6.238  0.00  0.00     0.187 HD
ENDROOT
BRANCH   1  15
ATOM     15  C5  <0> d   1      17.863   3.000  10.604  0.00  0.00     0.170 C 
BRANCH  15  16
ATOM     16  C2  <0> d   1      17.779   4.527  10.555  0.00  0.00     0.145 C 
ATOM     17  C1  <0> d   1      16.508   4.991  11.269  0.00  0.00     0.042 C 
BRANCH  16  18
ATOM     18  O4  <0> d   1      17.747   4.960   9.194  0.00  0.00    -0.393 OA
ATOM     19  H24 <0> d   1      17.226   5.761   9.048  0.00  0.00     0.210 HD
ENDBRANCH  16  18
ENDBRANCH  15  16
BRANCH  15  20
ATOM     20  O7  <0> d   1      17.371   2.536  11.862  0.00  0.00    -0.391 OA
ATOM     21  H25 <0> d   1      18.056   2.429  12.537  0.00  0.00     0.210 HD
ENDBRANCH  15  20
ENDBRANCH   1  15
BRANCH  10  22
ATOM     22  N19 <0> d   1      17.624  -2.957   7.898  0.00  0.00    -0.233 N 
ATOM     23  H31 <0> d   1      17.313  -3.529   8.616  0.00  0.00     0.174 HD
ATOM     24  H32 <0> d   1      17.600  -3.271   6.981  0.00  0.00     0.174 HD
ENDBRANCH  10  22
TORSDOF 5
ENDMDL
MODEL 8
REMARK VINA RESULT:      -5.8      1.766      1.825
REMARK  5 active torsions:
REMARK  status: ('A' for Active; 'I' for Inactive)
REMARK    1  A    between atoms: C2_2  and  O4_3 
REMARK    2  A    between atoms: C2_2  and  C5_4 
REMARK    3  A    between atoms: C5_4  and  O7_5 
REMARK    4  A    between atoms: C5_4  and  C8_6 
REMARK    5  A    between atoms: C18_15  and  N19_16 
ROOT
ATOM      1  C8  <0> d   1      18.206  -3.038   7.466  0.00  0.00     0.131 C 
ATOM      2  C10 <0> d   1      18.715  -4.211   8.318  0.00  0.00     0.149 C 
ATOM      3  N11 <0> d   1      19.624  -3.677   9.342  0.00  0.00    -0.370 N 
ATOM      4  C12 <0> d   1      19.247  -2.549  10.054  0.00  0.00     0.175 A 
ATOM      5  C13 <0> d   1      18.230  -1.737   9.576  0.00  0.00     0.144 A 
ATOM      6  N14 <0> d   1      17.573  -2.061   8.367  0.00  0.00    -0.373 N 
ATOM      7  C15 <0> d   1      17.865  -0.601  10.305  0.00  0.00     0.290 A 
ATOM      8  O16 <0> d   1      16.973   0.135   9.911  0.00  0.00    -0.265 OA
ATOM      9  N17 <0> d   1      18.522  -0.334  11.455  0.00  0.00    -0.153 N 
ATOM     10  C18 <0> d   1      19.514  -1.163  11.883  0.00  0.00     0.703 A 
ATOM     11  N20 <0> d   1      19.861  -2.234  11.201  0.00  0.00    -0.045 NA
ATOM     12  H28 <0> d   1      20.475  -4.109   9.518  0.00  0.00     0.161 HD
ATOM     13  H29 <0> d   1      16.725  -1.650   8.137  0.00  0.00     0.160 HD
ATOM     14  H30 <0> d   1      18.288   0.449  11.977  0.00  0.00     0.187 HD
ENDROOT
BRANCH   1  15
ATOM     15  C5  <0> d   1      19.378  -2.383   6.734  0.00  0.00     0.170 C 
BRANCH  15  16
ATOM     16  C2  <0> d   1      18.866  -1.688   5.471  0.00  0.00     0.145 C 
ATOM     17  C1  <0> d   1      17.948  -2.641   4.702  0.00  0.00     0.042 C 
BRANCH  16  18
ATOM     18  O4  <0> d   1      19.973  -1.322   4.645  0.00  0.00    -0.393 OA
ATOM     19  H24 <0> d   1      19.832  -1.487   3.703  0.00  0.00     0.210 HD
ENDBRANCH  16  18
ENDBRANCH  15  16
BRANCH  15  20
ATOM     20  O7  <0> d   1      20.333  -3.382   6.374  0.00  0.00    -0.391 OA
ATOM     21  H25 <0> d   1      19.951  -4.260   6.236  0.00  0.00     0.210 HD
ENDBRANCH  15  20
ENDBRANCH   1  15
BRANCH  10  22
ATOM     22  N19 <0> d   1      20.167  -0.875  13.055  0.00  0.00    -0.233 N 
ATOM     23  H31 <0> d   1      21.110  -0.649  13.041  0.00  0.00     0.174 HD
ATOM     24  H32 <0> d   1      19.686  -0.899  13.897  0.00  0.00     0.174 HD
ENDBRANCH  10  22
TORSDOF 5
ENDMDL
MODEL 9
REMARK VINA RESULT:      -5.8      2.861      5.128
REMARK  5 active torsions:
REMARK  status: ('A' for Active; 'I' for Inactive)
REMARK    1  A    between atoms: C2_2  and  O4_3 
REMARK    2  A    between atoms: C2_2  and  C5_4 
REMARK    3  A    between atoms: C5_4  and  O7_5 
REMARK    4  A    between atoms: C5_4  and  C8_6 
REMARK    5  A    between atoms: C18_15  and  N19_16 
ROOT
ATOM      1  C8  <0> d   1      17.996   0.279   8.311  0.00  0.00     0.131 C 
ATOM      2  C10 <0> d   1      18.247   0.274   6.796  0.00  0.00     0.149 C 
ATOM      3  N11 <0> d   1      19.263  -0.745   6.498  0.00  0.00    -0.370 N 
ATOM      4  C12 <0> d   1      19.151  -1.997   7.083  0.00  0.00     0.175 A 
ATOM      5  C13 <0> d   1      18.329  -2.174   8.186  0.00  0.00     0.144 A 
ATOM      6  N14 <0> d   1      17.603  -1.082   8.713  0.00  0.00    -0.373 N 
ATOM      7  C15 <0> d   1      18.231  -3.443   8.766  0.00  0.00     0.290 A 
ATOM      8  O16 <0> d   1      17.517  -3.633   9.738  0.00  0.00    -0.265 OA
ATOM      9  N17 <0> d   1      18.945  -4.456   8.225  0.00  0.00    -0.153 N 
ATOM     10  C18 <0> d   1      19.736  -4.231   7.141  0.00  0.00     0.703 A 
ATOM     11  N20 <0> d   1      19.832  -3.039   6.591  0.00  0.00    -0.045 NA
ATOM     12  H28 <0> d   1      20.001  -0.545   5.901  0.00  0.00     0.161 HD
ATOM     13  H29 <0> d   1      16.863  -1.225   9.323  0.00  0.00     0.160 HD
ATOM     14  H30 <0> d   1      18.893  -5.344   8.611  0.00  0.00     0.187 HD
ENDROOT
BRANCH   1  15
ATOM     15  C5  <0> d   1      19.275   0.686   9.046  0.00  0.00     0.170 C 
BRANCH  15  16
ATOM     16  C2  <0> d   1      18.914   1.253  10.421  0.00  0.00     0.145 C 
ATOM     17  C1  <0> d   1      17.948   2.427  10.250  0.00  0.00     0.042 C 
BRANCH  16  18
ATOM     18  O4  <0> d   1      20.101   1.703  11.078  0.00  0.00    -0.393 OA
ATOM     19  H24 <0> d   1      20.876   1.747  10.502  0.00  0.00     0.210 HD
ENDBRANCH  16  18
ENDBRANCH  15  16
BRANCH  15  20
ATOM     20  O7  <0> d   1      19.965   1.680   8.287  0.00  0.00    -0.391 OA
ATOM     21  H25 <0> d   1      20.717   1.339   7.784  0.00  0.00     0.210 HD
ENDBRANCH  15  20
ENDBRANCH   1  15
BRANCH  10  22
ATOM     22  N19 <0> d   1      20.450  -5.274   6.606  0.00  0.00    -0.233 N 
ATOM     23  H31 <0> d   1      20.956  -5.146   5.789  0.00  0.00     0.174 HD
ATOM     24  H32 <0> d   1      20.448  -6.138   7.045  0.00  0.00     0.174 HD
ENDBRANCH  10  22
TORSDOF 5
ENDMDL
