MODEL 1
REMARK VINA RESULT:      -5.6      0.000      0.000
REMARK  4 active torsions:
REMARK  status: ('A' for Active; 'I' for Inactive)
REMARK    1  A    between atoms: N1_1  and  C5_5 
REMARK    2  A    between atoms: C5_5  and  C7_6 
REMARK    3  A    between atoms: C5_5  and  C14_13 
REMARK    4  A    between atoms: C7_6  and  C8_7 
ROOT
ATOM      1  C5  <0> d   1      18.174  -0.689   6.097  0.00  0.00     0.287 C 
ENDROOT
BRANCH   1   2
ATOM      2  N1  <0> d   1      16.934  -1.066   5.406  0.00  0.00    -0.065 N 
ATOM      3  H2  <0> d   1      16.407  -0.235   5.181  0.00  0.00     0.275 HD
ATOM      4  H3  <0> d   1      16.382  -1.662   6.005  0.00  0.00     0.275 HD
ATOM      5  H4  <0> d   1      17.159  -1.561   4.556  0.00  0.00     0.275 HD
ENDBRANCH   1   2
BRANCH   1   6
ATOM      6  C7  <0> d   1      18.067  -1.063   7.577  0.00  0.00     0.082 C 
BRANCH   6   7
ATOM      7  C8  <0> d   1      18.182   0.182   8.419  0.00  0.00    -0.056 A 
ATOM      8  C13 <0> d   1      17.499   0.271   9.618  0.00  0.00     0.007 A 
ATOM      9  C12 <0> d   1      17.607   1.410  10.393  0.00  0.00     0.001 A 
ATOM     10  C11 <0> d   1      18.392   2.464   9.964  0.00  0.00     0.000 A 
ATOM     11  C10 <0> d   1      19.070   2.378   8.762  0.00  0.00     0.001 A 
ATOM     12  C9  <0> d   1      18.965   1.236   7.990  0.00  0.00     0.007 A 
ENDBRANCH   6   7
ENDBRANCH   1   6
BRANCH   1  13
ATOM     13  C14 <0> d   1      19.336  -1.419   5.476  0.00  0.00     0.204 C 
ATOM     14  O15 <0> d   1      19.918  -0.937   4.519  0.00  0.00    -0.646 OA
ATOM     15  O16 <0> d   1      19.697  -2.490   5.933  0.00  0.00    -0.646 OA
ENDBRANCH   1  13
TORSDOF 4
ENDMDL
MODEL 2
REMARK VINA RESULT:      -5.5      4.370      5.641
REMARK  4 active torsions:
REMARK  status: ('A' for Active; 'I' for Inactive)
REMARK    1  A    between atoms: N1_1  and  C5_5 
REMARK    2  A    between atoms: C5_5  and  C7_6 
REMARK    3  A    between atoms: C5_5  and  C14_13 
REMARK    4  A    between atoms: C7_6  and  C8_7 
ROOT
ATOM      1  C5  <0> d   1      19.273   2.805  10.594  0.00  0.00     0.287 C 
ENDROOT
BRANCH   1   2
ATOM      2  N1  <0> d   1      20.436   2.860  11.489  0.00  0.00    -0.065 N 
ATOM      3  H2  <0> d   1      21.277   2.971  10.942  0.00  0.00     0.275 HD
ATOM      4  H3  <0> d   1      20.492   2.005  12.022  0.00  0.00     0.275 HD
ATOM      5  H4  <0> d   1      20.340   3.643  12.119  0.00  0.00     0.275 HD
ENDBRANCH   1   2
BRANCH   1   6
ATOM      6  C7  <0> d   1      18.774   1.362  10.495  0.00  0.00     0.082 C 
BRANCH   6   7
ATOM      7  C8  <0> d   1      18.500   1.023   9.052  0.00  0.00    -0.056 A 
ATOM      8  C13 <0> d   1      19.236   1.626   8.049  0.00  0.00     0.007 A 
ATOM      9  C12 <0> d   1      18.988   1.313   6.725  0.00  0.00     0.001 A 
ATOM     10  C11 <0> d   1      17.998   0.403   6.405  0.00  0.00     0.000 A 
ATOM     11  C10 <0> d   1      17.258  -0.196   7.408  0.00  0.00     0.001 A 
ATOM     12  C9  <0> d   1      17.509   0.115   8.731  0.00  0.00     0.007 A 
ENDBRANCH   6   7
ENDBRANCH   1   6
BRANCH   1  13
ATOM     13  C14 <0> d   1      18.176   3.680  11.141  0.00  0.00     0.204 C 
ATOM     14  O15 <0> d   1      18.444   4.773  11.610  0.00  0.00    -0.646 OA
ATOM     15  O16 <0> d   1      17.020   3.296  11.114  0.00  0.00    -0.646 OA
ENDBRANCH   1  13
TORSDOF 4
ENDMDL
MODEL 3
REMARK VINA RESULT:      -5.3      5.301      6.575
REMARK  4 active torsions:
REMARK  status: ('A' for Active; 'I' for Inactive)
REMARK    1  A    between atoms: N1_1  and  C5_5 
REMARK    2  A    between atoms: C5_5  and  C7_6 
REMARK    3  A    between atoms: C5_5  and  C14_13 
REMARK    4  A    between atoms: C7_6  and  C8_7 
ROOT
ATOM      1  C5  <0> d   1      20.248  -0.041  12.290  0.00  0.00     0.287 C 
ENDROOT
BRANCH   1   2
ATOM      2  N1  <0> d   1      21.541   0.641  12.151  0.00  0.00    -0.065 N 
ATOM      3  H2  <0> d   1      22.247   0.135  12.666  0.00  0.00     0.275 HD
ATOM      4  H3  <0> d   1      21.468   1.580  12.516  0.00  0.00     0.275 HD
ATOM      5  H4  <0> d   1      21.799   0.679  11.176  0.00  0.00     0.275 HD
ENDBRANCH   1   2
BRANCH   1   6
ATOM      6  C7  <0> d   1      19.271   0.865  13.043  0.00  0.00     0.082 C 
BRANCH   6   7
ATOM      7  C8  <0> d   1      18.787   0.160  14.284  0.00  0.00    -0.056 A 
ATOM      8  C13 <0> d   1      19.377  -1.026  14.680  0.00  0.00     0.007 A 
ATOM      9  C12 <0> d   1      18.936  -1.671  15.820  0.00  0.00     0.001 A 
ATOM     10  C11 <0> d   1      17.900  -1.133  16.561  0.00  0.00     0.000 A 
ATOM     11  C10 <0> d   1      17.306   0.051  16.162  0.00  0.00     0.001 A 
ATOM     12  C9  <0> d   1      17.751   0.697  15.023  0.00  0.00     0.007 A 
ENDBRANCH   6   7
ENDBRANCH   1   6
BRANCH   1  13
ATOM     13  C14 <0> d   1      19.695  -0.352  10.925  0.00  0.00     0.204 C 
ATOM     14  O15 <0> d   1      18.502  -0.563  10.783  0.00  0.00    -0.646 OA
ATOM     15  O16 <0> d   1      20.439  -0.392   9.960  0.00  0.00    -0.646 OA
ENDBRANCH   1  13
TORSDOF 4
ENDMDL
MODEL 4
REMARK VINA RESULT:      -5.3      9.884     11.061
REMARK  4 active torsions:
REMARK  status: ('A' for Active; 'I' for Inactive)
REMARK    1  A    between atoms: N1_1  and  C5_5 
REMARK    2  A    between atoms: C5_5  and  C7_6 
REMARK    3  A    between atoms: C5_5  and  C14_13 
REMARK    4  A    between atoms: C7_6  and  C8_7 
ROOT
ATOM      1  C5  <0> d   1      18.879   2.840  18.715  0.00  0.00     0.287 C 
ENDROOT
BRANCH   1   2
ATOM      2  N1  <0> d   1      18.638   3.850  19.754  0.00  0.00    -0.065 N 
ATOM      3  H2  <0> d   1      18.866   4.764  19.393  0.00  0.00     0.275 HD
ATOM      4  H3  <0> d   1      19.217   3.652  20.557  0.00  0.00     0.275 HD
ATOM      5  H4  <0> d   1      17.667   3.828  20.026  0.00  0.00     0.275 HD
ENDBRANCH   1   2
BRANCH   1   6
ATOM      6  C7  <0> d   1      17.682   1.889  18.642  0.00  0.00     0.082 C 
BRANCH   6   7
ATOM      7  C8  <0> d   1      18.061   0.666  17.845  0.00  0.00    -0.056 A 
ATOM      8  C13 <0> d   1      17.262   0.249  16.797  0.00  0.00     0.007 A 
ATOM      9  C12 <0> d   1      17.611  -0.869  16.063  0.00  0.00     0.001 A 
ATOM     10  C11 <0> d   1      18.755  -1.575  16.384  0.00  0.00     0.000 A 
ATOM     11  C10 <0> d   1      19.552  -1.162  17.436  0.00  0.00     0.001 A 
ATOM     12  C9  <0> d   1      19.204  -0.041  18.166  0.00  0.00     0.007 A 
ENDBRANCH   6   7
ENDBRANCH   1   6
BRANCH   1  13
ATOM     13  C14 <0> d   1      19.063   3.521  17.385  0.00  0.00     0.204 C 
ATOM     14  O15 <0> d   1      20.146   3.486  16.826  0.00  0.00    -0.646 OA
ATOM     15  O16 <0> d   1      18.128   4.105  16.865  0.00  0.00    -0.646 OA
ENDBRANCH   1  13
TORSDOF 4
ENDMDL
MODEL 5
REMARK VINA RESULT:      -5.2      4.416      5.486
REMARK  4 active torsions:
REMARK  status: ('A' for Active; 'I' for Inactive)
REMARK    1  A    between atoms: N1_1  and  C5_5 
REMARK    2  A    between atoms: C5_5  and  C7_6 
REMARK    3  A    between atoms: C5_5  and  C14_13 
REMARK    4  A    between atoms: C7_6  and  C8_7 
ROOT
ATOM      1  C5  <0> d   1      20.234   0.408  11.695  0.00  0.00     0.287 C 
ENDROOT
BRANCH   1   2
ATOM      2  N1  <0> d   1      21.618   0.621  12.137  0.00  0.00    -0.065 N 
ATOM      3  H2  <0> d   1      21.619   0.985  13.078  0.00  0.00     0.275 HD
ATOM      4  H3  <0> d   1      22.070   1.280  11.521  0.00  0.00     0.275 HD
ATOM      5  H4  <0> d   1      22.117  -0.256  12.116  0.00  0.00     0.275 HD
ENDBRANCH   1   2
BRANCH   1   6
ATOM      6  C7  <0> d   1      20.203  -0.684  10.623  0.00  0.00     0.082 C 
BRANCH   6   7
ATOM      7  C8  <0> d   1      19.701  -0.101   9.327  0.00  0.00    -0.056 A 
ATOM      8  C13 <0> d   1      19.424  -0.932   8.257  0.00  0.00     0.007 A 
ATOM      9  C12 <0> d   1      18.960  -0.398   7.069  0.00  0.00     0.001 A 
ATOM     10  C11 <0> d   1      18.780   0.968   6.950  0.00  0.00     0.000 A 
ATOM     11  C10 <0> d   1      19.063   1.799   8.018  0.00  0.00     0.001 A 
ATOM     12  C9  <0> d   1      19.523   1.264   9.206  0.00  0.00     0.007 A 
ENDBRANCH   6   7
ENDBRANCH   1   6
BRANCH   1  13
ATOM     13  C14 <0> d   1      19.391  -0.017  12.869  0.00  0.00     0.204 C 
ATOM     14  O15 <0> d   1      19.874  -0.044  13.989  0.00  0.00    -0.646 OA
ATOM     15  O16 <0> d   1      18.226  -0.332  12.701  0.00  0.00    -0.646 OA
ENDBRANCH   1  13
TORSDOF 4
ENDMDL
MODEL 6
REMARK VINA RESULT:      -5.1      4.984      6.186
REMARK  4 active torsions:
REMARK  status: ('A' for Active; 'I' for Inactive)
REMARK    1  A    between atoms: N1_1  and  C5_5 
REMARK    2  A    between atoms: C5_5  and  C7_6 
REMARK    3  A    between atoms: C5_5  and  C14_13 
REMARK    4  A    between atoms: C7_6  and  C8_7 
ROOT
ATOM      1  C5  <0> d   1      20.328  -0.113  11.499  0.00  0.00     0.287 C 
ENDROOT
BRANCH   1   2
ATOM      2  N1  <0> d   1      21.510   0.511  12.107  0.00  0.00    -0.065 N 
ATOM      3  H2  <0> d   1      21.252   1.399  12.512  0.00  0.00     0.275 HD
ATOM      4  H3  <0> d   1      22.215   0.658  11.399  0.00  0.00     0.275 HD
ATOM      5  H4  <0> d   1      21.877  -0.093  12.827  0.00  0.00     0.275 HD
ENDBRANCH   1   2
BRANCH   1   6
ATOM      6  C7  <0> d   1      19.525  -0.843  12.578  0.00  0.00     0.082 C 
BRANCH   6   7
ATOM      7  C8  <0> d   1      19.129  -2.207  12.073  0.00  0.00    -0.056 A 
ATOM      8  C13 <0> d   1      20.101  -3.151  11.797  0.00  0.00     0.007 A 
ATOM      9  C12 <0> d   1      19.739  -4.403  11.338  0.00  0.00     0.001 A 
ATOM     10  C11 <0> d   1      18.404  -4.709  11.147  0.00  0.00     0.000 A 
ATOM     11  C10 <0> d   1      17.432  -3.763  11.417  0.00  0.00     0.001 A 
ATOM     12  C9  <0> d   1      17.796  -2.512  11.881  0.00  0.00     0.007 A 
ENDBRANCH   6   7
ENDBRANCH   1   6
BRANCH   1  13
ATOM     13  C14 <0> d   1      19.468   0.949  10.866  0.00  0.00     0.204 C 
ATOM     14  O15 <0> d   1      19.614   2.119  11.179  0.00  0.00    -0.646 OA
ATOM     15  O16 <0> d   1      18.628   0.640  10.039  0.00  0.00    -0.646 OA
ENDBRANCH   1  13
TORSDOF 4
ENDMDL
MODEL 7
REMARK VINA RESULT:      -5.1      4.078      4.812
REMARK  4 active torsions:
REMARK  status: ('A' for Active; 'I' for Inactive)
REMARK    1  A    between atoms: N1_1  and  C5_5 
REMARK    2  A    between atoms: C5_5  and  C7_6 
REMARK    3  A    between atoms: C5_5  and  C14_13 
REMARK    4  A    between atoms: C7_6  and  C8_7 
ROOT
ATOM      1  C5  <0> d   1      20.133  -0.162  11.264  0.00  0.00     0.287 C 
ENDROOT
BRANCH   1   2
ATOM      2  N1  <0> d   1      21.506  -0.582  10.953  0.00  0.00    -0.065 N 
ATOM      3  H2  <0> d   1      21.526  -1.027  10.048  0.00  0.00     0.275 HD
ATOM      4  H3  <0> d   1      21.826  -1.233  11.655  0.00  0.00     0.275 HD
ATOM      5  H4  <0> d   1      22.111   0.226  10.944  0.00  0.00     0.275 HD
ENDBRANCH   1   2
BRANCH   1   6
ATOM      6  C7  <0> d   1      19.572   0.651  10.095  0.00  0.00     0.082 C 
BRANCH   6   7
ATOM      7  C8  <0> d   1      19.180   2.024  10.582  0.00  0.00    -0.056 A 
ATOM      8  C13 <0> d   1      18.132   2.697   9.981  0.00  0.00     0.007 A 
ATOM      9  C12 <0> d   1      17.770   3.953  10.429  0.00  0.00     0.001 A 
ATOM     10  C11 <0> d   1      18.461   4.539  11.473  0.00  0.00     0.000 A 
ATOM     11  C10 <0> d   1      19.512   3.869  12.070  0.00  0.00     0.001 A 
ATOM     12  C9  <0> d   1      19.871   2.611  11.624  0.00  0.00     0.007 A 
ENDBRANCH   6   7
ENDBRANCH   1   6
BRANCH   1  13
ATOM     13  C14 <0> d   1      19.274  -1.379  11.487  0.00  0.00     0.204 C 
ATOM     14  O15 <0> d   1      19.628  -2.238  12.277  0.00  0.00    -0.646 OA
ATOM     15  O16 <0> d   1      18.225  -1.505  10.879  0.00  0.00    -0.646 OA
ENDBRANCH   1  13
TORSDOF 4
ENDMDL
MODEL 8
REMARK VINA RESULT:      -5.1      4.887      5.635
REMARK  4 active torsions:
REMARK  status: ('A' for Active; 'I' for Inactive)
REMARK    1  A    between atoms: N1_1  and  C5_5 
REMARK    2  A    between atoms: C5_5  and  C7_6 
REMARK    3  A    between atoms: C5_5  and  C14_13 
REMARK    4  A    between atoms: C7_6  and  C8_7 
ROOT
ATOM      1  C5  <0> d   1      20.054   0.829  12.330  0.00  0.00     0.287 C 
ENDROOT
BRANCH   1   2
ATOM      2  N1  <0> d   1      21.500   0.637  12.158  0.00  0.00    -0.065 N 
ATOM      3  H2  <0> d   1      21.725   0.637  11.175  0.00  0.00     0.275 HD
ATOM      4  H3  <0> d   1      21.773  -0.246  12.565  0.00  0.00     0.275 HD
ATOM      5  H4  <0> d   1      21.997   1.386  12.617  0.00  0.00     0.275 HD
ENDBRANCH   1   2
BRANCH   1   6
ATOM      6  C7  <0> d   1      19.404   1.059  10.964  0.00  0.00     0.082 C 
BRANCH   6   7
ATOM      7  C8  <0> d   1      18.652   2.365  10.979  0.00  0.00    -0.056 A 
ATOM      8  C13 <0> d   1      18.039   2.796  12.142  0.00  0.00     0.007 A 
ATOM      9  C12 <0> d   1      17.353   3.996  12.157  0.00  0.00     0.001 A 
ATOM     10  C11 <0> d   1      17.273   4.761  11.009  0.00  0.00     0.000 A 
ATOM     11  C10 <0> d   1      17.880   4.327   9.845  0.00  0.00     0.001 A 
ATOM     12  C9  <0> d   1      18.570   3.129   9.831  0.00  0.00     0.007 A 
ENDBRANCH   6   7
ENDBRANCH   1   6
BRANCH   1  13
ATOM     13  C14 <0> d   1      19.457  -0.395  12.972  0.00  0.00     0.204 C 
ATOM     14  O15 <0> d   1      19.816  -0.736  14.087  0.00  0.00    -0.646 OA
ATOM     15  O16 <0> d   1      18.614  -1.044  12.378  0.00  0.00    -0.646 OA
ENDBRANCH   1  13
TORSDOF 4
ENDMDL
MODEL 9
REMARK VINA RESULT:      -4.9      5.583      6.945
REMARK  4 active torsions:
REMARK  status: ('A' for Active; 'I' for Inactive)
REMARK    1  A    between atoms: N1_1  and  C5_5 
REMARK    2  A    between atoms: C5_5  and  C7_6 
REMARK    3  A    between atoms: C5_5  and  C14_13 
REMARK    4  A    between atoms: C7_6  and  C8_7 
ROOT
ATOM      1  C5  <0> d   1      19.170   1.496  12.287  0.00  0.00     0.287 C 
ENDROOT
BRANCH   1   2
ATOM      2  N1  <0> d   1      20.413   2.110  11.803  0.00  0.00    -0.065 N 
ATOM      3  H2  <0> d   1      20.361   2.231  10.803  0.00  0.00     0.275 HD
ATOM      4  H3  <0> d   1      21.194   1.512  12.029  0.00  0.00     0.275 HD
ATOM      5  H4  <0> d   1      20.538   3.009  12.245  0.00  0.00     0.275 HD
ENDBRANCH   1   2
BRANCH   1   6
ATOM      6  C7  <0> d   1      18.910   1.938  13.729  0.00  0.00     0.082 C 
BRANCH   6   7
ATOM      7  C8  <0> d   1      18.663   0.725  14.590  0.00  0.00    -0.056 A 
ATOM      8  C13 <0> d   1      17.662   0.747  15.544  0.00  0.00     0.007 A 
ATOM      9  C12 <0> d   1      17.433  -0.367  16.330  0.00  0.00     0.001 A 
ATOM     10  C11 <0> d   1      18.209  -1.499  16.167  0.00  0.00     0.000 A 
ATOM     11  C10 <0> d   1      19.214  -1.518  15.217  0.00  0.00     0.001 A 
ATOM     12  C9  <0> d   1      19.440  -0.406  14.429  0.00  0.00     0.007 A 
ENDBRANCH   6   7
ENDBRANCH   1   6
BRANCH   1  13
ATOM     13  C14 <0> d   1      18.022   1.930  11.414  0.00  0.00     0.204 C 
ATOM     14  O15 <0> d   1      18.174   2.836  10.613  0.00  0.00    -0.646 OA
ATOM     15  O16 <0> d   1      16.941   1.374  11.508  0.00  0.00    -0.646 OA
ENDBRANCH   1  13
TORSDOF 4
ENDMDL
