MODEL 1
REMARK VINA RESULT:      -6.3      0.000      0.000
REMARK  1 active torsions:
REMARK  status: ('A' for Active; 'I' for Inactive)
REMARK    1  A    between atoms: N4_4  and  C5_5 
ROOT
ATOM      1  C1  ZIN A   1      19.293   0.912   5.777  0.00  0.00     0.049 C 
ATOM      2  C2  ZIN A   1      18.645   0.813   7.135  0.00  0.00    -0.046 A 
ATOM      3  C3  ZIN A   1      18.879   1.764   8.068  0.00  0.00     0.107 A 
ATOM      4  N4  ZIN A   1      18.301   1.686   9.297  0.00  0.00    -0.289 N 
ATOM      5  C11 ZIN A   1      17.485   0.663   9.610  0.00  0.00     0.252 A 
ATOM      6  O12 ZIN A   1      16.973   0.607  10.717  0.00  0.00    -0.268 OA
ATOM      7  C13 ZIN A   1      17.220  -0.341   8.663  0.00  0.00     0.075 A 
ATOM      8  C14 ZIN A   1      17.795  -0.263   7.429  0.00  0.00     0.013 A 
ENDROOT
BRANCH   4   9
ATOM      9  C5  ZIN A   1      18.558   2.684  10.246  0.00  0.00     0.042 A 
ATOM     10  C10 ZIN A   1      17.699   3.768  10.367  0.00  0.00     0.030 A 
ATOM     11  C9  ZIN A   1      17.951   4.746  11.309  0.00  0.00     0.002 A 
ATOM     12  C8  ZIN A   1      19.065   4.653  12.122  0.00  0.00     0.000 A 
ATOM     13  C7  ZIN A   1      19.927   3.577  12.000  0.00  0.00     0.002 A 
ATOM     14  C6  ZIN A   1      19.676   2.592  11.064  0.00  0.00     0.030 A 
ENDBRANCH   4   9
TORSDOF 1
ENDMDL
MODEL 2
REMARK VINA RESULT:      -6.3      2.808      4.793
REMARK  1 active torsions:
REMARK  status: ('A' for Active; 'I' for Inactive)
REMARK    1  A    between atoms: N4_4  and  C5_5 
ROOT
ATOM      1  C1  ZIN A   1      20.149  -3.895  11.536  0.00  0.00     0.049 C 
ATOM      2  C2  ZIN A   1      19.203  -2.734  11.363  0.00  0.00    -0.046 A 
ATOM      3  C3  ZIN A   1      19.201  -2.028  10.210  0.00  0.00     0.107 A 
ATOM      4  N4  ZIN A   1      18.353  -0.979  10.040  0.00  0.00    -0.289 N 
ATOM      5  C11 ZIN A   1      17.496  -0.621  11.016  0.00  0.00     0.252 A 
ATOM      6  O12 ZIN A   1      16.741   0.322  10.850  0.00  0.00    -0.268 OA
ATOM      7  C13 ZIN A   1      17.472  -1.335  12.227  0.00  0.00     0.075 A 
ATOM      8  C14 ZIN A   1      18.319  -2.390  12.397  0.00  0.00     0.013 A 
ENDROOT
BRANCH   4   9
ATOM      9  C5  ZIN A   1      18.368  -0.263   8.837  0.00  0.00     0.042 A 
ATOM     10  C10 ZIN A   1      17.581  -0.676   7.770  0.00  0.00     0.030 A 
ATOM     11  C9  ZIN A   1      17.594   0.036   6.587  0.00  0.00     0.002 A 
ATOM     12  C8  ZIN A   1      18.400   1.152   6.459  0.00  0.00     0.000 A 
ATOM     13  C7  ZIN A   1      19.191   1.563   7.518  0.00  0.00     0.002 A 
ATOM     14  C6  ZIN A   1      19.177   0.858   8.706  0.00  0.00     0.030 A 
ENDBRANCH   4   9
TORSDOF 1
ENDMDL
MODEL 3
REMARK VINA RESULT:      -6.1      3.936      5.590
REMARK  1 active torsions:
REMARK  status: ('A' for Active; 'I' for Inactive)
REMARK    1  A    between atoms: N4_4  and  C5_5 
ROOT
ATOM      1  C1  ZIN A   1      16.897  -0.274  16.796  0.00  0.00     0.049 C 
ATOM      2  C2  ZIN A   1      17.811  -0.238  15.597  0.00  0.00    -0.046 A 
ATOM      3  C3  ZIN A   1      17.729   0.782  14.713  0.00  0.00     0.107 A 
ATOM      4  N4  ZIN A   1      18.546   0.826  13.627  0.00  0.00    -0.289 N 
ATOM      5  C11 ZIN A   1      19.455  -0.143  13.410  0.00  0.00     0.252 A 
ATOM      6  O12 ZIN A   1      20.182  -0.090  12.431  0.00  0.00    -0.268 OA
ATOM      7  C13 ZIN A   1      19.567  -1.217  14.309  0.00  0.00     0.075 A 
ATOM      8  C14 ZIN A   1      18.750  -1.261  15.401  0.00  0.00     0.013 A 
ENDROOT
BRANCH   4   9
ATOM      9  C5  ZIN A   1      18.444   1.893  12.726  0.00  0.00     0.042 A 
ATOM     10  C10 ZIN A   1      19.073   3.100  13.001  0.00  0.00     0.030 A 
ATOM     11  C9  ZIN A   1      18.975   4.148  12.107  0.00  0.00     0.002 A 
ATOM     12  C8  ZIN A   1      18.239   4.001  10.945  0.00  0.00     0.000 A 
ATOM     13  C7  ZIN A   1      17.606   2.802  10.671  0.00  0.00     0.002 A 
ATOM     14  C6  ZIN A   1      17.706   1.748  11.558  0.00  0.00     0.030 A 
ENDBRANCH   4   9
TORSDOF 1
ENDMDL
MODEL 4
REMARK VINA RESULT:      -6.1      4.042      5.074
REMARK  1 active torsions:
REMARK  status: ('A' for Active; 'I' for Inactive)
REMARK    1  A    between atoms: N4_4  and  C5_5 
ROOT
ATOM      1  C1  ZIN A   1      18.832   3.668  11.051  0.00  0.00     0.049 C 
ATOM      2  C2  ZIN A   1      18.284   2.289  11.317  0.00  0.00    -0.046 A 
ATOM      3  C3  ZIN A   1      18.420   1.729  12.541  0.00  0.00     0.107 A 
ATOM      4  N4  ZIN A   1      17.931   0.487  12.794  0.00  0.00    -0.289 N 
ATOM      5  C11 ZIN A   1      17.298  -0.213  11.834  0.00  0.00     0.252 A 
ATOM      6  O12 ZIN A   1      16.864  -1.327  12.076  0.00  0.00    -0.268 OA
ATOM      7  C13 ZIN A   1      17.138   0.339  10.551  0.00  0.00     0.075 A 
ATOM      8  C14 ZIN A   1      17.625   1.587  10.296  0.00  0.00     0.013 A 
ENDROOT
BRANCH   4   9
ATOM      9  C5  ZIN A   1      18.084  -0.071  14.070  0.00  0.00     0.042 A 
ATOM     10  C10 ZIN A   1      19.073  -1.019  14.301  0.00  0.00     0.030 A 
ATOM     11  C9  ZIN A   1      19.226  -1.562  15.561  0.00  0.00     0.002 A 
ATOM     12  C8  ZIN A   1      18.387  -1.173  16.589  0.00  0.00     0.000 A 
ATOM     13  C7  ZIN A   1      17.396  -0.234  16.361  0.00  0.00     0.002 A 
ATOM     14  C6  ZIN A   1      17.243   0.318  15.104  0.00  0.00     0.030 A 
ENDBRANCH   4   9
TORSDOF 1
ENDMDL
MODEL 5
REMARK VINA RESULT:      -5.9      2.459      5.024
REMARK  1 active torsions:
REMARK  status: ('A' for Active; 'I' for Inactive)
REMARK    1  A    between atoms: N4_4  and  C5_5 
ROOT
ATOM      1  C1  ZIN A   1      19.553  -1.259  14.098  0.00  0.00     0.049 C 
ATOM      2  C2  ZIN A   1      18.895  -0.150  13.316  0.00  0.00    -0.046 A 
ATOM      3  C3  ZIN A   1      18.888  -0.187  11.964  0.00  0.00     0.107 A 
ATOM      4  N4  ZIN A   1      18.299   0.807  11.246  0.00  0.00    -0.289 N 
ATOM      5  C11 ZIN A   1      17.709   1.846  11.866  0.00  0.00     0.252 A 
ATOM      6  O12 ZIN A   1      17.184   2.731  11.208  0.00  0.00    -0.268 OA
ATOM      7  C13 ZIN A   1      17.699   1.915  13.269  0.00  0.00     0.075 A 
ATOM      8  C14 ZIN A   1      18.285   0.917  13.991  0.00  0.00     0.013 A 
ENDROOT
BRANCH   4   9
ATOM      9  C5  ZIN A   1      18.303   0.746   9.847  0.00  0.00     0.042 A 
ATOM     10  C10 ZIN A   1      19.222   1.492   9.121  0.00  0.00     0.030 A 
ATOM     11  C9  ZIN A   1      19.228   1.425   7.741  0.00  0.00     0.002 A 
ATOM     12  C8  ZIN A   1      18.311   0.627   7.083  0.00  0.00     0.000 A 
ATOM     13  C7  ZIN A   1      17.390  -0.112   7.803  0.00  0.00     0.002 A 
ATOM     14  C6  ZIN A   1      17.383  -0.055   9.183  0.00  0.00     0.030 A 
ENDBRANCH   4   9
TORSDOF 1
ENDMDL
MODEL 6
REMARK VINA RESULT:      -5.9      2.945      4.983
REMARK  1 active torsions:
REMARK  status: ('A' for Active; 'I' for Inactive)
REMARK    1  A    between atoms: N4_4  and  C5_5 
ROOT
ATOM      1  C1  ZIN A   1      17.918   3.450  10.915  0.00  0.00     0.049 C 
ATOM      2  C2  ZIN A   1      18.402   2.241  10.155  0.00  0.00    -0.046 A 
ATOM      3  C3  ZIN A   1      18.356   1.017  10.728  0.00  0.00     0.107 A 
ATOM      4  N4  ZIN A   1      18.789  -0.082  10.054  0.00  0.00    -0.289 N 
ATOM      5  C11 ZIN A   1      19.272   0.025   8.802  0.00  0.00     0.252 A 
ATOM      6  O12 ZIN A   1      19.658  -0.970   8.210  0.00  0.00    -0.268 OA
ATOM      7  C13 ZIN A   1      19.334   1.282   8.177  0.00  0.00     0.075 A 
ATOM      8  C14 ZIN A   1      18.896   2.385   8.850  0.00  0.00     0.013 A 
ENDROOT
BRANCH   4   9
ATOM      9  C5  ZIN A   1      18.731  -1.339  10.669  0.00  0.00     0.042 A 
ATOM     10  C10 ZIN A   1      17.525  -2.024  10.739  0.00  0.00     0.030 A 
ATOM     11  C9  ZIN A   1      17.473  -3.267  11.339  0.00  0.00     0.002 A 
ATOM     12  C8  ZIN A   1      18.616  -3.823  11.883  0.00  0.00     0.000 A 
ATOM     13  C7  ZIN A   1      19.818  -3.139  11.820  0.00  0.00     0.002 A 
ATOM     14  C6  ZIN A   1      19.878  -1.899  11.215  0.00  0.00     0.030 A 
ENDBRANCH   4   9
TORSDOF 1
ENDMDL
MODEL 7
REMARK VINA RESULT:      -5.8      2.983      4.536
REMARK  1 active torsions:
REMARK  status: ('A' for Active; 'I' for Inactive)
REMARK    1  A    between atoms: N4_4  and  C5_5 
ROOT
ATOM      1  C1  ZIN A   1      16.932   4.728  10.873  0.00  0.00     0.049 C 
ATOM      2  C2  ZIN A   1      17.769   3.484  10.717  0.00  0.00    -0.046 A 
ATOM      3  C3  ZIN A   1      17.860   2.597  11.734  0.00  0.00     0.107 A 
ATOM      4  N4  ZIN A   1      18.612   1.471  11.607  0.00  0.00    -0.289 N 
ATOM      5  C11 ZIN A   1      19.280   1.214  10.467  0.00  0.00     0.252 A 
ATOM      6  O12 ZIN A   1      19.950   0.200  10.368  0.00  0.00    -0.268 OA
ATOM      7  C13 ZIN A   1      19.206   2.115   9.391  0.00  0.00     0.075 A 
ATOM      8  C14 ZIN A   1      18.449   3.243   9.514  0.00  0.00     0.013 A 
ENDROOT
BRANCH   4   9
ATOM      9  C5  ZIN A   1      18.691   0.567  12.674  0.00  0.00     0.042 A 
ATOM     10  C10 ZIN A   1      19.324   0.935  13.854  0.00  0.00     0.030 A 
ATOM     11  C9  ZIN A   1      19.394   0.044  14.906  0.00  0.00     0.002 A 
ATOM     12  C8  ZIN A   1      18.846  -1.219  14.781  0.00  0.00     0.000 A 
ATOM     13  C7  ZIN A   1      18.219  -1.592  13.605  0.00  0.00     0.002 A 
ATOM     14  C6  ZIN A   1      18.140  -0.702  12.551  0.00  0.00     0.030 A 
ENDBRANCH   4   9
TORSDOF 1
ENDMDL
MODEL 8
REMARK VINA RESULT:      -5.8      3.266      5.474
REMARK  1 active torsions:
REMARK  status: ('A' for Active; 'I' for Inactive)
REMARK    1  A    between atoms: N4_4  and  C5_5 
ROOT
ATOM      1  C1  ZIN A   1      19.252   2.094   8.475  0.00  0.00     0.049 C 
ATOM      2  C2  ZIN A   1      18.622   1.181   9.496  0.00  0.00    -0.046 A 
ATOM      3  C3  ZIN A   1      18.984  -0.121   9.557  0.00  0.00     0.107 A 
ATOM      4  N4  ZIN A   1      18.423  -0.955  10.473  0.00  0.00    -0.289 N 
ATOM      5  C11 ZIN A   1      17.497  -0.503  11.339  0.00  0.00     0.252 A 
ATOM      6  O12 ZIN A   1      17.002  -1.263  12.155  0.00  0.00    -0.268 OA
ATOM      7  C13 ZIN A   1      17.098   0.844  11.303  0.00  0.00     0.075 A 
ATOM      8  C14 ZIN A   1      17.663   1.683  10.388  0.00  0.00     0.013 A 
ENDROOT
BRANCH   4   9
ATOM      9  C5  ZIN A   1      18.815  -2.299  10.517  0.00  0.00     0.042 A 
ATOM     10  C10 ZIN A   1      19.767  -2.717  11.438  0.00  0.00     0.030 A 
ATOM     11  C9  ZIN A   1      20.146  -4.044  11.483  0.00  0.00     0.002 A 
ATOM     12  C8  ZIN A   1      19.590  -4.953  10.603  0.00  0.00     0.000 A 
ATOM     13  C7  ZIN A   1      18.646  -4.539   9.680  0.00  0.00     0.002 A 
ATOM     14  C6  ZIN A   1      18.257  -3.214   9.634  0.00  0.00     0.030 A 
ENDBRANCH   4   9
TORSDOF 1
ENDMDL
MODEL 9
REMARK VINA RESULT:      -5.7      3.983      5.699
REMARK  1 active torsions:
REMARK  status: ('A' for Active; 'I' for Inactive)
REMARK    1  A    between atoms: N4_4  and  C5_5 
ROOT
ATOM      1  C1  ZIN A   1      18.204   3.217   9.983  0.00  0.00     0.049 C 
ATOM      2  C2  ZIN A   1      18.444   3.256  11.471  0.00  0.00    -0.046 A 
ATOM      3  C3  ZIN A   1      18.431   2.110  12.189  0.00  0.00     0.107 A 
ATOM      4  N4  ZIN A   1      18.646   2.130  13.532  0.00  0.00    -0.289 N 
ATOM      5  C11 ZIN A   1      18.878   3.291  14.174  0.00  0.00     0.252 A 
ATOM      6  O12 ZIN A   1      19.069   3.294  15.379  0.00  0.00    -0.268 OA
ATOM      7  C13 ZIN A   1      18.899   4.499  13.457  0.00  0.00     0.075 A 
ATOM      8  C14 ZIN A   1      18.688   4.480  12.110  0.00  0.00     0.013 A 
ENDROOT
BRANCH   4   9
ATOM      9  C5  ZIN A   1      18.628   0.931  14.254  0.00  0.00     0.042 A 
ATOM     10  C10 ZIN A   1      19.629  -0.013  14.062  0.00  0.00     0.030 A 
ATOM     11  C9  ZIN A   1      19.612  -1.191  14.782  0.00  0.00     0.002 A 
ATOM     12  C8  ZIN A   1      18.592  -1.439  15.682  0.00  0.00     0.000 A 
ATOM     13  C7  ZIN A   1      17.590  -0.503  15.871  0.00  0.00     0.002 A 
ATOM     14  C6  ZIN A   1      17.606   0.681  15.160  0.00  0.00     0.030 A 
ENDBRANCH   4   9
TORSDOF 1
ENDMDL
