MODEL 1
REMARK VINA RESULT:      -2.9      0.000      0.000
REMARK  1 active torsions:
REMARK  status: ('A' for Active; 'I' for Inactive)
REMARK    1  A    between atoms: S2_2  and  O4_4 
ROOT
ATOM      1  O1  ZIN A   1      19.947   0.426  18.352  0.00  0.00    -0.592 OA
ATOM      2  S2  ZIN A   1      19.022   1.565  18.251  0.00  0.00     0.169 S 
ATOM      3  O3  ZIN A   1      17.672   1.139  18.654  0.00  0.00    -0.592 OA
ATOM      4  S5  ZIN A   1      18.981   2.158  16.548  0.00  0.00     0.069 SA
ENDROOT
BRANCH   2   5
ATOM      5  O4  ZIN A   1      19.494   2.686  19.166  0.00  0.00    -0.286 OA
ATOM      6  H6  ZIN A   1      20.228   3.203  18.808  0.00  0.00     0.233 HD
ENDBRANCH   2   5
TORSDOF 1
ENDMDL
MODEL 2
REMARK VINA RESULT:      -2.9      0.335      1.924
REMARK  1 active torsions:
REMARK  status: ('A' for Active; 'I' for Inactive)
REMARK    1  A    between atoms: S2_2  and  O4_4 
ROOT
ATOM      1  O1  ZIN A   1      17.771   1.014  18.721  0.00  0.00    -0.592 OA
ATOM      2  S2  ZIN A   1      19.085   1.354  18.154  0.00  0.00     0.169 S 
ATOM      3  O3  ZIN A   1      19.614   2.553  18.824  0.00  0.00    -0.592 OA
ATOM      4  S5  ZIN A   1      18.911   1.680  16.388  0.00  0.00     0.069 SA
ENDROOT
BRANCH   2   5
ATOM      5  O4  ZIN A   1      20.044   0.191  18.363  0.00  0.00    -0.286 OA
ATOM      6  H6  ZIN A   1      19.997  -0.486  17.674  0.00  0.00     0.233 HD
ENDBRANCH   2   5
TORSDOF 1
ENDMDL
MODEL 3
REMARK VINA RESULT:      -2.8      7.513      8.243
REMARK  1 active torsions:
REMARK  status: ('A' for Active; 'I' for Inactive)
REMARK    1  A    between atoms: S2_2  and  O4_4 
ROOT
ATOM      1  O1  ZIN A   1      19.732   0.669  11.334  0.00  0.00    -0.592 OA
ATOM      2  S2  ZIN A   1      20.300  -0.504  10.652  0.00  0.00     0.169 S 
ATOM      3  O3  ZIN A   1      20.102  -0.371   9.199  0.00  0.00    -0.592 OA
ATOM      4  S5  ZIN A   1      19.473  -1.997  11.236  0.00  0.00     0.069 SA
ENDROOT
BRANCH   2   5
ATOM      5  O4  ZIN A   1      21.788  -0.597  10.955  0.00  0.00    -0.286 OA
ATOM      6  H6  ZIN A   1      22.335  -0.792  10.182  0.00  0.00     0.233 HD
ENDBRANCH   2   5
TORSDOF 1
ENDMDL
MODEL 4
REMARK VINA RESULT:      -2.8      6.080      6.579
REMARK  1 active torsions:
REMARK  status: ('A' for Active; 'I' for Inactive)
REMARK    1  A    between atoms: S2_2  and  O4_4 
ROOT
ATOM      1  O1  ZIN A   1      19.734   1.843  11.645  0.00  0.00    -0.592 OA
ATOM      2  S2  ZIN A   1      20.269   0.583  12.183  0.00  0.00     0.169 S 
ATOM      3  O3  ZIN A   1      19.806  -0.542  11.353  0.00  0.00    -0.592 OA
ATOM      4  S5  ZIN A   1      19.690   0.358  13.876  0.00  0.00     0.069 SA
ENDROOT
BRANCH   2   5
ATOM      5  O4  ZIN A   1      21.790   0.630  12.169  0.00  0.00    -0.286 OA
ATOM      6  H6  ZIN A   1      22.197   0.005  11.554  0.00  0.00     0.233 HD
ENDBRANCH   2   5
TORSDOF 1
ENDMDL
MODEL 5
REMARK VINA RESULT:      -2.8      5.670      6.301
REMARK  1 active torsions:
REMARK  status: ('A' for Active; 'I' for Inactive)
REMARK    1  A    between atoms: S2_2  and  O4_4 
ROOT
ATOM      1  O1  ZIN A   1      20.085   0.256  13.869  0.00  0.00    -0.592 OA
ATOM      2  S2  ZIN A   1      20.283   0.490  12.430  0.00  0.00     0.169 S 
ATOM      3  O3  ZIN A   1      19.550   1.701  12.025  0.00  0.00    -0.592 OA
ATOM      4  S5  ZIN A   1      19.664  -0.925  11.499  0.00  0.00     0.069 SA
ENDROOT
BRANCH   2   5
ATOM      5  O4  ZIN A   1      21.767   0.676  12.145  0.00  0.00    -0.286 OA
ATOM      6  H6  ZIN A   1      21.999   0.603  11.209  0.00  0.00     0.233 HD
ENDBRANCH   2   5
TORSDOF 1
ENDMDL
MODEL 6
REMARK VINA RESULT:      -2.7      7.223      7.791
REMARK  1 active torsions:
REMARK  status: ('A' for Active; 'I' for Inactive)
REMARK    1  A    between atoms: S2_2  and  O4_4 
ROOT
ATOM      1  O1  ZIN A   1      19.678  -1.425  11.890  0.00  0.00    -0.592 OA
ATOM      2  S2  ZIN A   1      20.269  -0.417  10.995  0.00  0.00     0.169 S 
ATOM      3  O3  ZIN A   1      19.964   0.930  11.504  0.00  0.00    -0.592 OA
ATOM      4  S5  ZIN A   1      19.577  -0.604   9.340  0.00  0.00     0.069 SA
ENDROOT
BRANCH   2   5
ATOM      5  O4  ZIN A   1      21.778  -0.610  10.939  0.00  0.00    -0.286 OA
ATOM      6  H6  ZIN A   1      22.272  -0.008  11.512  0.00  0.00     0.233 HD
ENDBRANCH   2   5
TORSDOF 1
ENDMDL
MODEL 7
REMARK VINA RESULT:      -2.7     12.562     13.202
REMARK  1 active torsions:
REMARK  status: ('A' for Active; 'I' for Inactive)
REMARK    1  A    between atoms: S2_2  and  O4_4 
ROOT
ATOM      1  O1  ZIN A   1      19.987  -3.294   6.046  0.00  0.00    -0.592 OA
ATOM      2  S2  ZIN A   1      19.131  -2.156   5.676  0.00  0.00     0.169 S 
ATOM      3  O3  ZIN A   1      19.720  -1.453   4.524  0.00  0.00    -0.592 OA
ATOM      4  S5  ZIN A   1      19.004  -1.021   7.071  0.00  0.00     0.069 SA
ENDROOT
BRANCH   2   5
ATOM      5  O4  ZIN A   1      17.744  -2.662   5.305  0.00  0.00    -0.286 OA
ATOM      6  H6  ZIN A   1      17.398  -3.334   5.908  0.00  0.00     0.233 HD
ENDBRANCH   2   5
TORSDOF 1
ENDMDL
MODEL 8
REMARK VINA RESULT:      -2.7      1.661      2.189
REMARK  1 active torsions:
REMARK  status: ('A' for Active; 'I' for Inactive)
REMARK    1  A    between atoms: S2_2  and  O4_4 
ROOT
ATOM      1  O1  ZIN A   1      20.046   3.526  16.913  0.00  0.00    -0.592 OA
ATOM      2  S2  ZIN A   1      19.127   2.511  17.451  0.00  0.00     0.169 S 
ATOM      3  O3  ZIN A   1      19.711   1.912  18.662  0.00  0.00    -0.592 OA
ATOM      4  S5  ZIN A   1      18.859   1.226  16.214  0.00  0.00     0.069 SA
ENDROOT
BRANCH   2   5
ATOM      5  O4  ZIN A   1      17.797   3.164  17.800  0.00  0.00    -0.286 OA
ATOM      6  H6  ZIN A   1      17.163   2.565  18.217  0.00  0.00     0.233 HD
ENDBRANCH   2   5
TORSDOF 1
ENDMDL
MODEL 9
REMARK VINA RESULT:      -2.5     12.866     13.501
REMARK  1 active torsions:
REMARK  status: ('A' for Active; 'I' for Inactive)
REMARK    1  A    between atoms: S2_2  and  O4_4 
ROOT
ATOM      1  O1  ZIN A   1      19.809  -1.151   4.618  0.00  0.00    -0.592 OA
ATOM      2  S2  ZIN A   1      18.903  -2.030   5.374  0.00  0.00     0.169 S 
ATOM      3  O3  ZIN A   1      19.575  -2.491   6.600  0.00  0.00    -0.592 OA
ATOM      4  S5  ZIN A   1      18.461  -3.454   4.360  0.00  0.00     0.069 SA
ENDROOT
BRANCH   2   5
ATOM      5  O4  ZIN A   1      17.642  -1.261   5.746  0.00  0.00    -0.286 OA
ATOM      6  H6  ZIN A   1      17.573  -0.394   5.325  0.00  0.00     0.233 HD
ENDBRANCH   2   5
TORSDOF 1
ENDMDL
