MODEL 1
REMARK VINA RESULT:      -7.1      0.000      0.000
REMARK  3 active torsions:
REMARK  status: ('A' for Active; 'I' for Inactive)
REMARK    1  A    between atoms: C5_5  and  C6_6 
REMARK    2  A    between atoms: C6_6  and  C8_7 
REMARK    3  A    between atoms: C6_6  and  C15_14 
ROOT
ATOM      1  C6  ZIN A   1      19.222   1.876  10.958  0.00  0.00     0.086 C 
ENDROOT
BRANCH   1   2
ATOM      2  C5  ZIN A   1      18.766   1.321   9.633  0.00  0.00    -0.047 A 
ATOM      3  C4  ZIN A   1      17.655   0.500   9.573  0.00  0.00     0.009 A 
ATOM      4  C3  ZIN A   1      17.236  -0.008   8.358  0.00  0.00     0.024 A 
ATOM      5  C2  ZIN A   1      17.932   0.299   7.203  0.00  0.00     0.034 A 
ATOM      6 Cl1  ZIN A   1      17.411  -0.346   5.677  0.00  0.00    -0.084 Cl
ATOM      7  C19 ZIN A   1      19.041   1.124   7.263  0.00  0.00     0.024 A 
ATOM      8  C18 ZIN A   1      19.460   1.632   8.478  0.00  0.00     0.009 A 
ENDBRANCH   1   2
BRANCH   1   9
ATOM      9  C8  ZIN A   1      18.937   0.874  12.047  0.00  0.00    -0.025 A 
ATOM     10  C13 ZIN A   1      19.703  -0.274  12.149  0.00  0.00     0.041 A 
ATOM     11  C12 ZIN A   1      19.444  -1.190  13.154  0.00  0.00     0.024 A 
ATOM     12 Cl14 ZIN A   1      20.992  -0.561  11.022  0.00  0.00    -0.084 Cl
ATOM     13  C11 ZIN A   1      18.414  -0.965  14.046  0.00  0.00     0.002 A 
ATOM     14  C10 ZIN A   1      17.645   0.180  13.940  0.00  0.00     0.001 A 
ATOM     15  C9  ZIN A   1      17.907   1.098  12.941  0.00  0.00     0.009 A 
ENDBRANCH   1   9
BRANCH   1  16
ATOM     16  C15 ZIN A   1      18.470   3.176  11.253  0.00  0.00     0.191 C 
ATOM     17 Cl16 ZIN A   1      19.517   4.264  12.238  0.00  0.00    -0.107 Cl
ATOM     18 Cl17 ZIN A   1      18.050   3.992   9.701  0.00  0.00    -0.107 Cl
ENDBRANCH   1  16
TORSDOF 3
ENDMDL
MODEL 2
REMARK VINA RESULT:      -6.9      1.286      1.756
REMARK  3 active torsions:
REMARK  status: ('A' for Active; 'I' for Inactive)
REMARK    1  A    between atoms: C5_5  and  C6_6 
REMARK    2  A    between atoms: C6_6  and  C8_7 
REMARK    3  A    between atoms: C6_6  and  C15_14 
ROOT
ATOM      1  C6  ZIN A   1      18.705   1.439  10.378  0.00  0.00     0.086 C 
ENDROOT
BRANCH   1   2
ATOM      2  C5  ZIN A   1      18.524   1.043   8.936  0.00  0.00    -0.047 A 
ATOM      3  C4  ZIN A   1      19.369   1.555   7.968  0.00  0.00     0.009 A 
ATOM      4  C3  ZIN A   1      19.204   1.191   6.645  0.00  0.00     0.024 A 
ATOM      5  C2  ZIN A   1      18.190   0.320   6.288  0.00  0.00     0.034 A 
ATOM      6 Cl1  ZIN A   1      17.978  -0.131   4.625  0.00  0.00    -0.084 Cl
ATOM      7  C19 ZIN A   1      17.349  -0.196   7.258  0.00  0.00     0.024 A 
ATOM      8  C18 ZIN A   1      17.514   0.169   8.581  0.00  0.00     0.009 A 
ENDBRANCH   1   2
BRANCH   1   9
ATOM      9  C8  ZIN A   1      18.572   0.220  11.255  0.00  0.00    -0.025 A 
ATOM     10  C13 ZIN A   1      19.636  -0.186  12.041  0.00  0.00     0.041 A 
ATOM     11  C12 ZIN A   1      19.511  -1.302  12.849  0.00  0.00     0.024 A 
ATOM     12 Cl14 ZIN A   1      21.124   0.709  12.018  0.00  0.00    -0.084 Cl
ATOM     13  C11 ZIN A   1      18.329  -2.017  12.862  0.00  0.00     0.002 A 
ATOM     14  C10 ZIN A   1      17.269  -1.614  12.072  0.00  0.00     0.001 A 
ATOM     15  C9  ZIN A   1      17.391  -0.496  11.268  0.00  0.00     0.009 A 
ENDBRANCH   1   9
BRANCH   1  16
ATOM     16  C15 ZIN A   1      17.635   2.463  10.765  0.00  0.00     0.191 C 
ATOM     17 Cl16 ZIN A   1      17.670   2.722  12.550  0.00  0.00    -0.107 Cl
ATOM     18 Cl17 ZIN A   1      17.966   4.024   9.927  0.00  0.00    -0.107 Cl
ENDBRANCH   1  16
TORSDOF 3
ENDMDL
MODEL 3
REMARK VINA RESULT:      -6.8      2.295      3.811
REMARK  3 active torsions:
REMARK  status: ('A' for Active; 'I' for Inactive)
REMARK    1  A    between atoms: C5_5  and  C6_6 
REMARK    2  A    between atoms: C6_6  and  C8_7 
REMARK    3  A    between atoms: C6_6  and  C15_14 
ROOT
ATOM      1  C6  ZIN A   1      18.469  -0.405   9.964  0.00  0.00     0.086 C 
ENDROOT
BRANCH   1   2
ATOM      2  C5  ZIN A   1      18.311  -0.579   8.475  0.00  0.00    -0.047 A 
ATOM      3  C4  ZIN A   1      19.306  -1.202   7.744  0.00  0.00     0.009 A 
ATOM      4  C3  ZIN A   1      19.161  -1.363   6.378  0.00  0.00     0.024 A 
ATOM      5  C2  ZIN A   1      18.024  -0.896   5.744  0.00  0.00     0.034 A 
ATOM      6 Cl1  ZIN A   1      17.845  -1.092   4.028  0.00  0.00    -0.084 Cl
ATOM      7  C19 ZIN A   1      17.027  -0.279   6.477  0.00  0.00     0.024 A 
ATOM      8  C18 ZIN A   1      17.173  -0.117   7.842  0.00  0.00     0.009 A 
ENDBRANCH   1   2
BRANCH   1   9
ATOM      9  C8  ZIN A   1      18.301   1.050  10.320  0.00  0.00    -0.025 A 
ATOM     10  C13 ZIN A   1      17.621   1.406  11.471  0.00  0.00     0.041 A 
ATOM     11  C12 ZIN A   1      17.473   2.742  11.800  0.00  0.00     0.024 A 
ATOM     12 Cl14 ZIN A   1      16.960   0.178  12.505  0.00  0.00    -0.084 Cl
ATOM     13  C11 ZIN A   1      17.993   3.720  10.974  0.00  0.00     0.002 A 
ATOM     14  C10 ZIN A   1      18.667   3.363   9.821  0.00  0.00     0.001 A 
ATOM     15  C9  ZIN A   1      18.821   2.028   9.494  0.00  0.00     0.009 A 
ENDBRANCH   1   9
BRANCH   1  16
ATOM     16  C15 ZIN A   1      19.861  -0.876  10.389  0.00  0.00     0.191 C 
ATOM     17 Cl16 ZIN A   1      20.506   0.228  11.661  0.00  0.00    -0.107 Cl
ATOM     18 Cl17 ZIN A   1      19.755  -2.551  11.046  0.00  0.00    -0.107 Cl
ENDBRANCH   1  16
TORSDOF 3
ENDMDL
MODEL 4
REMARK VINA RESULT:      -6.7      1.910      5.252
REMARK  3 active torsions:
REMARK  status: ('A' for Active; 'I' for Inactive)
REMARK    1  A    between atoms: C5_5  and  C6_6 
REMARK    2  A    between atoms: C6_6  and  C8_7 
REMARK    3  A    between atoms: C6_6  and  C15_14 
ROOT
ATOM      1  C6  ZIN A   1      17.892   2.375  11.515  0.00  0.00     0.086 C 
ENDROOT
BRANCH   1   2
ATOM      2  C5  ZIN A   1      18.299   1.442  12.627  0.00  0.00    -0.047 A 
ATOM      3  C4  ZIN A   1      19.571   0.899  12.642  0.00  0.00     0.009 A 
ATOM      4  C3  ZIN A   1      19.944   0.044  13.662  0.00  0.00     0.024 A 
ATOM      5  C2  ZIN A   1      19.045  -0.271  14.664  0.00  0.00     0.034 A 
ATOM      6 Cl1  ZIN A   1      19.512  -1.351  15.942  0.00  0.00    -0.084 Cl
ATOM      7  C19 ZIN A   1      17.776   0.278  14.652  0.00  0.00     0.024 A 
ATOM      8  C18 ZIN A   1      17.402   1.131  13.631  0.00  0.00     0.009 A 
ENDBRANCH   1   2
BRANCH   1   9
ATOM      9  C8  ZIN A   1      18.197   1.734  10.185  0.00  0.00    -0.025 A 
ATOM     10  C13 ZIN A   1      17.526   0.587   9.800  0.00  0.00     0.041 A 
ATOM     11  C12 ZIN A   1      17.802   0.004   8.576  0.00  0.00     0.024 A 
ATOM     12 Cl14 ZIN A   1      16.333  -0.115  10.848  0.00  0.00    -0.084 Cl
ATOM     13  C11 ZIN A   1      18.756   0.559   7.745  0.00  0.00     0.002 A 
ATOM     14  C10 ZIN A   1      19.430   1.702   8.134  0.00  0.00     0.001 A 
ATOM     15  C9  ZIN A   1      19.151   2.289   9.354  0.00  0.00     0.009 A 
ENDBRANCH   1   9
BRANCH   1  16
ATOM     16  C15 ZIN A   1      18.670   3.687  11.639  0.00  0.00     0.191 C 
ATOM     17 Cl16 ZIN A   1      17.765   5.002  10.799  0.00  0.00    -0.107 Cl
ATOM     18 Cl17 ZIN A   1      18.863   4.109  13.381  0.00  0.00    -0.107 Cl
ENDBRANCH   1  16
TORSDOF 3
ENDMDL
MODEL 5
REMARK VINA RESULT:      -6.6      2.752      6.394
REMARK  3 active torsions:
REMARK  status: ('A' for Active; 'I' for Inactive)
REMARK    1  A    between atoms: C5_5  and  C6_6 
REMARK    2  A    between atoms: C6_6  and  C8_7 
REMARK    3  A    between atoms: C6_6  and  C15_14 
ROOT
ATOM      1  C6  ZIN A   1      19.291  -0.793  13.083  0.00  0.00     0.086 C 
ENDROOT
BRANCH   1   2
ATOM      2  C5  ZIN A   1      18.901  -0.341  14.467  0.00  0.00    -0.047 A 
ATOM      3  C4  ZIN A   1      19.328   0.888  14.937  0.00  0.00     0.009 A 
ATOM      4  C3  ZIN A   1      18.969   1.303  16.206  0.00  0.00     0.024 A 
ATOM      5  C2  ZIN A   1      18.189   0.488  17.006  0.00  0.00     0.034 A 
ATOM      6 Cl1  ZIN A   1      17.745   1.007  18.603  0.00  0.00    -0.084 Cl
ATOM      7  C19 ZIN A   1      17.758  -0.738  16.532  0.00  0.00     0.024 A 
ATOM      8  C18 ZIN A   1      18.117  -1.154  15.264  0.00  0.00     0.009 A 
ENDBRANCH   1   2
BRANCH   1   9
ATOM      9  C8  ZIN A   1      18.876   0.249  12.078  0.00  0.00    -0.025 A 
ATOM     10  C13 ZIN A   1      19.640   0.461  10.944  0.00  0.00     0.041 A 
ATOM     11  C12 ZIN A   1      19.254   1.415  10.018  0.00  0.00     0.024 A 
ATOM     12 Cl14 ZIN A   1      21.079  -0.474  10.679  0.00  0.00    -0.084 Cl
ATOM     13  C11 ZIN A   1      18.112   2.163  10.233  0.00  0.00     0.002 A 
ATOM     14  C10 ZIN A   1      17.353   1.955  11.369  0.00  0.00     0.001 A 
ATOM     15  C9  ZIN A   1      17.735   0.999  12.291  0.00  0.00     0.009 A 
ENDBRANCH   1   9
BRANCH   1  16
ATOM     16  C15 ZIN A   1      18.594  -2.117  12.763  0.00  0.00     0.191 C 
ATOM     17 Cl16 ZIN A   1      17.279  -1.827  11.563  0.00  0.00    -0.107 Cl
ATOM     18 Cl17 ZIN A   1      19.790  -3.276  12.073  0.00  0.00    -0.107 Cl
ENDBRANCH   1  16
TORSDOF 3
ENDMDL
MODEL 6
REMARK VINA RESULT:      -6.6      2.120      4.520
REMARK  3 active torsions:
REMARK  status: ('A' for Active; 'I' for Inactive)
REMARK    1  A    between atoms: C5_5  and  C6_6 
REMARK    2  A    between atoms: C6_6  and  C8_7 
REMARK    3  A    between atoms: C6_6  and  C15_14 
ROOT
ATOM      1  C6  ZIN A   1      17.809   0.418   9.499  0.00  0.00     0.086 C 
ENDROOT
BRANCH   1   2
ATOM      2  C5  ZIN A   1      18.360   1.566  10.306  0.00  0.00    -0.047 A 
ATOM      3  C4  ZIN A   1      19.584   1.441  10.938  0.00  0.00     0.009 A 
ATOM      4  C3  ZIN A   1      20.089   2.494  11.677  0.00  0.00     0.024 A 
ATOM      5  C2  ZIN A   1      19.370   3.670  11.787  0.00  0.00     0.034 A 
ATOM      6 Cl1  ZIN A   1      20.002   4.991  12.722  0.00  0.00    -0.084 Cl
ATOM      7  C19 ZIN A   1      18.149   3.796  11.149  0.00  0.00     0.024 A 
ATOM      8  C18 ZIN A   1      17.643   2.743  10.412  0.00  0.00     0.009 A 
ENDBRANCH   1   2
BRANCH   1   9
ATOM      9  C8  ZIN A   1      18.100  -0.880  10.209  0.00  0.00    -0.025 A 
ATOM     10  C13 ZIN A   1      17.488  -1.158  11.419  0.00  0.00     0.041 A 
ATOM     11  C12 ZIN A   1      17.751  -2.353  12.066  0.00  0.00     0.024 A 
ATOM     12 Cl14 ZIN A   1      16.387  -0.014  12.120  0.00  0.00    -0.084 Cl
ATOM     13  C11 ZIN A   1      18.633  -3.261  11.511  0.00  0.00     0.002 A 
ATOM     14  C10 ZIN A   1      19.247  -2.978  10.306  0.00  0.00     0.001 A 
ATOM     15  C9  ZIN A   1      18.981  -1.788   9.655  0.00  0.00     0.009 A 
ENDBRANCH   1   9
BRANCH   1  16
ATOM     16  C15 ZIN A   1      18.468   0.401   8.118  0.00  0.00     0.191 C 
ATOM     17 Cl16 ZIN A   1      17.254  -0.094   6.880  0.00  0.00    -0.107 Cl
ATOM     18 Cl17 ZIN A   1      19.085   2.049   7.727  0.00  0.00    -0.107 Cl
ENDBRANCH   1  16
TORSDOF 3
ENDMDL
MODEL 7
REMARK VINA RESULT:      -6.4      2.936      5.147
REMARK  3 active torsions:
REMARK  status: ('A' for Active; 'I' for Inactive)
REMARK    1  A    between atoms: C5_5  and  C6_6 
REMARK    2  A    between atoms: C6_6  and  C8_7 
REMARK    3  A    between atoms: C6_6  and  C15_14 
ROOT
ATOM      1  C6  ZIN A   1      18.251  -2.053   8.264  0.00  0.00     0.086 C 
ENDROOT
BRANCH   1   2
ATOM      2  C5  ZIN A   1      18.256  -0.624   8.742  0.00  0.00    -0.047 A 
ATOM      3  C4  ZIN A   1      19.142   0.285   8.192  0.00  0.00     0.009 A 
ATOM      4  C3  ZIN A   1      19.146   1.596   8.630  0.00  0.00     0.024 A 
ATOM      5  C2  ZIN A   1      18.268   1.998   9.620  0.00  0.00     0.034 A 
ATOM      6 Cl1  ZIN A   1      18.279   3.643  10.175  0.00  0.00    -0.084 Cl
ATOM      7  C19 ZIN A   1      17.379   1.090  10.165  0.00  0.00     0.024 A 
ATOM      8  C18 ZIN A   1      17.375  -0.222   9.728  0.00  0.00     0.009 A 
ENDBRANCH   1   2
BRANCH   1   9
ATOM      9  C8  ZIN A   1      18.640  -2.964   9.400  0.00  0.00    -0.025 A 
ATOM     10  C13 ZIN A   1      17.986  -4.170   9.574  0.00  0.00     0.041 A 
ATOM     11  C12 ZIN A   1      18.348  -5.009  10.614  0.00  0.00     0.024 A 
ATOM     12 Cl14 ZIN A   1      16.716  -4.635   8.485  0.00  0.00    -0.084 Cl
ATOM     13  C11 ZIN A   1      19.354  -4.636  11.484  0.00  0.00     0.002 A 
ATOM     14  C10 ZIN A   1      20.003  -3.427  11.313  0.00  0.00     0.001 A 
ATOM     15  C9  ZIN A   1      19.646  -2.592  10.271  0.00  0.00     0.009 A 
ENDBRANCH   1   9
BRANCH   1  16
ATOM     16  C15 ZIN A   1      19.252  -2.212   7.118  0.00  0.00     0.191 C 
ATOM     17 Cl16 ZIN A   1      19.828  -3.920   7.057  0.00  0.00    -0.107 Cl
ATOM     18 Cl17 ZIN A   1      18.452  -1.793   5.558  0.00  0.00    -0.107 Cl
ENDBRANCH   1  16
TORSDOF 3
ENDMDL
MODEL 8
REMARK VINA RESULT:      -6.4      2.287      5.292
REMARK  3 active torsions:
REMARK  status: ('A' for Active; 'I' for Inactive)
REMARK    1  A    between atoms: C5_5  and  C6_6 
REMARK    2  A    between atoms: C6_6  and  C8_7 
REMARK    3  A    between atoms: C6_6  and  C15_14 
ROOT
ATOM      1  C6  ZIN A   1      19.491   1.517  10.149  0.00  0.00     0.086 C 
ENDROOT
BRANCH   1   2
ATOM      2  C5  ZIN A   1      18.638   2.564  10.816  0.00  0.00    -0.047 A 
ATOM      3  C4  ZIN A   1      18.395   2.494  12.176  0.00  0.00     0.009 A 
ATOM      4  C3  ZIN A   1      17.613   3.455  12.789  0.00  0.00     0.024 A 
ATOM      5  C2  ZIN A   1      17.070   4.484  12.041  0.00  0.00     0.034 A 
ATOM      6 Cl1  ZIN A   1      16.081   5.688  12.809  0.00  0.00    -0.084 Cl
ATOM      7  C19 ZIN A   1      17.318   4.557  10.682  0.00  0.00     0.024 A 
ATOM      8  C18 ZIN A   1      18.099   3.595  10.070  0.00  0.00     0.009 A 
ENDBRANCH   1   2
BRANCH   1   9
ATOM      9  C8  ZIN A   1      18.812   1.043   8.890  0.00  0.00    -0.025 A 
ATOM     10  C13 ZIN A   1      17.636   0.318   8.968  0.00  0.00     0.041 A 
ATOM     11  C12 ZIN A   1      17.011  -0.111   7.810  0.00  0.00     0.024 A 
ATOM     12 Cl14 ZIN A   1      16.942  -0.046  10.517  0.00  0.00    -0.084 Cl
ATOM     13  C11 ZIN A   1      17.567   0.174   6.578  0.00  0.00     0.002 A 
ATOM     14  C10 ZIN A   1      18.746   0.893   6.501  0.00  0.00     0.001 A 
ATOM     15  C9  ZIN A   1      19.368   1.327   7.657  0.00  0.00     0.009 A 
ENDBRANCH   1   9
BRANCH   1  16
ATOM     16  C15 ZIN A   1      19.684   0.333  11.100  0.00  0.00     0.191 C 
ATOM     17 Cl16 ZIN A   1      20.126  -1.134  10.149  0.00  0.00    -0.107 Cl
ATOM     18 Cl17 ZIN A   1      21.003   0.710  12.269  0.00  0.00    -0.107 Cl
ENDBRANCH   1  16
TORSDOF 3
ENDMDL
MODEL 9
REMARK VINA RESULT:      -6.4      4.528      6.116
REMARK  3 active torsions:
REMARK  status: ('A' for Active; 'I' for Inactive)
REMARK    1  A    between atoms: C5_5  and  C6_6 
REMARK    2  A    between atoms: C6_6  and  C8_7 
REMARK    3  A    between atoms: C6_6  and  C15_14 
ROOT
ATOM      1  C6  ZIN A   1      18.549  -3.831   9.849  0.00  0.00     0.086 C 
ENDROOT
BRANCH   1   2
ATOM      2  C5  ZIN A   1      18.517  -2.625   8.946  0.00  0.00    -0.047 A 
ATOM      3  C4  ZIN A   1      19.252  -2.621   7.774  0.00  0.00     0.009 A 
ATOM      4  C3  ZIN A   1      19.221  -1.515   6.944  0.00  0.00     0.024 A 
ATOM      5  C2  ZIN A   1      18.461  -0.413   7.289  0.00  0.00     0.034 A 
ATOM      6 Cl1  ZIN A   1      18.429   0.979   6.251  0.00  0.00    -0.084 Cl
ATOM      7  C19 ZIN A   1      17.722  -0.420   8.458  0.00  0.00     0.024 A 
ATOM      8  C18 ZIN A   1      17.753  -1.525   9.288  0.00  0.00     0.009 A 
ENDBRANCH   1   2
BRANCH   1   9
ATOM      9  C8  ZIN A   1      17.801  -4.966   9.199  0.00  0.00    -0.025 A 
ATOM     10  C13 ZIN A   1      18.491  -6.064   8.717  0.00  0.00     0.041 A 
ATOM     11  C12 ZIN A   1      17.802  -7.109   8.126  0.00  0.00     0.024 A 
ATOM     12 Cl14 ZIN A   1      20.220  -6.135   8.861  0.00  0.00    -0.084 Cl
ATOM     13  C11 ZIN A   1      16.426  -7.049   8.006  0.00  0.00     0.002 A 
ATOM     14  C10 ZIN A   1      15.738  -5.948   8.483  0.00  0.00     0.001 A 
ATOM     15  C9  ZIN A   1      16.426  -4.908   9.079  0.00  0.00     0.009 A 
ENDBRANCH   1   9
BRANCH   1  16
ATOM     16  C15 ZIN A   1      17.890  -3.485  11.186  0.00  0.00     0.191 C 
ATOM     17 Cl16 ZIN A   1      17.435  -5.006  12.041  0.00  0.00    -0.107 Cl
ATOM     18 Cl17 ZIN A   1      19.048  -2.549  12.203  0.00  0.00    -0.107 Cl
ENDBRANCH   1  16
TORSDOF 3
ENDMDL
