MODEL 1
REMARK VINA RESULT:      -9.0      0.000      0.000
REMARK  6 active torsions:
REMARK  status: ('A' for Active; 'I' for Inactive)
REMARK    1  A    between atoms: C2_2  and  N3_3 
REMARK    2  A    between atoms: C5_5  and  C7_6 
REMARK    3  A    between atoms: C7_6  and  C8_7 
REMARK    4  A    between atoms: C8_7  and  N9_8 
REMARK    5  A    between atoms: C16_15  and  C17_16 
REMARK    6  A    between atoms: C16_15  and  C23_22 
ROOT
ATOM      1  N3  <0> d   1      19.162  -1.726  10.877  0.00  0.00    -0.351 N 
ATOM      2  C4  <0> d   1      17.697  -1.788  10.846  0.00  0.00     0.132 C 
ATOM      3  C5  <0> d   1      17.223  -0.320  10.749  0.00  0.00     0.032 C 
ATOM      4  C16 <0> d   1      18.444   0.361  10.087  0.00  0.00     0.100 C 
ATOM      5  C29 <0> d   1      19.609  -0.530  10.456  0.00  0.00     0.238 C 
ATOM      6  O30 <0> d   1      20.778  -0.214  10.377  0.00  0.00    -0.272 OA
ENDROOT
BRANCH   4   7
ATOM      7  C17 <0> d   1      18.269   0.417   8.592  0.00  0.00    -0.035 A 
ATOM      8  C22 <0> d   1      19.184   1.103   7.814  0.00  0.00     0.009 A 
ATOM      9  C21 <0> d   1      19.027   1.150   6.441  0.00  0.00     0.001 A 
ATOM     10  C20 <0> d   1      17.950   0.521   5.847  0.00  0.00     0.000 A 
ATOM     11  C19 <0> d   1      17.032  -0.160   6.624  0.00  0.00     0.001 A 
ATOM     12  C18 <0> d   1      17.191  -0.212   7.997  0.00  0.00     0.009 A 
ENDBRANCH   4   7
BRANCH   4  13
ATOM     13  C23 <0> d   1      18.642   1.746  10.646  0.00  0.00    -0.035 A 
ATOM     14  C28 <0> d   1      17.712   2.735  10.388  0.00  0.00     0.009 A 
ATOM     15  C27 <0> d   1      17.892   4.005  10.905  0.00  0.00     0.001 A 
ATOM     16  C26 <0> d   1      19.008   4.288  11.670  0.00  0.00     0.000 A 
ATOM     17  C25 <0> d   1      19.941   3.300  11.923  0.00  0.00     0.001 A 
ATOM     18  C24 <0> d   1      19.758   2.029  11.410  0.00  0.00     0.009 A 
ENDBRANCH   4  13
BRANCH   3  19
ATOM     19  C7  <0> d   1      16.957   0.262  12.138  0.00  0.00     0.036 C 
BRANCH  19  20
ATOM     20  C8  <0> d   1      17.414  -0.734  13.206  0.00  0.00     0.235 C 
BRANCH  20  21
ATOM     21  N9  <0> d   1      18.210  -0.033  14.223  0.00  0.00    -0.067 N 
ATOM     22  H10 <0> d   1      19.185  -0.060  13.965  0.00  0.00     0.280 HD
ATOM     23  C15 <0> d   1      17.765   1.365  14.313  0.00  0.00     0.261 C 
ATOM     24  C14 <0> d   1      18.595   2.094  15.373  0.00  0.00     0.195 C 
ATOM     25  O13 <0> d   1      18.460   1.417  16.626  0.00  0.00    -0.388 OA
ATOM     26  C12 <0> d   1      18.858   0.044  16.582  0.00  0.00     0.195 C 
ATOM     27  C11 <0> d   1      18.029  -0.689  15.524  0.00  0.00     0.261 C 
ENDBRANCH  20  21
ENDBRANCH  19  20
ENDBRANCH   3  19
BRANCH   1  28
ATOM     28  C2  <0> d   1      20.027  -2.823  11.317  0.00  0.00     0.121 C 
ATOM     29  C1  <0> d   1      19.192  -4.095  11.485  0.00  0.00     0.026 C 
ENDBRANCH   1  28
TORSDOF 6
ENDMDL
MODEL 2
REMARK VINA RESULT:      -8.6      1.715      4.139
REMARK  6 active torsions:
REMARK  status: ('A' for Active; 'I' for Inactive)
REMARK    1  A    between atoms: C2_2  and  N3_3 
REMARK    2  A    between atoms: C5_5  and  C7_6 
REMARK    3  A    between atoms: C7_6  and  C8_7 
REMARK    4  A    between atoms: C8_7  and  N9_8 
REMARK    5  A    between atoms: C16_15  and  C17_16 
REMARK    6  A    between atoms: C16_15  and  C23_22 
ROOT
ATOM      1  N3  <0> d   1      18.042   1.907  11.005  0.00  0.00    -0.351 N 
ATOM      2  C4  <0> d   1      19.457   1.959  10.620  0.00  0.00     0.132 C 
ATOM      3  C5  <0> d   1      19.822   0.519  10.195  0.00  0.00     0.032 C 
ATOM      4  C16 <0> d   1      18.447  -0.040   9.764  0.00  0.00     0.100 C 
ATOM      5  C29 <0> d   1      17.450   0.794  10.537  0.00  0.00     0.238 C 
ATOM      6  O30 <0> d   1      16.283   0.505  10.706  0.00  0.00    -0.272 OA
ENDROOT
BRANCH   4   7
ATOM      7  C17 <0> d   1      18.248   0.133   8.281  0.00  0.00    -0.035 A 
ATOM      8  C22 <0> d   1      19.225   0.747   7.519  0.00  0.00     0.009 A 
ATOM      9  C21 <0> d   1      19.045   0.902   6.157  0.00  0.00     0.001 A 
ATOM     10  C20 <0> d   1      17.884   0.451   5.558  0.00  0.00     0.000 A 
ATOM     11  C19 <0> d   1      16.904  -0.157   6.320  0.00  0.00     0.001 A 
ATOM     12  C18 <0> d   1      17.086  -0.316   7.681  0.00  0.00     0.009 A 
ENDBRANCH   4   7
BRANCH   4  13
ATOM     13  C23 <0> d   1      18.325  -1.493  10.145  0.00  0.00    -0.035 A 
ATOM     14  C28 <0> d   1      19.018  -2.454   9.434  0.00  0.00     0.009 A 
ATOM     15  C27 <0> d   1      18.910  -3.787   9.786  0.00  0.00     0.001 A 
ATOM     16  C26 <0> d   1      18.102  -4.158  10.844  0.00  0.00     0.000 A 
ATOM     17  C25 <0> d   1      17.405  -3.197  11.552  0.00  0.00     0.001 A 
ATOM     18  C24 <0> d   1      17.517  -1.864  11.202  0.00  0.00     0.009 A 
ENDBRANCH   4  13
BRANCH   3  19
ATOM     19  C7  <0> d   1      20.392  -0.272  11.373  0.00  0.00     0.036 C 
BRANCH  19  20
ATOM     20  C8  <0> d   1      20.917   0.698  12.433  0.00  0.00     0.235 C 
BRANCH  20  21
ATOM     21  N9  <0> d   1      20.421   0.295  13.756  0.00  0.00    -0.067 N 
ATOM     22  H10 <0> d   1      21.200   0.182  14.388  0.00  0.00     0.280 HD
ATOM     23  C15 <0> d   1      19.515   1.330  14.275  0.00  0.00     0.261 C 
ATOM     24  C14 <0> d   1      18.999   0.908  15.653  0.00  0.00     0.195 C 
ATOM     25  O13 <0> d   1      18.344  -0.358  15.544  0.00  0.00    -0.388 OA
ATOM     26  C12 <0> d   1      19.179  -1.394  15.020  0.00  0.00     0.195 C 
ATOM     27  C11 <0> d   1      19.696  -0.977  13.641  0.00  0.00     0.261 C 
ENDBRANCH  20  21
ENDBRANCH  19  20
ENDBRANCH   3  19
BRANCH   1  28
ATOM     28  C2  <0> d   1      17.364   2.932  11.801  0.00  0.00     0.121 C 
ATOM     29  C1  <0> d   1      17.274   4.230  10.994  0.00  0.00     0.026 C 
ENDBRANCH   1  28
TORSDOF 6
ENDMDL
MODEL 3
REMARK VINA RESULT:      -8.5      1.990      5.898
REMARK  6 active torsions:
REMARK  status: ('A' for Active; 'I' for Inactive)
REMARK    1  A    between atoms: C2_2  and  N3_3 
REMARK    2  A    between atoms: C5_5  and  C7_6 
REMARK    3  A    between atoms: C7_6  and  C8_7 
REMARK    4  A    between atoms: C8_7  and  N9_8 
REMARK    5  A    between atoms: C16_15  and  C17_16 
REMARK    6  A    between atoms: C16_15  and  C23_22 
ROOT
ATOM      1  N3  <0> d   1      18.065  -1.990  11.893  0.00  0.00    -0.351 N 
ATOM      2  C4  <0> d   1      19.481  -2.056  12.273  0.00  0.00     0.132 C 
ATOM      3  C5  <0> d   1      19.844  -0.635  12.758  0.00  0.00     0.032 C 
ATOM      4  C16 <0> d   1      18.468  -0.096  13.214  0.00  0.00     0.100 C 
ATOM      5  C29 <0> d   1      17.472  -0.899  12.407  0.00  0.00     0.238 C 
ATOM      6  O30 <0> d   1      16.305  -0.605  12.252  0.00  0.00    -0.272 OA
ENDROOT
BRANCH   4   7
ATOM      7  C17 <0> d   1      18.272  -0.331  14.689  0.00  0.00    -0.035 A 
ATOM      8  C22 <0> d   1      19.173  -1.110  15.391  0.00  0.00     0.009 A 
ATOM      9  C21 <0> d   1      18.995  -1.322  16.745  0.00  0.00     0.001 A 
ATOM     10  C20 <0> d   1      17.911  -0.763  17.396  0.00  0.00     0.000 A 
ATOM     11  C19 <0> d   1      17.007   0.012  16.693  0.00  0.00     0.001 A 
ATOM     12  C18 <0> d   1      17.187   0.227  15.339  0.00  0.00     0.009 A 
ENDBRANCH   4   7
BRANCH   4  13
ATOM     13  C23 <0> d   1      18.344   1.371  12.893  0.00  0.00    -0.035 A 
ATOM     14  C28 <0> d   1      17.565   1.783  11.829  0.00  0.00     0.009 A 
ATOM     15  C27 <0> d   1      17.447   3.130  11.538  0.00  0.00     0.001 A 
ATOM     16  C26 <0> d   1      18.118   4.063  12.306  0.00  0.00     0.000 A 
ATOM     17  C25 <0> d   1      18.902   3.651  13.367  0.00  0.00     0.001 A 
ATOM     18  C24 <0> d   1      19.015   2.305  13.660  0.00  0.00     0.009 A 
ENDBRANCH   4  13
BRANCH   3  19
ATOM     19  C7  <0> d   1      20.411   0.206  11.613  0.00  0.00     0.036 C 
BRANCH  19  20
ATOM     20  C8  <0> d   1      20.893  -0.717  10.492  0.00  0.00     0.235 C 
BRANCH  20  21
ATOM     21  N9  <0> d   1      20.414  -0.210   9.199  0.00  0.00    -0.067 N 
ATOM     22  H10 <0> d   1      21.199  -0.075   8.579  0.00  0.00     0.280 HD
ATOM     23  C15 <0> d   1      19.483  -1.181   8.607  0.00  0.00     0.261 C 
ATOM     24  C14 <0> d   1      18.985  -0.651   7.260  0.00  0.00     0.195 C 
ATOM     25  O13 <0> d   1      18.364   0.623   7.455  0.00  0.00    -0.388 OA
ATOM     26  C12 <0> d   1      19.225   1.596   8.051  0.00  0.00     0.195 C 
ATOM     27  C11 <0> d   1      19.723   1.071   9.400  0.00  0.00     0.261 C 
ENDBRANCH  20  21
ENDBRANCH  19  20
ENDBRANCH   3  19
BRANCH   1  28
ATOM     28  C2  <0> d   1      17.387  -2.982  11.055  0.00  0.00     0.121 C 
ATOM     29  C1  <0> d   1      17.649  -4.384  11.611  0.00  0.00     0.026 C 
ENDBRANCH   1  28
TORSDOF 6
ENDMDL
MODEL 4
REMARK VINA RESULT:      -8.5      1.812      6.819
REMARK  6 active torsions:
REMARK  status: ('A' for Active; 'I' for Inactive)
REMARK    1  A    between atoms: C2_2  and  N3_3 
REMARK    2  A    between atoms: C5_5  and  C7_6 
REMARK    3  A    between atoms: C7_6  and  C8_7 
REMARK    4  A    between atoms: C8_7  and  N9_8 
REMARK    5  A    between atoms: C16_15  and  C17_16 
REMARK    6  A    between atoms: C16_15  and  C23_22 
ROOT
ATOM      1  N3  <0> d   1      19.142   1.669  12.116  0.00  0.00    -0.351 N 
ATOM      2  C4  <0> d   1      17.675   1.670  12.138  0.00  0.00     0.132 C 
ATOM      3  C5  <0> d   1      17.262   0.183  12.217  0.00  0.00     0.032 C 
ATOM      4  C16 <0> d   1      18.506  -0.454  12.880  0.00  0.00     0.100 C 
ATOM      5  C29 <0> d   1      19.635   0.488  12.528  0.00  0.00     0.238 C 
ATOM      6  O30 <0> d   1      20.816   0.220  12.611  0.00  0.00    -0.272 OA
ENDROOT
BRANCH   4   7
ATOM      7  C17 <0> d   1      18.325  -0.533  14.374  0.00  0.00    -0.035 A 
ATOM      8  C22 <0> d   1      17.333   0.208  14.990  0.00  0.00     0.009 A 
ATOM      9  C21 <0> d   1      17.164   0.132  16.360  0.00  0.00     0.001 A 
ATOM     10  C20 <0> d   1      17.992  -0.677  17.115  0.00  0.00     0.000 A 
ATOM     11  C19 <0> d   1      18.988  -1.413  16.500  0.00  0.00     0.001 A 
ATOM     12  C18 <0> d   1      19.154  -1.340  15.129  0.00  0.00     0.009 A 
ENDBRANCH   4   7
BRANCH   4  13
ATOM     13  C23 <0> d   1      18.765  -1.824  12.309  0.00  0.00    -0.035 A 
ATOM     14  C28 <0> d   1      17.789  -2.800  12.384  0.00  0.00     0.009 A 
ATOM     15  C27 <0> d   1      18.026  -4.056  11.856  0.00  0.00     0.001 A 
ATOM     16  C26 <0> d   1      19.241  -4.337  11.261  0.00  0.00     0.000 A 
ATOM     17  C25 <0> d   1      20.218  -3.363  11.189  0.00  0.00     0.001 A 
ATOM     18  C24 <0> d   1      19.980  -2.106  11.714  0.00  0.00     0.009 A 
ENDBRANCH   4  13
BRANCH   3  19
ATOM     19  C7  <0> d   1      17.029  -0.395  10.820  0.00  0.00     0.036 C 
BRANCH  19  20
ATOM     20  C8  <0> d   1      17.286   0.688   9.770  0.00  0.00     0.235 C 
BRANCH  20  21
ATOM     21  N9  <0> d   1      17.572   0.057   8.475  0.00  0.00    -0.067 N 
ATOM     22  H10 <0> d   1      16.728   0.023   7.923  0.00  0.00     0.280 HD
ATOM     23  C15 <0> d   1      18.592   0.841   7.764  0.00  0.00     0.261 C 
ATOM     24  C14 <0> d   1      18.889   0.182   6.414  0.00  0.00     0.195 C 
ATOM     25  O13 <0> d   1      19.318  -1.165   6.631  0.00  0.00    -0.388 OA
ATOM     26  C12 <0> d   1      18.368  -1.963   7.342  0.00  0.00     0.195 C 
ATOM     27  C11 <0> d   1      18.069  -1.308   8.694  0.00  0.00     0.261 C 
ENDBRANCH  20  21
ENDBRANCH  19  20
ENDBRANCH   3  19
BRANCH   1  28
ATOM     28  C2  <0> d   1      19.963   2.806  11.694  0.00  0.00     0.121 C 
ATOM     29  C1  <0> d   1      19.463   4.080  12.380  0.00  0.00     0.026 C 
ENDBRANCH   1  28
TORSDOF 6
ENDMDL
MODEL 5
REMARK VINA RESULT:      -8.4      2.083      4.972
REMARK  6 active torsions:
REMARK  status: ('A' for Active; 'I' for Inactive)
REMARK    1  A    between atoms: C2_2  and  N3_3 
REMARK    2  A    between atoms: C5_5  and  C7_6 
REMARK    3  A    between atoms: C7_6  and  C8_7 
REMARK    4  A    between atoms: C8_7  and  N9_8 
REMARK    5  A    between atoms: C16_15  and  C17_16 
REMARK    6  A    between atoms: C16_15  and  C23_22 
ROOT
ATOM      1  N3  <0> d   1      18.389   0.202  10.168  0.00  0.00    -0.351 N 
ATOM      2  C4  <0> d   1      19.835  -0.036  10.251  0.00  0.00     0.132 C 
ATOM      3  C5  <0> d   1      20.092  -0.512  11.699  0.00  0.00     0.032 C 
ATOM      4  C16 <0> d   1      18.719  -1.112  12.081  0.00  0.00     0.100 C 
ATOM      5  C29 <0> d   1      17.738  -0.391  11.184  0.00  0.00     0.238 C 
ATOM      6  O30 <0> d   1      16.536  -0.359  11.352  0.00  0.00    -0.272 OA
ENDROOT
BRANCH   4   7
ATOM      7  C17 <0> d   1      18.698  -2.594  11.812  0.00  0.00    -0.035 A 
ATOM      8  C22 <0> d   1      19.875  -3.263  11.532  0.00  0.00     0.009 A 
ATOM      9  C21 <0> d   1      19.856  -4.624  11.289  0.00  0.00     0.001 A 
ATOM     10  C20 <0> d   1      18.659  -5.314  11.316  0.00  0.00     0.000 A 
ATOM     11  C19 <0> d   1      17.481  -4.645  11.590  0.00  0.00     0.001 A 
ATOM     12  C18 <0> d   1      17.501  -3.285  11.837  0.00  0.00     0.009 A 
ENDBRANCH   4   7
BRANCH   4  13
ATOM     13  C23 <0> d   1      18.408  -0.836  13.530  0.00  0.00    -0.035 A 
ATOM     14  C28 <0> d   1      17.521   0.168  13.867  0.00  0.00     0.009 A 
ATOM     15  C27 <0> d   1      17.232   0.418  15.196  0.00  0.00     0.001 A 
ATOM     16  C26 <0> d   1      17.839  -0.330  16.187  0.00  0.00     0.000 A 
ATOM     17  C25 <0> d   1      18.730  -1.331  15.850  0.00  0.00     0.001 A 
ATOM     18  C24 <0> d   1      19.015  -1.584  14.521  0.00  0.00     0.009 A 
ENDBRANCH   4  13
BRANCH   3  19
ATOM     19  C7  <0> d   1      20.448   0.666  12.607  0.00  0.00     0.036 C 
BRANCH  19  20
ATOM     20  C8  <0> d   1      20.266   1.977  11.839  0.00  0.00     0.235 C 
BRANCH  20  21
ATOM     21  N9  <0> d   1      19.578   2.954  12.693  0.00  0.00    -0.067 N 
ATOM     22  H10 <0> d   1      19.625   2.652  13.655  0.00  0.00     0.280 HD
ATOM     23  C15 <0> d   1      20.229   4.265  12.558  0.00  0.00     0.261 C 
ATOM     24  C14 <0> d   1      19.511   5.282  13.449  0.00  0.00     0.195 C 
ATOM     25  O13 <0> d   1      18.130   5.340  13.081  0.00  0.00    -0.388 OA
ATOM     26  C12 <0> d   1      17.458   4.081  13.173  0.00  0.00     0.195 C 
ATOM     27  C11 <0> d   1      18.172   3.061  12.281  0.00  0.00     0.261 C 
ENDBRANCH  20  21
ENDBRANCH  19  20
ENDBRANCH   3  19
BRANCH   1  28
ATOM     28  C2  <0> d   1      17.740   0.989   9.117  0.00  0.00     0.121 C 
ATOM     29  C1  <0> d   1      18.803   1.732   8.305  0.00  0.00     0.026 C 
ENDBRANCH   1  28
TORSDOF 6
ENDMDL
MODEL 6
REMARK VINA RESULT:      -8.3      1.847      5.301
REMARK  6 active torsions:
REMARK  status: ('A' for Active; 'I' for Inactive)
REMARK    1  A    between atoms: C2_2  and  N3_3 
REMARK    2  A    between atoms: C5_5  and  C7_6 
REMARK    3  A    between atoms: C7_6  and  C8_7 
REMARK    4  A    between atoms: C8_7  and  N9_8 
REMARK    5  A    between atoms: C16_15  and  C17_16 
REMARK    6  A    between atoms: C16_15  and  C23_22 
ROOT
ATOM      1  N3  <0> d   1      18.184  -0.153  12.768  0.00  0.00    -0.351 N 
ATOM      2  C4  <0> d   1      19.628   0.107  12.773  0.00  0.00     0.132 C 
ATOM      3  C5  <0> d   1      19.963   0.600  11.347  0.00  0.00     0.032 C 
ATOM      4  C16 <0> d   1      18.606   1.183  10.889  0.00  0.00     0.100 C 
ATOM      5  C29 <0> d   1      17.585   0.440  11.721  0.00  0.00     0.238 C 
ATOM      6  O30 <0> d   1      16.396   0.391  11.482  0.00  0.00    -0.272 OA
ENDROOT
BRANCH   4   7
ATOM      7  C17 <0> d   1      18.546   2.662  11.169  0.00  0.00    -0.035 A 
ATOM      8  C22 <0> d   1      19.561   3.273  11.883  0.00  0.00     0.009 A 
ATOM      9  C21 <0> d   1      19.507   4.631  12.136  0.00  0.00     0.001 A 
ATOM     10  C20 <0> d   1      18.436   5.377  11.684  0.00  0.00     0.000 A 
ATOM     11  C19 <0> d   1      17.418   4.766  10.976  0.00  0.00     0.001 A 
ATOM     12  C18 <0> d   1      17.473   3.409  10.719  0.00  0.00     0.009 A 
ENDBRANCH   4   7
BRANCH   4  13
ATOM     13  C23 <0> d   1      18.385   0.916   9.422  0.00  0.00    -0.035 A 
ATOM     14  C28 <0> d   1      17.413   0.019   9.022  0.00  0.00     0.009 A 
ATOM     15  C27 <0> d   1      17.207  -0.223   7.676  0.00  0.00     0.001 A 
ATOM     16  C26 <0> d   1      17.981   0.426   6.732  0.00  0.00     0.000 A 
ATOM     17  C25 <0> d   1      18.957   1.319   7.132  0.00  0.00     0.001 A 
ATOM     18  C24 <0> d   1      19.159   1.564   8.478  0.00  0.00     0.009 A 
ENDBRANCH   4  13
BRANCH   3  19
ATOM     19  C7  <0> d   1      20.390  -0.564  10.451  0.00  0.00     0.036 C 
BRANCH  19  20
ATOM     20  C8  <0> d   1      20.236  -1.880  11.216  0.00  0.00     0.235 C 
BRANCH  20  21
ATOM     21  N9  <0> d   1      19.648  -2.895  10.332  0.00  0.00    -0.067 N 
ATOM     22  H10 <0> d   1      19.912  -2.703   9.377  0.00  0.00     0.280 HD
ATOM     23  C15 <0> d   1      20.141  -4.224  10.718  0.00  0.00     0.261 C 
ATOM     24  C14 <0> d   1      19.528  -5.281   9.796  0.00  0.00     0.195 C 
ATOM     25  O13 <0> d   1      18.102  -5.206   9.874  0.00  0.00    -0.388 OA
ATOM     26  C12 <0> d   1      17.575  -3.921   9.530  0.00  0.00     0.195 C 
ATOM     27  C11 <0> d   1      18.185  -2.862  10.452  0.00  0.00     0.261 C 
ENDBRANCH  20  21
ENDBRANCH  19  20
ENDBRANCH   3  19
BRANCH   1  28
ATOM     28  C2  <0> d   1      17.486  -0.959  13.772  0.00  0.00     0.121 C 
ATOM     29  C1  <0> d   1      18.438  -1.268  14.931  0.00  0.00     0.026 C 
ENDBRANCH   1  28
TORSDOF 6
ENDMDL
MODEL 7
REMARK VINA RESULT:      -7.6      1.905      5.504
REMARK  6 active torsions:
REMARK  status: ('A' for Active; 'I' for Inactive)
REMARK    1  A    between atoms: C2_2  and  N3_3 
REMARK    2  A    between atoms: C5_5  and  C7_6 
REMARK    3  A    between atoms: C7_6  and  C8_7 
REMARK    4  A    between atoms: C8_7  and  N9_8 
REMARK    5  A    between atoms: C16_15  and  C17_16 
REMARK    6  A    between atoms: C16_15  and  C23_22 
ROOT
ATOM      1  N3  <0> d   1      19.129   1.064  10.396  0.00  0.00    -0.351 N 
ATOM      2  C4  <0> d   1      17.675   1.223  10.278  0.00  0.00     0.132 C 
ATOM      3  C5  <0> d   1      17.119   1.009  11.704  0.00  0.00     0.032 C 
ATOM      4  C16 <0> d   1      18.336   1.395  12.576  0.00  0.00     0.100 C 
ATOM      5  C29 <0> d   1      19.527   1.156  11.676  0.00  0.00     0.238 C 
ATOM      6  O30 <0> d   1      20.677   1.066  12.054  0.00  0.00    -0.272 OA
ENDROOT
BRANCH   4   7
ATOM      7  C17 <0> d   1      18.257   2.844  12.980  0.00  0.00    -0.035 A 
ATOM      8  C22 <0> d   1      19.066   3.325  13.994  0.00  0.00     0.009 A 
ATOM      9  C21 <0> d   1      18.996   4.656  14.361  0.00  0.00     0.001 A 
ATOM     10  C20 <0> d   1      18.112   5.504  13.723  0.00  0.00     0.000 A 
ATOM     11  C19 <0> d   1      17.299   5.023  12.714  0.00  0.00     0.001 A 
ATOM     12  C18 <0> d   1      17.371   3.693  12.343  0.00  0.00     0.009 A 
ENDBRANCH   4   7
BRANCH   4  13
ATOM     13  C23 <0> d   1      18.411   0.513  13.796  0.00  0.00    -0.035 A 
ATOM     14  C28 <0> d   1      17.509   0.682  14.829  0.00  0.00     0.009 A 
ATOM     15  C27 <0> d   1      17.575  -0.131  15.946  0.00  0.00     0.001 A 
ATOM     16  C26 <0> d   1      18.551  -1.106  16.032  0.00  0.00     0.000 A 
ATOM     17  C25 <0> d   1      19.457  -1.272  15.002  0.00  0.00     0.001 A 
ATOM     18  C24 <0> d   1      19.387  -0.462  13.884  0.00  0.00     0.009 A 
ENDBRANCH   4  13
BRANCH   3  19
ATOM     19  C7  <0> d   1      16.727  -0.453  11.924  0.00  0.00     0.036 C 
BRANCH  19  20
ATOM     20  C8  <0> d   1      17.311  -1.313  10.802  0.00  0.00     0.235 C 
BRANCH  20  21
ATOM     21  N9  <0> d   1      18.022  -2.461  11.383  0.00  0.00    -0.067 N 
ATOM     22  H10 <0> d   1      18.045  -2.368  12.387  0.00  0.00     0.280 HD
ATOM     23  C15 <0> d   1      17.324  -3.702  11.021  0.00  0.00     0.261 C 
ATOM     24  C14 <0> d   1      18.065  -4.896  11.627  0.00  0.00     0.195 C 
ATOM     25  O13 <0> d   1      19.417  -4.898  11.160  0.00  0.00    -0.388 OA
ATOM     26  C12 <0> d   1      20.132  -3.698  11.468  0.00  0.00     0.195 C 
ATOM     27  C11 <0> d   1      19.394  -2.501  10.862  0.00  0.00     0.261 C 
ENDBRANCH  20  21
ENDBRANCH  19  20
ENDBRANCH   3  19
BRANCH   1  28
ATOM     28  C2  <0> d   1      20.029   0.828   9.265  0.00  0.00     0.121 C 
ATOM     29  C1  <0> d   1      19.225   0.833   7.962  0.00  0.00     0.026 C 
ENDBRANCH   1  28
TORSDOF 6
ENDMDL
MODEL 8
REMARK VINA RESULT:      -6.2      2.432      4.673
REMARK  6 active torsions:
REMARK  status: ('A' for Active; 'I' for Inactive)
REMARK    1  A    between atoms: C2_2  and  N3_3 
REMARK    2  A    between atoms: C5_5  and  C7_6 
REMARK    3  A    between atoms: C7_6  and  C8_7 
REMARK    4  A    between atoms: C8_7  and  N9_8 
REMARK    5  A    between atoms: C16_15  and  C17_16 
REMARK    6  A    between atoms: C16_15  and  C23_22 
ROOT
ATOM      1  N3  <0> d   1      17.295   3.862  10.945  0.00  0.00    -0.351 N 
ATOM      2  C4  <0> d   1      18.575   4.324  10.397  0.00  0.00     0.132 C 
ATOM      3  C5  <0> d   1      19.554   3.142  10.581  0.00  0.00     0.032 C 
ATOM      4  C16 <0> d   1      18.588   1.935  10.609  0.00  0.00     0.100 C 
ATOM      5  C29 <0> d   1      17.275   2.524  11.075  0.00  0.00     0.238 C 
ATOM      6  O30 <0> d   1      16.336   1.882  11.499  0.00  0.00    -0.272 OA
ENDROOT
BRANCH   4   7
ATOM      7  C17 <0> d   1      18.446   1.341   9.232  0.00  0.00    -0.035 A 
ATOM      8  C22 <0> d   1      17.562   0.299   9.017  0.00  0.00     0.009 A 
ATOM      9  C21 <0> d   1      17.428  -0.243   7.752  0.00  0.00     0.001 A 
ATOM     10  C20 <0> d   1      18.184   0.249   6.705  0.00  0.00     0.000 A 
ATOM     11  C19 <0> d   1      19.072   1.286   6.922  0.00  0.00     0.001 A 
ATOM     12  C18 <0> d   1      19.203   1.832   8.185  0.00  0.00     0.009 A 
ENDBRANCH   4   7
BRANCH   4  13
ATOM     13  C23 <0> d   1      19.074   0.894  11.584  0.00  0.00    -0.035 A 
ATOM     14  C28 <0> d   1      20.057  -0.001  11.207  0.00  0.00     0.009 A 
ATOM     15  C27 <0> d   1      20.506  -0.954  12.103  0.00  0.00     0.001 A 
ATOM     16  C26 <0> d   1      19.963  -1.017  13.372  0.00  0.00     0.000 A 
ATOM     17  C25 <0> d   1      18.977  -0.126  13.749  0.00  0.00     0.001 A 
ATOM     18  C24 <0> d   1      18.531   0.830  12.854  0.00  0.00     0.009 A 
ENDBRANCH   4  13
BRANCH   3  19
ATOM     19  C7  <0> d   1      20.318   3.265  11.900  0.00  0.00     0.036 C 
BRANCH  19  20
ATOM     20  C8  <0> d   1      20.124   4.670  12.474  0.00  0.00     0.235 C 
BRANCH  20  21
ATOM     21  N9  <0> d   1      20.078   4.598  13.941  0.00  0.00    -0.067 N 
ATOM     22  H10 <0> d   1      20.916   4.151  14.282  0.00  0.00     0.280 HD
ATOM     23  C15 <0> d   1      19.988   5.957  14.493  0.00  0.00     0.261 C 
ATOM     24  C14 <0> d   1      19.941   5.881  16.022  0.00  0.00     0.195 C 
ATOM     25  O13 <0> d   1      18.827   5.077  16.419  0.00  0.00    -0.388 OA
ATOM     26  C12 <0> d   1      18.857   3.750  15.886  0.00  0.00     0.195 C 
ATOM     27  C11 <0> d   1      18.903   3.822  14.357  0.00  0.00     0.261 C 
ENDBRANCH  20  21
ENDBRANCH  19  20
ENDBRANCH   3  19
BRANCH   1  28
ATOM     28  C2  <0> d   1      16.185   4.745  11.310  0.00  0.00     0.121 C 
ATOM     29  C1  <0> d   1      16.569   5.564  12.545  0.00  0.00     0.026 C 
ENDBRANCH   1  28
TORSDOF 6
ENDMDL
