MODEL 1
REMARK VINA RESULT:      -6.1      0.000      0.000
REMARK  5 active torsions:
REMARK  status: ('A' for Active; 'I' for Inactive)
REMARK    1  A    between atoms: C2_2  and  C3_3 
REMARK    2  A    between atoms: C3_3  and  N4_4 
REMARK    3  A    between atoms: N4_4  and  C7_7 
REMARK    4  A    between atoms: C7_7  and  C10_9 
REMARK       I    between atoms: C10_9  and  N12_11 
REMARK    5  A    between atoms: N12_11  and  C13_12 
ROOT
ATOM      1  C10 <0> d   1      17.999  -0.566  11.311  0.00  0.00     0.252 C 
ATOM      2  O11 <0> d   1      18.900  -1.248  10.870  0.00  0.00    -0.271 OA
ATOM      3  N12 <0> d   1      17.347   0.293  10.504  0.00  0.00    -0.325 N 
ATOM      4  H30 <0> d   1      16.585   0.791  10.839  0.00  0.00     0.169 HD
ENDROOT
BRANCH   1   5
ATOM      5  C7  <0> d   1      17.610  -0.680  12.762  0.00  0.00     0.273 C 
ATOM      6  C9  <0> d   1      17.381   0.718  13.340  0.00  0.00     0.050 C 
BRANCH   5   7
ATOM      7  N4  <0> d   1      18.686  -1.347  13.507  0.00  0.00    -0.063 N 
ATOM      8  H5  <0> d   1      19.544  -1.294  12.979  0.00  0.00     0.278 HD
ATOM      9  H6  <0> d   1      18.442  -2.315  13.656  0.00  0.00     0.278 HD
BRANCH   7  10
ATOM     10  C3  <0> d   1      18.868  -0.682  14.804  0.00  0.00     0.233 C 
BRANCH  10  11
ATOM     11  C2  <0> d   1      18.398  -1.614  15.924  0.00  0.00     0.023 C 
ATOM     12  C1  <0> d   1      17.318  -0.912  16.751  0.00  0.00     0.007 C 
ENDBRANCH  10  11
ENDBRANCH   7  10
ENDBRANCH   5   7
ENDBRANCH   1   5
BRANCH   3  13
ATOM     13  C13 <0> d   1      17.769   0.469   9.181  0.00  0.00     0.040 A 
ATOM     14  C18 <0> d   1      18.669   1.479   8.866  0.00  0.00    -0.035 A 
ATOM     15  C17 <0> d   1      19.088   1.645   7.560  0.00  0.00     0.009 A 
ATOM     16  C19 <0> d   1      19.196   2.384   9.948  0.00  0.00     0.050 C 
ATOM     17  C16 <0> d   1      18.604   0.815   6.566  0.00  0.00     0.001 A 
ATOM     18  C15 <0> d   1      17.704  -0.188   6.875  0.00  0.00     0.002 A 
ATOM     19  C14 <0> d   1      17.285  -0.363   8.180  0.00  0.00     0.030 A 
ENDBRANCH   3  13
TORSDOF 5
ENDMDL
MODEL 2
REMARK VINA RESULT:      -6.1      2.057      6.828
REMARK  5 active torsions:
REMARK  status: ('A' for Active; 'I' for Inactive)
REMARK    1  A    between atoms: C2_2  and  C3_3 
REMARK    2  A    between atoms: C3_3  and  N4_4 
REMARK    3  A    between atoms: N4_4  and  C7_7 
REMARK    4  A    between atoms: C7_7  and  C10_9 
REMARK       I    between atoms: C10_9  and  N12_11 
REMARK    5  A    between atoms: N12_11  and  C13_12 
ROOT
ATOM      1  C10 <0> d   1      19.011   2.122  12.971  0.00  0.00     0.252 C 
ATOM      2  O11 <0> d   1      17.808   2.125  13.129  0.00  0.00    -0.271 OA
ATOM      3  N12 <0> d   1      19.793   1.365  13.765  0.00  0.00    -0.325 N 
ATOM      4  H30 <0> d   1      20.747   1.313  13.598  0.00  0.00     0.169 HD
ENDROOT
BRANCH   1   5
ATOM      5  C7  <0> d   1      19.629   2.966  11.887  0.00  0.00     0.273 C 
ATOM      6  C9  <0> d   1      18.667   4.095  11.509  0.00  0.00     0.050 C 
BRANCH   5   7
ATOM      7  N4  <0> d   1      19.892   2.132  10.707  0.00  0.00    -0.063 N 
ATOM      8  H5  <0> d   1      19.834   1.158  10.964  0.00  0.00     0.278 HD
ATOM      9  H6  <0> d   1      20.815   2.332  10.352  0.00  0.00     0.278 HD
BRANCH   7  10
ATOM     10  C3  <0> d   1      18.895   2.425   9.668  0.00  0.00     0.233 C 
BRANCH  10  11
ATOM     11  C2  <0> d   1      19.314   1.756   8.357  0.00  0.00     0.023 C 
ATOM     12  C1  <0> d   1      18.335   0.627   8.026  0.00  0.00     0.007 C 
ENDBRANCH  10  11
ENDBRANCH   7  10
ENDBRANCH   5   7
ENDBRANCH   1   5
BRANCH   3  13
ATOM     13  C13 <0> d   1      19.230   0.656  14.831  0.00  0.00     0.040 A 
ATOM     14  C18 <0> d   1      18.938  -0.695  14.692  0.00  0.00    -0.035 A 
ATOM     15  C17 <0> d   1      18.388  -1.393  15.750  0.00  0.00     0.009 A 
ATOM     16  C19 <0> d   1      19.233  -1.400  13.394  0.00  0.00     0.050 C 
ATOM     17  C16 <0> d   1      18.116  -0.746  16.942  0.00  0.00     0.001 A 
ATOM     18  C15 <0> d   1      18.400   0.600  17.081  0.00  0.00     0.002 A 
ATOM     19  C14 <0> d   1      18.956   1.303  16.030  0.00  0.00     0.030 A 
ENDBRANCH   3  13
TORSDOF 5
ENDMDL
MODEL 3
REMARK VINA RESULT:      -6.0      1.866      2.301
REMARK  5 active torsions:
REMARK  status: ('A' for Active; 'I' for Inactive)
REMARK    1  A    between atoms: C2_2  and  C3_3 
REMARK    2  A    between atoms: C3_3  and  N4_4 
REMARK    3  A    between atoms: N4_4  and  C7_7 
REMARK    4  A    between atoms: C7_7  and  C10_9 
REMARK       I    between atoms: C10_9  and  N12_11 
REMARK    5  A    between atoms: N12_11  and  C13_12 
ROOT
ATOM      1  C10 <0> d   1      19.074  -1.912   9.972  0.00  0.00     0.252 C 
ATOM      2  O11 <0> d   1      17.897  -2.037   9.705  0.00  0.00    -0.271 OA
ATOM      3  N12 <0> d   1      19.884  -1.227   9.140  0.00  0.00    -0.325 N 
ATOM      4  H30 <0> d   1      20.810  -1.072   9.384  0.00  0.00     0.169 HD
ENDROOT
BRANCH   1   5
ATOM      5  C7  <0> d   1      19.629  -2.522  11.233  0.00  0.00     0.273 C 
ATOM      6  C9  <0> d   1      18.644  -3.560  11.773  0.00  0.00     0.050 C 
BRANCH   5   7
ATOM      7  N4  <0> d   1      19.831  -1.470  12.238  0.00  0.00    -0.063 N 
ATOM      8  H5  <0> d   1      19.744  -0.565  11.800  0.00  0.00     0.278 HD
ATOM      9  H6  <0> d   1      20.752  -1.561  12.640  0.00  0.00     0.278 HD
BRANCH   7  10
ATOM     10  C3  <0> d   1      18.820  -1.603  13.295  0.00  0.00     0.233 C 
BRANCH  10  11
ATOM     11  C2  <0> d   1      19.447  -1.250  14.646  0.00  0.00     0.023 C 
ATOM     12  C1  <0> d   1      18.390  -1.376  15.746  0.00  0.00     0.007 C 
ENDBRANCH  10  11
ENDBRANCH   7  10
ENDBRANCH   5   7
ENDBRANCH   1   5
BRANCH   3  13
ATOM     13  C13 <0> d   1      19.390  -0.742   7.924  0.00  0.00     0.040 A 
ATOM     14  C18 <0> d   1      19.081   0.605   7.786  0.00  0.00    -0.035 A 
ATOM     15  C17 <0> d   1      18.600   1.081   6.582  0.00  0.00     0.009 A 
ATOM     16  C19 <0> d   1      19.282   1.547   8.944  0.00  0.00     0.050 C 
ATOM     17  C16 <0> d   1      18.414   0.216   5.519  0.00  0.00     0.001 A 
ATOM     18  C15 <0> d   1      18.715  -1.126   5.655  0.00  0.00     0.002 A 
ATOM     19  C14 <0> d   1      19.203  -1.609   6.855  0.00  0.00     0.030 A 
ENDBRANCH   3  13
TORSDOF 5
ENDMDL
MODEL 4
REMARK VINA RESULT:      -6.0      1.902      2.761
REMARK  5 active torsions:
REMARK  status: ('A' for Active; 'I' for Inactive)
REMARK    1  A    between atoms: C2_2  and  C3_3 
REMARK    2  A    between atoms: C3_3  and  N4_4 
REMARK    3  A    between atoms: N4_4  and  C7_7 
REMARK    4  A    between atoms: C7_7  and  C10_9 
REMARK       I    between atoms: C10_9  and  N12_11 
REMARK    5  A    between atoms: N12_11  and  C13_12 
ROOT
ATOM      1  C10 <0> d   1      18.841  -1.995  10.395  0.00  0.00     0.252 C 
ATOM      2  O11 <0> d   1      17.687  -1.662  10.225  0.00  0.00    -0.271 OA
ATOM      3  N12 <0> d   1      19.818  -1.450   9.644  0.00  0.00    -0.325 N 
ATOM      4  H30 <0> d   1      20.746  -1.668   9.823  0.00  0.00     0.169 HD
ENDROOT
BRANCH   1   5
ATOM      5  C7  <0> d   1      19.181  -3.019  11.447  0.00  0.00     0.273 C 
ATOM      6  C9  <0> d   1      17.899  -3.703  11.926  0.00  0.00     0.050 C 
BRANCH   5   7
ATOM      7  N4  <0> d   1      19.836  -2.356  12.582  0.00  0.00    -0.063 N 
ATOM      8  H5  <0> d   1      20.524  -1.703  12.239  0.00  0.00     0.278 HD
ATOM      9  H6  <0> d   1      20.289  -3.048  13.161  0.00  0.00     0.278 HD
BRANCH   7  10
ATOM     10  C3  <0> d   1      18.830  -1.637  13.376  0.00  0.00     0.233 C 
BRANCH  10  11
ATOM     11  C2  <0> d   1      19.426  -1.263  14.735  0.00  0.00     0.023 C 
ATOM     12  C1  <0> d   1      18.355  -1.408  15.818  0.00  0.00     0.007 C 
ENDBRANCH  10  11
ENDBRANCH   7  10
ENDBRANCH   5   7
ENDBRANCH   1   5
BRANCH   3  13
ATOM     13  C13 <0> d   1      19.493  -0.572   8.605  0.00  0.00     0.040 A 
ATOM     14  C18 <0> d   1      19.236  -1.063   7.331  0.00  0.00    -0.035 A 
ATOM     15  C17 <0> d   1      18.909  -0.193   6.310  0.00  0.00     0.009 A 
ATOM     16  C19 <0> d   1      19.299  -2.545   7.069  0.00  0.00     0.050 C 
ATOM     17  C16 <0> d   1      18.851   1.168   6.550  0.00  0.00     0.001 A 
ATOM     18  C15 <0> d   1      19.113   1.661   7.814  0.00  0.00     0.002 A 
ATOM     19  C14 <0> d   1      19.434   0.796   8.843  0.00  0.00     0.030 A 
ENDBRANCH   3  13
TORSDOF 5
ENDMDL
MODEL 5
REMARK VINA RESULT:      -5.9      2.434      3.153
REMARK  5 active torsions:
REMARK  status: ('A' for Active; 'I' for Inactive)
REMARK    1  A    between atoms: C2_2  and  C3_3 
REMARK    2  A    between atoms: C3_3  and  N4_4 
REMARK    3  A    between atoms: N4_4  and  C7_7 
REMARK    4  A    between atoms: C7_7  and  C10_9 
REMARK       I    between atoms: C10_9  and  N12_11 
REMARK    5  A    between atoms: N12_11  and  C13_12 
ROOT
ATOM      1  C10 <0> d   1      19.375  -1.213   9.971  0.00  0.00     0.252 C 
ATOM      2  O11 <0> d   1      18.178  -1.411   9.982  0.00  0.00    -0.271 OA
ATOM      3  N12 <0> d   1      19.984  -0.833   8.830  0.00  0.00    -0.325 N 
ATOM      4  H30 <0> d   1      20.928  -0.612   8.834  0.00  0.00     0.169 HD
ENDROOT
BRANCH   1   5
ATOM      5  C7  <0> d   1      20.180  -1.390  11.231  0.00  0.00     0.273 C 
ATOM      6  C9  <0> d   1      19.236  -1.652  12.406  0.00  0.00     0.050 C 
BRANCH   5   7
ATOM      7  N4  <0> d   1      20.959  -0.172  11.491  0.00  0.00    -0.063 N 
ATOM      8  H5  <0> d   1      21.106   0.325  10.626  0.00  0.00     0.278 HD
ATOM      9  H6  <0> d   1      21.851  -0.422  11.890  0.00  0.00     0.278 HD
BRANCH   7  10
ATOM     10  C3  <0> d   1      20.225   0.686  12.431  0.00  0.00     0.233 C 
BRANCH  10  11
ATOM     11  C2  <0> d   1      19.803   1.975  11.720  0.00  0.00     0.023 C 
ATOM     12  C1  <0> d   1      18.279   2.007  11.587  0.00  0.00     0.007 C 
ENDBRANCH  10  11
ENDBRANCH   7  10
ENDBRANCH   5   7
ENDBRANCH   1   5
BRANCH   3  13
ATOM     13  C13 <0> d   1      19.254  -0.760   7.638  0.00  0.00     0.040 A 
ATOM     14  C18 <0> d   1      18.797   0.468   7.176  0.00  0.00    -0.035 A 
ATOM     15  C17 <0> d   1      18.082   0.537   5.996  0.00  0.00     0.009 A 
ATOM     16  C19 <0> d   1      19.092   1.723   7.954  0.00  0.00     0.050 C 
ATOM     17  C16 <0> d   1      17.811  -0.616   5.281  0.00  0.00     0.001 A 
ATOM     18  C15 <0> d   1      18.259  -1.840   5.742  0.00  0.00     0.002 A 
ATOM     19  C14 <0> d   1      18.980  -1.916   6.918  0.00  0.00     0.030 A 
ENDBRANCH   3  13
TORSDOF 5
ENDMDL
MODEL 6
REMARK VINA RESULT:      -5.9      2.255      3.158
REMARK  5 active torsions:
REMARK  status: ('A' for Active; 'I' for Inactive)
REMARK    1  A    between atoms: C2_2  and  C3_3 
REMARK    2  A    between atoms: C3_3  and  N4_4 
REMARK    3  A    between atoms: N4_4  and  C7_7 
REMARK    4  A    between atoms: C7_7  and  C10_9 
REMARK       I    between atoms: C10_9  and  N12_11 
REMARK    5  A    between atoms: N12_11  and  C13_12 
ROOT
ATOM      1  C10 <0> d   1      18.195   2.875  11.372  0.00  0.00     0.252 C 
ATOM      2  O11 <0> d   1      17.240   3.313  10.765  0.00  0.00    -0.271 OA
ATOM      3  N12 <0> d   1      18.964   1.917  10.818  0.00  0.00    -0.325 N 
ATOM      4  H30 <0> d   1      19.764   1.613  11.274  0.00  0.00     0.169 HD
ENDROOT
BRANCH   1   5
ATOM      5  C7  <0> d   1      18.519   3.401  12.746  0.00  0.00     0.273 C 
ATOM      6  C9  <0> d   1      19.236   4.747  12.620  0.00  0.00     0.050 C 
BRANCH   5   7
ATOM      7  N4  <0> d   1      19.390   2.446  13.443  0.00  0.00    -0.063 N 
ATOM      8  H5  <0> d   1      20.276   2.884  13.646  0.00  0.00     0.278 HD
ATOM      9  H6  <0> d   1      19.542   1.638  12.858  0.00  0.00     0.278 HD
BRANCH   7  10
ATOM     10  C3  <0> d   1      18.752   2.028  14.699  0.00  0.00     0.233 C 
BRANCH  10  11
ATOM     11  C2  <0> d   1      19.087   0.561  14.976  0.00  0.00     0.023 C 
ATOM     12  C1  <0> d   1      19.859  -0.019  13.789  0.00  0.00     0.007 C 
ENDBRANCH  10  11
ENDBRANCH   7  10
ENDBRANCH   5   7
ENDBRANCH   1   5
BRANCH   3  13
ATOM     13  C13 <0> d   1      18.609   1.361   9.584  0.00  0.00     0.040 A 
ATOM     14  C18 <0> d   1      17.699   0.313   9.528  0.00  0.00    -0.035 A 
ATOM     15  C17 <0> d   1      17.346  -0.228   8.307  0.00  0.00     0.009 A 
ATOM     16  C19 <0> d   1      17.087  -0.222  10.796  0.00  0.00     0.050 C 
ATOM     17  C16 <0> d   1      17.908   0.263   7.142  0.00  0.00     0.001 A 
ATOM     18  C15 <0> d   1      18.819   1.301   7.195  0.00  0.00     0.002 A 
ATOM     19  C14 <0> d   1      19.172   1.852   8.412  0.00  0.00     0.030 A 
ENDBRANCH   3  13
TORSDOF 5
ENDMDL
MODEL 7
REMARK VINA RESULT:      -5.9      2.225      3.585
REMARK  5 active torsions:
REMARK  status: ('A' for Active; 'I' for Inactive)
REMARK    1  A    between atoms: C2_2  and  C3_3 
REMARK    2  A    between atoms: C3_3  and  N4_4 
REMARK    3  A    between atoms: N4_4  and  C7_7 
REMARK    4  A    between atoms: C7_7  and  C10_9 
REMARK       I    between atoms: C10_9  and  N12_11 
REMARK    5  A    between atoms: N12_11  and  C13_12 
ROOT
ATOM      1  C10 <0> d   1      18.483   0.559  12.226  0.00  0.00     0.252 C 
ATOM      2  O11 <0> d   1      17.272   0.533  12.172  0.00  0.00    -0.271 OA
ATOM      3  N12 <0> d   1      19.140   1.726  12.074  0.00  0.00    -0.325 N 
ATOM      4  H30 <0> d   1      20.103   1.758  12.181  0.00  0.00     0.169 HD
ENDROOT
BRANCH   1   5
ATOM      5  C7  <0> d   1      19.254  -0.714  12.464  0.00  0.00     0.273 C 
ATOM      6  C9  <0> d   1      18.282  -1.894  12.523  0.00  0.00     0.050 C 
BRANCH   5   7
ATOM      7  N4  <0> d   1      19.982  -0.615  13.736  0.00  0.00    -0.063 N 
ATOM      8  H5  <0> d   1      20.068   0.354  14.000  0.00  0.00     0.278 HD
ATOM      9  H6  <0> d   1      20.902  -1.017  13.629  0.00  0.00     0.278 HD
BRANCH   7  10
ATOM     10  C3  <0> d   1      19.247  -1.345  14.778  0.00  0.00     0.233 C 
BRANCH  10  11
ATOM     11  C2  <0> d   1      18.777  -0.361  15.852  0.00  0.00     0.023 C 
ATOM     12  C1  <0> d   1      17.568  -0.947  16.585  0.00  0.00     0.007 C 
ENDBRANCH  10  11
ENDBRANCH   7  10
ENDBRANCH   5   7
ENDBRANCH   1   5
BRANCH   3  13
ATOM     13  C13 <0> d   1      18.432   2.891  11.759  0.00  0.00     0.040 A 
ATOM     14  C18 <0> d   1      18.311   3.297  10.436  0.00  0.00    -0.035 A 
ATOM     15  C17 <0> d   1      17.606   4.444  10.130  0.00  0.00     0.009 A 
ATOM     16  C19 <0> d   1      18.937   2.479   9.337  0.00  0.00     0.050 C 
ATOM     17  C16 <0> d   1      17.031   5.196  11.139  0.00  0.00     0.001 A 
ATOM     18  C15 <0> d   1      17.155   4.798  12.457  0.00  0.00     0.002 A 
ATOM     19  C14 <0> d   1      17.854   3.648  12.771  0.00  0.00     0.030 A 
ENDBRANCH   3  13
TORSDOF 5
ENDMDL
MODEL 8
REMARK VINA RESULT:      -5.9      3.628      7.470
REMARK  5 active torsions:
REMARK  status: ('A' for Active; 'I' for Inactive)
REMARK    1  A    between atoms: C2_2  and  C3_3 
REMARK    2  A    between atoms: C3_3  and  N4_4 
REMARK    3  A    between atoms: N4_4  and  C7_7 
REMARK    4  A    between atoms: C7_7  and  C10_9 
REMARK       I    between atoms: C10_9  and  N12_11 
REMARK    5  A    between atoms: N12_11  and  C13_12 
ROOT
ATOM      1  C10 <0> d   1      18.790   1.805  13.798  0.00  0.00     0.252 C 
ATOM      2  O11 <0> d   1      17.640   2.074  14.076  0.00  0.00    -0.271 OA
ATOM      3  N12 <0> d   1      19.598   1.260  14.729  0.00  0.00    -0.325 N 
ATOM      4  H30 <0> d   1      20.497   0.985  14.490  0.00  0.00     0.169 HD
ENDROOT
BRANCH   1   5
ATOM      5  C7  <0> d   1      19.314   2.082  12.413  0.00  0.00     0.273 C 
ATOM      6  C9  <0> d   1      20.275   0.965  12.000  0.00  0.00     0.050 C 
BRANCH   5   7
ATOM      7  N4  <0> d   1      20.025   3.367  12.406  0.00  0.00    -0.063 N 
ATOM      8  H5  <0> d   1      20.763   3.339  11.719  0.00  0.00     0.278 HD
ATOM      9  H6  <0> d   1      20.421   3.537  13.318  0.00  0.00     0.278 HD
BRANCH   7  10
ATOM     10  C3  <0> d   1      19.085   4.444  12.071  0.00  0.00     0.233 C 
BRANCH  10  11
ATOM     11  C2  <0> d   1      18.241   4.027  10.864  0.00  0.00     0.023 C 
ATOM     12  C1  <0> d   1      16.908   4.779  10.891  0.00  0.00     0.007 C 
ENDBRANCH  10  11
ENDBRANCH   7  10
ENDBRANCH   5   7
ENDBRANCH   1   5
BRANCH   3  13
ATOM     13  C13 <0> d   1      19.141   1.090  16.040  0.00  0.00     0.040 A 
ATOM     14  C18 <0> d   1      18.617  -0.131  16.443  0.00  0.00    -0.035 A 
ATOM     15  C17 <0> d   1      18.172  -0.296  17.741  0.00  0.00     0.009 A 
ATOM     16  C19 <0> d   1      18.546  -1.279  15.470  0.00  0.00     0.050 C 
ATOM     17  C16 <0> d   1      18.237   0.757  18.634  0.00  0.00     0.001 A 
ATOM     18  C15 <0> d   1      18.751   1.976  18.235  0.00  0.00     0.002 A 
ATOM     19  C14 <0> d   1      19.204   2.147  16.941  0.00  0.00     0.030 A 
ENDBRANCH   3  13
TORSDOF 5
ENDMDL
MODEL 9
REMARK VINA RESULT:      -5.8      3.288      6.106
REMARK  5 active torsions:
REMARK  status: ('A' for Active; 'I' for Inactive)
REMARK    1  A    between atoms: C2_2  and  C3_3 
REMARK    2  A    between atoms: C3_3  and  N4_4 
REMARK    3  A    between atoms: N4_4  and  C7_7 
REMARK    4  A    between atoms: C7_7  and  C10_9 
REMARK       I    between atoms: C10_9  and  N12_11 
REMARK    5  A    between atoms: N12_11  and  C13_12 
ROOT
ATOM      1  C10 <0> d   1      18.658  -1.990   8.581  0.00  0.00     0.252 C 
ATOM      2  O11 <0> d   1      17.611  -1.740   9.140  0.00  0.00    -0.271 OA
ATOM      3  N12 <0> d   1      19.665  -1.095   8.604  0.00  0.00    -0.325 N 
ATOM      4  H30 <0> d   1      20.523  -1.320   8.213  0.00  0.00     0.169 HD
ENDROOT
BRANCH   1   5
ATOM      5  C7  <0> d   1      18.832  -3.302   7.860  0.00  0.00     0.273 C 
ATOM      6  C9  <0> d   1      19.257  -4.379   8.859  0.00  0.00     0.050 C 
BRANCH   5   7
ATOM      7  N4  <0> d   1      19.864  -3.159   6.825  0.00  0.00    -0.063 N 
ATOM      8  H5  <0> d   1      20.564  -3.876   6.946  0.00  0.00     0.278 HD
ATOM      9  H6  <0> d   1      20.297  -2.251   6.904  0.00  0.00     0.278 HD
BRANCH   7  10
ATOM     10  C3  <0> d   1      19.249  -3.295   5.498  0.00  0.00     0.233 C 
BRANCH  10  11
ATOM     11  C2  <0> d   1      19.159  -1.918   4.835  0.00  0.00     0.023 C 
ATOM     12  C1  <0> d   1      17.700  -1.616   4.486  0.00  0.00     0.007 C 
ENDBRANCH  10  11
ENDBRANCH   7  10
ENDBRANCH   5   7
ENDBRANCH   1   5
BRANCH   3  13
ATOM     13  C13 <0> d   1      19.472   0.161   9.191  0.00  0.00     0.040 A 
ATOM     14  C18 <0> d   1      19.090   1.244   8.409  0.00  0.00    -0.035 A 
ATOM     15  C17 <0> d   1      18.895   2.480   8.994  0.00  0.00     0.009 A 
ATOM     16  C19 <0> d   1      18.877   1.067   6.929  0.00  0.00     0.050 C 
ATOM     17  C16 <0> d   1      19.091   2.643  10.353  0.00  0.00     0.001 A 
ATOM     18  C15 <0> d   1      19.476   1.569  11.133  0.00  0.00     0.002 A 
ATOM     19  C14 <0> d   1      19.668   0.327  10.556  0.00  0.00     0.030 A 
ENDBRANCH   3  13
TORSDOF 5
ENDMDL
