MODEL 1
REMARK VINA RESULT:      -8.3      0.000      0.000
REMARK  2 active torsions:
REMARK  status: ('A' for Active; 'I' for Inactive)
REMARK    1  A    between atoms: C11_11  and  C12_12 
REMARK    2  A    between atoms: C19_19  and  O21_20 
ROOT
ATOM      1  O1  ZIN A   1      19.582  -1.467  13.278  0.00  0.00    -0.268 OA
ATOM      2  C2  ZIN A   1      19.493  -0.458  12.612  0.00  0.00     0.272 C 
ATOM      3  N3  ZIN A   1      18.421   0.319  12.752  0.00  0.00    -0.323 N 
ATOM      4  C4  ZIN A   1      18.218   1.524  12.097  0.00  0.00     0.047 A 
ATOM      5  C5  ZIN A   1      17.654   2.567  12.834  0.00  0.00     0.032 A 
ATOM      6  C6  ZIN A   1      17.419   3.793  12.251  0.00  0.00     0.026 A 
ATOM      7  C7  ZIN A   1      17.743   4.002  10.920  0.00  0.00     0.035 A 
ATOM      8 Cl8  ZIN A   1      17.446   5.548  10.188  0.00  0.00    -0.084 Cl
ATOM      9  C9  ZIN A   1      18.301   2.986  10.178  0.00  0.00     0.040 A 
ATOM     10  C10 ZIN A   1      18.546   1.732  10.759  0.00  0.00     0.022 A 
ATOM     11  C11 ZIN A   1      19.147   0.692   9.909  0.00  0.00     0.077 C 
ATOM     12  N18 ZIN A   1      20.059  -0.131  10.289  0.00  0.00    -0.247 NA
ATOM     13  C19 ZIN A   1      20.599  -0.112  11.653  0.00  0.00     0.335 C 
ATOM     14  H22 ZIN A   1      17.727   0.018  13.360  0.00  0.00     0.169 HD
ENDROOT
BRANCH  11  15
ATOM     15  C12 ZIN A   1      18.667   0.587   8.511  0.00  0.00    -0.007 A 
ATOM     16  C17 ZIN A   1      19.397   1.169   7.475  0.00  0.00     0.014 A 
ATOM     17  C16 ZIN A   1      18.949   1.063   6.175  0.00  0.00     0.001 A 
ATOM     18  C15 ZIN A   1      17.771   0.391   5.899  0.00  0.00     0.000 A 
ATOM     19  C14 ZIN A   1      17.040  -0.184   6.923  0.00  0.00     0.001 A 
ATOM     20  C13 ZIN A   1      17.482  -0.090   8.227  0.00  0.00     0.014 A 
ENDBRANCH  11  15
BRANCH  13  21
ATOM     21  O21 ZIN A   1      21.112   1.188  11.947  0.00  0.00    -0.367 OA
ATOM     22  H31 ZIN A   1      21.076   1.423  12.884  0.00  0.00     0.212 HD
ENDBRANCH  13  21
TORSDOF 2
ENDMDL
MODEL 2
REMARK VINA RESULT:      -8.0      3.602      6.553
REMARK  2 active torsions:
REMARK  status: ('A' for Active; 'I' for Inactive)
REMARK    1  A    between atoms: C11_11  and  C12_12 
REMARK    2  A    between atoms: C19_19  and  O21_20 
ROOT
ATOM      1  O1  ZIN A   1      19.628   2.623  10.529  0.00  0.00    -0.268 OA
ATOM      2  C2  ZIN A   1      19.588   1.487  10.955  0.00  0.00     0.272 C 
ATOM      3  N3  ZIN A   1      18.570   0.703  10.610  0.00  0.00    -0.323 N 
ATOM      4  C4  ZIN A   1      18.428  -0.627  10.977  0.00  0.00     0.047 A 
ATOM      5  C5  ZIN A   1      17.946  -1.511  10.010  0.00  0.00     0.032 A 
ATOM      6  C6  ZIN A   1      17.775  -2.847  10.301  0.00  0.00     0.026 A 
ATOM      7  C7  ZIN A   1      18.084  -3.327  11.564  0.00  0.00     0.035 A 
ATOM      8 Cl8  ZIN A   1      17.869  -5.011  11.928  0.00  0.00    -0.084 Cl
ATOM      9  C9  ZIN A   1      18.562  -2.471  12.529  0.00  0.00     0.040 A 
ATOM     10  C10 ZIN A   1      18.740  -1.108  12.247  0.00  0.00     0.022 A 
ATOM     11  C11 ZIN A   1      19.258  -0.250  13.325  0.00  0.00     0.077 C 
ATOM     12  N18 ZIN A   1      20.125   0.687  13.167  0.00  0.00    -0.247 NA
ATOM     13  C19 ZIN A   1      20.693   1.001  11.852  0.00  0.00     0.335 C 
ATOM     14  H22 ZIN A   1      17.872   1.091  10.060  0.00  0.00     0.169 HD
ENDROOT
BRANCH  11  15
ATOM     15  C12 ZIN A   1      18.743  -0.484  14.694  0.00  0.00    -0.007 A 
ATOM     16  C17 ZIN A   1      17.577   0.150  15.122  0.00  0.00     0.014 A 
ATOM     17  C16 ZIN A   1      17.100  -0.077  16.396  0.00  0.00     0.001 A 
ATOM     18  C15 ZIN A   1      17.782  -0.922  17.254  0.00  0.00     0.000 A 
ATOM     19  C14 ZIN A   1      18.942  -1.550  16.837  0.00  0.00     0.001 A 
ATOM     20  C13 ZIN A   1      19.426  -1.336  15.562  0.00  0.00     0.014 A 
ENDBRANCH  11  15
BRANCH  13  21
ATOM     21  O21 ZIN A   1      21.292  -0.172  11.297  0.00  0.00    -0.367 OA
ATOM     22  H31 ZIN A   1      20.722  -0.952  11.317  0.00  0.00     0.212 HD
ENDBRANCH  13  21
TORSDOF 2
ENDMDL
MODEL 3
REMARK VINA RESULT:      -7.8      3.130      5.615
REMARK  2 active torsions:
REMARK  status: ('A' for Active; 'I' for Inactive)
REMARK    1  A    between atoms: C11_11  and  C12_12 
REMARK    2  A    between atoms: C19_19  and  O21_20 
ROOT
ATOM      1  O1  ZIN A   1      19.444   1.836   9.101  0.00  0.00    -0.268 OA
ATOM      2  C2  ZIN A   1      19.066   2.191  10.198  0.00  0.00     0.272 C 
ATOM      3  N3  ZIN A   1      19.885   2.905  10.966  0.00  0.00    -0.323 N 
ATOM      4  C4  ZIN A   1      19.563   3.420  12.212  0.00  0.00     0.047 A 
ATOM      5  C5  ZIN A   1      20.015   4.707  12.510  0.00  0.00     0.032 A 
ATOM      6  C6  ZIN A   1      19.737   5.286  13.729  0.00  0.00     0.026 A 
ATOM      7  C7  ZIN A   1      19.000   4.591  14.675  0.00  0.00     0.035 A 
ATOM      8 Cl8  ZIN A   1      18.650   5.323  16.210  0.00  0.00    -0.084 Cl
ATOM      9  C9  ZIN A   1      18.545   3.322  14.399  0.00  0.00     0.040 A 
ATOM     10  C10 ZIN A   1      18.821   2.720  13.162  0.00  0.00     0.022 A 
ATOM     11  C11 ZIN A   1      18.301   1.363  12.932  0.00  0.00     0.077 C 
ATOM     12  N18 ZIN A   1      17.791   0.948  11.827  0.00  0.00    -0.247 NA
ATOM     13  C19 ZIN A   1      17.681   1.819  10.651  0.00  0.00     0.335 C 
ATOM     14  H22 ZIN A   1      20.778   3.078  10.629  0.00  0.00     0.169 HD
ENDROOT
BRANCH  11  15
ATOM     15  C12 ZIN A   1      18.369   0.403  14.059  0.00  0.00    -0.007 A 
ATOM     16  C17 ZIN A   1      17.402   0.433  15.063  0.00  0.00     0.014 A 
ATOM     17  C16 ZIN A   1      17.467  -0.468  16.106  0.00  0.00     0.001 A 
ATOM     18  C15 ZIN A   1      18.495  -1.391  16.164  0.00  0.00     0.000 A 
ATOM     19  C14 ZIN A   1      19.461  -1.422  15.173  0.00  0.00     0.001 A 
ATOM     20  C13 ZIN A   1      19.403  -0.531  14.121  0.00  0.00     0.014 A 
ENDBRANCH  11  15
BRANCH  13  21
ATOM     21  O21 ZIN A   1      16.946   2.996  10.993  0.00  0.00    -0.367 OA
ATOM     22  H31 ZIN A   1      16.966   3.683  10.314  0.00  0.00     0.212 HD
ENDBRANCH  13  21
TORSDOF 2
ENDMDL
MODEL 4
REMARK VINA RESULT:      -7.8      3.599      5.002
REMARK  2 active torsions:
REMARK  status: ('A' for Active; 'I' for Inactive)
REMARK    1  A    between atoms: C11_11  and  C12_12 
REMARK    2  A    between atoms: C19_19  and  O21_20 
ROOT
ATOM      1  O1  ZIN A   1      19.997   2.954  10.722  0.00  0.00    -0.268 OA
ATOM      2  C2  ZIN A   1      19.372   2.204  11.442  0.00  0.00     0.272 C 
ATOM      3  N3  ZIN A   1      19.847   1.924  12.653  0.00  0.00    -0.323 N 
ATOM      4  C4  ZIN A   1      19.210   1.131  13.595  0.00  0.00     0.047 A 
ATOM      5  C5  ZIN A   1      19.260   1.551  14.926  0.00  0.00     0.032 A 
ATOM      6  C6  ZIN A   1      18.653   0.813  15.919  0.00  0.00     0.026 A 
ATOM      7  C7  ZIN A   1      17.984  -0.358  15.603  0.00  0.00     0.035 A 
ATOM      8 Cl8  ZIN A   1      17.220  -1.285  16.857  0.00  0.00    -0.084 Cl
ATOM      9  C9  ZIN A   1      17.924  -0.787  14.297  0.00  0.00     0.040 A 
ATOM     10  C10 ZIN A   1      18.537  -0.047  13.275  0.00  0.00     0.022 A 
ATOM     11  C11 ZIN A   1      18.432  -0.562  11.901  0.00  0.00     0.077 C 
ATOM     12  N18 ZIN A   1      18.226   0.162  10.858  0.00  0.00    -0.247 NA
ATOM     13  C19 ZIN A   1      18.079   1.619  10.945  0.00  0.00     0.335 C 
ATOM     14  H22 ZIN A   1      20.706   2.305  12.896  0.00  0.00     0.169 HD
ENDROOT
BRANCH  11  15
ATOM     15  C12 ZIN A   1      18.570  -2.024  11.705  0.00  0.00    -0.007 A 
ATOM     16  C17 ZIN A   1      19.831  -2.618  11.733  0.00  0.00     0.014 A 
ATOM     17  C16 ZIN A   1      19.953  -3.980  11.556  0.00  0.00     0.001 A 
ATOM     18  C15 ZIN A   1      18.828  -4.756  11.337  0.00  0.00     0.000 A 
ATOM     19  C14 ZIN A   1      17.575  -4.172  11.304  0.00  0.00     0.001 A 
ATOM     20  C13 ZIN A   1      17.439  -2.811  11.486  0.00  0.00     0.014 A 
ENDBRANCH  11  15
BRANCH  13  21
ATOM     21  O21 ZIN A   1      17.018   1.940  11.847  0.00  0.00    -0.367 OA
ATOM     22  H31 ZIN A   1      16.140   1.917  11.446  0.00  0.00     0.212 HD
ENDBRANCH  13  21
TORSDOF 2
ENDMDL
MODEL 5
REMARK VINA RESULT:      -7.8      2.910      4.223
REMARK  2 active torsions:
REMARK  status: ('A' for Active; 'I' for Inactive)
REMARK    1  A    between atoms: C11_11  and  C12_12 
REMARK    2  A    between atoms: C19_19  and  O21_20 
ROOT
ATOM      1  O1  ZIN A   1      17.683   0.690  15.682  0.00  0.00    -0.268 OA
ATOM      2  C2  ZIN A   1      18.148   0.551  14.570  0.00  0.00     0.272 C 
ATOM      3  N3  ZIN A   1      17.462   0.998  13.521  0.00  0.00    -0.323 N 
ATOM      4  C4  ZIN A   1      17.899   0.955  12.206  0.00  0.00     0.047 A 
ATOM      5  C5  ZIN A   1      17.634   2.068  11.406  0.00  0.00     0.032 A 
ATOM      6  C6  ZIN A   1      18.035   2.098  10.088  0.00  0.00     0.026 A 
ATOM      7  C7  ZIN A   1      18.709   1.018   9.542  0.00  0.00     0.035 A 
ATOM      8 Cl8  ZIN A   1      19.213   1.058   7.882  0.00  0.00    -0.084 Cl
ATOM      9  C9  ZIN A   1      18.980  -0.088  10.316  0.00  0.00     0.040 A 
ATOM     10  C10 ZIN A   1      18.578  -0.133  11.660  0.00  0.00     0.022 A 
ATOM     11  C11 ZIN A   1      18.903  -1.344  12.429  0.00  0.00     0.077 C 
ATOM     12  N18 ZIN A   1      19.310  -1.353  13.649  0.00  0.00    -0.247 NA
ATOM     13  C19 ZIN A   1      19.488  -0.114  14.414  0.00  0.00     0.335 C 
ATOM     14  H22 ZIN A   1      16.588   1.383  13.689  0.00  0.00     0.169 HD
ENDROOT
BRANCH  11  15
ATOM     15  C12 ZIN A   1      18.752  -2.650  11.747  0.00  0.00    -0.007 A 
ATOM     16  C17 ZIN A   1      17.483  -3.126  11.417  0.00  0.00     0.014 A 
ATOM     17  C16 ZIN A   1      17.349  -4.340  10.777  0.00  0.00     0.001 A 
ATOM     18  C15 ZIN A   1      18.470  -5.092  10.473  0.00  0.00     0.000 A 
ATOM     19  C14 ZIN A   1      19.731  -4.629  10.802  0.00  0.00     0.001 A 
ATOM     20  C13 ZIN A   1      19.878  -3.412  11.437  0.00  0.00     0.014 A 
ENDBRANCH  11  15
BRANCH  13  21
ATOM     21  O21 ZIN A   1      20.386   0.753  13.718  0.00  0.00    -0.367 OA
ATOM     22  H31 ZIN A   1      19.950   1.360  13.105  0.00  0.00     0.212 HD
ENDBRANCH  13  21
TORSDOF 2
ENDMDL
MODEL 6
REMARK VINA RESULT:      -7.7      2.665      3.869
REMARK  2 active torsions:
REMARK  status: ('A' for Active; 'I' for Inactive)
REMARK    1  A    between atoms: C11_11  and  C12_12 
REMARK    2  A    between atoms: C19_19  and  O21_20 
ROOT
ATOM      1  O1  ZIN A   1      20.421   4.098  11.946  0.00  0.00    -0.268 OA
ATOM      2  C2  ZIN A   1      19.742   3.118  11.725  0.00  0.00     0.272 C 
ATOM      3  N3  ZIN A   1      20.258   1.911  11.941  0.00  0.00    -0.323 N 
ATOM      4  C4  ZIN A   1      19.577   0.713  11.785  0.00  0.00     0.047 A 
ATOM      5  C5  ZIN A   1      19.797  -0.279  12.744  0.00  0.00     0.032 A 
ATOM      6  C6  ZIN A   1      19.158  -1.497  12.654  0.00  0.00     0.026 A 
ATOM      7  C7  ZIN A   1      18.287  -1.749  11.606  0.00  0.00     0.035 A 
ATOM      8 Cl8  ZIN A   1      17.484  -3.284  11.496  0.00  0.00    -0.084 Cl
ATOM      9  C9  ZIN A   1      18.058  -0.783  10.653  0.00  0.00     0.040 A 
ATOM     10  C10 ZIN A   1      18.701   0.462  10.731  0.00  0.00     0.022 A 
ATOM     11  C11 ZIN A   1      18.407   1.449   9.680  0.00  0.00     0.077 C 
ATOM     12  N18 ZIN A   1      18.240   2.709   9.880  0.00  0.00    -0.247 NA
ATOM     13  C19 ZIN A   1      18.336   3.298  11.220  0.00  0.00     0.335 C 
ATOM     14  H22 ZIN A   1      21.183   1.865  12.231  0.00  0.00     0.169 HD
ENDROOT
BRANCH  11  15
ATOM     15  C12 ZIN A   1      18.293   0.955   8.288  0.00  0.00    -0.007 A 
ATOM     16  C17 ZIN A   1      17.291   0.048   7.947  0.00  0.00     0.014 A 
ATOM     17  C16 ZIN A   1      17.186  -0.404   6.648  0.00  0.00     0.001 A 
ATOM     18  C15 ZIN A   1      18.080   0.032   5.687  0.00  0.00     0.000 A 
ATOM     19  C14 ZIN A   1      19.080   0.928   6.019  0.00  0.00     0.001 A 
ATOM     20  C13 ZIN A   1      19.191   1.392   7.314  0.00  0.00     0.014 A 
ENDBRANCH  11  15
BRANCH  13  21
ATOM     21  O21 ZIN A   1      17.415   2.647  12.097  0.00  0.00    -0.367 OA
ATOM     22  H31 ZIN A   1      16.642   3.182  12.324  0.00  0.00     0.212 HD
ENDBRANCH  13  21
TORSDOF 2
ENDMDL
MODEL 7
REMARK VINA RESULT:      -7.6      3.485      4.789
REMARK  2 active torsions:
REMARK  status: ('A' for Active; 'I' for Inactive)
REMARK    1  A    between atoms: C11_11  and  C12_12 
REMARK    2  A    between atoms: C19_19  and  O21_20 
ROOT
ATOM      1  O1  ZIN A   1      21.127   0.629  12.164  0.00  0.00    -0.268 OA
ATOM      2  C2  ZIN A   1      20.312  -0.140  11.700  0.00  0.00     0.272 C 
ATOM      3  N3  ZIN A   1      20.677  -1.393  11.442  0.00  0.00    -0.323 N 
ATOM      4  C4  ZIN A   1      19.836  -2.387  10.965  0.00  0.00     0.047 A 
ATOM      5  C5  ZIN A   1      19.984  -3.666  11.505  0.00  0.00     0.032 A 
ATOM      6  C6  ZIN A   1      19.186  -4.706  11.079  0.00  0.00     0.026 A 
ATOM      7  C7  ZIN A   1      18.224  -4.489  10.106  0.00  0.00     0.035 A 
ATOM      8 Cl8  ZIN A   1      17.220  -5.801   9.571  0.00  0.00    -0.084 Cl
ATOM      9  C9  ZIN A   1      18.063  -3.234   9.562  0.00  0.00     0.040 A 
ATOM     10  C10 ZIN A   1      18.869  -2.166   9.986  0.00  0.00     0.022 A 
ATOM     11  C11 ZIN A   1      18.641  -0.852   9.366  0.00  0.00     0.077 C 
ATOM     12  N18 ZIN A   1      18.655   0.270   9.994  0.00  0.00    -0.247 NA
ATOM     13  C19 ZIN A   1      18.913   0.346  11.436  0.00  0.00     0.335 C 
ATOM     14  H22 ZIN A   1      21.605  -1.631  11.600  0.00  0.00     0.169 HD
ENDROOT
BRANCH  11  15
ATOM     15  C12 ZIN A   1      18.374  -0.819   7.909  0.00  0.00    -0.007 A 
ATOM     16  C17 ZIN A   1      19.252  -1.440   7.022  0.00  0.00     0.014 A 
ATOM     17  C16 ZIN A   1      18.995  -1.411   5.667  0.00  0.00     0.001 A 
ATOM     18  C15 ZIN A   1      17.874  -0.756   5.186  0.00  0.00     0.000 A 
ATOM     19  C14 ZIN A   1      17.002  -0.134   6.061  0.00  0.00     0.001 A 
ATOM     20  C13 ZIN A   1      17.245  -0.162   7.419  0.00  0.00     0.014 A 
ENDBRANCH  11  15
BRANCH  13  21
ATOM     21  O21 ZIN A   1      17.972  -0.472  12.135  0.00  0.00    -0.367 OA
ATOM     22  H31 ZIN A   1      17.059  -0.361  11.838  0.00  0.00     0.212 HD
ENDBRANCH  13  21
TORSDOF 2
ENDMDL
MODEL 8
REMARK VINA RESULT:      -7.4      3.632      5.781
REMARK  2 active torsions:
REMARK  status: ('A' for Active; 'I' for Inactive)
REMARK    1  A    between atoms: C11_11  and  C12_12 
REMARK    2  A    between atoms: C19_19  and  O21_20 
ROOT
ATOM      1  O1  ZIN A   1      19.640  -4.994  10.454  0.00  0.00    -0.268 OA
ATOM      2  C2  ZIN A   1      19.133  -4.243   9.648  0.00  0.00     0.272 C 
ATOM      3  N3  ZIN A   1      19.794  -3.947   8.532  0.00  0.00    -0.323 N 
ATOM      4  C4  ZIN A   1      19.310  -3.151   7.505  0.00  0.00     0.047 A 
ATOM      5  C5  ZIN A   1      19.579  -3.558   6.197  0.00  0.00     0.032 A 
ATOM      6  C6  ZIN A   1      19.133  -2.817   5.124  0.00  0.00     0.026 A 
ATOM      7  C7  ZIN A   1      18.409  -1.655   5.336  0.00  0.00     0.035 A 
ATOM      8 Cl8  ZIN A   1      17.849  -0.723   3.983  0.00  0.00    -0.084 Cl
ATOM      9  C9  ZIN A   1      18.133  -1.239   6.619  0.00  0.00     0.040 A 
ATOM     10  C10 ZIN A   1      18.581  -1.983   7.721  0.00  0.00     0.022 A 
ATOM     11  C11 ZIN A   1      18.248  -1.482   9.063  0.00  0.00     0.077 C 
ATOM     12  N18 ZIN A   1      17.884  -2.218  10.054  0.00  0.00    -0.247 NA
ATOM     13  C19 ZIN A   1      17.769  -3.675   9.933  0.00  0.00     0.335 C 
ATOM     14  H22 ZIN A   1      20.685  -4.318   8.428  0.00  0.00     0.169 HD
ENDROOT
BRANCH  11  15
ATOM     15  C12 ZIN A   1      18.337  -0.021   9.291  0.00  0.00    -0.007 A 
ATOM     16  C17 ZIN A   1      17.575   0.579  10.294  0.00  0.00     0.014 A 
ATOM     17  C16 ZIN A   1      17.667   1.939  10.506  0.00  0.00     0.001 A 
ATOM     18  C15 ZIN A   1      18.502   2.710   9.717  0.00  0.00     0.000 A 
ATOM     19  C14 ZIN A   1      19.256   2.122   8.717  0.00  0.00     0.001 A 
ATOM     20  C13 ZIN A   1      19.178   0.761   8.500  0.00  0.00     0.014 A 
ENDBRANCH  11  15
BRANCH  13  21
ATOM     21  O21 ZIN A   1      16.873  -3.998   8.868  0.00  0.00    -0.367 OA
ATOM     22  H31 ZIN A   1      16.142  -4.574   9.130  0.00  0.00     0.212 HD
ENDBRANCH  13  21
TORSDOF 2
ENDMDL
MODEL 9
REMARK VINA RESULT:      -7.3      2.913      5.716
REMARK  2 active torsions:
REMARK  status: ('A' for Active; 'I' for Inactive)
REMARK    1  A    between atoms: C11_11  and  C12_12 
REMARK    2  A    between atoms: C19_19  and  O21_20 
ROOT
ATOM      1  O1  ZIN A   1      19.085  -1.309   9.616  0.00  0.00    -0.268 OA
ATOM      2  C2  ZIN A   1      18.741  -0.490  10.442  0.00  0.00     0.272 C 
ATOM      3  N3  ZIN A   1      19.582   0.485  10.778  0.00  0.00    -0.323 N 
ATOM      4  C4  ZIN A   1      19.298   1.514  11.662  0.00  0.00     0.047 A 
ATOM      5  C5  ZIN A   1      19.757   2.790  11.329  0.00  0.00     0.032 A 
ATOM      6  C6  ZIN A   1      19.517   3.863  12.160  0.00  0.00     0.026 A 
ATOM      7  C7  ZIN A   1      18.812   3.683  13.339  0.00  0.00     0.035 A 
ATOM      8 Cl8  ZIN A   1      18.509   5.037  14.383  0.00  0.00    -0.084 Cl
ATOM      9  C9  ZIN A   1      18.351   2.433  13.683  0.00  0.00     0.040 A 
ATOM     10  C10 ZIN A   1      18.589   1.331  12.847  0.00  0.00     0.022 A 
ATOM     11  C11 ZIN A   1      18.065   0.025  13.275  0.00  0.00     0.077 C 
ATOM     12  N18 ZIN A   1      17.520  -0.841  12.494  0.00  0.00    -0.247 NA
ATOM     13  C19 ZIN A   1      17.371  -0.598  11.055  0.00  0.00     0.335 C 
ATOM     14  H22 ZIN A   1      20.464   0.474  10.372  0.00  0.00     0.169 HD
ENDROOT
BRANCH  11  15
ATOM     15  C12 ZIN A   1      18.170  -0.319  14.712  0.00  0.00    -0.007 A 
ATOM     16  C17 ZIN A   1      17.285   0.240  15.633  0.00  0.00     0.014 A 
ATOM     17  C16 ZIN A   1      17.384  -0.089  16.968  0.00  0.00     0.001 A 
ATOM     18  C15 ZIN A   1      18.368  -0.962  17.398  0.00  0.00     0.000 A 
ATOM     19  C14 ZIN A   1      19.252  -1.517  16.490  0.00  0.00     0.001 A 
ATOM     20  C13 ZIN A   1      19.159  -1.201  15.150  0.00  0.00     0.014 A 
ENDBRANCH  11  15
BRANCH  13  21
ATOM     21  O21 ZIN A   1      16.645   0.615  10.846  0.00  0.00    -0.367 OA
ATOM     22  H31 ZIN A   1      17.067   1.396  11.229  0.00  0.00     0.212 HD
ENDBRANCH  13  21
TORSDOF 2
ENDMDL
