MODEL 1
REMARK VINA RESULT:      -8.5      0.000      0.000
REMARK  4 active torsions:
REMARK  status: ('A' for Active; 'I' for Inactive)
REMARK    1  A    between atoms: C11_9  and  O13_10 
REMARK    2  A    between atoms: O13_10  and  C14_11 
REMARK    3  A    between atoms: C14_11  and  C15_12 
REMARK    4  A    between atoms: C14_11  and  C21_18 
ROOT
ATOM      1  C14 ZIN A   1      19.364   1.288  10.412  0.00  0.00     0.188 C 
ENDROOT
BRANCH   1   2
ATOM      2  O13 ZIN A   1      18.947   0.288  11.343  0.00  0.00    -0.371 OA
BRANCH   2   3
ATOM      3  C11 ZIN A   1      20.024  -0.465  11.906  0.00  0.00     0.126 C 
ATOM      4  C10 ZIN A   1      19.537  -1.877  12.243  0.00  0.00     0.065 C 
ATOM      5  C8  ZIN A   1      18.490  -1.789  13.365  0.00  0.00     0.190 C 
ATOM      6  N2  ZIN A   1      19.168  -1.260  14.579  0.00  0.00    -0.066 N 
ATOM      7  C7  ZIN A   1      17.480  -0.677  12.985  0.00  0.00     0.035 C 
ATOM      8  C1  ZIN A   1      18.302  -1.400  15.757  0.00  0.00     0.270 C 
ATOM      9  H3  ZIN A   1      20.048  -1.731  14.727  0.00  0.00     0.280 HD
ATOM     10  C4  ZIN A   1      19.389   0.175  14.258  0.00  0.00     0.190 C 
ATOM     11  C27 ZIN A   1      20.520   0.242  13.220  0.00  0.00     0.065 C 
ATOM     12  C6  ZIN A   1      18.074   0.618  13.575  0.00  0.00     0.035 C 
ENDBRANCH   2   3
ENDBRANCH   1   2
BRANCH   1  13
ATOM     13  C15 ZIN A   1      18.807   0.968   9.049  0.00  0.00    -0.025 A 
ATOM     14  C20 ZIN A   1      17.758   0.076   8.922  0.00  0.00     0.010 A 
ATOM     15  C19 ZIN A   1      17.245  -0.214   7.671  0.00  0.00     0.001 A 
ATOM     16  C18 ZIN A   1      17.785   0.381   6.547  0.00  0.00     0.000 A 
ATOM     17  C17 ZIN A   1      18.837   1.270   6.674  0.00  0.00     0.001 A 
ATOM     18  C16 ZIN A   1      19.348   1.563   7.924  0.00  0.00     0.010 A 
ENDBRANCH   1  13
BRANCH   1  19
ATOM     19  C21 ZIN A   1      18.853   2.634  10.859  0.00  0.00    -0.025 A 
ATOM     20  C26 ZIN A   1      17.611   3.075  10.443  0.00  0.00     0.010 A 
ATOM     21  C25 ZIN A   1      17.141   4.308  10.857  0.00  0.00     0.001 A 
ATOM     22  C24 ZIN A   1      17.916   5.102  11.680  0.00  0.00     0.000 A 
ATOM     23  C23 ZIN A   1      19.160   4.663  12.092  0.00  0.00     0.001 A 
ATOM     24  C22 ZIN A   1      19.629   3.429  11.681  0.00  0.00     0.010 A 
ENDBRANCH   1  19
TORSDOF 4
ENDMDL
MODEL 2
REMARK VINA RESULT:      -8.3      2.168      6.521
REMARK  4 active torsions:
REMARK  status: ('A' for Active; 'I' for Inactive)
REMARK    1  A    between atoms: C11_9  and  O13_10 
REMARK    2  A    between atoms: O13_10  and  C14_11 
REMARK    3  A    between atoms: C14_11  and  C15_12 
REMARK    4  A    between atoms: C14_11  and  C21_18 
ROOT
ATOM      1  C14 ZIN A   1      19.416  -0.725  13.037  0.00  0.00     0.188 C 
ENDROOT
BRANCH   1   2
ATOM      2  O13 ZIN A   1      18.931   0.407  12.313  0.00  0.00    -0.371 OA
BRANCH   2   3
ATOM      3  C11 ZIN A   1      19.867   0.938  11.373  0.00  0.00     0.126 C 
ATOM      4  C10 ZIN A   1      20.285   2.345  11.808  0.00  0.00     0.065 C 
ATOM      5  C8  ZIN A   1      19.066   3.277  11.717  0.00  0.00     0.190 C 
ATOM      6  N2  ZIN A   1      18.664   3.364  10.288  0.00  0.00    -0.066 N 
ATOM      7  C7  ZIN A   1      17.871   2.563  12.400  0.00  0.00     0.035 C 
ATOM      8  C1  ZIN A   1      17.682   4.438  10.091  0.00  0.00     0.270 C 
ATOM      9  H3  ZIN A   1      19.472   3.509   9.701  0.00  0.00     0.280 HD
ATOM     10  C4  ZIN A   1      18.051   2.036  10.016  0.00  0.00     0.190 C 
ATOM     11  C27 ZIN A   1      19.193   1.010   9.954  0.00  0.00     0.065 C 
ATOM     12  C6  ZIN A   1      17.203   1.746  11.277  0.00  0.00     0.035 C 
ENDBRANCH   2   3
ENDBRANCH   1   2
BRANCH   1  13
ATOM     13  C15 ZIN A   1      18.821  -0.727  14.422  0.00  0.00    -0.025 A 
ATOM     14  C20 ZIN A   1      17.763   0.110  14.722  0.00  0.00     0.010 A 
ATOM     15  C19 ZIN A   1      17.214   0.104  15.991  0.00  0.00     0.001 A 
ATOM     16  C18 ZIN A   1      17.729  -0.733  16.963  0.00  0.00     0.000 A 
ATOM     17  C17 ZIN A   1      18.791  -1.567  16.664  0.00  0.00     0.001 A 
ATOM     18  C16 ZIN A   1      19.336  -1.564  15.394  0.00  0.00     0.010 A 
ENDBRANCH   1  13
BRANCH   1  19
ATOM     19  C21 ZIN A   1      19.018  -1.988  12.318  0.00  0.00    -0.025 A 
ATOM     20  C26 ZIN A   1      19.970  -2.946  12.026  0.00  0.00     0.010 A 
ATOM     21  C25 ZIN A   1      19.605  -4.108  11.370  0.00  0.00     0.001 A 
ATOM     22  C24 ZIN A   1      18.288  -4.306  10.999  0.00  0.00     0.000 A 
ATOM     23  C23 ZIN A   1      17.336  -3.346  11.287  0.00  0.00     0.001 A 
ATOM     24  C22 ZIN A   1      17.701  -2.187  11.946  0.00  0.00     0.010 A 
ENDBRANCH   1  19
TORSDOF 4
ENDMDL
MODEL 3
REMARK VINA RESULT:      -8.1      2.254      6.685
REMARK  4 active torsions:
REMARK  status: ('A' for Active; 'I' for Inactive)
REMARK    1  A    between atoms: C11_9  and  O13_10 
REMARK    2  A    between atoms: O13_10  and  C14_11 
REMARK    3  A    between atoms: C14_11  and  C15_12 
REMARK    4  A    between atoms: C14_11  and  C21_18 
ROOT
ATOM      1  C14 ZIN A   1      19.278  -1.306  12.263  0.00  0.00     0.188 C 
ENDROOT
BRANCH   1   2
ATOM      2  O13 ZIN A   1      18.795  -0.375  11.294  0.00  0.00    -0.371 OA
BRANCH   2   3
ATOM      3  C11 ZIN A   1      19.810   0.464  10.738  0.00  0.00     0.126 C 
ATOM      4  C10 ZIN A   1      19.174   1.756  10.218  0.00  0.00     0.065 C 
ATOM      5  C8  ZIN A   1      18.254   1.418   9.035  0.00  0.00     0.190 C 
ATOM      6  N2  ZIN A   1      19.100   0.877   7.939  0.00  0.00    -0.066 N 
ATOM      7  C7  ZIN A   1      17.367   0.217   9.452  0.00  0.00     0.035 C 
ATOM      8  C1  ZIN A   1      18.333   0.783   6.690  0.00  0.00     0.270 C 
ATOM      9  H3  ZIN A   1      19.922   1.449   7.809  0.00  0.00     0.280 HD
ATOM     10  C4  ZIN A   1      19.478  -0.477   8.425  0.00  0.00     0.190 C 
ATOM     11  C27 ZIN A   1      20.510  -0.287   9.547  0.00  0.00     0.065 C 
ATOM     12  C6  ZIN A   1      18.176  -1.032   9.049  0.00  0.00     0.035 C 
ENDBRANCH   2   3
ENDBRANCH   1   2
BRANCH   1  13
ATOM     13  C15 ZIN A   1      18.737  -0.942  13.622  0.00  0.00    -0.025 A 
ATOM     14  C20 ZIN A   1      19.198  -1.599  14.748  0.00  0.00     0.010 A 
ATOM     15  C19 ZIN A   1      18.705  -1.262  15.995  0.00  0.00     0.001 A 
ATOM     16  C18 ZIN A   1      17.745  -0.276  16.115  0.00  0.00     0.000 A 
ATOM     17  C17 ZIN A   1      17.280   0.378  14.988  0.00  0.00     0.001 A 
ATOM     18  C16 ZIN A   1      17.777   0.044  13.742  0.00  0.00     0.010 A 
ENDBRANCH   1  13
BRANCH   1  19
ATOM     19  C21 ZIN A   1      18.823  -2.695  11.896  0.00  0.00    -0.025 A 
ATOM     20  C26 ZIN A   1      19.755  -3.675  11.610  0.00  0.00     0.010 A 
ATOM     21  C25 ZIN A   1      19.337  -4.950  11.277  0.00  0.00     0.001 A 
ATOM     22  C24 ZIN A   1      17.987  -5.243  11.223  0.00  0.00     0.000 A 
ATOM     23  C23 ZIN A   1      17.055  -4.262  11.505  0.00  0.00     0.001 A 
ATOM     24  C22 ZIN A   1      17.473  -2.987  11.841  0.00  0.00     0.010 A 
ENDBRANCH   1  19
TORSDOF 4
ENDMDL
MODEL 4
REMARK VINA RESULT:      -7.8      2.477      4.842
REMARK  4 active torsions:
REMARK  status: ('A' for Active; 'I' for Inactive)
REMARK    1  A    between atoms: C11_9  and  O13_10 
REMARK    2  A    between atoms: O13_10  and  C14_11 
REMARK    3  A    between atoms: C14_11  and  C15_12 
REMARK    4  A    between atoms: C14_11  and  C21_18 
ROOT
ATOM      1  C14 ZIN A   1      19.664  -0.294  12.982  0.00  0.00     0.188 C 
ENDROOT
BRANCH   1   2
ATOM      2  O13 ZIN A   1      19.207  -1.484  12.338  0.00  0.00    -0.371 OA
BRANCH   2   3
ATOM      3  C11 ZIN A   1      20.068  -1.947  11.296  0.00  0.00     0.126 C 
ATOM      4  C10 ZIN A   1      19.378  -1.754   9.942  0.00  0.00     0.065 C 
ATOM      5  C8  ZIN A   1      18.149  -2.673   9.873  0.00  0.00     0.190 C 
ATOM      6  N2  ZIN A   1      18.630  -4.080   9.921  0.00  0.00    -0.066 N 
ATOM      7  C7  ZIN A   1      17.355  -2.503  11.193  0.00  0.00     0.035 C 
ATOM      8  C1  ZIN A   1      17.542  -5.010   9.592  0.00  0.00     0.270 C 
ATOM      9  H3  ZIN A   1      19.410  -4.210   9.294  0.00  0.00     0.280 HD
ATOM     10  C4  ZIN A   1      19.059  -4.255  11.335  0.00  0.00     0.190 C 
ATOM     11  C27 ZIN A   1      20.371  -3.475  11.512  0.00  0.00     0.065 C 
ATOM     12  C6  ZIN A   1      17.956  -3.547  12.156  0.00  0.00     0.035 C 
ENDBRANCH   2   3
ENDBRANCH   1   2
BRANCH   1  13
ATOM     13  C15 ZIN A   1      19.179   0.910  12.216  0.00  0.00    -0.025 A 
ATOM     14  C20 ZIN A   1      20.074   1.889  11.828  0.00  0.00     0.010 A 
ATOM     15  C19 ZIN A   1      19.630   2.991  11.121  0.00  0.00     0.001 A 
ATOM     16  C18 ZIN A   1      18.290   3.118  10.810  0.00  0.00     0.000 A 
ATOM     17  C17 ZIN A   1      17.393   2.140  11.202  0.00  0.00     0.001 A 
ATOM     18  C16 ZIN A   1      17.838   1.037  11.905  0.00  0.00     0.010 A 
ENDBRANCH   1  13
BRANCH   1  19
ATOM     19  C21 ZIN A   1      19.124  -0.245  14.389  0.00  0.00    -0.025 A 
ATOM     20  C26 ZIN A   1      18.535  -1.366  14.942  0.00  0.00     0.010 A 
ATOM     21  C25 ZIN A   1      18.043  -1.322  16.234  0.00  0.00     0.001 A 
ATOM     22  C24 ZIN A   1      18.133  -0.155  16.968  0.00  0.00     0.000 A 
ATOM     23  C23 ZIN A   1      18.718   0.968  16.413  0.00  0.00     0.001 A 
ATOM     24  C22 ZIN A   1      19.213   0.923  15.123  0.00  0.00     0.010 A 
ENDBRANCH   1  19
TORSDOF 4
ENDMDL
MODEL 5
REMARK VINA RESULT:      -7.8      2.515      5.519
REMARK  4 active torsions:
REMARK  status: ('A' for Active; 'I' for Inactive)
REMARK    1  A    between atoms: C11_9  and  O13_10 
REMARK    2  A    between atoms: O13_10  and  C14_11 
REMARK    3  A    between atoms: C14_11  and  C15_12 
REMARK    4  A    between atoms: C14_11  and  C21_18 
ROOT
ATOM      1  C14 ZIN A   1      17.711  -0.699  12.690  0.00  0.00     0.188 C 
ENDROOT
BRANCH   1   2
ATOM      2  O13 ZIN A   1      18.309  -1.859  12.108  0.00  0.00    -0.371 OA
BRANCH   2   3
ATOM      3  C11 ZIN A   1      17.378  -2.736  11.472  0.00  0.00     0.126 C 
ATOM      4  C10 ZIN A   1      17.625  -4.171  11.944  0.00  0.00     0.065 C 
ATOM      5  C8  ZIN A   1      19.002  -4.631  11.442  0.00  0.00     0.190 C 
ATOM      6  N2  ZIN A   1      18.958  -4.662   9.956  0.00  0.00    -0.066 N 
ATOM      7  C7  ZIN A   1      20.023  -3.509  11.763  0.00  0.00     0.035 C 
ATOM      8  C1  ZIN A   1      20.142  -5.343   9.416  0.00  0.00     0.270 C 
ATOM      9  H3  ZIN A   1      18.113  -5.112   9.635  0.00  0.00     0.280 HD
ATOM     10  C4  ZIN A   1      18.962  -3.224   9.575  0.00  0.00     0.190 C 
ATOM     11  C27 ZIN A   1      17.573  -2.660   9.913  0.00  0.00     0.065 C 
ATOM     12  C6  ZIN A   1      19.995  -2.582  10.530  0.00  0.00     0.035 C 
ENDBRANCH   2   3
ENDBRANCH   1   2
BRANCH   1  13
ATOM     13  C15 ZIN A   1      18.055  -0.638  14.155  0.00  0.00    -0.025 A 
ATOM     14  C20 ZIN A   1      18.898  -1.584  14.708  0.00  0.00     0.010 A 
ATOM     15  C19 ZIN A   1      19.218  -1.525  16.052  0.00  0.00     0.001 A 
ATOM     16  C18 ZIN A   1      18.689  -0.524  16.844  0.00  0.00     0.000 A 
ATOM     17  C17 ZIN A   1      17.842   0.421  16.292  0.00  0.00     0.001 A 
ATOM     18  C16 ZIN A   1      17.526   0.364  14.948  0.00  0.00     0.010 A 
ENDBRANCH   1  13
BRANCH   1  19
ATOM     19  C21 ZIN A   1      18.232   0.535  11.999  0.00  0.00    -0.025 A 
ATOM     20  C26 ZIN A   1      19.542   0.932  12.189  0.00  0.00     0.010 A 
ATOM     21  C25 ZIN A   1      20.022   2.062  11.552  0.00  0.00     0.001 A 
ATOM     22  C24 ZIN A   1      19.188   2.799  10.732  0.00  0.00     0.000 A 
ATOM     23  C23 ZIN A   1      17.876   2.404  10.545  0.00  0.00     0.001 A 
ATOM     24  C22 ZIN A   1      17.398   1.273  11.180  0.00  0.00     0.010 A 
ENDBRANCH   1  19
TORSDOF 4
ENDMDL
MODEL 6
REMARK VINA RESULT:      -7.8      1.966      4.801
REMARK  4 active torsions:
REMARK  status: ('A' for Active; 'I' for Inactive)
REMARK    1  A    between atoms: C11_9  and  O13_10 
REMARK    2  A    between atoms: O13_10  and  C14_11 
REMARK    3  A    between atoms: C14_11  and  C15_12 
REMARK    4  A    between atoms: C14_11  and  C21_18 
ROOT
ATOM      1  C14 ZIN A   1      19.813   0.056  10.085  0.00  0.00     0.188 C 
ENDROOT
BRANCH   1   2
ATOM      2  O13 ZIN A   1      19.260   1.217  10.707  0.00  0.00    -0.371 OA
BRANCH   2   3
ATOM      3  C11 ZIN A   1      20.028   1.708  11.807  0.00  0.00     0.126 C 
ATOM      4  C10 ZIN A   1      19.243   1.509  13.107  0.00  0.00     0.065 C 
ATOM      5  C8  ZIN A   1      17.991   2.400  13.074  0.00  0.00     0.190 C 
ATOM      6  N2  ZIN A   1      18.441   3.817  13.050  0.00  0.00    -0.066 N 
ATOM      7  C7  ZIN A   1      17.303   2.201  11.699  0.00  0.00     0.035 C 
ATOM      8  C1  ZIN A   1      17.311   4.724  13.287  0.00  0.00     0.270 C 
ATOM      9  H3  ZIN A   1      19.169   3.970  13.733  0.00  0.00     0.280 HD
ATOM     10  C4  ZIN A   1      18.973   3.992  11.671  0.00  0.00     0.190 C 
ATOM     11  C27 ZIN A   1      20.312   3.241  11.601  0.00  0.00     0.065 C 
ATOM     12  C6  ZIN A   1      17.952   3.252  10.775  0.00  0.00     0.035 C 
ENDBRANCH   2   3
ENDBRANCH   1   2
BRANCH   1  13
ATOM     13  C15 ZIN A   1      19.255  -1.180  10.742  0.00  0.00    -0.025 A 
ATOM     14  C20 ZIN A   1      17.889  -1.325  10.892  0.00  0.00     0.010 A 
ATOM     15  C19 ZIN A   1      17.376  -2.461  11.491  0.00  0.00     0.001 A 
ATOM     16  C18 ZIN A   1      18.230  -3.448  11.946  0.00  0.00     0.000 A 
ATOM     17  C17 ZIN A   1      19.597  -3.300  11.799  0.00  0.00     0.001 A 
ATOM     18  C16 ZIN A   1      20.109  -2.166  11.197  0.00  0.00     0.010 A 
ENDBRANCH   1  13
BRANCH   1  19
ATOM     19  C21 ZIN A   1      19.455   0.052   8.621  0.00  0.00    -0.025 A 
ATOM     20  C26 ZIN A   1      19.401  -1.141   7.926  0.00  0.00     0.010 A 
ATOM     21  C25 ZIN A   1      19.068  -1.145   6.584  0.00  0.00     0.001 A 
ATOM     22  C24 ZIN A   1      18.798   0.045   5.935  0.00  0.00     0.000 A 
ATOM     23  C23 ZIN A   1      18.857   1.239   6.629  0.00  0.00     0.001 A 
ATOM     24  C22 ZIN A   1      19.186   1.243   7.972  0.00  0.00     0.010 A 
ENDBRANCH   1  19
TORSDOF 4
ENDMDL
MODEL 7
REMARK VINA RESULT:      -7.8      1.984      4.627
REMARK  4 active torsions:
REMARK  status: ('A' for Active; 'I' for Inactive)
REMARK    1  A    between atoms: C11_9  and  O13_10 
REMARK    2  A    between atoms: O13_10  and  C14_11 
REMARK    3  A    between atoms: C14_11  and  C15_12 
REMARK    4  A    between atoms: C14_11  and  C21_18 
ROOT
ATOM      1  C14 ZIN A   1      19.673  -1.048  10.345  0.00  0.00     0.188 C 
ENDROOT
BRANCH   1   2
ATOM      2  O13 ZIN A   1      19.245  -0.002  11.219  0.00  0.00    -0.371 OA
BRANCH   2   3
ATOM      3  C11 ZIN A   1      20.315   0.685  11.870  0.00  0.00     0.126 C 
ATOM      4  C10 ZIN A   1      20.288   0.366  13.368  0.00  0.00     0.065 C 
ATOM      5  C8  ZIN A   1      19.011   0.959  13.981  0.00  0.00     0.190 C 
ATOM      6  N2  ZIN A   1      19.088   2.439  13.851  0.00  0.00    -0.066 N 
ATOM      7  C7  ZIN A   1      17.820   0.565  13.070  0.00  0.00     0.035 C 
ATOM      8  C1  ZIN A   1      18.037   3.084  14.649  0.00  0.00     0.270 C 
ATOM      9  H3  ZIN A   1      19.999   2.772  14.129  0.00  0.00     0.280 HD
ATOM     10  C4  ZIN A   1      18.865   2.675  12.400  0.00  0.00     0.190 C 
ATOM     11  C27 ZIN A   1      20.140   2.234  11.665  0.00  0.00     0.065 C 
ATOM     12  C6  ZIN A   1      17.725   1.698  12.028  0.00  0.00     0.035 C 
ENDBRANCH   2   3
ENDBRANCH   1   2
BRANCH   1  13
ATOM     13  C15 ZIN A   1      19.086  -2.358  10.803  0.00  0.00    -0.025 A 
ATOM     14  C20 ZIN A   1      17.718  -2.489  10.949  0.00  0.00     0.010 A 
ATOM     15  C19 ZIN A   1      17.178  -3.692  11.365  0.00  0.00     0.001 A 
ATOM     16  C18 ZIN A   1      18.008  -4.762  11.643  0.00  0.00     0.000 A 
ATOM     17  C17 ZIN A   1      19.378  -4.629  11.501  0.00  0.00     0.001 A 
ATOM     18  C16 ZIN A   1      19.916  -3.428  11.081  0.00  0.00     0.010 A 
ENDBRANCH   1  13
BRANCH   1  19
ATOM     19  C21 ZIN A   1      19.207  -0.752   8.942  0.00  0.00    -0.025 A 
ATOM     20  C26 ZIN A   1      18.625   0.467   8.650  0.00  0.00     0.010 A 
ATOM     21  C25 ZIN A   1      18.201   0.740   7.362  0.00  0.00     0.001 A 
ATOM     22  C24 ZIN A   1      18.352  -0.210   6.369  0.00  0.00     0.000 A 
ATOM     23  C23 ZIN A   1      18.930  -1.431   6.663  0.00  0.00     0.001 A 
ATOM     24  C22 ZIN A   1      19.356  -1.703   7.949  0.00  0.00     0.010 A 
ENDBRANCH   1  19
TORSDOF 4
ENDMDL
MODEL 8
REMARK VINA RESULT:      -7.7      2.014      4.624
REMARK  4 active torsions:
REMARK  status: ('A' for Active; 'I' for Inactive)
REMARK    1  A    between atoms: C11_9  and  O13_10 
REMARK    2  A    between atoms: O13_10  and  C14_11 
REMARK    3  A    between atoms: C14_11  and  C15_12 
REMARK    4  A    between atoms: C14_11  and  C21_18 
ROOT
ATOM      1  C14 ZIN A   1      17.613   0.413  10.201  0.00  0.00     0.188 C 
ENDROOT
BRANCH   1   2
ATOM      2  O13 ZIN A   1      18.186   1.551  10.847  0.00  0.00    -0.371 OA
BRANCH   2   3
ATOM      3  C11 ZIN A   1      17.244   2.340  11.577  0.00  0.00     0.126 C 
ATOM      4  C10 ZIN A   1      17.349   3.801  11.129  0.00  0.00     0.065 C 
ATOM      5  C8  ZIN A   1      18.723   4.351  11.541  0.00  0.00     0.190 C 
ATOM      6  N2  ZIN A   1      18.790   4.343  13.027  0.00  0.00    -0.066 N 
ATOM      7  C7  ZIN A   1      19.796   3.317  11.113  0.00  0.00     0.035 C 
ATOM      8  C1  ZIN A   1      19.959   5.099  13.496  0.00  0.00     0.270 C 
ATOM      9  H3  ZIN A   1      17.941   4.721  13.422  0.00  0.00     0.280 HD
ATOM     10  C4  ZIN A   1      18.928   2.901  13.364  0.00  0.00     0.190 C 
ATOM     11  C27 ZIN A   1      17.563   2.242  13.113  0.00  0.00     0.065 C 
ATOM     12  C6  ZIN A   1      19.930   2.362  12.316  0.00  0.00     0.035 C 
ENDBRANCH   2   3
ENDBRANCH   1   2
BRANCH   1  13
ATOM     13  C15 ZIN A   1      17.896   0.480   8.722  0.00  0.00    -0.025 A 
ATOM     14  C20 ZIN A   1      17.221  -0.355   7.851  0.00  0.00     0.010 A 
ATOM     15  C19 ZIN A   1      17.477  -0.290   6.494  0.00  0.00     0.001 A 
ATOM     16  C18 ZIN A   1      18.412   0.604   6.009  0.00  0.00     0.000 A 
ATOM     17  C17 ZIN A   1      19.090   1.437   6.881  0.00  0.00     0.001 A 
ATOM     18  C16 ZIN A   1      18.831   1.375   8.237  0.00  0.00     0.010 A 
ENDBRANCH   1  13
BRANCH   1  19
ATOM     19  C21 ZIN A   1      18.217  -0.845  10.770  0.00  0.00    -0.025 A 
ATOM     20  C26 ZIN A   1      19.580  -1.057  10.687  0.00  0.00     0.010 A 
ATOM     21  C25 ZIN A   1      20.135  -2.209  11.213  0.00  0.00     0.001 A 
ATOM     22  C24 ZIN A   1      19.324  -3.153  11.815  0.00  0.00     0.000 A 
ATOM     23  C23 ZIN A   1      17.960  -2.944  11.895  0.00  0.00     0.001 A 
ATOM     24  C22 ZIN A   1      17.407  -1.790  11.372  0.00  0.00     0.010 A 
ENDBRANCH   1  19
TORSDOF 4
ENDMDL
MODEL 9
REMARK VINA RESULT:      -7.6      2.420      5.758
REMARK  4 active torsions:
REMARK  status: ('A' for Active; 'I' for Inactive)
REMARK    1  A    between atoms: C11_9  and  O13_10 
REMARK    2  A    between atoms: O13_10  and  C14_11 
REMARK    3  A    between atoms: C14_11  and  C15_12 
REMARK    4  A    between atoms: C14_11  and  C21_18 
ROOT
ATOM      1  C14 ZIN A   1      17.949   1.976  14.154  0.00  0.00     0.188 C 
ENDROOT
BRANCH   1   2
ATOM      2  O13 ZIN A   1      18.382   1.818  12.802  0.00  0.00    -0.371 OA
BRANCH   2   3
ATOM      3  C11 ZIN A   1      17.318   1.819  11.848  0.00  0.00     0.126 C 
ATOM      4  C10 ZIN A   1      17.372   0.529  11.024  0.00  0.00     0.065 C 
ATOM      5  C8  ZIN A   1      18.655   0.529  10.180  0.00  0.00     0.190 C 
ATOM      6  N2  ZIN A   1      18.566   1.658   9.216  0.00  0.00    -0.066 N 
ATOM      7  C7  ZIN A   1      19.833   0.920  11.108  0.00  0.00     0.035 C 
ATOM      8  C1  ZIN A   1      19.626   1.560   8.204  0.00  0.00     0.270 C 
ATOM      9  H3  ZIN A   1      17.657   1.679   8.777  0.00  0.00     0.280 HD
ATOM     10  C4  ZIN A   1      18.764   2.862  10.068  0.00  0.00     0.190 C 
ATOM     11  C27 ZIN A   1      17.480   3.055  10.889  0.00  0.00     0.065 C 
ATOM     12  C6  ZIN A   1      19.904   2.459  11.033  0.00  0.00     0.035 C 
ENDBRANCH   2   3
ENDBRANCH   1   2
BRANCH   1  13
ATOM     13  C15 ZIN A   1      18.199   0.699  14.913  0.00  0.00    -0.025 A 
ATOM     14  C20 ZIN A   1      17.375   0.350  15.967  0.00  0.00     0.010 A 
ATOM     15  C19 ZIN A   1      17.601  -0.825  16.662  0.00  0.00     0.001 A 
ATOM     16  C18 ZIN A   1      18.656  -1.645  16.307  0.00  0.00     0.000 A 
ATOM     17  C17 ZIN A   1      19.482  -1.293  15.255  0.00  0.00     0.001 A 
ATOM     18  C16 ZIN A   1      19.253  -0.121  14.559  0.00  0.00     0.010 A 
ENDBRANCH   1  13
BRANCH   1  19
ATOM     19  C21 ZIN A   1      18.717   3.102  14.798  0.00  0.00    -0.025 A 
ATOM     20  C26 ZIN A   1      19.226   2.950  16.074  0.00  0.00     0.010 A 
ATOM     21  C25 ZIN A   1      19.934   3.981  16.664  0.00  0.00     0.001 A 
ATOM     22  C24 ZIN A   1      20.125   5.167  15.981  0.00  0.00     0.000 A 
ATOM     23  C23 ZIN A   1      19.612   5.321  14.707  0.00  0.00     0.001 A 
ATOM     24  C22 ZIN A   1      18.907   4.289  14.115  0.00  0.00     0.010 A 
ENDBRANCH   1  19
TORSDOF 4
ENDMDL
