MODEL 1
REMARK VINA RESULT:      -7.0      0.000      0.000
REMARK  8 active torsions:
REMARK  status: ('A' for Active; 'I' for Inactive)
REMARK    1  A    between atoms: C2_2  and  C3_3 
REMARK       I    between atoms: C2_2  and  N18_18 
REMARK    2  A    between atoms: C3_3  and  C4_4 
REMARK    3  A    between atoms: C4_4  and  C5_5 
REMARK    4  A    between atoms: C5_5  and  C6_6 
REMARK    5  A    between atoms: C6_6  and  C7_7 
REMARK    6  A    between atoms: C7_7  and  C8_8 
REMARK    7  A    between atoms: C8_8  and  C9_9 
REMARK       I    between atoms: C9_9  and  N11_11 
REMARK    8  A    between atoms: N11_11  and  C12_12 
ROOT
ATOM      1  C8  <0> d   1      17.449   1.451  10.261  0.00  0.00     0.103 C 
ENDROOT
BRANCH   1   2
ATOM      2  C7  <0> d   1      18.807   2.147  10.163  0.00  0.00     0.009 C 
BRANCH   2   3
ATOM      3  C6  <0> d   1      19.261   2.178   8.702  0.00  0.00     0.000 C 
BRANCH   3   4
ATOM      4  C5  <0> d   1      18.723   0.944   7.974  0.00  0.00     0.000 C 
BRANCH   4   5
ATOM      5  C4  <0> d   1      18.803   1.168   6.463  0.00  0.00     0.009 C 
BRANCH   5   6
ATOM      6  C3  <0> d   1      18.128   0.002   5.738  0.00  0.00     0.105 C 
BRANCH   6   7
ATOM      7  C2  <0> d   1      19.142  -1.082   5.478  0.00  0.00     0.243 C 
ATOM      8  O1  <0> d   1      19.982  -0.933   4.616  0.00  0.00    -0.271 OA
ATOM      9  N18 <0> d   1      19.112  -2.219   6.200  0.00  0.00    -0.201 N 
ATOM     10  O19 <0> d   1      20.060  -3.242   5.952  0.00  0.00    -0.086 OA
ATOM     11  H38 <0> d   1      18.440  -2.339   6.889  0.00  0.00     0.200 HD
ENDBRANCH   6   7
ENDBRANCH   5   6
ENDBRANCH   4   5
ENDBRANCH   3   4
ENDBRANCH   2   3
ENDBRANCH   1   2
BRANCH   1  12
ATOM     12  C9  <0> d   1      17.351   0.722  11.576  0.00  0.00     0.222 C 
ATOM     13  O10 <0> d   1      16.352   0.087  11.844  0.00  0.00    -0.273 OA
ATOM     14  N11 <0> d   1      18.371   0.776  12.455  0.00  0.00    -0.327 N 
ATOM     15  H32 <0> d   1      19.194   1.228  12.213  0.00  0.00     0.169 HD
BRANCH  14  16
ATOM     16  C12 <0> d   1      18.242   0.181  13.714  0.00  0.00     0.034 A 
ATOM     17  C17 <0> d   1      18.777  -1.079  13.947  0.00  0.00     0.029 A 
ATOM     18  C16 <0> d   1      18.653  -1.661  15.193  0.00  0.00     0.002 A 
ATOM     19  C15 <0> d   1      17.987  -0.995  16.206  0.00  0.00     0.000 A 
ATOM     20  C14 <0> d   1      17.447   0.257  15.975  0.00  0.00     0.002 A 
ATOM     21  C13 <0> d   1      17.573   0.847  14.733  0.00  0.00     0.029 A 
ENDBRANCH  14  16
ENDBRANCH   1  12
TORSDOF 8
ENDMDL
MODEL 2
REMARK VINA RESULT:      -6.8      3.329      8.583
REMARK  8 active torsions:
REMARK  status: ('A' for Active; 'I' for Inactive)
REMARK    1  A    between atoms: C2_2  and  C3_3 
REMARK       I    between atoms: C2_2  and  N18_18 
REMARK    2  A    between atoms: C3_3  and  C4_4 
REMARK    3  A    between atoms: C4_4  and  C5_5 
REMARK    4  A    between atoms: C5_5  and  C6_6 
REMARK    5  A    between atoms: C6_6  and  C7_7 
REMARK    6  A    between atoms: C7_7  and  C8_8 
REMARK    7  A    between atoms: C8_8  and  C9_9 
REMARK       I    between atoms: C9_9  and  N11_11 
REMARK    8  A    between atoms: N11_11  and  C12_12 
ROOT
ATOM      1  C8  <0> d   1      19.906  -0.067  14.047  0.00  0.00     0.103 C 
ENDROOT
BRANCH   1   2
ATOM      2  C7  <0> d   1      18.922  -1.224  14.226  0.00  0.00     0.009 C 
BRANCH   2   3
ATOM      3  C6  <0> d   1      18.137  -1.030  15.525  0.00  0.00     0.000 C 
BRANCH   3   4
ATOM      4  C5  <0> d   1      18.911  -1.655  16.687  0.00  0.00     0.000 C 
BRANCH   4   5
ATOM      5  C4  <0> d   1      19.168  -0.592  17.757  0.00  0.00     0.009 C 
BRANCH   5   6
ATOM      6  C3  <0> d   1      18.359   0.665  17.433  0.00  0.00     0.105 C 
BRANCH   6   7
ATOM      7  C2  <0> d   1      19.228   1.883  17.611  0.00  0.00     0.243 C 
ATOM      8  O1  <0> d   1      19.722   2.122  18.693  0.00  0.00    -0.271 OA
ATOM      9  N18 <0> d   1      19.453   2.708  16.570  0.00  0.00    -0.201 N 
ATOM     10  O19 <0> d   1      20.265   3.856  16.739  0.00  0.00    -0.086 OA
ATOM     11  H38 <0> d   1      19.058   2.517  15.705  0.00  0.00     0.200 HD
ENDBRANCH   6   7
ENDBRANCH   5   6
ENDBRANCH   4   5
ENDBRANCH   3   4
ENDBRANCH   2   3
ENDBRANCH   1   2
BRANCH   1  12
ATOM     12  C9  <0> d   1      20.022   0.274  12.583  0.00  0.00     0.222 C 
ATOM     13  O10 <0> d   1      21.099   0.579  12.116  0.00  0.00    -0.273 OA
ATOM     14  N11 <0> d   1      18.929   0.241  11.795  0.00  0.00    -0.327 N 
ATOM     15  H32 <0> d   1      18.082  -0.066  12.154  0.00  0.00     0.169 HD
BRANCH  14  16
ATOM     16  C12 <0> d   1      19.018   0.651  10.460  0.00  0.00     0.034 A 
ATOM     17  C17 <0> d   1      19.240  -0.285   9.459  0.00  0.00     0.029 A 
ATOM     18  C16 <0> d   1      19.320   0.122   8.141  0.00  0.00     0.002 A 
ATOM     19  C15 <0> d   1      19.191   1.461   7.820  0.00  0.00     0.000 A 
ATOM     20  C14 <0> d   1      18.976   2.396   8.817  0.00  0.00     0.002 A 
ATOM     21  C13 <0> d   1      18.888   1.995  10.135  0.00  0.00     0.029 A 
ENDBRANCH  14  16
ENDBRANCH   1  12
TORSDOF 8
ENDMDL
MODEL 3
REMARK VINA RESULT:      -6.7      3.170      8.852
REMARK  8 active torsions:
REMARK  status: ('A' for Active; 'I' for Inactive)
REMARK    1  A    between atoms: C2_2  and  C3_3 
REMARK       I    between atoms: C2_2  and  N18_18 
REMARK    2  A    between atoms: C3_3  and  C4_4 
REMARK    3  A    between atoms: C4_4  and  C5_5 
REMARK    4  A    between atoms: C5_5  and  C6_6 
REMARK    5  A    between atoms: C6_6  and  C7_7 
REMARK    6  A    between atoms: C7_7  and  C8_8 
REMARK    7  A    between atoms: C8_8  and  C9_9 
REMARK       I    between atoms: C9_9  and  N11_11 
REMARK    8  A    between atoms: N11_11  and  C12_12 
ROOT
ATOM      1  C8  <0> d   1      17.646   0.151  13.494  0.00  0.00     0.103 C 
ENDROOT
BRANCH   1   2
ATOM      2  C7  <0> d   1      18.547  -1.069  13.697  0.00  0.00     0.009 C 
BRANCH   2   3
ATOM      3  C6  <0> d   1      19.109  -1.058  15.120  0.00  0.00     0.000 C 
BRANCH   3   4
ATOM      4  C5  <0> d   1      18.068  -1.630  16.084  0.00  0.00     0.000 C 
BRANCH   4   5
ATOM      5  C4  <0> d   1      17.627  -0.541  17.063  0.00  0.00     0.009 C 
BRANCH   5   6
ATOM      6  C3  <0> d   1      18.786  -0.200  18.003  0.00  0.00     0.105 C 
BRANCH   6   7
ATOM      7  C2  <0> d   1      18.710   1.254  18.388  0.00  0.00     0.243 C 
ATOM      8  O1  <0> d   1      19.724   1.866  18.652  0.00  0.00    -0.271 OA
ATOM      9  N18 <0> d   1      17.515   1.875  18.444  0.00  0.00    -0.201 N 
ATOM     10  O19 <0> d   1      17.442   3.241  18.813  0.00  0.00    -0.086 OA
ATOM     11  H38 <0> d   1      16.704   1.387  18.234  0.00  0.00     0.200 HD
ENDBRANCH   6   7
ENDBRANCH   5   6
ENDBRANCH   4   5
ENDBRANCH   3   4
ENDBRANCH   2   3
ENDBRANCH   1   2
BRANCH   1  12
ATOM     12  C9  <0> d   1      17.687   0.571  12.047  0.00  0.00     0.222 C 
ATOM     13  O10 <0> d   1      16.987   1.484  11.662  0.00  0.00    -0.273 OA
ATOM     14  N11 <0> d   1      18.500  -0.067  11.183  0.00  0.00    -0.327 N 
ATOM     15  H32 <0> d   1      19.108  -0.751  11.504  0.00  0.00     0.169 HD
BRANCH  14  16
ATOM     16  C12 <0> d   1      18.467   0.258   9.822  0.00  0.00     0.034 A 
ATOM     17  C17 <0> d   1      19.303   1.247   9.322  0.00  0.00     0.029 A 
ATOM     18  C16 <0> d   1      19.273   1.560   7.977  0.00  0.00     0.002 A 
ATOM     19  C15 <0> d   1      18.401   0.899   7.131  0.00  0.00     0.000 A 
ATOM     20  C14 <0> d   1      17.562  -0.082   7.628  0.00  0.00     0.002 A 
ATOM     21  C13 <0> d   1      17.593  -0.405   8.970  0.00  0.00     0.029 A 
ENDBRANCH  14  16
ENDBRANCH   1  12
TORSDOF 8
ENDMDL
MODEL 4
REMARK VINA RESULT:      -6.7      3.280      8.652
REMARK  8 active torsions:
REMARK  status: ('A' for Active; 'I' for Inactive)
REMARK    1  A    between atoms: C2_2  and  C3_3 
REMARK       I    between atoms: C2_2  and  N18_18 
REMARK    2  A    between atoms: C3_3  and  C4_4 
REMARK    3  A    between atoms: C4_4  and  C5_5 
REMARK    4  A    between atoms: C5_5  and  C6_6 
REMARK    5  A    between atoms: C6_6  and  C7_7 
REMARK    6  A    between atoms: C7_7  and  C8_8 
REMARK    7  A    between atoms: C8_8  and  C9_9 
REMARK       I    between atoms: C9_9  and  N11_11 
REMARK    8  A    between atoms: N11_11  and  C12_12 
ROOT
ATOM      1  C8  <0> d   1      17.683  -2.415  11.784  0.00  0.00     0.103 C 
ENDROOT
BRANCH   1   2
ATOM      2  C7  <0> d   1      18.722  -2.181  12.883  0.00  0.00     0.009 C 
BRANCH   2   3
ATOM      3  C6  <0> d   1      18.386  -0.892  13.637  0.00  0.00     0.000 C 
BRANCH   3   4
ATOM      4  C5  <0> d   1      19.109  -0.886  14.984  0.00  0.00     0.000 C 
BRANCH   4   5
ATOM      5  C4  <0> d   1      18.206  -1.510  16.050  0.00  0.00     0.009 C 
BRANCH   5   6
ATOM      6  C3  <0> d   1      17.580  -0.402  16.901  0.00  0.00     0.105 C 
BRANCH   6   7
ATOM      7  C2  <0> d   1      18.631   0.198  17.797  0.00  0.00     0.243 C 
ATOM      8  O1  <0> d   1      19.339  -0.523  18.468  0.00  0.00    -0.271 OA
ATOM      9  N18 <0> d   1      18.782   1.535  17.857  0.00  0.00    -0.201 N 
ATOM     10  O19 <0> d   1      19.765   2.101  18.705  0.00  0.00    -0.086 OA
ATOM     11  H38 <0> d   1      18.215   2.112  17.321  0.00  0.00     0.200 HD
ENDBRANCH   6   7
ENDBRANCH   5   6
ENDBRANCH   4   5
ENDBRANCH   3   4
ENDBRANCH   2   3
ENDBRANCH   1   2
BRANCH   1  12
ATOM     12  C9  <0> d   1      18.139  -1.747  10.512  0.00  0.00     0.222 C 
ATOM     13  O10 <0> d   1      19.121  -2.157   9.931  0.00  0.00    -0.273 OA
ATOM     14  N11 <0> d   1      17.455  -0.695  10.021  0.00  0.00    -0.327 N 
ATOM     15  H32 <0> d   1      16.633  -0.410  10.448  0.00  0.00     0.169 HD
BRANCH  14  16
ATOM     16  C12 <0> d   1      17.932  -0.015   8.895  0.00  0.00     0.034 A 
ATOM     17  C17 <0> d   1      17.496  -0.376   7.627  0.00  0.00     0.029 A 
ATOM     18  C16 <0> d   1      17.964   0.301   6.518  0.00  0.00     0.002 A 
ATOM     19  C15 <0> d   1      18.876   1.330   6.669  0.00  0.00     0.000 A 
ATOM     20  C14 <0> d   1      19.316   1.688   7.930  0.00  0.00     0.002 A 
ATOM     21  C13 <0> d   1      18.847   1.019   9.043  0.00  0.00     0.029 A 
ENDBRANCH  14  16
ENDBRANCH   1  12
TORSDOF 8
ENDMDL
MODEL 5
REMARK VINA RESULT:      -6.7      2.965      3.637
REMARK  8 active torsions:
REMARK  status: ('A' for Active; 'I' for Inactive)
REMARK    1  A    between atoms: C2_2  and  C3_3 
REMARK       I    between atoms: C2_2  and  N18_18 
REMARK    2  A    between atoms: C3_3  and  C4_4 
REMARK    3  A    between atoms: C4_4  and  C5_5 
REMARK    4  A    between atoms: C5_5  and  C6_6 
REMARK    5  A    between atoms: C6_6  and  C7_7 
REMARK    6  A    between atoms: C7_7  and  C8_8 
REMARK    7  A    between atoms: C8_8  and  C9_9 
REMARK       I    between atoms: C9_9  and  N11_11 
REMARK    8  A    between atoms: N11_11  and  C12_12 
ROOT
ATOM      1  C8  <0> d   1      18.396   0.523  11.161  0.00  0.00     0.103 C 
ENDROOT
BRANCH   1   2
ATOM      2  C7  <0> d   1      17.932   1.277   9.914  0.00  0.00     0.009 C 
BRANCH   2   3
ATOM      3  C6  <0> d   1      19.097   2.093   9.348  0.00  0.00     0.000 C 
BRANCH   3   4
ATOM      4  C5  <0> d   1      19.296   1.743   7.872  0.00  0.00     0.000 C 
BRANCH   4   5
ATOM      5  C4  <0> d   1      18.503   0.479   7.537  0.00  0.00     0.009 C 
BRANCH   5   6
ATOM      6  C3  <0> d   1      18.461   0.290   6.019  0.00  0.00     0.105 C 
BRANCH   6   7
ATOM      7  C2  <0> d   1      19.269  -0.924   5.641  0.00  0.00     0.243 C 
ATOM      8  O1  <0> d   1      19.931  -0.920   4.624  0.00  0.00    -0.271 OA
ATOM      9  N18 <0> d   1      19.252  -2.017   6.429  0.00  0.00    -0.201 N 
ATOM     10  O19 <0> d   1      20.006  -3.161   6.071  0.00  0.00    -0.086 OA
ATOM     11  H38 <0> d   1      18.723  -2.021   7.242  0.00  0.00     0.200 HD
ENDBRANCH   6   7
ENDBRANCH   5   6
ENDBRANCH   4   5
ENDBRANCH   3   4
ENDBRANCH   2   3
ENDBRANCH   1   2
BRANCH   1  12
ATOM     12  C9  <0> d   1      17.830  -0.874  11.144  0.00  0.00     0.222 C 
ATOM     13  O10 <0> d   1      16.743  -1.093  11.635  0.00  0.00    -0.273 OA
ATOM     14  N11 <0> d   1      18.533  -1.879  10.586  0.00  0.00    -0.327 N 
ATOM     15  H32 <0> d   1      19.371  -1.692  10.135  0.00  0.00     0.169 HD
BRANCH  14  16
ATOM     16  C12 <0> d   1      18.053  -3.191  10.656  0.00  0.00     0.034 A 
ATOM     17  C17 <0> d   1      18.166  -3.912  11.837  0.00  0.00     0.029 A 
ATOM     18  C16 <0> d   1      17.685  -5.205  11.905  0.00  0.00     0.002 A 
ATOM     19  C15 <0> d   1      17.102  -5.786  10.793  0.00  0.00     0.000 A 
ATOM     20  C14 <0> d   1      16.994  -5.073   9.613  0.00  0.00     0.002 A 
ATOM     21  C13 <0> d   1      17.467  -3.777   9.541  0.00  0.00     0.029 A 
ENDBRANCH  14  16
ENDBRANCH   1  12
TORSDOF 8
ENDMDL
MODEL 6
REMARK VINA RESULT:      -6.6      1.584      1.928
REMARK  8 active torsions:
REMARK  status: ('A' for Active; 'I' for Inactive)
REMARK    1  A    between atoms: C2_2  and  C3_3 
REMARK       I    between atoms: C2_2  and  N18_18 
REMARK    2  A    between atoms: C3_3  and  C4_4 
REMARK    3  A    between atoms: C4_4  and  C5_5 
REMARK    4  A    between atoms: C5_5  and  C6_6 
REMARK    5  A    between atoms: C6_6  and  C7_7 
REMARK    6  A    between atoms: C7_7  and  C8_8 
REMARK    7  A    between atoms: C8_8  and  C9_9 
REMARK       I    between atoms: C9_9  and  N11_11 
REMARK    8  A    between atoms: N11_11  and  C12_12 
ROOT
ATOM      1  C8  <0> d   1      19.650   2.819  11.848  0.00  0.00     0.103 C 
ENDROOT
BRANCH   1   2
ATOM      2  C7  <0> d   1      18.547   3.442  10.990  0.00  0.00     0.009 C 
BRANCH   2   3
ATOM      3  C6  <0> d   1      18.733   3.015   9.532  0.00  0.00     0.000 C 
BRANCH   3   4
ATOM      4  C5  <0> d   1      18.246   1.575   9.357  0.00  0.00     0.000 C 
BRANCH   4   5
ATOM      5  C4  <0> d   1      19.217   0.816   8.452  0.00  0.00     0.009 C 
BRANCH   5   6
ATOM      6  C3  <0> d   1      18.894   1.119   6.987  0.00  0.00     0.105 C 
BRANCH   6   7
ATOM      7  C2  <0> d   1      19.011  -0.144   6.174  0.00  0.00     0.243 C 
ATOM      8  O1  <0> d   1      18.531  -1.178   6.588  0.00  0.00    -0.271 OA
ATOM      9  N18 <0> d   1      19.653  -0.126   4.990  0.00  0.00    -0.201 N 
ATOM     10  O19 <0> d   1      19.770  -1.314   4.228  0.00  0.00    -0.086 OA
ATOM     11  H38 <0> d   1      20.037   0.701   4.659  0.00  0.00     0.200 HD
ENDBRANCH   6   7
ENDBRANCH   5   6
ENDBRANCH   4   5
ENDBRANCH   3   4
ENDBRANCH   2   3
ENDBRANCH   1   2
BRANCH   1  12
ATOM     12  C9  <0> d   1      19.029   1.960  12.919  0.00  0.00     0.222 C 
ATOM     13  O10 <0> d   1      17.824   1.826  12.966  0.00  0.00    -0.273 OA
ATOM     14  N11 <0> d   1      19.811   1.342  13.826  0.00  0.00    -0.327 N 
ATOM     15  H32 <0> d   1      20.777   1.395  13.749  0.00  0.00     0.169 HD
BRANCH  14  16
ATOM     16  C12 <0> d   1      19.231   0.624  14.878  0.00  0.00     0.034 A 
ATOM     17  C17 <0> d   1      19.053  -0.748  14.768  0.00  0.00     0.029 A 
ATOM     18  C16 <0> d   1      18.485  -1.455  15.811  0.00  0.00     0.002 A 
ATOM     19  C15 <0> d   1      18.083  -0.795  16.957  0.00  0.00     0.000 A 
ATOM     20  C14 <0> d   1      18.254   0.573  17.066  0.00  0.00     0.002 A 
ATOM     21  C13 <0> d   1      18.827   1.285  16.030  0.00  0.00     0.029 A 
ENDBRANCH  14  16
ENDBRANCH   1  12
TORSDOF 8
ENDMDL
MODEL 7
REMARK VINA RESULT:      -6.6      2.440      2.913
REMARK  8 active torsions:
REMARK  status: ('A' for Active; 'I' for Inactive)
REMARK    1  A    between atoms: C2_2  and  C3_3 
REMARK       I    between atoms: C2_2  and  N18_18 
REMARK    2  A    between atoms: C3_3  and  C4_4 
REMARK    3  A    between atoms: C4_4  and  C5_5 
REMARK    4  A    between atoms: C5_5  and  C6_6 
REMARK    5  A    between atoms: C6_6  and  C7_7 
REMARK    6  A    between atoms: C7_7  and  C8_8 
REMARK    7  A    between atoms: C8_8  and  C9_9 
REMARK       I    between atoms: C9_9  and  N11_11 
REMARK    8  A    between atoms: N11_11  and  C12_12 
ROOT
ATOM      1  C8  <0> d   1      17.712   2.482  11.086  0.00  0.00     0.103 C 
ENDROOT
BRANCH   1   2
ATOM      2  C7  <0> d   1      18.978   2.639  10.241  0.00  0.00     0.009 C 
BRANCH   2   3
ATOM      3  C6  <0> d   1      18.590   2.862   8.777  0.00  0.00     0.000 C 
BRANCH   3   4
ATOM      4  C5  <0> d   1      19.225   1.773   7.910  0.00  0.00     0.000 C 
BRANCH   4   5
ATOM      5  C4  <0> d   1      18.289   0.566   7.841  0.00  0.00     0.009 C 
BRANCH   5   6
ATOM      6  C3  <0> d   1      19.086  -0.714   8.098  0.00  0.00     0.105 C 
BRANCH   6   7
ATOM      7  C2  <0> d   1      19.526  -0.751   9.539  0.00  0.00     0.243 C 
ATOM      8  O1  <0> d   1      18.725  -1.016  10.411  0.00  0.00    -0.271 OA
ATOM      9  N18 <0> d   1      20.807  -0.485   9.859  0.00  0.00    -0.201 N 
ATOM     10  O19 <0> d   1      21.220  -0.513  11.214  0.00  0.00    -0.086 OA
ATOM     11  H38 <0> d   1      21.448  -0.273   9.162  0.00  0.00     0.200 HD
ENDBRANCH   6   7
ENDBRANCH   5   6
ENDBRANCH   4   5
ENDBRANCH   3   4
ENDBRANCH   2   3
ENDBRANCH   1   2
BRANCH   1  12
ATOM     12  C9  <0> d   1      18.065   1.846  12.406  0.00  0.00     0.222 C 
ATOM     13  O10 <0> d   1      18.837   2.401  13.159  0.00  0.00    -0.273 OA
ATOM     14  N11 <0> d   1      17.524   0.661  12.749  0.00  0.00    -0.327 N 
ATOM     15  H32 <0> d   1      16.856   0.250  12.178  0.00  0.00     0.169 HD
BRANCH  14  16
ATOM     16  C12 <0> d   1      17.924   0.024  13.929  0.00  0.00     0.034 A 
ATOM     17  C17 <0> d   1      17.290   0.318  15.128  0.00  0.00     0.029 A 
ATOM     18  C16 <0> d   1      17.684  -0.317  16.290  0.00  0.00     0.002 A 
ATOM     19  C15 <0> d   1      18.717  -1.236  16.261  0.00  0.00     0.000 A 
ATOM     20  C14 <0> d   1      19.355  -1.526  15.069  0.00  0.00     0.002 A 
ATOM     21  C13 <0> d   1      18.961  -0.900  13.903  0.00  0.00     0.029 A 
ENDBRANCH  14  16
ENDBRANCH   1  12
TORSDOF 8
ENDMDL
MODEL 8
REMARK VINA RESULT:      -6.5      4.029      8.872
REMARK  8 active torsions:
REMARK  status: ('A' for Active; 'I' for Inactive)
REMARK    1  A    between atoms: C2_2  and  C3_3 
REMARK       I    between atoms: C2_2  and  N18_18 
REMARK    2  A    between atoms: C3_3  and  C4_4 
REMARK    3  A    between atoms: C4_4  and  C5_5 
REMARK    4  A    between atoms: C5_5  and  C6_6 
REMARK    5  A    between atoms: C6_6  and  C7_7 
REMARK    6  A    between atoms: C7_7  and  C8_8 
REMARK    7  A    between atoms: C8_8  and  C9_9 
REMARK       I    between atoms: C9_9  and  N11_11 
REMARK    8  A    between atoms: N11_11  and  C12_12 
ROOT
ATOM      1  C8  <0> d   1      17.854  -0.690  13.397  0.00  0.00     0.103 C 
ENDROOT
BRANCH   1   2
ATOM      2  C7  <0> d   1      19.166  -0.450  14.145  0.00  0.00     0.009 C 
BRANCH   2   3
ATOM      3  C6  <0> d   1      19.379  -1.563  15.174  0.00  0.00     0.000 C 
BRANCH   3   4
ATOM      4  C5  <0> d   1      18.403  -1.375  16.337  0.00  0.00     0.000 C 
BRANCH   4   5
ATOM      5  C4  <0> d   1      18.996  -0.389  17.345  0.00  0.00     0.009 C 
BRANCH   5   6
ATOM      6  C3  <0> d   1      17.874   0.454  17.955  0.00  0.00     0.105 C 
BRANCH   6   7
ATOM      7  C2  <0> d   1      18.456   1.707  18.555  0.00  0.00     0.243 C 
ATOM      8  O1  <0> d   1      19.657   1.816  18.685  0.00  0.00    -0.271 OA
ATOM      9  N18 <0> d   1      17.643   2.705  18.952  0.00  0.00    -0.201 N 
ATOM     10  O19 <0> d   1      18.189   3.880  19.523  0.00  0.00    -0.086 OA
ATOM     11  H38 <0> d   1      16.682   2.618  18.849  0.00  0.00     0.200 HD
ENDBRANCH   6   7
ENDBRANCH   5   6
ENDBRANCH   4   5
ENDBRANCH   3   4
ENDBRANCH   2   3
ENDBRANCH   1   2
BRANCH   1  12
ATOM     12  C9  <0> d   1      17.495   0.540  12.604  0.00  0.00     0.222 C 
ATOM     13  O10 <0> d   1      16.524   0.531  11.877  0.00  0.00    -0.273 OA
ATOM     14  N11 <0> d   1      18.254   1.650  12.701  0.00  0.00    -0.327 N 
ATOM     15  H32 <0> d   1      18.990   1.680  13.332  0.00  0.00     0.169 HD
BRANCH  14  16
ATOM     16  C12 <0> d   1      17.978   2.759  11.893  0.00  0.00     0.034 A 
ATOM     17  C17 <0> d   1      17.291   3.847  12.415  0.00  0.00     0.029 A 
ATOM     18  C16 <0> d   1      17.026   4.942  11.617  0.00  0.00     0.002 A 
ATOM     19  C15 <0> d   1      17.434   4.951  10.295  0.00  0.00     0.000 A 
ATOM     20  C14 <0> d   1      18.112   3.866   9.771  0.00  0.00     0.002 A 
ATOM     21  C13 <0> d   1      18.386   2.770  10.566  0.00  0.00     0.029 A 
ENDBRANCH  14  16
ENDBRANCH   1  12
TORSDOF 8
ENDMDL
MODEL 9
REMARK VINA RESULT:      -6.4      3.420      4.856
REMARK  8 active torsions:
REMARK  status: ('A' for Active; 'I' for Inactive)
REMARK    1  A    between atoms: C2_2  and  C3_3 
REMARK       I    between atoms: C2_2  and  N18_18 
REMARK    2  A    between atoms: C3_3  and  C4_4 
REMARK    3  A    between atoms: C4_4  and  C5_5 
REMARK    4  A    between atoms: C5_5  and  C6_6 
REMARK    5  A    between atoms: C6_6  and  C7_7 
REMARK    6  A    between atoms: C7_7  and  C8_8 
REMARK    7  A    between atoms: C8_8  and  C9_9 
REMARK       I    between atoms: C9_9  and  N11_11 
REMARK    8  A    between atoms: N11_11  and  C12_12 
ROOT
ATOM      1  C8  <0> d   1      20.598  -0.441  10.366  0.00  0.00     0.103 C 
ENDROOT
BRANCH   1   2
ATOM      2  C7  <0> d   1      19.459  -0.915   9.463  0.00  0.00     0.009 C 
BRANCH   2   3
ATOM      3  C6  <0> d   1      18.475   0.236   9.236  0.00  0.00     0.000 C 
BRANCH   3   4
ATOM      4  C5  <0> d   1      19.216   1.429   8.629  0.00  0.00     0.000 C 
BRANCH   4   5
ATOM      5  C4  <0> d   1      18.878   2.694   9.419  0.00  0.00     0.009 C 
BRANCH   5   6
ATOM      6  C3  <0> d   1      17.738   2.397  10.396  0.00  0.00     0.105 C 
BRANCH   6   7
ATOM      7  C2  <0> d   1      17.814   3.348  11.562  0.00  0.00     0.243 C 
ATOM      8  O1  <0> d   1      16.861   4.046  11.838  0.00  0.00    -0.271 OA
ATOM      9  N18 <0> d   1      18.942   3.429  12.294  0.00  0.00    -0.201 N 
ATOM     10  O19 <0> d   1      19.017   4.327  13.385  0.00  0.00    -0.086 OA
ATOM     11  H38 <0> d   1      19.705   2.871  12.072  0.00  0.00     0.200 HD
ENDBRANCH   6   7
ENDBRANCH   5   6
ENDBRANCH   4   5
ENDBRANCH   3   4
ENDBRANCH   2   3
ENDBRANCH   1   2
BRANCH   1  12
ATOM     12  C9  <0> d   1      20.060  -0.148  11.743  0.00  0.00     0.222 C 
ATOM     13  O10 <0> d   1      20.400   0.861  12.325  0.00  0.00    -0.273 OA
ATOM     14  N11 <0> d   1      19.202  -1.006  12.328  0.00  0.00    -0.327 N 
ATOM     15  H32 <0> d   1      18.878  -1.778  11.838  0.00  0.00     0.169 HD
BRANCH  14  16
ATOM     16  C12 <0> d   1      18.778  -0.784  13.643  0.00  0.00     0.034 A 
ATOM     17  C17 <0> d   1      17.754   0.118  13.902  0.00  0.00     0.029 A 
ATOM     18  C16 <0> d   1      17.334   0.330  15.200  0.00  0.00     0.002 A 
ATOM     19  C15 <0> d   1      17.939  -0.346  16.243  0.00  0.00     0.000 A 
ATOM     20  C14 <0> d   1      18.963  -1.240  15.990  0.00  0.00     0.002 A 
ATOM     21  C13 <0> d   1      19.384  -1.462  14.693  0.00  0.00     0.029 A 
ENDBRANCH  14  16
ENDBRANCH   1  12
TORSDOF 8
ENDMDL
