MODEL 1
REMARK VINA RESULT:      -6.7      0.000      0.000
REMARK  12 active torsions:
REMARK  status: ('A' for Active; 'I' for Inactive)
REMARK    1  A    between atoms: C2_2  and  N4_4 
REMARK    2  A    between atoms: N4_4  and  C7_7 
REMARK    3  A    between atoms: C7_7  and  C8_8 
REMARK    4  A    between atoms: C8_8  and  O10_9 
REMARK    5  A    between atoms: C8_8  and  C11_10 
REMARK    6  A    between atoms: C11_10  and  O12_11 
REMARK    7  A    between atoms: O12_11  and  C13_12 
REMARK    8  A    between atoms: C16_15  and  C17_16 
REMARK    9  A    between atoms: C17_16  and  C18_17 
REMARK   10  A    between atoms: C18_17  and  O19_18 
REMARK   11  A    between atoms: O19_18  and  C20_19 
REMARK   12  A    between atoms: C20_19  and  C21_20 
ROOT
ATOM      1  C13 ZIN A   1      18.675   1.316   9.295  0.00  0.00     0.068 A 
ATOM      2  C14 ZIN A   1      19.377   1.729   8.173  0.00  0.00     0.037 A 
ATOM      3  C15 ZIN A   1      19.064   1.205   6.933  0.00  0.00     0.010 A 
ATOM      4  C16 ZIN A   1      18.053   0.271   6.811  0.00  0.00    -0.056 A 
ATOM      5  C24 ZIN A   1      17.353  -0.143   7.929  0.00  0.00     0.010 A 
ATOM      6  C25 ZIN A   1      17.664   0.374   9.171  0.00  0.00     0.037 A 
ENDROOT
BRANCH   1   7
ATOM      7  O12 ZIN A   1      18.980   1.829  10.516  0.00  0.00    -0.349 OA
BRANCH   7   8
ATOM      8  C11 ZIN A   1      19.186   0.896  11.579  0.00  0.00     0.209 C 
BRANCH   8   9
ATOM      9  C8  ZIN A   1      20.438   0.064  11.292  0.00  0.00     0.168 C 
BRANCH   9  10
ATOM     10  C7  ZIN A   1      20.162  -1.403  11.630  0.00  0.00     0.266 C 
BRANCH  10  11
ATOM     11  N4  ZIN A   1      19.963  -2.162  10.387  0.00  0.00    -0.069 N 
ATOM     12  H5  ZIN A   1      20.818  -2.643  10.147  0.00  0.00     0.277 HD
ATOM     13  H6  ZIN A   1      19.713  -1.529   9.643  0.00  0.00     0.277 HD
BRANCH  11  14
ATOM     14  C2  ZIN A   1      18.887  -3.144  10.580  0.00  0.00     0.178 C 
ATOM     15  C1  ZIN A   1      19.496  -4.525  10.831  0.00  0.00     0.039 C 
ATOM     16  C3  ZIN A   1      18.034  -2.736  11.783  0.00  0.00     0.039 C 
ENDBRANCH  11  14
ENDBRANCH  10  11
ENDBRANCH   9  10
BRANCH   9  17
ATOM     17  O10 ZIN A   1      21.520   0.541  12.093  0.00  0.00    -0.392 OA
ATOM     18  H35 ZIN A   1      22.319  -0.001  12.039  0.00  0.00     0.210 HD
ENDBRANCH   9  17
ENDBRANCH   8   9
ENDBRANCH   7   8
ENDBRANCH   1   7
BRANCH   4  19
ATOM     19  C17 ZIN A   1      17.714  -0.299   5.457  0.00  0.00     0.064 C 
BRANCH  19  20
ATOM     20  C18 ZIN A   1      18.941  -0.218   4.548  0.00  0.00     0.172 C 
BRANCH  20  21
ATOM     21  O19 ZIN A   1      19.634  -1.468   4.570  0.00  0.00    -0.390 OA
BRANCH  21  22
ATOM     22  C20 ZIN A   1      18.775  -2.610   4.537  0.00  0.00     0.172 C 
BRANCH  22  23
ATOM     23  C21 ZIN A   1      19.231  -3.620   5.592  0.00  0.00     0.009 A 
ATOM     24  C23 ZIN A   1      18.368  -3.768   6.847  0.00  0.00     0.007 A 
ATOM     25  C22 ZIN A   1      19.726  -3.068   6.931  0.00  0.00     0.007 A 
ENDBRANCH  22  23
ENDBRANCH  21  22
ENDBRANCH  20  21
ENDBRANCH  19  20
ENDBRANCH   4  19
TORSDOF 12
ENDMDL
MODEL 2
REMARK VINA RESULT:      -6.4      2.011      2.978
REMARK  12 active torsions:
REMARK  status: ('A' for Active; 'I' for Inactive)
REMARK    1  A    between atoms: C2_2  and  N4_4 
REMARK    2  A    between atoms: N4_4  and  C7_7 
REMARK    3  A    between atoms: C7_7  and  C8_8 
REMARK    4  A    between atoms: C8_8  and  O10_9 
REMARK    5  A    between atoms: C8_8  and  C11_10 
REMARK    6  A    between atoms: C11_10  and  O12_11 
REMARK    7  A    between atoms: O12_11  and  C13_12 
REMARK    8  A    between atoms: C16_15  and  C17_16 
REMARK    9  A    between atoms: C17_16  and  C18_17 
REMARK   10  A    between atoms: C18_17  and  O19_18 
REMARK   11  A    between atoms: O19_18  and  C20_19 
REMARK   12  A    between atoms: C20_19  and  C21_20 
ROOT
ATOM      1  C13 ZIN A   1      18.345   1.304   9.582  0.00  0.00     0.068 A 
ATOM      2  C14 ZIN A   1      17.489   0.255   9.278  0.00  0.00     0.037 A 
ATOM      3  C15 ZIN A   1      17.373  -0.183   7.973  0.00  0.00     0.010 A 
ATOM      4  C16 ZIN A   1      18.107   0.423   6.971  0.00  0.00    -0.056 A 
ATOM      5  C24 ZIN A   1      18.959   1.469   7.271  0.00  0.00     0.010 A 
ATOM      6  C25 ZIN A   1      19.077   1.914   8.573  0.00  0.00     0.037 A 
ENDROOT
BRANCH   1   7
ATOM      7  O12 ZIN A   1      18.461   1.737  10.864  0.00  0.00    -0.349 OA
BRANCH   7   8
ATOM      8  C11 ZIN A   1      19.785   1.903  11.375  0.00  0.00     0.209 C 
BRANCH   8   9
ATOM      9  C8  ZIN A   1      20.312   0.557  11.876  0.00  0.00     0.168 C 
BRANCH   9  10
ATOM     10  C7  ZIN A   1      19.596   0.182  13.176  0.00  0.00     0.266 C 
BRANCH  10  11
ATOM     11  N4  ZIN A   1      19.598   1.335  14.086  0.00  0.00    -0.069 N 
ATOM     12  H5  ZIN A   1      18.993   2.055  13.719  0.00  0.00     0.277 HD
ATOM     13  H6  ZIN A   1      20.537   1.696  14.169  0.00  0.00     0.277 HD
BRANCH  11  14
ATOM     14  C2  ZIN A   1      19.115   0.916  15.409  0.00  0.00     0.178 C 
ATOM     15  C1  ZIN A   1      18.768   2.153  16.240  0.00  0.00     0.039 C 
ATOM     16  C3  ZIN A   1      17.868   0.045  15.244  0.00  0.00     0.039 C 
ENDBRANCH  11  14
ENDBRANCH  10  11
ENDBRANCH   9  10
BRANCH   9  17
ATOM     17  O10 ZIN A   1      21.717   0.656  12.118  0.00  0.00    -0.392 OA
ATOM     18  H35 ZIN A   1      22.244   0.805  11.321  0.00  0.00     0.210 HD
ENDBRANCH   9  17
ENDBRANCH   8   9
ENDBRANCH   7   8
ENDBRANCH   1   7
BRANCH   4  19
ATOM     19  C17 ZIN A   1      17.977  -0.057   5.547  0.00  0.00     0.064 C 
BRANCH  19  20
ATOM     20  C18 ZIN A   1      19.342   0.008   4.861  0.00  0.00     0.172 C 
BRANCH  20  21
ATOM     21  O19 ZIN A   1      19.903  -1.305   4.791  0.00  0.00    -0.390 OA
BRANCH  21  22
ATOM     22  C20 ZIN A   1      18.935  -2.343   4.621  0.00  0.00     0.172 C 
BRANCH  22  23
ATOM     23  C21 ZIN A   1      19.247  -3.492   5.582  0.00  0.00     0.009 A 
ATOM     24  C23 ZIN A   1      18.137  -4.513   5.846  0.00  0.00     0.007 A 
ATOM     25  C22 ZIN A   1      18.521  -3.503   6.929  0.00  0.00     0.007 A 
ENDBRANCH  22  23
ENDBRANCH  21  22
ENDBRANCH  20  21
ENDBRANCH  19  20
ENDBRANCH   4  19
TORSDOF 12
ENDMDL
MODEL 3
REMARK VINA RESULT:      -6.3      4.253      8.737
REMARK  12 active torsions:
REMARK  status: ('A' for Active; 'I' for Inactive)
REMARK    1  A    between atoms: C2_2  and  N4_4 
REMARK    2  A    between atoms: N4_4  and  C7_7 
REMARK    3  A    between atoms: C7_7  and  C8_8 
REMARK    4  A    between atoms: C8_8  and  O10_9 
REMARK    5  A    between atoms: C8_8  and  C11_10 
REMARK    6  A    between atoms: C11_10  and  O12_11 
REMARK    7  A    between atoms: O12_11  and  C13_12 
REMARK    8  A    between atoms: C16_15  and  C17_16 
REMARK    9  A    between atoms: C17_16  and  C18_17 
REMARK   10  A    between atoms: C18_17  and  O19_18 
REMARK   11  A    between atoms: O19_18  and  C20_19 
REMARK   12  A    between atoms: C20_19  and  C21_20 
ROOT
ATOM      1  C13 ZIN A   1      18.437  -0.873  13.491  0.00  0.00     0.068 A 
ATOM      2  C14 ZIN A   1      19.148  -1.581  14.448  0.00  0.00     0.037 A 
ATOM      3  C15 ZIN A   1      18.978  -1.291  15.787  0.00  0.00     0.010 A 
ATOM      4  C16 ZIN A   1      18.100  -0.295  16.175  0.00  0.00    -0.056 A 
ATOM      5  C24 ZIN A   1      17.391   0.413  15.223  0.00  0.00     0.010 A 
ATOM      6  C25 ZIN A   1      17.560   0.129  13.882  0.00  0.00     0.037 A 
ENDROOT
BRANCH   1   7
ATOM      7  O12 ZIN A   1      18.602  -1.156  12.172  0.00  0.00    -0.349 OA
BRANCH   7   8
ATOM      8  C11 ZIN A   1      19.880  -0.870  11.602  0.00  0.00     0.209 C 
BRANCH   8   9
ATOM      9  C8  ZIN A   1      20.287   0.563  11.954  0.00  0.00     0.168 C 
BRANCH   9  10
ATOM     10  C7  ZIN A   1      19.841   1.508  10.835  0.00  0.00     0.266 C 
BRANCH  10  11
ATOM     11  N4  ZIN A   1      18.379   1.455  10.703  0.00  0.00    -0.069 N 
ATOM     12  H5  ZIN A   1      17.972   2.265  11.147  0.00  0.00     0.277 HD
ATOM     13  H6  ZIN A   1      18.031   0.619  11.148  0.00  0.00     0.277 HD
BRANCH  11  14
ATOM     14  C2  ZIN A   1      18.016   1.441   9.280  0.00  0.00     0.178 C 
ATOM     15  C1  ZIN A   1      19.238   1.813   8.439  0.00  0.00     0.039 C 
ATOM     16  C3  ZIN A   1      17.534   0.041   8.890  0.00  0.00     0.039 C 
ENDBRANCH  11  14
ENDBRANCH  10  11
ENDBRANCH   9  10
BRANCH   9  17
ATOM     17  O10 ZIN A   1      21.706   0.633  12.100  0.00  0.00    -0.392 OA
ATOM     18  H35 ZIN A   1      22.074   1.515  11.956  0.00  0.00     0.210 HD
ENDBRANCH   9  17
ENDBRANCH   8   9
ENDBRANCH   7   8
ENDBRANCH   1   7
BRANCH   4  19
ATOM     19  C17 ZIN A   1      17.917   0.019  17.638  0.00  0.00     0.064 C 
BRANCH  19  20
ATOM     20  C18 ZIN A   1      19.272  -0.039  18.345  0.00  0.00     0.172 C 
BRANCH  20  21
ATOM     21  O19 ZIN A   1      19.792   1.285  18.489  0.00  0.00    -0.390 OA
BRANCH  21  22
ATOM     22  C20 ZIN A   1      18.789   2.301  18.546  0.00  0.00     0.172 C 
BRANCH  22  23
ATOM     23  C21 ZIN A   1      19.200   3.474  17.653  0.00  0.00     0.009 A 
ATOM     24  C23 ZIN A   1      18.304   3.798  16.456  0.00  0.00     0.007 A 
ATOM     25  C22 ZIN A   1      19.672   3.149  16.235  0.00  0.00     0.007 A 
ENDBRANCH  22  23
ENDBRANCH  21  22
ENDBRANCH  20  21
ENDBRANCH  19  20
ENDBRANCH   4  19
TORSDOF 12
ENDMDL
MODEL 4
REMARK VINA RESULT:      -6.1      1.997      2.509
REMARK  12 active torsions:
REMARK  status: ('A' for Active; 'I' for Inactive)
REMARK    1  A    between atoms: C2_2  and  N4_4 
REMARK    2  A    between atoms: N4_4  and  C7_7 
REMARK    3  A    between atoms: C7_7  and  C8_8 
REMARK    4  A    between atoms: C8_8  and  O10_9 
REMARK    5  A    between atoms: C8_8  and  C11_10 
REMARK    6  A    between atoms: C11_10  and  O12_11 
REMARK    7  A    between atoms: O12_11  and  C13_12 
REMARK    8  A    between atoms: C16_15  and  C17_16 
REMARK    9  A    between atoms: C17_16  and  C18_17 
REMARK   10  A    between atoms: C18_17  and  O19_18 
REMARK   11  A    between atoms: O19_18  and  C20_19 
REMARK   12  A    between atoms: C20_19  and  C21_20 
ROOT
ATOM      1  C13 ZIN A   1      18.335   1.130   9.642  0.00  0.00     0.068 A 
ATOM      2  C14 ZIN A   1      19.157   1.707   8.686  0.00  0.00     0.037 A 
ATOM      3  C15 ZIN A   1      19.048   1.326   7.363  0.00  0.00     0.010 A 
ATOM      4  C16 ZIN A   1      18.121   0.371   6.990  0.00  0.00    -0.056 A 
ATOM      5  C24 ZIN A   1      17.301  -0.206   7.941  0.00  0.00     0.010 A 
ATOM      6  C25 ZIN A   1      17.408   0.167   9.267  0.00  0.00     0.037 A 
ENDROOT
BRANCH   1   7
ATOM      7  O12 ZIN A   1      18.440   1.502  10.944  0.00  0.00    -0.349 OA
BRANCH   7   8
ATOM      8  C11 ZIN A   1      19.750   1.797  11.432  0.00  0.00     0.209 C 
BRANCH   8   9
ATOM      9  C8  ZIN A   1      20.323   0.564  12.133  0.00  0.00     0.168 C 
BRANCH   9  10
ATOM     10  C7  ZIN A   1      19.820   0.521  13.578  0.00  0.00     0.266 C 
BRANCH  10  11
ATOM     11  N4  ZIN A   1      19.847  -0.865  14.065  0.00  0.00    -0.069 N 
ATOM     12  H5  ZIN A   1      20.648  -0.995  14.666  0.00  0.00     0.277 HD
ATOM     13  H6  ZIN A   1      19.911  -1.495  13.280  0.00  0.00     0.277 HD
BRANCH  11  14
ATOM     14  C2  ZIN A   1      18.618  -1.143  14.819  0.00  0.00     0.178 C 
ATOM     15  C1  ZIN A   1      18.976  -1.502  16.263  0.00  0.00     0.039 C 
ATOM     16  C3  ZIN A   1      17.722   0.098  14.809  0.00  0.00     0.039 C 
ENDBRANCH  11  14
ENDBRANCH  10  11
ENDBRANCH   9  10
BRANCH   9  17
ATOM     17  O10 ZIN A   1      21.750   0.633  12.127  0.00  0.00    -0.392 OA
ATOM     18  H35 ZIN A   1      22.121   1.042  11.333  0.00  0.00     0.210 HD
ENDBRANCH   9  17
ENDBRANCH   8   9
ENDBRANCH   7   8
ENDBRANCH   1   7
BRANCH   4  19
ATOM     19  C17 ZIN A   1      18.005  -0.043   5.546  0.00  0.00     0.064 C 
BRANCH  19  20
ATOM     20  C18 ZIN A   1      19.357  -0.563   5.054  0.00  0.00     0.172 C 
BRANCH  20  21
ATOM     21  O19 ZIN A   1      19.646  -1.811   5.688  0.00  0.00    -0.390 OA
BRANCH  21  22
ATOM     22  C20 ZIN A   1      18.572  -2.752   5.636  0.00  0.00     0.172 C 
BRANCH  22  23
ATOM     23  C21 ZIN A   1      18.401  -3.252   4.200  0.00  0.00     0.009 A 
ATOM     24  C23 ZIN A   1      16.981  -3.291   3.631  0.00  0.00     0.007 A 
ATOM     25  C22 ZIN A   1      17.694  -4.594   3.999  0.00  0.00     0.007 A 
ENDBRANCH  22  23
ENDBRANCH  21  22
ENDBRANCH  20  21
ENDBRANCH  19  20
ENDBRANCH   4  19
TORSDOF 12
ENDMDL
MODEL 5
REMARK VINA RESULT:      -6.1      2.110      2.639
REMARK  12 active torsions:
REMARK  status: ('A' for Active; 'I' for Inactive)
REMARK    1  A    between atoms: C2_2  and  N4_4 
REMARK    2  A    between atoms: N4_4  and  C7_7 
REMARK    3  A    between atoms: C7_7  and  C8_8 
REMARK    4  A    between atoms: C8_8  and  O10_9 
REMARK    5  A    between atoms: C8_8  and  C11_10 
REMARK    6  A    between atoms: C11_10  and  O12_11 
REMARK    7  A    between atoms: O12_11  and  C13_12 
REMARK    8  A    between atoms: C16_15  and  C17_16 
REMARK    9  A    between atoms: C17_16  and  C18_17 
REMARK   10  A    between atoms: C18_17  and  O19_18 
REMARK   11  A    between atoms: O19_18  and  C20_19 
REMARK   12  A    between atoms: C20_19  and  C21_20 
ROOT
ATOM      1  C13 ZIN A   1      18.634   1.236   9.357  0.00  0.00     0.068 A 
ATOM      2  C14 ZIN A   1      19.343   1.745   8.280  0.00  0.00     0.037 A 
ATOM      3  C15 ZIN A   1      19.064   1.305   7.001  0.00  0.00     0.010 A 
ATOM      4  C16 ZIN A   1      18.079   0.357   6.794  0.00  0.00    -0.056 A 
ATOM      5  C24 ZIN A   1      17.372  -0.154   7.866  0.00  0.00     0.010 A 
ATOM      6  C25 ZIN A   1      17.650   0.280   9.148  0.00  0.00     0.037 A 
ENDROOT
BRANCH   1   7
ATOM      7  O12 ZIN A   1      18.906   1.667  10.617  0.00  0.00    -0.349 OA
BRANCH   7   8
ATOM      8  C11 ZIN A   1      18.899   3.079  10.835  0.00  0.00     0.209 C 
BRANCH   8   9
ATOM      9  C8  ZIN A   1      19.622   3.397  12.145  0.00  0.00     0.168 C 
BRANCH   9  10
ATOM     10  C7  ZIN A   1      18.934   2.662  13.298  0.00  0.00     0.266 C 
BRANCH  10  11
ATOM     11  N4  ZIN A   1      19.569   1.351  13.491  0.00  0.00    -0.069 N 
ATOM     12  H5  ZIN A   1      20.400   1.460  14.054  0.00  0.00     0.277 HD
ATOM     13  H6  ZIN A   1      19.820   0.963  12.594  0.00  0.00     0.277 HD
BRANCH  11  14
ATOM     14  C2  ZIN A   1      18.632   0.448  14.172  0.00  0.00     0.178 C 
ATOM     15  C1  ZIN A   1      17.515   0.049  13.204  0.00  0.00     0.039 C 
ATOM     16  C3  ZIN A   1      19.376  -0.805  14.637  0.00  0.00     0.039 C 
ENDBRANCH  11  14
ENDBRANCH  10  11
ENDBRANCH   9  10
BRANCH   9  17
ATOM     17  O10 ZIN A   1      19.578   4.804  12.384  0.00  0.00    -0.392 OA
ATOM     18  H35 ZIN A   1      20.141   5.322  11.791  0.00  0.00     0.210 HD
ENDBRANCH   9  17
ENDBRANCH   8   9
ENDBRANCH   7   8
ENDBRANCH   1   7
BRANCH   4  19
ATOM     19  C17 ZIN A   1      17.778  -0.122   5.397  0.00  0.00     0.064 C 
BRANCH  19  20
ATOM     20  C18 ZIN A   1      19.050  -0.058   4.550  0.00  0.00     0.172 C 
BRANCH  20  21
ATOM     21  O19 ZIN A   1      19.711  -1.325   4.586  0.00  0.00    -0.390 OA
BRANCH  21  22
ATOM     22  C20 ZIN A   1      18.825  -2.446   4.523  0.00  0.00     0.172 C 
BRANCH  22  23
ATOM     23  C21 ZIN A   1      19.254  -3.493   5.553  0.00  0.00     0.009 A 
ATOM     24  C23 ZIN A   1      18.340  -3.710   6.761  0.00  0.00     0.007 A 
ATOM     25  C22 ZIN A   1      19.680  -2.991   6.934  0.00  0.00     0.007 A 
ENDBRANCH  22  23
ENDBRANCH  21  22
ENDBRANCH  20  21
ENDBRANCH  19  20
ENDBRANCH   4  19
TORSDOF 12
ENDMDL
MODEL 6
REMARK VINA RESULT:      -6.1      2.057      3.592
REMARK  12 active torsions:
REMARK  status: ('A' for Active; 'I' for Inactive)
REMARK    1  A    between atoms: C2_2  and  N4_4 
REMARK    2  A    between atoms: N4_4  and  C7_7 
REMARK    3  A    between atoms: C7_7  and  C8_8 
REMARK    4  A    between atoms: C8_8  and  O10_9 
REMARK    5  A    between atoms: C8_8  and  C11_10 
REMARK    6  A    between atoms: C11_10  and  O12_11 
REMARK    7  A    between atoms: O12_11  and  C13_12 
REMARK    8  A    between atoms: C16_15  and  C17_16 
REMARK    9  A    between atoms: C17_16  and  C18_17 
REMARK   10  A    between atoms: C18_17  and  O19_18 
REMARK   11  A    between atoms: O19_18  and  C20_19 
REMARK   12  A    between atoms: C20_19  and  C21_20 
ROOT
ATOM      1  C13 ZIN A   1      18.515   0.939   9.419  0.00  0.00     0.068 A 
ATOM      2  C14 ZIN A   1      17.546   0.020   9.046  0.00  0.00     0.037 A 
ATOM      3  C15 ZIN A   1      17.343  -0.265   7.710  0.00  0.00     0.010 A 
ATOM      4  C16 ZIN A   1      18.105   0.366   6.744  0.00  0.00    -0.056 A 
ATOM      5  C24 ZIN A   1      19.071   1.283   7.113  0.00  0.00     0.010 A 
ATOM      6  C25 ZIN A   1      19.275   1.574   8.447  0.00  0.00     0.037 A 
ENDROOT
BRANCH   1   7
ATOM      7  O12 ZIN A   1      18.717   1.221  10.732  0.00  0.00    -0.349 OA
BRANCH   7   8
ATOM      8  C11 ZIN A   1      19.143   0.144  11.570  0.00  0.00     0.209 C 
BRANCH   8   9
ATOM      9  C8  ZIN A   1      20.046   0.686  12.679  0.00  0.00     0.168 C 
BRANCH   9  10
ATOM     10  C7  ZIN A   1      19.223   1.572  13.618  0.00  0.00     0.266 C 
BRANCH  10  11
ATOM     11  N4  ZIN A   1      19.578   2.981  13.397  0.00  0.00    -0.069 N 
ATOM     12  H5  ZIN A   1      20.229   3.047  12.629  0.00  0.00     0.277 HD
ATOM     13  H6  ZIN A   1      20.004   3.355  14.231  0.00  0.00     0.277 HD
BRANCH  11  14
ATOM     14  C2  ZIN A   1      18.366   3.747  13.080  0.00  0.00     0.178 C 
ATOM     15  C1  ZIN A   1      18.056   4.709  14.228  0.00  0.00     0.039 C 
ATOM     16  C3  ZIN A   1      18.587   4.543  11.792  0.00  0.00     0.039 C 
ENDBRANCH  11  14
ENDBRANCH  10  11
ENDBRANCH   9  10
BRANCH   9  17
ATOM     17  O10 ZIN A   1      21.101   1.457  12.100  0.00  0.00    -0.392 OA
ATOM     18  H35 ZIN A   1      21.734   1.803  12.743  0.00  0.00     0.210 HD
ENDBRANCH   9  17
ENDBRANCH   8   9
ENDBRANCH   7   8
ENDBRANCH   1   7
BRANCH   4  19
ATOM     19  C17 ZIN A   1      17.881   0.054   5.286  0.00  0.00     0.064 C 
BRANCH  19  20
ATOM     20  C18 ZIN A   1      19.231  -0.062   4.576  0.00  0.00     0.172 C 
BRANCH  20  21
ATOM     21  O19 ZIN A   1      19.826  -1.325   4.886  0.00  0.00    -0.390 OA
BRANCH  21  22
ATOM     22  C20 ZIN A   1      18.996  -2.448   4.583  0.00  0.00     0.172 C 
BRANCH  22  23
ATOM     23  C21 ZIN A   1      19.259  -3.564   5.597  0.00  0.00     0.009 A 
ATOM     24  C23 ZIN A   1      18.244  -3.744   6.727  0.00  0.00     0.007 A 
ATOM     25  C22 ZIN A   1      19.622  -3.149   7.024  0.00  0.00     0.007 A 
ENDBRANCH  22  23
ENDBRANCH  21  22
ENDBRANCH  20  21
ENDBRANCH  19  20
ENDBRANCH   4  19
TORSDOF 12
ENDMDL
MODEL 7
REMARK VINA RESULT:      -6.0      1.975      4.503
REMARK  12 active torsions:
REMARK  status: ('A' for Active; 'I' for Inactive)
REMARK    1  A    between atoms: C2_2  and  N4_4 
REMARK    2  A    between atoms: N4_4  and  C7_7 
REMARK    3  A    between atoms: C7_7  and  C8_8 
REMARK    4  A    between atoms: C8_8  and  O10_9 
REMARK    5  A    between atoms: C8_8  and  C11_10 
REMARK    6  A    between atoms: C11_10  and  O12_11 
REMARK    7  A    between atoms: O12_11  and  C13_12 
REMARK    8  A    between atoms: C16_15  and  C17_16 
REMARK    9  A    between atoms: C17_16  and  C18_17 
REMARK   10  A    between atoms: C18_17  and  O19_18 
REMARK   11  A    between atoms: O19_18  and  C20_19 
REMARK   12  A    between atoms: C20_19  and  C21_20 
ROOT
ATOM      1  C13 ZIN A   1      18.659  -2.253  11.724  0.00  0.00     0.068 A 
ATOM      2  C14 ZIN A   1      17.493  -2.744  11.156  0.00  0.00     0.037 A 
ATOM      3  C15 ZIN A   1      17.511  -3.947  10.477  0.00  0.00     0.010 A 
ATOM      4  C16 ZIN A   1      18.689  -4.661  10.363  0.00  0.00    -0.056 A 
ATOM      5  C24 ZIN A   1      19.853  -4.173  10.927  0.00  0.00     0.010 A 
ATOM      6  C25 ZIN A   1      19.842  -2.969  11.603  0.00  0.00     0.037 A 
ENDROOT
BRANCH   1   7
ATOM      7  O12 ZIN A   1      18.645  -1.070  12.392  0.00  0.00    -0.349 OA
BRANCH   7   8
ATOM      8  C11 ZIN A   1      19.806  -0.744  13.158  0.00  0.00     0.209 C 
BRANCH   8   9
ATOM      9  C8  ZIN A   1      20.319   0.637  12.745  0.00  0.00     0.168 C 
BRANCH   9  10
ATOM     10  C7  ZIN A   1      19.331   1.275  11.766  0.00  0.00     0.266 C 
BRANCH  10  11
ATOM     11  N4  ZIN A   1      19.814   1.086  10.391  0.00  0.00    -0.069 N 
ATOM     12  H5  ZIN A   1      20.007   0.107  10.235  0.00  0.00     0.277 HD
ATOM     13  H6  ZIN A   1      20.658   1.621  10.254  0.00  0.00     0.277 HD
BRANCH  11  14
ATOM     14  C2  ZIN A   1      18.786   1.539   9.444  0.00  0.00     0.178 C 
ATOM     15  C1  ZIN A   1      19.369   1.558   8.030  0.00  0.00     0.039 C 
ATOM     16  C3  ZIN A   1      17.592   0.583   9.492  0.00  0.00     0.039 C 
ENDBRANCH  11  14
ENDBRANCH  10  11
ENDBRANCH   9  10
BRANCH   9  17
ATOM     17  O10 ZIN A   1      21.594   0.502  12.116  0.00  0.00    -0.392 OA
ATOM     18  H35 ZIN A   1      21.688   1.017  11.302  0.00  0.00     0.210 HD
ENDBRANCH   9  17
ENDBRANCH   8   9
ENDBRANCH   7   8
ENDBRANCH   1   7
BRANCH   4  19
ATOM     19  C17 ZIN A   1      18.705  -5.973   9.621  0.00  0.00     0.064 C 
BRANCH  19  20
ATOM     20  C18 ZIN A   1      18.368  -5.731   8.149  0.00  0.00     0.172 C 
BRANCH  20  21
ATOM     21  O19 ZIN A   1      19.556  -5.854   7.362  0.00  0.00    -0.390 OA
BRANCH  21  22
ATOM     22  C20 ZIN A   1      20.119  -4.603   6.962  0.00  0.00     0.172 C 
BRANCH  22  23
ATOM     23  C21 ZIN A   1      19.013  -3.548   6.880  0.00  0.00     0.009 A 
ATOM     24  C23 ZIN A   1      19.314  -2.269   6.096  0.00  0.00     0.007 A 
ATOM     25  C22 ZIN A   1      19.238  -2.230   7.624  0.00  0.00     0.007 A 
ENDBRANCH  22  23
ENDBRANCH  21  22
ENDBRANCH  20  21
ENDBRANCH  19  20
ENDBRANCH   4  19
TORSDOF 12
ENDMDL
MODEL 8
REMARK VINA RESULT:      -6.0      1.670      5.607
REMARK  12 active torsions:
REMARK  status: ('A' for Active; 'I' for Inactive)
REMARK    1  A    between atoms: C2_2  and  N4_4 
REMARK    2  A    between atoms: N4_4  and  C7_7 
REMARK    3  A    between atoms: C7_7  and  C8_8 
REMARK    4  A    between atoms: C8_8  and  O10_9 
REMARK    5  A    between atoms: C8_8  and  C11_10 
REMARK    6  A    between atoms: C11_10  and  O12_11 
REMARK    7  A    between atoms: O12_11  and  C13_12 
REMARK    8  A    between atoms: C16_15  and  C17_16 
REMARK    9  A    between atoms: C17_16  and  C18_17 
REMARK   10  A    between atoms: C18_17  and  O19_18 
REMARK   11  A    between atoms: O19_18  and  C20_19 
REMARK   12  A    between atoms: C20_19  and  C21_20 
ROOT
ATOM      1  C13 ZIN A   1      18.133   0.156   7.751  0.00  0.00     0.068 A 
ATOM      2  C14 ZIN A   1      19.001   1.224   7.585  0.00  0.00     0.037 A 
ATOM      3  C15 ZIN A   1      19.171   2.139   8.606  0.00  0.00     0.010 A 
ATOM      4  C16 ZIN A   1      18.477   1.990   9.793  0.00  0.00    -0.056 A 
ATOM      5  C24 ZIN A   1      17.611   0.926   9.960  0.00  0.00     0.010 A 
ATOM      6  C25 ZIN A   1      17.434   0.011   8.941  0.00  0.00     0.037 A 
ENDROOT
BRANCH   1   7
ATOM      7  O12 ZIN A   1      17.963  -0.746   6.749  0.00  0.00    -0.349 OA
BRANCH   7   8
ATOM      8  C11 ZIN A   1      19.087  -0.994   5.902  0.00  0.00     0.209 C 
BRANCH   8   9
ATOM      9  C8  ZIN A   1      18.945  -2.374   5.256  0.00  0.00     0.168 C 
BRANCH   9  10
ATOM     10  C7  ZIN A   1      19.666  -3.415   6.115  0.00  0.00     0.266 C 
BRANCH  10  11
ATOM     11  N4  ZIN A   1      19.781  -2.917   7.493  0.00  0.00    -0.069 N 
ATOM     12  H5  ZIN A   1      19.476  -1.956   7.529  0.00  0.00     0.277 HD
ATOM     13  H6  ZIN A   1      20.743  -2.976   7.792  0.00  0.00     0.277 HD
BRANCH  11  14
ATOM     14  C2  ZIN A   1      18.941  -3.733   8.379  0.00  0.00     0.178 C 
ATOM     15  C1  ZIN A   1      19.516  -5.148   8.466  0.00  0.00     0.039 C 
ATOM     16  C3  ZIN A   1      18.914  -3.106   9.775  0.00  0.00     0.039 C 
ENDBRANCH  11  14
ENDBRANCH  10  11
ENDBRANCH   9  10
BRANCH   9  17
ATOM     17  O10 ZIN A   1      19.523  -2.349   3.950  0.00  0.00    -0.392 OA
ATOM     18  H35 ZIN A   1      19.818  -3.215   3.634  0.00  0.00     0.210 HD
ENDBRANCH   9  17
ENDBRANCH   8   9
ENDBRANCH   7   8
ENDBRANCH   1   7
BRANCH   4  19
ATOM     19  C17 ZIN A   1      18.665   2.990  10.905  0.00  0.00     0.064 C 
BRANCH  19  20
ATOM     20  C18 ZIN A   1      19.053   2.257  12.190  0.00  0.00     0.172 C 
BRANCH  20  21
ATOM     21  O19 ZIN A   1      20.371   1.720  12.053  0.00  0.00    -0.390 OA
BRANCH  21  22
ATOM     22  C20 ZIN A   1      20.476   0.339  12.404  0.00  0.00     0.172 C 
BRANCH  22  23
ATOM     23  C21 ZIN A   1      19.325  -0.038  13.339  0.00  0.00     0.009 A 
ATOM     24  C23 ZIN A   1      19.558  -1.193  14.316  0.00  0.00     0.007 A 
ATOM     25  C22 ZIN A   1      18.640  -1.387  13.107  0.00  0.00     0.007 A 
ENDBRANCH  22  23
ENDBRANCH  21  22
ENDBRANCH  20  21
ENDBRANCH  19  20
ENDBRANCH   4  19
TORSDOF 12
ENDMDL
MODEL 9
REMARK VINA RESULT:      -6.0      2.029      5.770
REMARK  12 active torsions:
REMARK  status: ('A' for Active; 'I' for Inactive)
REMARK    1  A    between atoms: C2_2  and  N4_4 
REMARK    2  A    between atoms: N4_4  and  C7_7 
REMARK    3  A    between atoms: C7_7  and  C8_8 
REMARK    4  A    between atoms: C8_8  and  O10_9 
REMARK    5  A    between atoms: C8_8  and  C11_10 
REMARK    6  A    between atoms: C11_10  and  O12_11 
REMARK    7  A    between atoms: O12_11  and  C13_12 
REMARK    8  A    between atoms: C16_15  and  C17_16 
REMARK    9  A    between atoms: C17_16  and  C18_17 
REMARK   10  A    between atoms: C18_17  and  O19_18 
REMARK   11  A    between atoms: O19_18  and  C20_19 
REMARK   12  A    between atoms: C20_19  and  C21_20 
ROOT
ATOM      1  C13 ZIN A   1      18.068   0.023   8.641  0.00  0.00     0.068 A 
ATOM      2  C14 ZIN A   1      17.323   0.054   9.810  0.00  0.00     0.037 A 
ATOM      3  C15 ZIN A   1      17.400   1.150  10.647  0.00  0.00     0.010 A 
ATOM      4  C16 ZIN A   1      18.218   2.215  10.321  0.00  0.00    -0.056 A 
ATOM      5  C24 ZIN A   1      18.963   2.186   9.157  0.00  0.00     0.010 A 
ATOM      6  C25 ZIN A   1      18.893   1.091   8.319  0.00  0.00     0.037 A 
ENDROOT
BRANCH   1   7
ATOM      7  O12 ZIN A   1      17.995  -1.054   7.815  0.00  0.00    -0.349 OA
BRANCH   7   8
ATOM      8  C11 ZIN A   1      19.230  -1.589   7.335  0.00  0.00     0.209 C 
BRANCH   8   9
ATOM      9  C8  ZIN A   1      19.027  -3.046   6.917  0.00  0.00     0.168 C 
BRANCH   9  10
ATOM     10  C7  ZIN A   1      18.819  -3.909   8.163  0.00  0.00     0.266 C 
BRANCH  10  11
ATOM     11  N4  ZIN A   1      19.517  -3.299   9.303  0.00  0.00    -0.069 N 
ATOM     12  H5  ZIN A   1      19.318  -2.309   9.328  0.00  0.00     0.277 HD
ATOM     13  H6  ZIN A   1      20.511  -3.439   9.203  0.00  0.00     0.277 HD
BRANCH  11  14
ATOM     14  C2  ZIN A   1      19.056  -3.923  10.550  0.00  0.00     0.178 C 
ATOM     15  C1  ZIN A   1      20.016  -3.560  11.686  0.00  0.00     0.039 C 
ATOM     16  C3  ZIN A   1      17.652  -3.416  10.887  0.00  0.00     0.039 C 
ENDBRANCH  11  14
ENDBRANCH  10  11
ENDBRANCH   9  10
BRANCH   9  17
ATOM     17  O10 ZIN A   1      20.180  -3.503   6.208  0.00  0.00    -0.392 OA
ATOM     18  H35 ZIN A   1      20.521  -4.354   6.517  0.00  0.00     0.210 HD
ENDBRANCH   9  17
ENDBRANCH   8   9
ENDBRANCH   7   8
ENDBRANCH   1   7
BRANCH   4  19
ATOM     19  C17 ZIN A   1      18.300   3.409  11.237  0.00  0.00     0.064 C 
BRANCH  19  20
ATOM     20  C18 ZIN A   1      17.927   2.987  12.660  0.00  0.00     0.172 C 
BRANCH  20  21
ATOM     21  O19 ZIN A   1      19.108   2.603  13.368  0.00  0.00    -0.390 OA
BRANCH  21  22
ATOM     22  C20 ZIN A   1      18.912   1.519  14.280  0.00  0.00     0.172 C 
BRANCH  22  23
ATOM     23  C21 ZIN A   1      19.236   0.198  13.578  0.00  0.00     0.009 A 
ATOM     24  C23 ZIN A   1      18.171  -0.900  13.615  0.00  0.00     0.007 A 
ATOM     25  C22 ZIN A   1      19.440  -1.036  14.459  0.00  0.00     0.007 A 
ENDBRANCH  22  23
ENDBRANCH  21  22
ENDBRANCH  20  21
ENDBRANCH  19  20
ENDBRANCH   4  19
TORSDOF 12
ENDMDL
