MODEL 1
REMARK VINA RESULT:      -7.8      0.000      0.000
REMARK  9 active torsions:
REMARK  status: ('A' for Active; 'I' for Inactive)
REMARK    1  A    between atoms: O1_1  and  C2_2 
REMARK    2  A    between atoms: C2_2  and  C3_3 
REMARK    3  A    between atoms: C3_3  and  O4_4 
REMARK    4  A    between atoms: O4_4  and  C5_5 
REMARK    5  A    between atoms: C5_5  and  C6_6 
REMARK    6  A    between atoms: C6_6  and  N7_7 
REMARK    7  A    between atoms: N10_10  and  C11_11 
REMARK    8  A    between atoms: C11_11  and  C13_12 
REMARK    9  A    between atoms: C11_11  and  C19_18 
ROOT
ATOM      1  C11 ZIN A   1      19.613  -0.930  11.921  0.00  0.00     0.289 C 
ENDROOT
BRANCH   1   2
ATOM      2  N10 ZIN A   1      19.019  -0.439  13.172  0.00  0.00     0.105 N 
ATOM      3  C9  ZIN A   1      19.876   0.577  13.799  0.00  0.00     0.304 C 
ATOM      4  C8  ZIN A   1      19.187   1.119  15.054  0.00  0.00     0.302 C 
ATOM      5  N7  ZIN A   1      18.923   0.011  15.982  0.00  0.00     0.093 N 
ATOM      6  C27 ZIN A   1      18.065  -1.005  15.355  0.00  0.00     0.302 C 
ATOM      7  C26 ZIN A   1      18.755  -1.547  14.100  0.00  0.00     0.304 C 
BRANCH   5   8
ATOM      8  C6  ZIN A   1      18.330   0.501  17.232  0.00  0.00     0.298 C 
BRANCH   8   9
ATOM      9  C5  ZIN A   1      19.414   0.596  18.309  0.00  0.00     0.198 C 
BRANCH   9  10
ATOM     10  O4  ZIN A   1      19.785   1.964  18.491  0.00  0.00    -0.387 OA
BRANCH  10  11
ATOM     11  C3  ZIN A   1      18.680   2.871  18.497  0.00  0.00     0.193 C 
BRANCH  11  12
ATOM     12  C2  ZIN A   1      18.927   3.982  17.475  0.00  0.00     0.190 C 
BRANCH  12  13
ATOM     13  O1  ZIN A   1      20.257   3.872  16.964  0.00  0.00    -0.399 OA
ATOM     14  H28 ZIN A   1      20.705   3.050  17.206  0.00  0.00     0.209 HD
ENDBRANCH  12  13
ENDBRANCH  11  12
ENDBRANCH  10  11
ENDBRANCH   9  10
ENDBRANCH   8   9
ENDBRANCH   5   8
ENDBRANCH   1   2
BRANCH   1  15
ATOM     15  C13 ZIN A   1      19.296   0.031  10.804  0.00  0.00    -0.021 A 
ATOM     16  C18 ZIN A   1      18.364   1.032  10.997  0.00  0.00     0.010 A 
ATOM     17  C17 ZIN A   1      18.076   1.916   9.975  0.00  0.00     0.001 A 
ATOM     18  C16 ZIN A   1      18.716   1.794   8.756  0.00  0.00     0.000 A 
ATOM     19  C15 ZIN A   1      19.644   0.789   8.560  0.00  0.00     0.001 A 
ATOM     20  C14 ZIN A   1      19.935  -0.092   9.585  0.00  0.00     0.010 A 
ENDBRANCH   1  15
BRANCH   1  21
ATOM     21  C19 ZIN A   1      19.043  -2.286  11.594  0.00  0.00    -0.021 A 
ATOM     22  C25 ZIN A   1      17.680  -2.440  11.430  0.00  0.00     0.011 A 
ATOM     23  C24 ZIN A   1      17.156  -3.683  11.125  0.00  0.00     0.024 A 
ATOM     24  C22 ZIN A   1      17.997  -4.774  10.994  0.00  0.00     0.034 A 
ATOM     25  C21 ZIN A   1      19.361  -4.620  11.163  0.00  0.00     0.024 A 
ATOM     26 Cl23 ZIN A   1      17.340  -6.337  10.617  0.00  0.00    -0.084 Cl
ATOM     27  C20 ZIN A   1      19.883  -3.376  11.464  0.00  0.00     0.011 A 
ENDBRANCH   1  21
TORSDOF 9
ENDMDL
MODEL 2
REMARK VINA RESULT:      -7.8      4.702      8.191
REMARK  9 active torsions:
REMARK  status: ('A' for Active; 'I' for Inactive)
REMARK    1  A    between atoms: O1_1  and  C2_2 
REMARK    2  A    between atoms: C2_2  and  C3_3 
REMARK    3  A    between atoms: C3_3  and  O4_4 
REMARK    4  A    between atoms: O4_4  and  C5_5 
REMARK    5  A    between atoms: C5_5  and  C6_6 
REMARK    6  A    between atoms: C6_6  and  N7_7 
REMARK    7  A    between atoms: N10_10  and  C11_11 
REMARK    8  A    between atoms: C11_11  and  C13_12 
REMARK    9  A    between atoms: C11_11  and  C19_18 
ROOT
ATOM      1  C11 ZIN A   1      19.289  -2.008  11.125  0.00  0.00     0.289 C 
ENDROOT
BRANCH   1   2
ATOM      2  N10 ZIN A   1      18.895  -1.131  10.014  0.00  0.00     0.105 N 
ATOM      3  C9  ZIN A   1      18.258  -1.901   8.936  0.00  0.00     0.304 C 
ATOM      4  C8  ZIN A   1      17.793  -0.944   7.836  0.00  0.00     0.302 C 
ATOM      5  N7  ZIN A   1      18.946  -0.189   7.328  0.00  0.00     0.093 N 
ATOM      6  C27 ZIN A   1      19.584   0.581   8.405  0.00  0.00     0.302 C 
ATOM      7  C26 ZIN A   1      20.049  -0.376   9.506  0.00  0.00     0.304 C 
BRANCH   5   8
ATOM      8  C6  ZIN A   1      18.554   0.688   6.217  0.00  0.00     0.298 C 
BRANCH   8   9
ATOM      9  C5  ZIN A   1      19.353   0.314   4.966  0.00  0.00     0.198 C 
BRANCH   9  10
ATOM     10  O4  ZIN A   1      19.811  -1.034   5.079  0.00  0.00    -0.387 OA
BRANCH  10  11
ATOM     11  C3  ZIN A   1      18.980  -1.989   4.415  0.00  0.00     0.193 C 
BRANCH  11  12
ATOM     12  C2  ZIN A   1      19.012  -3.313   5.179  0.00  0.00     0.190 C 
BRANCH  12  13
ATOM     13  O1  ZIN A   1      20.060  -3.278   6.149  0.00  0.00    -0.399 OA
ATOM     14  H28 ZIN A   1      20.836  -3.804   5.909  0.00  0.00     0.209 HD
ENDBRANCH  12  13
ENDBRANCH  11  12
ENDBRANCH  10  11
ENDBRANCH   9  10
ENDBRANCH   8   9
ENDBRANCH   5   8
ENDBRANCH   1   2
BRANCH   1  15
ATOM     15  C13 ZIN A   1      18.627  -3.352  10.962  0.00  0.00    -0.021 A 
ATOM     16  C18 ZIN A   1      19.308  -4.389  10.351  0.00  0.00     0.010 A 
ATOM     17  C17 ZIN A   1      18.703  -5.623  10.205  0.00  0.00     0.001 A 
ATOM     18  C16 ZIN A   1      17.413  -5.818  10.663  0.00  0.00     0.000 A 
ATOM     19  C15 ZIN A   1      16.730  -4.780  11.268  0.00  0.00     0.001 A 
ATOM     20  C14 ZIN A   1      17.337  -3.547  11.418  0.00  0.00     0.010 A 
ENDBRANCH   1  15
BRANCH   1  21
ATOM     21  C19 ZIN A   1      18.856  -1.390  12.430  0.00  0.00    -0.021 A 
ATOM     22  C25 ZIN A   1      17.890  -0.402  12.437  0.00  0.00     0.011 A 
ATOM     23  C24 ZIN A   1      17.488   0.163  13.634  0.00  0.00     0.024 A 
ATOM     24  C22 ZIN A   1      18.060  -0.256  14.822  0.00  0.00     0.034 A 
ATOM     25  C21 ZIN A   1      19.030  -1.242  14.813  0.00  0.00     0.024 A 
ATOM     26 Cl23 ZIN A   1      17.560   0.457  16.325  0.00  0.00    -0.084 Cl
ATOM     27  C20 ZIN A   1      19.427  -1.808  13.616  0.00  0.00     0.011 A 
ENDBRANCH   1  21
TORSDOF 9
ENDMDL
MODEL 3
REMARK VINA RESULT:      -7.5      2.573      4.026
REMARK  9 active torsions:
REMARK  status: ('A' for Active; 'I' for Inactive)
REMARK    1  A    between atoms: O1_1  and  C2_2 
REMARK    2  A    between atoms: C2_2  and  C3_3 
REMARK    3  A    between atoms: C3_3  and  O4_4 
REMARK    4  A    between atoms: O4_4  and  C5_5 
REMARK    5  A    between atoms: C5_5  and  C6_6 
REMARK    6  A    between atoms: C6_6  and  N7_7 
REMARK    7  A    between atoms: N10_10  and  C11_11 
REMARK    8  A    between atoms: C11_11  and  C13_12 
REMARK    9  A    between atoms: C11_11  and  C19_18 
ROOT
ATOM      1  C11 ZIN A   1      19.243   1.638  11.021  0.00  0.00     0.289 C 
ENDROOT
BRANCH   1   2
ATOM      2  N10 ZIN A   1      18.785   0.679  12.036  0.00  0.00     0.105 N 
ATOM      3  C9  ZIN A   1      18.320   1.374  13.245  0.00  0.00     0.304 C 
ATOM      4  C8  ZIN A   1      17.780   0.348  14.245  0.00  0.00     0.302 C 
ATOM      5  N7  ZIN A   1      18.838  -0.618  14.571  0.00  0.00     0.093 N 
ATOM      6  C27 ZIN A   1      19.303  -1.313  13.362  0.00  0.00     0.302 C 
ATOM      7  C26 ZIN A   1      19.843  -0.287  12.363  0.00  0.00     0.304 C 
BRANCH   5   8
ATOM      8  C6  ZIN A   1      18.382  -1.576  15.586  0.00  0.00     0.298 C 
BRANCH   8   9
ATOM      9  C5  ZIN A   1      17.740  -0.819  16.750  0.00  0.00     0.198 C 
BRANCH   9  10
ATOM     10  O4  ZIN A   1      18.720  -0.586  17.764  0.00  0.00    -0.387 OA
BRANCH  10  11
ATOM     11  C3  ZIN A   1      18.384   0.470  18.666  0.00  0.00     0.193 C 
BRANCH  11  12
ATOM     12  C2  ZIN A   1      18.859   1.804  18.090  0.00  0.00     0.190 C 
BRANCH  12  13
ATOM     13  O1  ZIN A   1      19.606   2.513  19.081  0.00  0.00    -0.399 OA
ATOM     14  H28 ZIN A   1      19.733   2.021  19.904  0.00  0.00     0.209 HD
ENDBRANCH  12  13
ENDBRANCH  11  12
ENDBRANCH  10  11
ENDBRANCH   9  10
ENDBRANCH   8   9
ENDBRANCH   5   8
ENDBRANCH   1   2
BRANCH   1  15
ATOM     15  C13 ZIN A   1      18.653   2.994  11.311  0.00  0.00    -0.021 A 
ATOM     16  C18 ZIN A   1      17.437   3.352  10.757  0.00  0.00     0.010 A 
ATOM     17  C17 ZIN A   1      16.894   4.593  11.026  0.00  0.00     0.001 A 
ATOM     18  C16 ZIN A   1      17.570   5.481  11.842  0.00  0.00     0.000 A 
ATOM     19  C15 ZIN A   1      18.787   5.126  12.391  0.00  0.00     0.001 A 
ATOM     20  C14 ZIN A   1      19.328   3.882  12.126  0.00  0.00     0.010 A 
ENDBRANCH   1  15
BRANCH   1  21
ATOM     21  C19 ZIN A   1      18.796   1.176   9.658  0.00  0.00    -0.021 A 
ATOM     22  C25 ZIN A   1      19.418   1.666   8.525  0.00  0.00     0.011 A 
ATOM     23  C24 ZIN A   1      19.013   1.240   7.274  0.00  0.00     0.024 A 
ATOM     24  C22 ZIN A   1      17.978   0.329   7.156  0.00  0.00     0.034 A 
ATOM     25  C21 ZIN A   1      17.353  -0.157   8.290  0.00  0.00     0.024 A 
ATOM     26 Cl23 ZIN A   1      17.463  -0.202   5.585  0.00  0.00    -0.084 Cl
ATOM     27  C20 ZIN A   1      17.762   0.267   9.540  0.00  0.00     0.011 A 
ENDBRANCH   1  21
TORSDOF 9
ENDMDL
MODEL 4
REMARK VINA RESULT:      -7.4      5.374      8.939
REMARK  9 active torsions:
REMARK  status: ('A' for Active; 'I' for Inactive)
REMARK    1  A    between atoms: O1_1  and  C2_2 
REMARK    2  A    between atoms: C2_2  and  C3_3 
REMARK    3  A    between atoms: C3_3  and  O4_4 
REMARK    4  A    between atoms: O4_4  and  C5_5 
REMARK    5  A    between atoms: C5_5  and  C6_6 
REMARK    6  A    between atoms: C6_6  and  N7_7 
REMARK    7  A    between atoms: N10_10  and  C11_11 
REMARK    8  A    between atoms: C11_11  and  C13_12 
REMARK    9  A    between atoms: C11_11  and  C19_18 
ROOT
ATOM      1  C11 ZIN A   1      19.230   1.512  10.622  0.00  0.00     0.289 C 
ENDROOT
BRANCH   1   2
ATOM      2  N10 ZIN A   1      18.633   1.272   9.300  0.00  0.00     0.105 N 
ATOM      3  C9  ZIN A   1      18.095  -0.093   9.206  0.00  0.00     0.304 C 
ATOM      4  C8  ZIN A   1      17.415  -0.278   7.848  0.00  0.00     0.302 C 
ATOM      5  N7  ZIN A   1      18.388  -0.024   6.777  0.00  0.00     0.093 N 
ATOM      6  C27 ZIN A   1      18.927   1.340   6.870  0.00  0.00     0.302 C 
ATOM      7  C26 ZIN A   1      19.607   1.525   8.229  0.00  0.00     0.304 C 
BRANCH   5   8
ATOM      8  C6  ZIN A   1      17.794  -0.265   5.456  0.00  0.00     0.298 C 
BRANCH   8   9
ATOM      9  C5  ZIN A   1      18.907  -0.433   4.419  0.00  0.00     0.198 C 
BRANCH   9  10
ATOM     10  O4  ZIN A   1      19.681  -1.592   4.734  0.00  0.00    -0.387 OA
BRANCH  10  11
ATOM     11  C3  ZIN A   1      18.985  -2.826   4.547  0.00  0.00     0.193 C 
BRANCH  11  12
ATOM     12  C2  ZIN A   1      19.151  -3.700   5.791  0.00  0.00     0.190 C 
BRANCH  12  13
ATOM     13  O1  ZIN A   1      20.349  -3.331   6.476  0.00  0.00    -0.399 OA
ATOM     14  H28 ZIN A   1      20.940  -4.073   6.663  0.00  0.00     0.209 HD
ENDBRANCH  12  13
ENDBRANCH  11  12
ENDBRANCH  10  11
ENDBRANCH   9  10
ENDBRANCH   8   9
ENDBRANCH   5   8
ENDBRANCH   1   2
BRANCH   1  15
ATOM     15  C13 ZIN A   1      18.952   0.334  11.519  0.00  0.00    -0.021 A 
ATOM     16  C18 ZIN A   1      19.887  -0.678  11.640  0.00  0.00     0.010 A 
ATOM     17  C17 ZIN A   1      19.635  -1.756  12.466  0.00  0.00     0.001 A 
ATOM     18  C16 ZIN A   1      18.445  -1.827  13.166  0.00  0.00     0.000 A 
ATOM     19  C15 ZIN A   1      17.508  -0.819  13.041  0.00  0.00     0.001 A 
ATOM     20  C14 ZIN A   1      17.762   0.262  12.218  0.00  0.00     0.010 A 
ENDBRANCH   1  15
BRANCH   1  21
ATOM     21  C19 ZIN A   1      18.628   2.756  11.224  0.00  0.00    -0.021 A 
ATOM     22  C25 ZIN A   1      19.153   3.281  12.390  0.00  0.00     0.011 A 
ATOM     23  C24 ZIN A   1      18.605   4.424  12.942  0.00  0.00     0.024 A 
ATOM     24  C22 ZIN A   1      17.525   5.037  12.331  0.00  0.00     0.034 A 
ATOM     25  C21 ZIN A   1      16.997   4.508  11.167  0.00  0.00     0.024 A 
ATOM     26 Cl23 ZIN A   1      16.832   6.469  13.027  0.00  0.00    -0.084 Cl
ATOM     27  C20 ZIN A   1      17.549   3.367  10.615  0.00  0.00     0.011 A 
ENDBRANCH   1  21
TORSDOF 9
ENDMDL
MODEL 5
REMARK VINA RESULT:      -7.3      2.902      4.945
REMARK  9 active torsions:
REMARK  status: ('A' for Active; 'I' for Inactive)
REMARK    1  A    between atoms: O1_1  and  C2_2 
REMARK    2  A    between atoms: C2_2  and  C3_3 
REMARK    3  A    between atoms: C3_3  and  O4_4 
REMARK    4  A    between atoms: O4_4  and  C5_5 
REMARK    5  A    between atoms: C5_5  and  C6_6 
REMARK    6  A    between atoms: C6_6  and  N7_7 
REMARK    7  A    between atoms: N10_10  and  C11_11 
REMARK    8  A    between atoms: C11_11  and  C13_12 
REMARK    9  A    between atoms: C11_11  and  C19_18 
ROOT
ATOM      1  C11 ZIN A   1      17.665   0.417  10.287  0.00  0.00     0.289 C 
ENDROOT
BRANCH   1   2
ATOM      2  N10 ZIN A   1      18.325   1.569  10.918  0.00  0.00     0.105 N 
ATOM      3  C9  ZIN A   1      18.342   1.430  12.381  0.00  0.00     0.304 C 
ATOM      4  C8  ZIN A   1      19.105   2.607  12.993  0.00  0.00     0.302 C 
ATOM      5  N7  ZIN A   1      18.461   3.866  12.595  0.00  0.00     0.093 N 
ATOM      6  C27 ZIN A   1      18.443   4.005  11.132  0.00  0.00     0.302 C 
ATOM      7  C26 ZIN A   1      17.680   2.828  10.519  0.00  0.00     0.304 C 
BRANCH   5   8
ATOM      8  C6  ZIN A   1      19.119   5.017  13.224  0.00  0.00     0.298 C 
BRANCH   8   9
ATOM      9  C5  ZIN A   1      18.216   5.584  14.322  0.00  0.00     0.198 C 
BRANCH   9  10
ATOM     10  O4  ZIN A   1      18.914   5.567  15.569  0.00  0.00    -0.387 OA
BRANCH  10  11
ATOM     11  C3  ZIN A   1      18.526   4.501  16.438  0.00  0.00     0.193 C 
BRANCH  11  12
ATOM     12  C2  ZIN A   1      19.707   3.551  16.639  0.00  0.00     0.190 C 
BRANCH  12  13
ATOM     13  O1  ZIN A   1      20.928   4.245  16.373  0.00  0.00    -0.399 OA
ATOM     14  H28 ZIN A   1      20.923   5.171  16.654  0.00  0.00     0.209 HD
ENDBRANCH  12  13
ENDBRANCH  11  12
ENDBRANCH  10  11
ENDBRANCH   9  10
ENDBRANCH   8   9
ENDBRANCH   5   8
ENDBRANCH   1   2
BRANCH   1  15
ATOM     15  C13 ZIN A   1      18.196  -0.857  10.890  0.00  0.00    -0.021 A 
ATOM     16  C18 ZIN A   1      17.338  -1.729  11.534  0.00  0.00     0.010 A 
ATOM     17  C17 ZIN A   1      17.824  -2.900  12.083  0.00  0.00     0.001 A 
ATOM     18  C16 ZIN A   1      19.172  -3.196  11.995  0.00  0.00     0.000 A 
ATOM     19  C15 ZIN A   1      20.031  -2.323  11.357  0.00  0.00     0.001 A 
ATOM     20  C14 ZIN A   1      19.544  -1.153  10.804  0.00  0.00     0.010 A 
ENDBRANCH   1  15
BRANCH   1  21
ATOM     21  C19 ZIN A   1      17.944   0.427   8.806  0.00  0.00    -0.021 A 
ATOM     22  C25 ZIN A   1      19.010   1.155   8.311  0.00  0.00     0.011 A 
ATOM     23  C24 ZIN A   1      19.271   1.161   6.953  0.00  0.00     0.024 A 
ATOM     24  C22 ZIN A   1      18.459   0.446   6.090  0.00  0.00     0.034 A 
ATOM     25  C21 ZIN A   1      17.390  -0.278   6.587  0.00  0.00     0.024 A 
ATOM     26 Cl23 ZIN A   1      18.782   0.459   4.384  0.00  0.00    -0.084 Cl
ATOM     27  C20 ZIN A   1      17.134  -0.286   7.944  0.00  0.00     0.011 A 
ENDBRANCH   1  21
TORSDOF 9
ENDMDL
MODEL 6
REMARK VINA RESULT:      -7.2      2.437      4.374
REMARK  9 active torsions:
REMARK  status: ('A' for Active; 'I' for Inactive)
REMARK    1  A    between atoms: O1_1  and  C2_2 
REMARK    2  A    between atoms: C2_2  and  C3_3 
REMARK    3  A    between atoms: C3_3  and  O4_4 
REMARK    4  A    between atoms: O4_4  and  C5_5 
REMARK    5  A    between atoms: C5_5  and  C6_6 
REMARK    6  A    between atoms: C6_6  and  N7_7 
REMARK    7  A    between atoms: N10_10  and  C11_11 
REMARK    8  A    between atoms: C11_11  and  C13_12 
REMARK    9  A    between atoms: C11_11  and  C19_18 
ROOT
ATOM      1  C11 ZIN A   1      17.648  -0.626  10.984  0.00  0.00     0.289 C 
ENDROOT
BRANCH   1   2
ATOM      2  N10 ZIN A   1      18.186   0.296  11.993  0.00  0.00     0.105 N 
ATOM      3  C9  ZIN A   1      17.959  -0.219  13.351  0.00  0.00     0.304 C 
ATOM      4  C8  ZIN A   1      18.602   0.729  14.367  0.00  0.00     0.302 C 
ATOM      5  N7  ZIN A   1      18.026   2.071  14.213  0.00  0.00     0.093 N 
ATOM      6  C27 ZIN A   1      18.252   2.587  12.856  0.00  0.00     0.302 C 
ATOM      7  C26 ZIN A   1      17.609   1.639  11.840  0.00  0.00     0.304 C 
BRANCH   5   8
ATOM      8  C6  ZIN A   1      18.562   2.994  15.222  0.00  0.00     0.298 C 
BRANCH   8   9
ATOM      9  C5  ZIN A   1      19.355   2.204  16.266  0.00  0.00     0.198 C 
BRANCH   9  10
ATOM     10  O4  ZIN A   1      19.733   3.073  17.334  0.00  0.00    -0.387 OA
BRANCH  10  11
ATOM     11  C3  ZIN A   1      18.950   2.916  18.519  0.00  0.00     0.193 C 
BRANCH  11  12
ATOM     12  C2  ZIN A   1      18.273   1.544  18.504  0.00  0.00     0.190 C 
BRANCH  12  13
ATOM     13  O1  ZIN A   1      16.856   1.711  18.585  0.00  0.00    -0.399 OA
ATOM     14  H28 ZIN A   1      16.488   1.533  19.462  0.00  0.00     0.209 HD
ENDBRANCH  12  13
ENDBRANCH  11  12
ENDBRANCH  10  11
ENDBRANCH   9  10
ENDBRANCH   8   9
ENDBRANCH   5   8
ENDBRANCH   1   2
BRANCH   1  15
ATOM     15  C13 ZIN A   1      18.206  -2.007  11.218  0.00  0.00    -0.021 A 
ATOM     16  C18 ZIN A   1      17.350  -3.082  11.367  0.00  0.00     0.010 A 
ATOM     17  C17 ZIN A   1      17.861  -4.349  11.577  0.00  0.00     0.001 A 
ATOM     18  C16 ZIN A   1      19.229  -4.539  11.646  0.00  0.00     0.000 A 
ATOM     19  C15 ZIN A   1      20.084  -3.463  11.503  0.00  0.00     0.001 A 
ATOM     20  C14 ZIN A   1      19.573  -2.197  11.289  0.00  0.00     0.010 A 
ENDBRANCH   1  15
BRANCH   1  21
ATOM     21  C19 ZIN A   1      18.042  -0.151   9.609  0.00  0.00    -0.021 A 
ATOM     22  C25 ZIN A   1      17.292  -0.523   8.509  0.00  0.00     0.011 A 
ATOM     23  C24 ZIN A   1      17.650  -0.084   7.248  0.00  0.00     0.024 A 
ATOM     24  C22 ZIN A   1      18.765   0.720   7.086  0.00  0.00     0.034 A 
ATOM     25  C21 ZIN A   1      19.517   1.087   8.187  0.00  0.00     0.024 A 
ATOM     26 Cl23 ZIN A   1      19.219   1.266   5.502  0.00  0.00    -0.084 Cl
ATOM     27  C20 ZIN A   1      19.156   0.651   9.448  0.00  0.00     0.011 A 
ENDBRANCH   1  21
TORSDOF 9
ENDMDL
MODEL 7
REMARK VINA RESULT:      -7.1      2.469      4.412
REMARK  9 active torsions:
REMARK  status: ('A' for Active; 'I' for Inactive)
REMARK    1  A    between atoms: O1_1  and  C2_2 
REMARK    2  A    between atoms: C2_2  and  C3_3 
REMARK    3  A    between atoms: C3_3  and  O4_4 
REMARK    4  A    between atoms: O4_4  and  C5_5 
REMARK    5  A    between atoms: C5_5  and  C6_6 
REMARK    6  A    between atoms: C6_6  and  N7_7 
REMARK    7  A    between atoms: N10_10  and  C11_11 
REMARK    8  A    between atoms: C11_11  and  C13_12 
REMARK    9  A    between atoms: C11_11  and  C19_18 
ROOT
ATOM      1  C11 ZIN A   1      17.786  -0.626  11.301  0.00  0.00     0.289 C 
ENDROOT
BRANCH   1   2
ATOM      2  N10 ZIN A   1      18.439   0.202  12.325  0.00  0.00     0.105 N 
ATOM      3  C9  ZIN A   1      18.493  -0.501  13.615  0.00  0.00     0.304 C 
ATOM      4  C8  ZIN A   1      19.247   0.359  14.631  0.00  0.00     0.302 C 
ATOM      5  N7  ZIN A   1      18.570   1.656  14.770  0.00  0.00     0.093 N 
ATOM      6  C27 ZIN A   1      18.516   2.359  13.481  0.00  0.00     0.302 C 
ATOM      7  C26 ZIN A   1      17.761   1.499  12.464  0.00  0.00     0.304 C 
BRANCH   5   8
ATOM      8  C6  ZIN A   1      19.221   2.483  15.794  0.00  0.00     0.298 C 
BRANCH   8   9
ATOM      9  C5  ZIN A   1      18.556   3.861  15.833  0.00  0.00     0.198 C 
BRANCH   9  10
ATOM     10  O4  ZIN A   1      19.319   4.734  16.669  0.00  0.00    -0.387 OA
BRANCH  10  11
ATOM     11  C3  ZIN A   1      19.558   6.023  16.101  0.00  0.00     0.193 C 
BRANCH  11  12
ATOM     12  C2  ZIN A   1      20.778   5.956  15.180  0.00  0.00     0.190 C 
BRANCH  12  13
ATOM     13  O1  ZIN A   1      21.848   5.292  15.855  0.00  0.00    -0.399 OA
ATOM     14  H28 ZIN A   1      21.830   5.393  16.817  0.00  0.00     0.209 HD
ENDBRANCH  12  13
ENDBRANCH  11  12
ENDBRANCH  10  11
ENDBRANCH   9  10
ENDBRANCH   8   9
ENDBRANCH   5   8
ENDBRANCH   1   2
BRANCH   1  15
ATOM     15  C13 ZIN A   1      18.286  -2.044  11.410  0.00  0.00    -0.021 A 
ATOM     16  C18 ZIN A   1      17.388  -3.082  11.574  0.00  0.00     0.010 A 
ATOM     17  C17 ZIN A   1      17.845  -4.383  11.669  0.00  0.00     0.001 A 
ATOM     18  C16 ZIN A   1      19.201  -4.644  11.607  0.00  0.00     0.000 A 
ATOM     19  C15 ZIN A   1      20.099  -3.606  11.449  0.00  0.00     0.001 A 
ATOM     20  C14 ZIN A   1      19.641  -2.306  11.350  0.00  0.00     0.010 A 
ENDBRANCH   1  15
BRANCH   1  21
ATOM     21  C19 ZIN A   1      18.112  -0.082   9.934  0.00  0.00    -0.021 A 
ATOM     22  C25 ZIN A   1      17.363  -0.472   8.840  0.00  0.00     0.011 A 
ATOM     23  C24 ZIN A   1      17.657   0.030   7.586  0.00  0.00     0.024 A 
ATOM     24  C22 ZIN A   1      18.708   0.917   7.426  0.00  0.00     0.034 A 
ATOM     25  C21 ZIN A   1      19.459   1.303   8.521  0.00  0.00     0.024 A 
ATOM     26 Cl23 ZIN A   1      19.082   1.543   5.850  0.00  0.00    -0.084 Cl
ATOM     27  C20 ZIN A   1      19.161   0.803   9.774  0.00  0.00     0.011 A 
ENDBRANCH   1  21
TORSDOF 9
ENDMDL
MODEL 8
REMARK VINA RESULT:      -7.1      2.480      3.488
REMARK  9 active torsions:
REMARK  status: ('A' for Active; 'I' for Inactive)
REMARK    1  A    between atoms: O1_1  and  C2_2 
REMARK    2  A    between atoms: C2_2  and  C3_3 
REMARK    3  A    between atoms: C3_3  and  O4_4 
REMARK    4  A    between atoms: O4_4  and  C5_5 
REMARK    5  A    between atoms: C5_5  and  C6_6 
REMARK    6  A    between atoms: C6_6  and  N7_7 
REMARK    7  A    between atoms: N10_10  and  C11_11 
REMARK    8  A    between atoms: C11_11  and  C13_12 
REMARK    9  A    between atoms: C11_11  and  C19_18 
ROOT
ATOM      1  C11 ZIN A   1      19.045   0.368  10.099  0.00  0.00     0.289 C 
ENDROOT
BRANCH   1   2
ATOM      2  N10 ZIN A   1      18.303   1.361  10.887  0.00  0.00     0.105 N 
ATOM      3  C9  ZIN A   1      18.171   2.626  10.151  0.00  0.00     0.304 C 
ATOM      4  C8  ZIN A   1      17.326   3.605  10.971  0.00  0.00     0.302 C 
ATOM      5  N7  ZIN A   1      17.964   3.823  12.276  0.00  0.00     0.093 N 
ATOM      6  C27 ZIN A   1      18.096   2.558  13.013  0.00  0.00     0.302 C 
ATOM      7  C26 ZIN A   1      18.940   1.579  12.194  0.00  0.00     0.304 C 
BRANCH   5   8
ATOM      8  C6  ZIN A   1      17.223   4.816  13.065  0.00  0.00     0.298 C 
BRANCH   8   9
ATOM      9  C5  ZIN A   1      17.785   4.859  14.488  0.00  0.00     0.198 C 
BRANCH   9  10
ATOM     10  O4  ZIN A   1      18.489   6.087  14.685  0.00  0.00    -0.387 OA
BRANCH  10  11
ATOM     11  C3  ZIN A   1      19.531   6.010  15.660  0.00  0.00     0.193 C 
BRANCH  11  12
ATOM     12  C2  ZIN A   1      19.679   4.564  16.137  0.00  0.00     0.190 C 
BRANCH  12  13
ATOM     13  O1  ZIN A   1      21.060   4.276  16.364  0.00  0.00    -0.399 OA
ATOM     14  H28 ZIN A   1      21.329   3.392  16.078  0.00  0.00     0.209 HD
ENDBRANCH  12  13
ENDBRANCH  11  12
ENDBRANCH  10  11
ENDBRANCH   9  10
ENDBRANCH   8   9
ENDBRANCH   5   8
ENDBRANCH   1   2
BRANCH   1  15
ATOM     15  C13 ZIN A   1      18.624   0.458   8.655  0.00  0.00    -0.021 A 
ATOM     16  C18 ZIN A   1      17.472  -0.177   8.230  0.00  0.00     0.010 A 
ATOM     17  C17 ZIN A   1      17.083  -0.091   6.907  0.00  0.00     0.001 A 
ATOM     18  C16 ZIN A   1      17.850   0.624   6.006  0.00  0.00     0.000 A 
ATOM     19  C15 ZIN A   1      19.004   1.255   6.430  0.00  0.00     0.001 A 
ATOM     20  C14 ZIN A   1      19.391   1.172   7.754  0.00  0.00     0.010 A 
ENDBRANCH   1  15
BRANCH   1  21
ATOM     21  C19 ZIN A   1      18.748  -1.013  10.624  0.00  0.00    -0.021 A 
ATOM     22  C25 ZIN A   1      17.532  -1.275  11.227  0.00  0.00     0.011 A 
ATOM     23  C24 ZIN A   1      17.256  -2.543  11.705  0.00  0.00     0.024 A 
ATOM     24  C22 ZIN A   1      18.201  -3.547  11.587  0.00  0.00     0.034 A 
ATOM     25  C21 ZIN A   1      19.419  -3.282  10.986  0.00  0.00     0.024 A 
ATOM     26 Cl23 ZIN A   1      17.858  -5.138  12.192  0.00  0.00    -0.084 Cl
ATOM     27  C20 ZIN A   1      19.692  -2.016  10.506  0.00  0.00     0.011 A 
ENDBRANCH   1  21
TORSDOF 9
ENDMDL
MODEL 9
REMARK VINA RESULT:      -7.1      4.576      7.972
REMARK  9 active torsions:
REMARK  status: ('A' for Active; 'I' for Inactive)
REMARK    1  A    between atoms: O1_1  and  C2_2 
REMARK    2  A    between atoms: C2_2  and  C3_3 
REMARK    3  A    between atoms: C3_3  and  O4_4 
REMARK    4  A    between atoms: O4_4  and  C5_5 
REMARK    5  A    between atoms: C5_5  and  C6_6 
REMARK    6  A    between atoms: C6_6  and  N7_7 
REMARK    7  A    between atoms: N10_10  and  C11_11 
REMARK    8  A    between atoms: C11_11  and  C13_12 
REMARK    9  A    between atoms: C11_11  and  C19_18 
ROOT
ATOM      1  C11 ZIN A   1      19.182  -0.343  12.205  0.00  0.00     0.289 C 
ENDROOT
BRANCH   1   2
ATOM      2  N10 ZIN A   1      18.424  -1.319  11.410  0.00  0.00     0.105 N 
ATOM      3  C9  ZIN A   1      18.242  -2.575  12.152  0.00  0.00     0.304 C 
ATOM      4  C8  ZIN A   1      17.383  -3.534  11.324  0.00  0.00     0.302 C 
ATOM      5  N7  ZIN A   1      18.035  -3.779  10.031  0.00  0.00     0.093 N 
ATOM      6  C27 ZIN A   1      18.217  -2.524   9.289  0.00  0.00     0.302 C 
ATOM      7  C26 ZIN A   1      19.077  -1.565  10.116  0.00  0.00     0.304 C 
BRANCH   5   8
ATOM      8  C6  ZIN A   1      17.279  -4.755   9.236  0.00  0.00     0.298 C 
BRANCH   8   9
ATOM      9  C5  ZIN A   1      18.182  -5.940   8.887  0.00  0.00     0.198 C 
BRANCH   9  10
ATOM     10  O4  ZIN A   1      19.495  -5.704   9.401  0.00  0.00    -0.387 OA
BRANCH  10  11
ATOM     11  C3  ZIN A   1      20.533  -5.839   8.428  0.00  0.00     0.193 C 
BRANCH  11  12
ATOM     12  C2  ZIN A   1      20.102  -5.165   7.125  0.00  0.00     0.190 C 
BRANCH  12  13
ATOM     13  O1  ZIN A   1      21.026  -4.126   6.797  0.00  0.00    -0.399 OA
ATOM     14  H28 ZIN A   1      21.833  -4.439   6.365  0.00  0.00     0.209 HD
ENDBRANCH  12  13
ENDBRANCH  11  12
ENDBRANCH  10  11
ENDBRANCH   9  10
ENDBRANCH   8   9
ENDBRANCH   5   8
ENDBRANCH   1   2
BRANCH   1  15
ATOM     15  C13 ZIN A   1      18.795  -0.469  13.656  0.00  0.00    -0.021 A 
ATOM     16  C18 ZIN A   1      19.561  -1.239  14.512  0.00  0.00     0.010 A 
ATOM     17  C17 ZIN A   1      19.209  -1.351  15.843  0.00  0.00     0.001 A 
ATOM     18  C16 ZIN A   1      18.086  -0.700  16.318  0.00  0.00     0.000 A 
ATOM     19  C15 ZIN A   1      17.317   0.066  15.462  0.00  0.00     0.001 A 
ATOM     20  C14 ZIN A   1      17.671   0.181  14.131  0.00  0.00     0.010 A 
ENDBRANCH   1  15
BRANCH   1  21
ATOM     21  C19 ZIN A   1      18.870   1.049  11.721  0.00  0.00    -0.021 A 
ATOM     22  C25 ZIN A   1      17.688   1.297  11.047  0.00  0.00     0.011 A 
ATOM     23  C24 ZIN A   1      17.398   2.575  10.607  0.00  0.00     0.024 A 
ATOM     24  C22 ZIN A   1      18.295   3.604  10.832  0.00  0.00     0.034 A 
ATOM     25  C21 ZIN A   1      19.479   3.354  11.503  0.00  0.00     0.024 A 
ATOM     26 Cl23 ZIN A   1      17.934   5.208  10.274  0.00  0.00    -0.084 Cl
ATOM     27  C20 ZIN A   1      19.765   2.077  11.946  0.00  0.00     0.011 A 
ENDBRANCH   1  21
TORSDOF 9
ENDMDL
