MODEL 1
REMARK VINA RESULT:      -8.9      0.000      0.000
REMARK  7 active torsions:
REMARK  status: ('A' for Active; 'I' for Inactive)
REMARK    1  A    between atoms: O2_2  and  C3_3 
REMARK       I    between atoms: C3_3  and  N5_5 
REMARK    2  A    between atoms: N5_5  and  C7_7 
REMARK    3  A    between atoms: C8_8  and  N9_9 
REMARK    4  A    between atoms: C11_11  and  C12_12 
REMARK    5  A    between atoms: N14_14  and  C15_15 
REMARK    6  A    between atoms: C15_15  and  C16_16 
REMARK    7  A    between atoms: C30_30  and  N31_31 
ROOT
ATOM      1  C7  ZIN A   1      19.148   0.409  12.195  0.00  0.00     0.130 A 
ATOM      2  C8  ZIN A   1      17.969  -0.067  11.616  0.00  0.00     0.154 A 
ATOM      3  N10 ZIN A   1      18.038  -0.737  10.470  0.00  0.00    -0.207 NA
ATOM      4  C11 ZIN A   1      19.205  -0.956   9.879  0.00  0.00     0.185 A 
ATOM      5  N29 ZIN A   1      20.345  -0.518  10.399  0.00  0.00    -0.207 NA
ATOM      6  C30 ZIN A   1      20.357   0.164  11.540  0.00  0.00     0.154 A 
ENDROOT
BRANCH   4   7
ATOM      7  C12 ZIN A   1      19.238  -1.706   8.603  0.00  0.00     0.139 A 
ATOM      8  C28 ZIN A   1      19.193  -1.131   7.256  0.00  0.00     0.046 A 
ATOM      9  C23 ZIN A   1      19.252  -2.215   6.358  0.00  0.00     0.158 A 
ATOM     10  C27 ZIN A   1      19.128   0.171   6.755  0.00  0.00     0.019 A 
ATOM     11  N14 ZIN A   1      19.317  -3.353   7.116  0.00  0.00    -0.246 N 
ATOM     12  N24 ZIN A   1      19.233  -1.990   5.050  0.00  0.00    -0.241 NA
ATOM     13  N13 ZIN A   1      19.306  -3.010   8.472  0.00  0.00    -0.166 NA
ATOM     14  C25 ZIN A   1      19.166  -0.769   4.563  0.00  0.00     0.119 A 
ATOM     15  C26 ZIN A   1      19.113   0.341   5.394  0.00  0.00     0.020 A 
BRANCH  11  16
ATOM     16  C15 ZIN A   1      19.386  -4.718   6.589  0.00  0.00     0.195 C 
BRANCH  16  17
ATOM     17  C16 ZIN A   1      18.213  -5.514   7.100  0.00  0.00     0.000 A 
ATOM     18  C21 ZIN A   1      18.336  -6.259   8.262  0.00  0.00     0.124 A 
ATOM     19  C20 ZIN A   1      17.256  -6.985   8.734  0.00  0.00     0.043 A 
ATOM     20  F22 ZIN A   1      19.504  -6.267   8.940  0.00  0.00    -0.205 F 
ATOM     21  C19 ZIN A   1      16.060  -6.975   8.040  0.00  0.00     0.003 A 
ATOM     22  C18 ZIN A   1      15.941  -6.237   6.878  0.00  0.00     0.001 A 
ATOM     23  C17 ZIN A   1      17.017  -5.506   6.409  0.00  0.00     0.012 A 
ENDBRANCH  16  17
ENDBRANCH  11  16
ENDBRANCH   4   7
BRANCH   2  24
ATOM     24  N9  ZIN A   1      16.743   0.157  12.228  0.00  0.00    -0.382 N 
ATOM     25  H38 ZIN A   1      16.004   0.520  11.716  0.00  0.00     0.157 HD
ATOM     26  H39 ZIN A   1      16.626  -0.050  13.169  0.00  0.00     0.157 HD
ENDBRANCH   2  24
BRANCH   6  27
ATOM     27  N31 ZIN A   1      21.555   0.617  12.077  0.00  0.00    -0.382 N 
ATOM     28  H49 ZIN A   1      22.287  -0.002  12.220  0.00  0.00     0.157 HD
ATOM     29  H50 ZIN A   1      21.658   1.554  12.307  0.00  0.00     0.157 HD
ENDBRANCH   6  27
BRANCH   1  30
ATOM     30  N5  ZIN A   1      19.118   1.122  13.406  0.00  0.00    -0.291 N 
ATOM     31  C3  ZIN A   1      19.366   0.488  14.568  0.00  0.00     0.366 C 
ATOM     32  O4  ZIN A   1      19.615  -0.702  14.570  0.00  0.00    -0.238 OA
ATOM     33  C6  ZIN A   1      18.818   2.557  13.404  0.00  0.00     0.162 C 
BRANCH  31  34
ATOM     34  O2  ZIN A   1      19.339   1.171  15.728  0.00  0.00    -0.309 OA
ATOM     35  C1  ZIN A   1      18.848   0.464  16.898  0.00  0.00     0.215 C 
ENDBRANCH  31  34
ENDBRANCH   1  30
TORSDOF 7
ENDMDL
MODEL 2
REMARK VINA RESULT:      -8.9      0.036      1.493
REMARK  7 active torsions:
REMARK  status: ('A' for Active; 'I' for Inactive)
REMARK    1  A    between atoms: O2_2  and  C3_3 
REMARK       I    between atoms: C3_3  and  N5_5 
REMARK    2  A    between atoms: N5_5  and  C7_7 
REMARK    3  A    between atoms: C8_8  and  N9_9 
REMARK    4  A    between atoms: C11_11  and  C12_12 
REMARK    5  A    between atoms: N14_14  and  C15_15 
REMARK    6  A    between atoms: C15_15  and  C16_16 
REMARK    7  A    between atoms: C30_30  and  N31_31 
ROOT
ATOM      1  C7  ZIN A   1      19.136   0.418  12.225  0.00  0.00     0.130 A 
ATOM      2  C8  ZIN A   1      20.348   0.164  11.580  0.00  0.00     0.154 A 
ATOM      3  N10 ZIN A   1      20.341  -0.516  10.437  0.00  0.00    -0.207 NA
ATOM      4  C11 ZIN A   1      19.203  -0.951   9.911  0.00  0.00     0.185 A 
ATOM      5  N29 ZIN A   1      18.033  -0.729  10.496  0.00  0.00    -0.207 NA
ATOM      6  C30 ZIN A   1      17.959  -0.061  11.643  0.00  0.00     0.154 A 
ENDROOT
BRANCH   4   7
ATOM      7  C12 ZIN A   1      19.240  -1.704   8.637  0.00  0.00     0.139 A 
ATOM      8  C28 ZIN A   1      19.197  -1.133   7.289  0.00  0.00     0.046 A 
ATOM      9  C23 ZIN A   1      19.259  -2.218   6.393  0.00  0.00     0.158 A 
ATOM     10  C27 ZIN A   1      19.131   0.168   6.784  0.00  0.00     0.019 A 
ATOM     11  N14 ZIN A   1      19.325  -3.354   7.154  0.00  0.00    -0.246 N 
ATOM     12  N24 ZIN A   1      19.243  -1.996   5.085  0.00  0.00    -0.241 NA
ATOM     13  N13 ZIN A   1      19.311  -3.008   8.509  0.00  0.00    -0.166 NA
ATOM     14  C25 ZIN A   1      19.175  -0.777   4.595  0.00  0.00     0.119 A 
ATOM     15  C26 ZIN A   1      19.117   0.335   5.423  0.00  0.00     0.020 A 
BRANCH  11  16
ATOM     16  C15 ZIN A   1      19.397  -4.720   6.631  0.00  0.00     0.195 C 
BRANCH  16  17
ATOM     17  C16 ZIN A   1      18.218  -5.513   7.130  0.00  0.00     0.000 A 
ATOM     18  C21 ZIN A   1      18.327  -6.260   8.293  0.00  0.00     0.124 A 
ATOM     19  C20 ZIN A   1      17.241  -6.983   8.754  0.00  0.00     0.043 A 
ATOM     20  F22 ZIN A   1      19.489  -6.271   8.981  0.00  0.00    -0.205 F 
ATOM     21  C19 ZIN A   1      16.052  -6.969   8.049  0.00  0.00     0.003 A 
ATOM     22  C18 ZIN A   1      15.946  -6.230   6.887  0.00  0.00     0.001 A 
ATOM     23  C17 ZIN A   1      17.028  -5.502   6.428  0.00  0.00     0.012 A 
ENDBRANCH  16  17
ENDBRANCH  11  16
ENDBRANCH   4   7
BRANCH   2  24
ATOM     24  N9  ZIN A   1      21.544   0.615  12.123  0.00  0.00    -0.382 N 
ATOM     25  H38 ZIN A   1      22.283  -0.000  12.246  0.00  0.00     0.157 HD
ATOM     26  H39 ZIN A   1      21.639   1.546  12.380  0.00  0.00     0.157 HD
ENDBRANCH   2  24
BRANCH   6  27
ATOM     27  N31 ZIN A   1      16.730   0.166  12.248  0.00  0.00    -0.382 N 
ATOM     28  H49 ZIN A   1      16.344   1.056  12.242  0.00  0.00     0.157 HD
ATOM     29  H50 ZIN A   1      16.257  -0.565  12.675  0.00  0.00     0.157 HD
ENDBRANCH   6  27
BRANCH   1  30
ATOM     30  N5  ZIN A   1      19.100   1.133  13.434  0.00  0.00    -0.291 N 
ATOM     31  C3  ZIN A   1      19.344   0.501  14.599  0.00  0.00     0.366 C 
ATOM     32  O4  ZIN A   1      19.595  -0.688  14.604  0.00  0.00    -0.238 OA
ATOM     33  C6  ZIN A   1      18.797   2.567  13.428  0.00  0.00     0.162 C 
BRANCH  31  34
ATOM     34  O2  ZIN A   1      19.310   1.186  15.758  0.00  0.00    -0.309 OA
ATOM     35  C1  ZIN A   1      18.894   0.458  16.943  0.00  0.00     0.215 C 
ENDBRANCH  31  34
ENDBRANCH   1  30
TORSDOF 7
ENDMDL
MODEL 3
REMARK VINA RESULT:      -8.6      2.457      3.118
REMARK  7 active torsions:
REMARK  status: ('A' for Active; 'I' for Inactive)
REMARK    1  A    between atoms: O2_2  and  C3_3 
REMARK       I    between atoms: C3_3  and  N5_5 
REMARK    2  A    between atoms: N5_5  and  C7_7 
REMARK    3  A    between atoms: C8_8  and  N9_9 
REMARK    4  A    between atoms: C11_11  and  C12_12 
REMARK    5  A    between atoms: N14_14  and  C15_15 
REMARK    6  A    between atoms: C15_15  and  C16_16 
REMARK    7  A    between atoms: C30_30  and  N31_31 
ROOT
ATOM      1  C7  ZIN A   1      18.689   2.729  12.234  0.00  0.00     0.130 A 
ATOM      2  C8  ZIN A   1      19.408   1.554  12.468  0.00  0.00     0.154 A 
ATOM      3  N10 ZIN A   1      19.473   0.636  11.509  0.00  0.00    -0.207 NA
ATOM      4  C11 ZIN A   1      18.868   0.824  10.344  0.00  0.00     0.185 A 
ATOM      5  N29 ZIN A   1      18.176   1.926  10.086  0.00  0.00    -0.207 NA
ATOM      6  C30 ZIN A   1      18.061   2.888  10.997  0.00  0.00     0.154 A 
ENDROOT
BRANCH   4   7
ATOM      7  C12 ZIN A   1      18.966  -0.224   9.303  0.00  0.00     0.139 A 
ATOM      8  C28 ZIN A   1      19.038  -0.006   7.855  0.00  0.00     0.046 A 
ATOM      9  C23 ZIN A   1      19.123  -1.281   7.264  0.00  0.00     0.158 A 
ATOM     10  C27 ZIN A   1      19.055   1.129   7.041  0.00  0.00     0.019 A 
ATOM     11  N14 ZIN A   1      19.094  -2.193   8.285  0.00  0.00    -0.246 N 
ATOM     12  N24 ZIN A   1      19.207  -1.393   5.944  0.00  0.00    -0.241 NA
ATOM     13  N13 ZIN A   1      18.998  -1.520   9.507  0.00  0.00    -0.166 NA
ATOM     14  C25 ZIN A   1      19.217  -0.333   5.164  0.00  0.00     0.119 A 
ATOM     15  C26 ZIN A   1      19.143   0.951   5.684  0.00  0.00     0.020 A 
BRANCH  11  16
ATOM     16  C15 ZIN A   1      19.153  -3.647   8.123  0.00  0.00     0.195 C 
BRANCH  16  17
ATOM     17  C16 ZIN A   1      18.394  -4.309   9.244  0.00  0.00     0.000 A 
ATOM     18  C21 ZIN A   1      19.042  -4.622  10.428  0.00  0.00     0.124 A 
ATOM     19  C20 ZIN A   1      18.342  -5.225  11.460  0.00  0.00     0.043 A 
ATOM     20  F22 ZIN A   1      20.351  -4.328  10.580  0.00  0.00    -0.205 F 
ATOM     21  C19 ZIN A   1      17.002  -5.524  11.303  0.00  0.00     0.003 A 
ATOM     22  C18 ZIN A   1      16.359  -5.218  10.119  0.00  0.00     0.001 A 
ATOM     23  C17 ZIN A   1      17.055  -4.610   9.090  0.00  0.00     0.012 A 
ENDBRANCH  16  17
ENDBRANCH  11  16
ENDBRANCH   4   7
BRANCH   2  24
ATOM     24  N9  ZIN A   1      20.045   1.348  13.685  0.00  0.00    -0.382 N 
ATOM     25  H38 ZIN A   1      19.632   1.658  14.506  0.00  0.00     0.157 HD
ATOM     26  H39 ZIN A   1      20.902   0.895  13.713  0.00  0.00     0.157 HD
ENDBRANCH   2  24
BRANCH   6  27
ATOM     27  N31 ZIN A   1      17.335   4.039  10.717  0.00  0.00    -0.382 N 
ATOM     28  H49 ZIN A   1      16.366   4.009  10.698  0.00  0.00     0.157 HD
ATOM     29  H50 ZIN A   1      17.798   4.873  10.542  0.00  0.00     0.157 HD
ENDBRANCH   6  27
BRANCH   1  30
ATOM     30  N5  ZIN A   1      18.595   3.724  13.221  0.00  0.00    -0.291 N 
ATOM     31  C3  ZIN A   1      19.411   4.796  13.178  0.00  0.00     0.366 C 
ATOM     32  O4  ZIN A   1      20.229   4.900  12.286  0.00  0.00    -0.238 OA
ATOM     33  C6  ZIN A   1      17.609   3.597  14.298  0.00  0.00     0.162 C 
BRANCH  31  34
ATOM     34  O2  ZIN A   1      19.321   5.750  14.124  0.00  0.00    -0.309 OA
ATOM     35  C1  ZIN A   1      20.455   5.902  15.017  0.00  0.00     0.215 C 
ENDBRANCH  31  34
ENDBRANCH   1  30
TORSDOF 7
ENDMDL
MODEL 4
REMARK VINA RESULT:      -8.5      3.376      7.790
REMARK  7 active torsions:
REMARK  status: ('A' for Active; 'I' for Inactive)
REMARK    1  A    between atoms: O2_2  and  C3_3 
REMARK       I    between atoms: C3_3  and  N5_5 
REMARK    2  A    between atoms: N5_5  and  C7_7 
REMARK    3  A    between atoms: C8_8  and  N9_9 
REMARK    4  A    between atoms: C11_11  and  C12_12 
REMARK    5  A    between atoms: N14_14  and  C15_15 
REMARK    6  A    between atoms: C15_15  and  C16_16 
REMARK    7  A    between atoms: C30_30  and  N31_31 
ROOT
ATOM      1  C7  ZIN A   1      18.190  -4.268   7.849  0.00  0.00     0.130 A 
ATOM      2  C8  ZIN A   1      17.501  -4.091   9.050  0.00  0.00     0.154 A 
ATOM      3  N10 ZIN A   1      17.814  -3.059   9.828  0.00  0.00    -0.207 NA
ATOM      4  C11 ZIN A   1      18.765  -2.205   9.476  0.00  0.00     0.185 A 
ATOM      5  N29 ZIN A   1      19.441  -2.341   8.342  0.00  0.00    -0.207 NA
ATOM      6  C30 ZIN A   1      19.189  -3.350   7.514  0.00  0.00     0.154 A 
ENDROOT
BRANCH   4   7
ATOM      7  C12 ZIN A   1      19.082  -1.069  10.371  0.00  0.00     0.139 A 
ATOM      8  C28 ZIN A   1      18.931   0.354  10.055  0.00  0.00     0.046 A 
ATOM      9  C23 ZIN A   1      19.348   1.063  11.199  0.00  0.00     0.158 A 
ATOM     10  C27 ZIN A   1      18.475   1.061   8.940  0.00  0.00     0.019 A 
ATOM     11  N14 ZIN A   1      19.728   0.129  12.125  0.00  0.00    -0.246 N 
ATOM     12  N24 ZIN A   1      19.315   2.390  11.202  0.00  0.00    -0.241 NA
ATOM     13  N13 ZIN A   1      19.555  -1.152  11.592  0.00  0.00    -0.166 NA
ATOM     14  C25 ZIN A   1      18.894   3.069  10.156  0.00  0.00     0.119 A 
ATOM     15  C26 ZIN A   1      18.464   2.431   9.002  0.00  0.00     0.020 A 
BRANCH  11  16
ATOM     16  C15 ZIN A   1      20.239   0.426  13.465  0.00  0.00     0.195 C 
BRANCH  16  17
ATOM     17  C16 ZIN A   1      19.200   0.057  14.492  0.00  0.00     0.000 A 
ATOM     18  C21 ZIN A   1      19.239  -1.188  15.100  0.00  0.00     0.124 A 
ATOM     19  C20 ZIN A   1      18.287  -1.524  16.048  0.00  0.00     0.043 A 
ATOM     20  F22 ZIN A   1      20.211  -2.068  14.777  0.00  0.00    -0.205 F 
ATOM     21  C19 ZIN A   1      17.293  -0.622  16.378  0.00  0.00     0.003 A 
ATOM     22  C18 ZIN A   1      17.251   0.616  15.766  0.00  0.00     0.001 A 
ATOM     23  C17 ZIN A   1      18.205   0.955  14.824  0.00  0.00     0.012 A 
ENDBRANCH  16  17
ENDBRANCH  11  16
ENDBRANCH   4   7
BRANCH   2  24
ATOM     24  N9  ZIN A   1      16.503  -4.981   9.428  0.00  0.00    -0.382 N 
ATOM     25  H38 ZIN A   1      16.057  -4.875  10.283  0.00  0.00     0.157 HD
ATOM     26  H39 ZIN A   1      16.253  -5.708   8.836  0.00  0.00     0.157 HD
ENDBRANCH   2  24
BRANCH   6  27
ATOM     27  N31 ZIN A   1      19.902  -3.483   6.330  0.00  0.00    -0.382 N 
ATOM     28  H49 ZIN A   1      19.870  -2.780   5.663  0.00  0.00     0.157 HD
ATOM     29  H50 ZIN A   1      20.432  -4.280   6.171  0.00  0.00     0.157 HD
ENDBRANCH   6  27
BRANCH   1  30
ATOM     30  N5  ZIN A   1      17.890  -5.345   6.998  0.00  0.00    -0.291 N 
ATOM     31  C3  ZIN A   1      18.393  -6.568   7.256  0.00  0.00     0.366 C 
ATOM     32  O4  ZIN A   1      19.108  -6.739   8.224  0.00  0.00    -0.238 OA
ATOM     33  C6  ZIN A   1      17.029  -5.138   5.830  0.00  0.00     0.162 C 
BRANCH  31  34
ATOM     34  O2  ZIN A   1      18.105  -7.601   6.441  0.00  0.00    -0.309 OA
ATOM     35  C1  ZIN A   1      17.259  -8.650   6.980  0.00  0.00     0.215 C 
ENDBRANCH  31  34
ENDBRANCH   1  30
TORSDOF 7
ENDMDL
MODEL 5
REMARK VINA RESULT:      -8.5      3.646      8.700
REMARK  7 active torsions:
REMARK  status: ('A' for Active; 'I' for Inactive)
REMARK    1  A    between atoms: O2_2  and  C3_3 
REMARK       I    between atoms: C3_3  and  N5_5 
REMARK    2  A    between atoms: N5_5  and  C7_7 
REMARK    3  A    between atoms: C8_8  and  N9_9 
REMARK    4  A    between atoms: C11_11  and  C12_12 
REMARK    5  A    between atoms: N14_14  and  C15_15 
REMARK    6  A    between atoms: C15_15  and  C16_16 
REMARK    7  A    between atoms: C30_30  and  N31_31 
ROOT
ATOM      1  C7  ZIN A   1      17.690  -4.215   9.693  0.00  0.00     0.130 A 
ATOM      2  C8  ZIN A   1      17.985  -3.057   8.970  0.00  0.00     0.154 A 
ATOM      3  N10 ZIN A   1      18.337  -1.957   9.629  0.00  0.00    -0.207 NA
ATOM      4  C11 ZIN A   1      18.410  -1.951  10.953  0.00  0.00     0.185 A 
ATOM      5  N29 ZIN A   1      18.136  -3.031  11.673  0.00  0.00    -0.207 NA
ATOM      6  C30 ZIN A   1      17.772  -4.168  11.087  0.00  0.00     0.154 A 
ENDROOT
BRANCH   4   7
ATOM      7  C12 ZIN A   1      18.806  -0.705  11.648  0.00  0.00     0.139 A 
ATOM      8  C28 ZIN A   1      18.803  -0.480  13.096  0.00  0.00     0.046 A 
ATOM      9  C23 ZIN A   1      19.256   0.839  13.295  0.00  0.00     0.158 A 
ATOM     10  C27 ZIN A   1      18.482  -1.268  14.203  0.00  0.00     0.019 A 
ATOM     11  N14 ZIN A   1      19.502   1.364  12.054  0.00  0.00    -0.246 N 
ATOM     12  N24 ZIN A   1      19.362   1.322  14.527  0.00  0.00    -0.241 NA
ATOM     13  N13 ZIN A   1      19.219   0.403  11.079  0.00  0.00    -0.166 NA
ATOM     14  C25 ZIN A   1      19.056   0.594  15.579  0.00  0.00     0.119 A 
ATOM     15  C26 ZIN A   1      18.611  -0.714  15.451  0.00  0.00     0.020 A 
BRANCH  11  16
ATOM     16  C15 ZIN A   1      19.985   2.721  11.790  0.00  0.00     0.195 C 
BRANCH  16  17
ATOM     17  C16 ZIN A   1      18.817   3.672  11.754  0.00  0.00     0.000 A 
ATOM     18  C21 ZIN A   1      18.109   3.855  10.577  0.00  0.00     0.124 A 
ATOM     19  C20 ZIN A   1      17.032   4.724  10.547  0.00  0.00     0.043 A 
ATOM     20  F22 ZIN A   1      18.462   3.177   9.464  0.00  0.00    -0.205 F 
ATOM     21  C19 ZIN A   1      16.671   5.418  11.687  0.00  0.00     0.003 A 
ATOM     22  C18 ZIN A   1      17.382   5.239  12.858  0.00  0.00     0.001 A 
ATOM     23  C17 ZIN A   1      18.454   4.366  12.891  0.00  0.00     0.012 A 
ENDBRANCH  16  17
ENDBRANCH  11  16
ENDBRANCH   4   7
BRANCH   2  24
ATOM     24  N9  ZIN A   1      17.911  -3.055   7.584  0.00  0.00    -0.382 N 
ATOM     25  H38 ZIN A   1      18.723  -3.102   7.055  0.00  0.00     0.157 HD
ATOM     26  H39 ZIN A   1      17.047  -3.005   7.144  0.00  0.00     0.157 HD
ENDBRANCH   2  24
BRANCH   6  27
ATOM     27  N31 ZIN A   1      17.489  -5.294  11.849  0.00  0.00    -0.382 N 
ATOM     28  H49 ZIN A   1      16.631  -5.738  11.759  0.00  0.00     0.157 HD
ATOM     29  H50 ZIN A   1      18.150  -5.636  12.472  0.00  0.00     0.157 HD
ENDBRANCH   6  27
BRANCH   1  30
ATOM     30  N5  ZIN A   1      17.314  -5.399   9.036  0.00  0.00    -0.291 N 
ATOM     31  C3  ZIN A   1      18.256  -6.219   8.533  0.00  0.00     0.366 C 
ATOM     32  O4  ZIN A   1      19.432  -5.936   8.647  0.00  0.00    -0.238 OA
ATOM     33  C6  ZIN A   1      15.895  -5.741   8.898  0.00  0.00     0.162 C 
BRANCH  31  34
ATOM     34  O2  ZIN A   1      17.896  -7.354   7.903  0.00  0.00    -0.309 OA
ATOM     35  C1  ZIN A   1      17.792  -7.300   6.456  0.00  0.00     0.215 C 
ENDBRANCH  31  34
ENDBRANCH   1  30
TORSDOF 7
ENDMDL
MODEL 6
REMARK VINA RESULT:      -8.5      4.113     10.154
REMARK  7 active torsions:
REMARK  status: ('A' for Active; 'I' for Inactive)
REMARK    1  A    between atoms: O2_2  and  C3_3 
REMARK       I    between atoms: C3_3  and  N5_5 
REMARK    2  A    between atoms: N5_5  and  C7_7 
REMARK    3  A    between atoms: C8_8  and  N9_9 
REMARK    4  A    between atoms: C11_11  and  C12_12 
REMARK    5  A    between atoms: N14_14  and  C15_15 
REMARK    6  A    between atoms: C15_15  and  C16_16 
REMARK    7  A    between atoms: C30_30  and  N31_31 
ROOT
ATOM      1  C7  ZIN A   1      19.148  -0.229  10.766  0.00  0.00     0.130 A 
ATOM      2  C8  ZIN A   1      20.334  -0.121  11.496  0.00  0.00     0.154 A 
ATOM      3  N10 ZIN A   1      20.295   0.408  12.715  0.00  0.00    -0.207 NA
ATOM      4  C11 ZIN A   1      19.151   0.829  13.238  0.00  0.00     0.185 A 
ATOM      5  N29 ZIN A   1      18.005   0.743  12.574  0.00  0.00    -0.207 NA
ATOM      6  C30 ZIN A   1      17.964   0.231  11.348  0.00  0.00     0.154 A 
ENDROOT
BRANCH   4   7
ATOM      7  C12 ZIN A   1      19.152   1.411  14.600  0.00  0.00     0.139 A 
ATOM      8  C28 ZIN A   1      19.048   0.672  15.860  0.00  0.00     0.046 A 
ATOM      9  C23 ZIN A   1      19.094   1.631  16.890  0.00  0.00     0.158 A 
ATOM     10  C27 ZIN A   1      18.940  -0.681  16.190  0.00  0.00     0.019 A 
ATOM     11  N14 ZIN A   1      19.209   2.855  16.286  0.00  0.00    -0.246 N 
ATOM     12  N24 ZIN A   1      19.025   1.243  18.158  0.00  0.00    -0.241 NA
ATOM     13  N13 ZIN A   1      19.240   2.686  14.898  0.00  0.00    -0.166 NA
ATOM     14  C25 ZIN A   1      18.917  -0.027  18.483  0.00  0.00     0.119 A 
ATOM     15  C26 ZIN A   1      18.872  -1.022  17.517  0.00  0.00     0.020 A 
BRANCH  11  16
ATOM     16  C15 ZIN A   1      19.284   4.140  16.984  0.00  0.00     0.195 C 
BRANCH  16  17
ATOM     17  C16 ZIN A   1      18.617   5.204  16.151  0.00  0.00     0.000 A 
ATOM     18  C21 ZIN A   1      19.385   6.160  15.506  0.00  0.00     0.124 A 
ATOM     19  C20 ZIN A   1      18.772   7.134  14.736  0.00  0.00     0.043 A 
ATOM     20  F22 ZIN A   1      20.731   6.135  15.617  0.00  0.00    -0.205 F 
ATOM     21  C19 ZIN A   1      17.394   7.159  14.622  0.00  0.00     0.003 A 
ATOM     22  C18 ZIN A   1      16.629   6.208  15.271  0.00  0.00     0.001 A 
ATOM     23  C17 ZIN A   1      17.241   5.232  16.035  0.00  0.00     0.012 A 
ENDBRANCH  16  17
ENDBRANCH  11  16
ENDBRANCH   4   7
BRANCH   2  24
ATOM     24  N9  ZIN A   1      21.536  -0.559  10.957  0.00  0.00    -0.382 N 
ATOM     25  H38 ZIN A   1      22.237  -0.892  11.539  0.00  0.00     0.157 HD
ATOM     26  H39 ZIN A   1      21.675  -0.532   9.997  0.00  0.00     0.157 HD
ENDBRANCH   2  24
BRANCH   6  27
ATOM     27  N31 ZIN A   1      16.760   0.145  10.661  0.00  0.00    -0.382 N 
ATOM     28  H49 ZIN A   1      16.721  -0.311   9.806  0.00  0.00     0.157 HD
ATOM     29  H50 ZIN A   1      15.958   0.539  11.038  0.00  0.00     0.157 HD
ENDBRANCH   6  27
BRANCH   1  30
ATOM     30  N5  ZIN A   1      19.146  -0.782   9.474  0.00  0.00    -0.291 N 
ATOM     31  C3  ZIN A   1      19.324   0.013   8.401  0.00  0.00     0.366 C 
ATOM     32  O4  ZIN A   1      19.486   1.208   8.550  0.00  0.00    -0.238 OA
ATOM     33  C6  ZIN A   1      18.950  -2.223   9.294  0.00  0.00     0.162 C 
BRANCH  31  34
ATOM     34  O2  ZIN A   1      19.323  -0.517   7.162  0.00  0.00    -0.309 OA
ATOM     35  C1  ZIN A   1      18.185  -0.208   6.315  0.00  0.00     0.215 C 
ENDBRANCH  31  34
ENDBRANCH   1  30
TORSDOF 7
ENDMDL
MODEL 7
REMARK VINA RESULT:      -8.4      2.008      2.249
REMARK  7 active torsions:
REMARK  status: ('A' for Active; 'I' for Inactive)
REMARK    1  A    between atoms: O2_2  and  C3_3 
REMARK       I    between atoms: C3_3  and  N5_5 
REMARK    2  A    between atoms: N5_5  and  C7_7 
REMARK    3  A    between atoms: C8_8  and  N9_9 
REMARK    4  A    between atoms: C11_11  and  C12_12 
REMARK    5  A    between atoms: N14_14  and  C15_15 
REMARK    6  A    between atoms: C15_15  and  C16_16 
REMARK    7  A    between atoms: C30_30  and  N31_31 
ROOT
ATOM      1  C7  ZIN A   1      19.051   2.481  11.739  0.00  0.00     0.130 A 
ATOM      2  C8  ZIN A   1      18.362   2.640  10.534  0.00  0.00     0.154 A 
ATOM      3  N10 ZIN A   1      18.420   1.672   9.625  0.00  0.00    -0.207 NA
ATOM      4  C11 ZIN A   1      19.118   0.567   9.850  0.00  0.00     0.185 A 
ATOM      5  N29 ZIN A   1      19.786   0.381  10.982  0.00  0.00    -0.207 NA
ATOM      6  C30 ZIN A   1      19.781   1.306  11.937  0.00  0.00     0.154 A 
ENDROOT
BRANCH   4   7
ATOM      7  C12 ZIN A   1      19.156  -0.487   8.811  0.00  0.00     0.139 A 
ATOM      8  C28 ZIN A   1      19.158  -0.276   7.361  0.00  0.00     0.046 A 
ATOM      9  C23 ZIN A   1      19.203  -1.555   6.772  0.00  0.00     0.158 A 
ATOM     10  C27 ZIN A   1      19.144   0.855   6.541  0.00  0.00     0.019 A 
ATOM     11  N14 ZIN A   1      19.217  -2.461   7.799  0.00  0.00    -0.246 N 
ATOM     12  N24 ZIN A   1      19.221  -1.673   5.450  0.00  0.00    -0.241 NA
ATOM     13  N13 ZIN A   1      19.187  -1.781   9.020  0.00  0.00    -0.166 NA
ATOM     14  C25 ZIN A   1      19.202  -0.617   4.666  0.00  0.00     0.119 A 
ATOM     15  C26 ZIN A   1      19.164   0.670   5.182  0.00  0.00     0.020 A 
BRANCH  11  16
ATOM     16  C15 ZIN A   1      19.255  -3.917   7.641  0.00  0.00     0.195 C 
BRANCH  16  17
ATOM     17  C16 ZIN A   1      18.409  -4.561   8.708  0.00  0.00     0.000 A 
ATOM     18  C21 ZIN A   1      18.980  -4.932   9.915  0.00  0.00     0.124 A 
ATOM     19  C20 ZIN A   1      18.200  -5.518  10.897  0.00  0.00     0.043 A 
ATOM     20  F22 ZIN A   1      20.294  -4.712  10.137  0.00  0.00    -0.205 F 
ATOM     21  C19 ZIN A   1      16.855  -5.742  10.669  0.00  0.00     0.003 A 
ATOM     22  C18 ZIN A   1      16.288  -5.377   9.463  0.00  0.00     0.001 A 
ATOM     23  C17 ZIN A   1      17.065  -4.786   8.484  0.00  0.00     0.012 A 
ENDBRANCH  16  17
ENDBRANCH  11  16
ENDBRANCH   4   7
BRANCH   2  24
ATOM     24  N9  ZIN A   1      17.628   3.794  10.289  0.00  0.00    -0.382 N 
ATOM     25  H38 ZIN A   1      17.177   3.910   9.439  0.00  0.00     0.157 HD
ATOM     26  H39 ZIN A   1      17.567   4.483  10.969  0.00  0.00     0.157 HD
ENDBRANCH   2  24
BRANCH   6  27
ATOM     27  N31 ZIN A   1      20.482   1.102  13.118  0.00  0.00    -0.382 N 
ATOM     28  H49 ZIN A   1      21.378   0.732  13.093  0.00  0.00     0.157 HD
ATOM     29  H50 ZIN A   1      20.075   1.332  13.969  0.00  0.00     0.157 HD
ENDBRANCH   6  27
BRANCH   1  30
ATOM     30  N5  ZIN A   1      19.017   3.481  12.725  0.00  0.00    -0.291 N 
ATOM     31  C3  ZIN A   1      18.259   3.315  13.827  0.00  0.00     0.366 C 
ATOM     32  O4  ZIN A   1      17.604   2.301  13.966  0.00  0.00    -0.238 OA
ATOM     33  C6  ZIN A   1      19.806   4.704  12.557  0.00  0.00     0.162 C 
BRANCH  31  34
ATOM     34  O2  ZIN A   1      18.226   4.272  14.773  0.00  0.00    -0.309 OA
ATOM     35  C1  ZIN A   1      18.874   3.973  16.037  0.00  0.00     0.215 C 
ENDBRANCH  31  34
ENDBRANCH   1  30
TORSDOF 7
ENDMDL
MODEL 8
REMARK VINA RESULT:      -8.2      2.188      3.894
REMARK  7 active torsions:
REMARK  status: ('A' for Active; 'I' for Inactive)
REMARK    1  A    between atoms: O2_2  and  C3_3 
REMARK       I    between atoms: C3_3  and  N5_5 
REMARK    2  A    between atoms: N5_5  and  C7_7 
REMARK    3  A    between atoms: C8_8  and  N9_9 
REMARK    4  A    between atoms: C11_11  and  C12_12 
REMARK    5  A    between atoms: N14_14  and  C15_15 
REMARK    6  A    between atoms: C15_15  and  C16_16 
REMARK    7  A    between atoms: C30_30  and  N31_31 
ROOT
ATOM      1  C7  ZIN A   1      19.062   0.547  12.426  0.00  0.00     0.130 A 
ATOM      2  C8  ZIN A   1      17.856  -0.033  12.028  0.00  0.00     0.154 A 
ATOM      3  N10 ZIN A   1      17.877  -1.017  11.134  0.00  0.00    -0.207 NA
ATOM      4  C11 ZIN A   1      19.023  -1.448  10.623  0.00  0.00     0.185 A 
ATOM      5  N29 ZIN A   1      20.188  -0.921  10.977  0.00  0.00    -0.207 NA
ATOM      6  C30 ZIN A   1      20.248   0.070  11.862  0.00  0.00     0.154 A 
ENDROOT
BRANCH   4   7
ATOM      7  C12 ZIN A   1      19.002  -2.546   9.630  0.00  0.00     0.139 A 
ATOM      8  C28 ZIN A   1      18.409  -3.873   9.816  0.00  0.00     0.046 A 
ATOM      9  C23 ZIN A   1      18.622  -4.577   8.615  0.00  0.00     0.158 A 
ATOM     10  C27 ZIN A   1      17.721  -4.495  10.861  0.00  0.00     0.019 A 
ATOM     11  N14 ZIN A   1      19.302  -3.732   7.778  0.00  0.00    -0.246 N 
ATOM     12  N24 ZIN A   1      18.181  -5.823   8.492  0.00  0.00    -0.241 NA
ATOM     13  N13 ZIN A   1      19.516  -2.511   8.424  0.00  0.00    -0.166 NA
ATOM     14  C25 ZIN A   1      17.538  -6.423   9.470  0.00  0.00     0.119 A 
ATOM     15  C26 ZIN A   1      17.289  -5.784  10.676  0.00  0.00     0.020 A 
BRANCH  11  16
ATOM     16  C15 ZIN A   1      19.738  -4.059   6.418  0.00  0.00     0.195 C 
BRANCH  16  17
ATOM     17  C16 ZIN A   1      18.642  -3.718   5.443  0.00  0.00     0.000 A 
ATOM     18  C21 ZIN A   1      18.524  -2.425   4.959  0.00  0.00     0.124 A 
ATOM     19  C20 ZIN A   1      17.520  -2.114   4.058  0.00  0.00     0.043 A 
ATOM     20  F22 ZIN A   1      19.395  -1.472   5.355  0.00  0.00    -0.205 F 
ATOM     21  C19 ZIN A   1      16.628  -3.090   3.652  0.00  0.00     0.003 A 
ATOM     22  C18 ZIN A   1      16.743  -4.377   4.141  0.00  0.00     0.001 A 
ATOM     23  C17 ZIN A   1      17.750  -4.690   5.036  0.00  0.00     0.012 A 
ENDBRANCH  16  17
ENDBRANCH  11  16
ENDBRANCH   4   7
BRANCH   2  24
ATOM     24  N9  ZIN A   1      16.651   0.411  12.558  0.00  0.00    -0.382 N 
ATOM     25  H38 ZIN A   1      16.438   0.239  13.488  0.00  0.00     0.157 HD
ATOM     26  H39 ZIN A   1      16.023   0.894  11.997  0.00  0.00     0.157 HD
ENDBRANCH   2  24
BRANCH   6  27
ATOM     27  N31 ZIN A   1      21.472   0.615  12.226  0.00  0.00    -0.382 N 
ATOM     28  H49 ZIN A   1      22.280   0.346  11.762  0.00  0.00     0.157 HD
ATOM     29  H50 ZIN A   1      21.518   1.265  12.945  0.00  0.00     0.157 HD
ENDBRANCH   6  27
BRANCH   1  30
ATOM     30  N5  ZIN A   1      19.083   1.589  13.369  0.00  0.00    -0.291 N 
ATOM     31  C3  ZIN A   1      18.959   2.868  12.963  0.00  0.00     0.366 C 
ATOM     32  O4  ZIN A   1      18.829   3.120  11.781  0.00  0.00    -0.238 OA
ATOM     33  C6  ZIN A   1      19.240   1.285  14.794  0.00  0.00     0.162 C 
BRANCH  31  34
ATOM     34  O2  ZIN A   1      18.979   3.867  13.865  0.00  0.00    -0.309 OA
ATOM     35  C1  ZIN A   1      19.621   5.106  13.464  0.00  0.00     0.215 C 
ENDBRANCH  31  34
ENDBRANCH   1  30
TORSDOF 7
ENDMDL
MODEL 9
REMARK VINA RESULT:      -8.2      3.687      8.579
REMARK  7 active torsions:
REMARK  status: ('A' for Active; 'I' for Inactive)
REMARK    1  A    between atoms: O2_2  and  C3_3 
REMARK       I    between atoms: C3_3  and  N5_5 
REMARK    2  A    between atoms: N5_5  and  C7_7 
REMARK    3  A    between atoms: C8_8  and  N9_9 
REMARK    4  A    between atoms: C11_11  and  C12_12 
REMARK    5  A    between atoms: N14_14  and  C15_15 
REMARK    6  A    between atoms: C15_15  and  C16_16 
REMARK    7  A    between atoms: C30_30  and  N31_31 
ROOT
ATOM      1  C7  ZIN A   1      18.323  -4.006   8.214  0.00  0.00     0.130 A 
ATOM      2  C8  ZIN A   1      17.660  -3.864   9.435  0.00  0.00     0.154 A 
ATOM      3  N10 ZIN A   1      17.952  -2.825  10.211  0.00  0.00    -0.207 NA
ATOM      4  C11 ZIN A   1      18.857  -1.930   9.839  0.00  0.00     0.185 A 
ATOM      5  N29 ZIN A   1      19.508  -2.032   8.687  0.00  0.00    -0.207 NA
ATOM      6  C30 ZIN A   1      19.275  -3.046   7.859  0.00  0.00     0.154 A 
ENDROOT
BRANCH   4   7
ATOM      7  C12 ZIN A   1      19.152  -0.788  10.733  0.00  0.00     0.139 A 
ATOM      8  C28 ZIN A   1      19.097  -0.795  12.197  0.00  0.00     0.046 A 
ATOM      9  C23 ZIN A   1      19.456   0.501  12.616  0.00  0.00     0.158 A 
ATOM     10  C27 ZIN A   1      18.798  -1.766  13.156  0.00  0.00     0.019 A 
ATOM     11  N14 ZIN A   1      19.699   1.229  11.482  0.00  0.00    -0.246 N 
ATOM     12  N24 ZIN A   1      19.497   0.789  13.911  0.00  0.00    -0.241 NA
ATOM     13  N13 ZIN A   1      19.506   0.419  10.359  0.00  0.00    -0.166 NA
ATOM     14  C25 ZIN A   1      19.213  -0.114  14.825  0.00  0.00     0.119 A 
ATOM     15  C26 ZIN A   1      18.858  -1.409  14.479  0.00  0.00     0.020 A 
BRANCH  11  16
ATOM     16  C15 ZIN A   1      20.098   2.638  11.450  0.00  0.00     0.195 C 
BRANCH  16  17
ATOM     17  C16 ZIN A   1      18.873   3.510  11.550  0.00  0.00     0.000 A 
ATOM     18  C21 ZIN A   1      18.480   4.014  12.779  0.00  0.00     0.124 A 
ATOM     19  C20 ZIN A   1      17.358   4.819  12.868  0.00  0.00     0.043 A 
ATOM     20  F22 ZIN A   1      19.198   3.729  13.887  0.00  0.00    -0.205 F 
ATOM     21  C19 ZIN A   1      16.624   5.111  11.733  0.00  0.00     0.003 A 
ATOM     22  C18 ZIN A   1      17.014   4.602  10.509  0.00  0.00     0.001 A 
ATOM     23  C17 ZIN A   1      18.138   3.803  10.418  0.00  0.00     0.012 A 
ENDBRANCH  16  17
ENDBRANCH  11  16
ENDBRANCH   4   7
BRANCH   2  24
ATOM     24  N9  ZIN A   1      16.711  -4.796   9.833  0.00  0.00    -0.382 N 
ATOM     25  H38 ZIN A   1      16.814  -5.729   9.587  0.00  0.00     0.157 HD
ATOM     26  H39 ZIN A   1      15.944  -4.514  10.357  0.00  0.00     0.157 HD
ENDBRANCH   2  24
BRANCH   6  27
ATOM     27  N31 ZIN A   1      19.960  -3.144   6.655  0.00  0.00    -0.382 N 
ATOM     28  H49 ZIN A   1      19.538  -3.565   5.890  0.00  0.00     0.157 HD
ATOM     29  H50 ZIN A   1      20.860  -2.790   6.580  0.00  0.00     0.157 HD
ENDBRANCH   6  27
BRANCH   1  30
ATOM     30  N5  ZIN A   1      18.045  -5.090   7.365  0.00  0.00    -0.291 N 
ATOM     31  C3  ZIN A   1      18.606  -6.292   7.599  0.00  0.00     0.366 C 
ATOM     32  O4  ZIN A   1      19.355  -6.438   8.545  0.00  0.00    -0.238 OA
ATOM     33  C6  ZIN A   1      17.142  -4.913   6.223  0.00  0.00     0.162 C 
BRANCH  31  34
ATOM     34  O2  ZIN A   1      18.339  -7.331   6.786  0.00  0.00    -0.309 OA
ATOM     35  C1  ZIN A   1      17.375  -8.308   7.259  0.00  0.00     0.215 C 
ENDBRANCH  31  34
ENDBRANCH   1  30
TORSDOF 7
ENDMDL
