MODEL 1
REMARK VINA RESULT:      -8.0      0.000      0.000
REMARK  3 active torsions:
REMARK  status: ('A' for Active; 'I' for Inactive)
REMARK    1  A    between atoms: C2_2  and  C4_3 
REMARK    2  A    between atoms: C2_2  and  C7_6 
REMARK    3  A    between atoms: C10_9  and  C11_10 
ROOT
ATOM      1  C7  ZIN A   1      18.162  -0.201   7.124  0.00  0.00    -0.041 A 
ATOM      2  C8  ZIN A   1      19.002   0.878   6.919  0.00  0.00     0.009 A 
ATOM      3  C9  ZIN A   1      19.157   1.833   7.904  0.00  0.00     0.016 A 
ATOM      4  C10 ZIN A   1      18.463   1.710   9.106  0.00  0.00     0.013 A 
ATOM      5  C17 ZIN A   1      17.616   0.619   9.307  0.00  0.00     0.128 A 
ATOM      6  F18 ZIN A   1      16.940   0.494  10.470  0.00  0.00    -0.205 F 
ATOM      7  C19 ZIN A   1      17.466  -0.328   8.312  0.00  0.00     0.051 A 
ENDROOT
BRANCH   4   8
ATOM      8  C11 ZIN A   1      18.626   2.734  10.167  0.00  0.00    -0.023 A 
ATOM      9  C16 ZIN A   1      17.726   3.794  10.259  0.00  0.00     0.012 A 
ATOM     10  C15 ZIN A   1      17.878   4.740  11.253  0.00  0.00     0.001 A 
ATOM     11  C14 ZIN A   1      18.928   4.645  12.148  0.00  0.00     0.000 A 
ATOM     12  C13 ZIN A   1      19.827   3.598  12.057  0.00  0.00     0.001 A 
ATOM     13  C12 ZIN A   1      19.682   2.643  11.072  0.00  0.00     0.012 A 
ENDBRANCH   4   8
BRANCH   1  14
ATOM     14  C2  ZIN A   1      17.998  -1.240   6.044  0.00  0.00     0.115 C 
ATOM     15  C1  ZIN A   1      17.373  -0.594   4.806  0.00  0.00     0.026 C 
BRANCH  14  16
ATOM     16  C4  ZIN A   1      19.347  -1.810   5.687  0.00  0.00     0.181 C 
ATOM     17  O5  ZIN A   1      19.883  -2.617   6.427  0.00  0.00    -0.647 OA
ATOM     18  O6  ZIN A   1      19.902  -1.463   4.658  0.00  0.00    -0.647 OA
ENDBRANCH  14  16
ENDBRANCH   1  14
TORSDOF 3
ENDMDL
MODEL 2
REMARK VINA RESULT:      -7.3      1.322      1.901
REMARK  3 active torsions:
REMARK  status: ('A' for Active; 'I' for Inactive)
REMARK    1  A    between atoms: C2_2  and  C4_3 
REMARK    2  A    between atoms: C2_2  and  C7_6 
REMARK    3  A    between atoms: C10_9  and  C11_10 
ROOT
ATOM      1  C7  ZIN A   1      18.881  -0.038   7.955  0.00  0.00    -0.041 A 
ATOM      2  C8  ZIN A   1      19.527   1.184   7.919  0.00  0.00     0.009 A 
ATOM      3  C9  ZIN A   1      19.195   2.172   8.824  0.00  0.00     0.016 A 
ATOM      4  C10 ZIN A   1      18.203   1.938   9.774  0.00  0.00     0.013 A 
ATOM      5  C17 ZIN A   1      17.553   0.703   9.807  0.00  0.00     0.128 A 
ATOM      6  F18 ZIN A   1      16.591   0.470  10.725  0.00  0.00    -0.205 F 
ATOM      7  C19 ZIN A   1      17.892  -0.276   8.892  0.00  0.00     0.051 A 
ENDROOT
BRANCH   4   8
ATOM      8  C11 ZIN A   1      17.842   2.997  10.749  0.00  0.00    -0.023 A 
ATOM      9  C16 ZIN A   1      18.011   2.776  12.115  0.00  0.00     0.012 A 
ATOM     10  C15 ZIN A   1      17.680   3.766  13.017  0.00  0.00     0.001 A 
ATOM     11  C14 ZIN A   1      17.168   4.971  12.570  0.00  0.00     0.000 A 
ATOM     12  C13 ZIN A   1      16.992   5.192  11.215  0.00  0.00     0.001 A 
ATOM     13  C12 ZIN A   1      17.326   4.213  10.304  0.00  0.00     0.012 A 
ENDBRANCH   4   8
BRANCH   1  14
ATOM     14  C2  ZIN A   1      19.250  -1.112   6.964  0.00  0.00     0.115 C 
ATOM     15  C1  ZIN A   1      18.412  -2.364   7.234  0.00  0.00     0.026 C 
BRANCH  14  16
ATOM     16  C4  ZIN A   1      18.981  -0.618   5.566  0.00  0.00     0.181 C 
ATOM     17  O5  ZIN A   1      19.868  -0.642   4.731  0.00  0.00    -0.647 OA
ATOM     18  O6  ZIN A   1      17.876  -0.196   5.271  0.00  0.00    -0.647 OA
ENDBRANCH  14  16
ENDBRANCH   1  14
TORSDOF 3
ENDMDL
MODEL 3
REMARK VINA RESULT:      -7.2      3.349      6.484
REMARK  3 active torsions:
REMARK  status: ('A' for Active; 'I' for Inactive)
REMARK    1  A    between atoms: C2_2  and  C4_3 
REMARK    2  A    between atoms: C2_2  and  C7_6 
REMARK    3  A    between atoms: C10_9  and  C11_10 
ROOT
ATOM      1  C7  ZIN A   1      18.007   2.065  10.634  0.00  0.00    -0.041 A 
ATOM      2  C8  ZIN A   1      18.897   2.589   9.715  0.00  0.00     0.009 A 
ATOM      3  C9  ZIN A   1      19.137   1.929   8.527  0.00  0.00     0.016 A 
ATOM      4  C10 ZIN A   1      18.482   0.730   8.254  0.00  0.00     0.013 A 
ATOM      5  C17 ZIN A   1      17.585   0.205   9.185  0.00  0.00     0.128 A 
ATOM      6  F18 ZIN A   1      16.946  -0.958   8.928  0.00  0.00    -0.205 F 
ATOM      7  C19 ZIN A   1      17.357   0.873  10.374  0.00  0.00     0.051 A 
ENDROOT
BRANCH   4   8
ATOM      8  C11 ZIN A   1      18.736   0.016   6.979  0.00  0.00    -0.023 A 
ATOM      9  C16 ZIN A   1      19.108  -1.327   6.992  0.00  0.00     0.012 A 
ATOM     10  C15 ZIN A   1      19.336  -1.989   5.802  0.00  0.00     0.001 A 
ATOM     11  C14 ZIN A   1      19.210  -1.318   4.599  0.00  0.00     0.000 A 
ATOM     12  C13 ZIN A   1      18.848   0.017   4.581  0.00  0.00     0.001 A 
ATOM     13  C12 ZIN A   1      18.610   0.687   5.763  0.00  0.00     0.012 A 
ENDBRANCH   4   8
BRANCH   1  14
ATOM     14  C2  ZIN A   1      17.750   2.792  11.929  0.00  0.00     0.115 C 
ATOM     15  C1  ZIN A   1      19.010   2.748  12.797  0.00  0.00     0.026 C 
BRANCH  14  16
ATOM     16  C4  ZIN A   1      17.391   4.226  11.637  0.00  0.00     0.181 C 
ATOM     17  O5  ZIN A   1      18.128   5.126  12.001  0.00  0.00    -0.647 OA
ATOM     18  O6  ZIN A   1      16.362   4.486  11.036  0.00  0.00    -0.647 OA
ENDBRANCH  14  16
ENDBRANCH   1  14
TORSDOF 3
ENDMDL
MODEL 4
REMARK VINA RESULT:      -7.1      3.982      4.987
REMARK  3 active torsions:
REMARK  status: ('A' for Active; 'I' for Inactive)
REMARK    1  A    between atoms: C2_2  and  C4_3 
REMARK    2  A    between atoms: C2_2  and  C7_6 
REMARK    3  A    between atoms: C10_9  and  C11_10 
ROOT
ATOM      1  C7  ZIN A   1      18.090   0.676  10.244  0.00  0.00    -0.041 A 
ATOM      2  C8  ZIN A   1      16.969   0.115  10.827  0.00  0.00     0.009 A 
ATOM      3  C9  ZIN A   1      16.970  -0.198  12.172  0.00  0.00     0.016 A 
ATOM      4  C10 ZIN A   1      18.104   0.050  12.942  0.00  0.00     0.013 A 
ATOM      5  C17 ZIN A   1      19.233   0.616  12.348  0.00  0.00     0.128 A 
ATOM      6  F18 ZIN A   1      20.337   0.859  13.088  0.00  0.00    -0.205 F 
ATOM      7  C19 ZIN A   1      19.222   0.920  11.000  0.00  0.00     0.051 A 
ENDROOT
BRANCH   4   8
ATOM      8  C11 ZIN A   1      18.110  -0.284  14.387  0.00  0.00    -0.023 A 
ATOM      9  C16 ZIN A   1      18.831  -1.386  14.846  0.00  0.00     0.012 A 
ATOM     10  C15 ZIN A   1      18.839  -1.689  16.193  0.00  0.00     0.001 A 
ATOM     11  C14 ZIN A   1      18.124  -0.910  17.084  0.00  0.00     0.000 A 
ATOM     12  C13 ZIN A   1      17.402   0.180  16.633  0.00  0.00     0.001 A 
ATOM     13  C12 ZIN A   1      17.391   0.497  15.290  0.00  0.00     0.012 A 
ENDBRANCH   4   8
BRANCH   1  14
ATOM     14  C2  ZIN A   1      18.081   1.015   8.775  0.00  0.00     0.115 C 
ATOM     15  C1  ZIN A   1      19.313   1.859   8.439  0.00  0.00     0.026 C 
BRANCH  14  16
ATOM     16  C4  ZIN A   1      18.107  -0.256   7.966  0.00  0.00     0.181 C 
ATOM     17  O5  ZIN A   1      19.029  -1.042   8.095  0.00  0.00    -0.647 OA
ATOM     18  O6  ZIN A   1      17.204  -0.497   7.183  0.00  0.00    -0.647 OA
ENDBRANCH  14  16
ENDBRANCH   1  14
TORSDOF 3
ENDMDL
MODEL 5
REMARK VINA RESULT:      -6.9      3.291      6.365
REMARK  3 active torsions:
REMARK  status: ('A' for Active; 'I' for Inactive)
REMARK    1  A    between atoms: C2_2  and  C4_3 
REMARK    2  A    between atoms: C2_2  and  C7_6 
REMARK    3  A    between atoms: C10_9  and  C11_10 
ROOT
ATOM      1  C7  ZIN A   1      19.423   2.061  10.750  0.00  0.00    -0.041 A 
ATOM      2  C8  ZIN A   1      18.899   2.872   9.761  0.00  0.00     0.009 A 
ATOM      3  C9  ZIN A   1      18.634   2.355   8.509  0.00  0.00     0.016 A 
ATOM      4  C10 ZIN A   1      18.898   1.014   8.241  0.00  0.00     0.013 A 
ATOM      5  C17 ZIN A   1      19.428   0.200   9.243  0.00  0.00     0.128 A 
ATOM      6  F18 ZIN A   1      19.687  -1.102   8.990  0.00  0.00    -0.205 F 
ATOM      7  C19 ZIN A   1      19.694   0.730  10.491  0.00  0.00     0.051 A 
ENDROOT
BRANCH   4   8
ATOM      8  C11 ZIN A   1      18.615   0.454   6.896  0.00  0.00    -0.023 A 
ATOM      9  C16 ZIN A   1      17.478  -0.326   6.689  0.00  0.00     0.012 A 
ATOM     10  C15 ZIN A   1      17.217  -0.839   5.435  0.00  0.00     0.001 A 
ATOM     11  C14 ZIN A   1      18.086  -0.593   4.388  0.00  0.00     0.000 A 
ATOM     12  C13 ZIN A   1      19.219   0.175   4.590  0.00  0.00     0.001 A 
ATOM     13  C12 ZIN A   1      19.488   0.699   5.837  0.00  0.00     0.012 A 
ENDBRANCH   4   8
BRANCH   1  14
ATOM     14  C2  ZIN A   1      19.709   2.633  12.115  0.00  0.00     0.115 C 
ATOM     15  C1  ZIN A   1      19.350   4.120  12.131  0.00  0.00     0.026 C 
BRANCH  14  16
ATOM     16  C4  ZIN A   1      18.886   1.905  13.147  0.00  0.00     0.181 C 
ATOM     17  O5  ZIN A   1      17.672   2.014  13.145  0.00  0.00    -0.647 OA
ATOM     18  O6  ZIN A   1      19.434   1.208  13.983  0.00  0.00    -0.647 OA
ENDBRANCH  14  16
ENDBRANCH   1  14
TORSDOF 3
ENDMDL
MODEL 6
REMARK VINA RESULT:      -6.9      3.909      6.643
REMARK  3 active torsions:
REMARK  status: ('A' for Active; 'I' for Inactive)
REMARK    1  A    between atoms: C2_2  and  C4_3 
REMARK    2  A    between atoms: C2_2  and  C7_6 
REMARK    3  A    between atoms: C10_9  and  C11_10 
ROOT
ATOM      1  C7  ZIN A   1      19.076   0.953  12.974  0.00  0.00    -0.041 A 
ATOM      2  C8  ZIN A   1      17.946   1.527  12.421  0.00  0.00     0.009 A 
ATOM      3  C9  ZIN A   1      17.725   1.453  11.061  0.00  0.00     0.016 A 
ATOM      4  C10 ZIN A   1      18.644   0.800  10.242  0.00  0.00     0.013 A 
ATOM      5  C17 ZIN A   1      19.783   0.222  10.805  0.00  0.00     0.128 A 
ATOM      6  F18 ZIN A   1      20.679  -0.413  10.017  0.00  0.00    -0.205 F 
ATOM      7  C19 ZIN A   1      19.996   0.307  12.168  0.00  0.00     0.051 A 
ENDROOT
BRANCH   4   8
ATOM      8  C11 ZIN A   1      18.412   0.718   8.779  0.00  0.00    -0.023 A 
ATOM      9  C16 ZIN A   1      19.195   1.469   7.904  0.00  0.00     0.012 A 
ATOM     10  C15 ZIN A   1      18.979   1.384   6.543  0.00  0.00     0.001 A 
ATOM     11  C14 ZIN A   1      17.980   0.566   6.048  0.00  0.00     0.000 A 
ATOM     12  C13 ZIN A   1      17.196  -0.177   6.913  0.00  0.00     0.001 A 
ATOM     13  C12 ZIN A   1      17.406  -0.105   8.275  0.00  0.00     0.012 A 
ENDBRANCH   4   8
BRANCH   1  14
ATOM     14  C2  ZIN A   1      19.310   1.037  14.460  0.00  0.00     0.115 C 
ATOM     15  C1  ZIN A   1      18.692   2.328  15.002  0.00  0.00     0.026 C 
BRANCH  14  16
ATOM     16  C4  ZIN A   1      18.671  -0.148  15.137  0.00  0.00     0.181 C 
ATOM     17  O5  ZIN A   1      19.291  -1.191  15.254  0.00  0.00    -0.647 OA
ATOM     18  O6  ZIN A   1      17.534  -0.063  15.568  0.00  0.00    -0.647 OA
ENDBRANCH  14  16
ENDBRANCH   1  14
TORSDOF 3
ENDMDL
MODEL 7
REMARK VINA RESULT:      -6.7      1.913      2.883
REMARK  3 active torsions:
REMARK  status: ('A' for Active; 'I' for Inactive)
REMARK    1  A    between atoms: C2_2  and  C4_3 
REMARK    2  A    between atoms: C2_2  and  C7_6 
REMARK    3  A    between atoms: C10_9  and  C11_10 
ROOT
ATOM      1  C7  ZIN A   1      18.248   1.307   9.260  0.00  0.00    -0.041 A 
ATOM      2  C8  ZIN A   1      18.612   2.610   8.975  0.00  0.00     0.009 A 
ATOM      3  C9  ZIN A   1      18.499   3.589   9.942  0.00  0.00     0.016 A 
ATOM      4  C10 ZIN A   1      18.014   3.263  11.207  0.00  0.00     0.013 A 
ATOM      5  C17 ZIN A   1      17.647   1.946  11.489  0.00  0.00     0.128 A 
ATOM      6  F18 ZIN A   1      17.176   1.622  12.713  0.00  0.00    -0.205 F 
ATOM      7  C19 ZIN A   1      17.761   0.976  10.511  0.00  0.00     0.051 A 
ENDROOT
BRANCH   4   8
ATOM      8  C11 ZIN A   1      17.890   4.311  12.250  0.00  0.00    -0.023 A 
ATOM      9  C16 ZIN A   1      16.740   5.097  12.317  0.00  0.00     0.012 A 
ATOM     10  C15 ZIN A   1      16.627   6.066  13.293  0.00  0.00     0.001 A 
ATOM     11  C14 ZIN A   1      17.655   6.267  14.195  0.00  0.00     0.000 A 
ATOM     12  C13 ZIN A   1      18.800   5.493  14.129  0.00  0.00     0.001 A 
ATOM     13  C12 ZIN A   1      18.923   4.517  13.162  0.00  0.00     0.012 A 
ENDBRANCH   4   8
BRANCH   1  14
ATOM     14  C2  ZIN A   1      18.376   0.244   8.199  0.00  0.00     0.115 C 
ATOM     15  C1  ZIN A   1      18.877   0.878   6.899  0.00  0.00     0.026 C 
BRANCH  14  16
ATOM     16  C4  ZIN A   1      19.355  -0.806   8.656  0.00  0.00     0.181 C 
ATOM     17  O5  ZIN A   1      20.378  -0.477   9.232  0.00  0.00    -0.647 OA
ATOM     18  O6  ZIN A   1      19.125  -1.985   8.449  0.00  0.00    -0.647 OA
ENDBRANCH  14  16
ENDBRANCH   1  14
TORSDOF 3
ENDMDL
MODEL 8
REMARK VINA RESULT:      -6.7      4.104      7.195
REMARK  3 active torsions:
REMARK  status: ('A' for Active; 'I' for Inactive)
REMARK    1  A    between atoms: C2_2  and  C4_3 
REMARK    2  A    between atoms: C2_2  and  C7_6 
REMARK    3  A    between atoms: C10_9  and  C11_10 
ROOT
ATOM      1  C7  ZIN A   1      19.108   3.515  12.774  0.00  0.00    -0.041 A 
ATOM      2  C8  ZIN A   1      19.293   2.146  12.711  0.00  0.00     0.009 A 
ATOM      3  C9  ZIN A   1      19.077   1.470  11.527  0.00  0.00     0.016 A 
ATOM      4  C10 ZIN A   1      18.669   2.169  10.393  0.00  0.00     0.013 A 
ATOM      5  C17 ZIN A   1      18.482   3.551  10.462  0.00  0.00     0.128 A 
ATOM      6  F18 ZIN A   1      18.086   4.235   9.366  0.00  0.00    -0.205 F 
ATOM      7  C19 ZIN A   1      18.697   4.215  11.654  0.00  0.00     0.051 A 
ENDROOT
BRANCH   4   8
ATOM      8  C11 ZIN A   1      18.434   1.448   9.118  0.00  0.00    -0.023 A 
ATOM      9  C16 ZIN A   1      19.164   1.786   7.979  0.00  0.00     0.012 A 
ATOM     10  C15 ZIN A   1      18.947   1.108   6.797  0.00  0.00     0.001 A 
ATOM     11  C14 ZIN A   1      18.000   0.102   6.737  0.00  0.00     0.000 A 
ATOM     12  C13 ZIN A   1      17.269  -0.234   7.863  0.00  0.00     0.001 A 
ATOM     13  C12 ZIN A   1      17.481   0.433   9.052  0.00  0.00     0.012 A 
ENDBRANCH   4   8
BRANCH   1  14
ATOM     14  C2  ZIN A   1      19.346   4.246  14.070  0.00  0.00     0.115 C 
ATOM     15  C1  ZIN A   1      19.765   5.687  13.773  0.00  0.00     0.026 C 
BRANCH  14  16
ATOM     16  C4  ZIN A   1      18.079   4.249  14.886  0.00  0.00     0.181 C 
ATOM     17  O5  ZIN A   1      18.113   3.944  16.065  0.00  0.00    -0.647 OA
ATOM     18  O6  ZIN A   1      17.020   4.556  14.365  0.00  0.00    -0.647 OA
ENDBRANCH  14  16
ENDBRANCH   1  14
TORSDOF 3
ENDMDL
MODEL 9
REMARK VINA RESULT:      -6.6      3.161      6.676
REMARK  3 active torsions:
REMARK  status: ('A' for Active; 'I' for Inactive)
REMARK    1  A    between atoms: C2_2  and  C4_3 
REMARK    2  A    between atoms: C2_2  and  C7_6 
REMARK    3  A    between atoms: C10_9  and  C11_10 
ROOT
ATOM      1  C7  ZIN A   1      18.827   1.776   9.432  0.00  0.00    -0.041 A 
ATOM      2  C8  ZIN A   1      18.488   0.482   9.779  0.00  0.00     0.009 A 
ATOM      3  C9  ZIN A   1      18.407  -0.498   8.810  0.00  0.00     0.016 A 
ATOM      4  C10 ZIN A   1      18.667  -0.181   7.479  0.00  0.00     0.013 A 
ATOM      5  C17 ZIN A   1      19.009   1.128   7.133  0.00  0.00     0.128 A 
ATOM      6  F18 ZIN A   1      19.262   1.443   5.844  0.00  0.00    -0.205 F 
ATOM      7  C19 ZIN A   1      19.081   2.101   8.112  0.00  0.00     0.051 A 
ENDROOT
BRANCH   4   8
ATOM      8  C11 ZIN A   1      18.582  -1.230   6.433  0.00  0.00    -0.023 A 
ATOM      9  C16 ZIN A   1      19.327  -2.402   6.557  0.00  0.00     0.012 A 
ATOM     10  C15 ZIN A   1      19.239  -3.377   5.584  0.00  0.00     0.001 A 
ATOM     11  C14 ZIN A   1      18.424  -3.189   4.483  0.00  0.00     0.000 A 
ATOM     12  C13 ZIN A   1      17.687  -2.025   4.353  0.00  0.00     0.001 A 
ATOM     13  C12 ZIN A   1      17.762  -1.046   5.321  0.00  0.00     0.012 A 
ENDBRANCH   4   8
BRANCH   1  14
ATOM     14  C2  ZIN A   1      18.914   2.841  10.496  0.00  0.00     0.115 C 
ATOM     15  C1  ZIN A   1      18.119   4.071  10.052  0.00  0.00     0.026 C 
BRANCH  14  16
ATOM     16  C4  ZIN A   1      18.341   2.310  11.785  0.00  0.00     0.181 C 
ATOM     17  O5  ZIN A   1      19.083   2.002  12.701  0.00  0.00    -0.647 OA
ATOM     18  O6  ZIN A   1      17.134   2.188  11.910  0.00  0.00    -0.647 OA
ENDBRANCH  14  16
ENDBRANCH   1  14
TORSDOF 3
ENDMDL
