MODEL 1
REMARK VINA RESULT:      -4.3      0.000      0.000
REMARK  4 active torsions:
REMARK  status: ('A' for Active; 'I' for Inactive)
REMARK    1  A    between atoms: C2_2  and  C4_3 
REMARK    2  A    between atoms: C2_2  and  O9_8 
REMARK    3  A    between atoms: C4_3  and  N5_4 
REMARK    4  A    between atoms: O9_8  and  C10_9 
REMARK       I    between atoms: C10_9  and  N11_10 
ROOT
ATOM      1  C1  <0> d   1      18.174   3.559  10.354  0.00  0.00     0.042 C 
ATOM      2  C2  <0> d   1      18.838   2.181  10.372  0.00  0.00     0.155 C 
ENDROOT
BRANCH   2   3
ATOM      3  C4  <0> d   1      19.318   1.828   8.962  0.00  0.00     0.268 C 
BRANCH   3   4
ATOM      4  N5  <0> d   1      18.741   0.540   8.556  0.00  0.00    -0.076 N 
ATOM      5  C6  <0> d   1      18.412   0.578   7.126  0.00  0.00     0.271 C 
ATOM      6  C7  <0> d   1      19.714  -0.532   8.806  0.00  0.00     0.271 C 
ATOM      7  C8  <0> d   1      17.521   0.284   9.333  0.00  0.00     0.271 C 
ENDBRANCH   3   4
ENDBRANCH   2   3
BRANCH   2   8
ATOM      8  O9  <0> d   1      19.973   2.201  11.278  0.00  0.00    -0.297 OA
BRANCH   8   9
ATOM      9  C10 <0> d   1      20.214   1.078  11.978  0.00  0.00     0.358 C 
ATOM     10  N11 <0> d   1      21.482   0.658  12.162  0.00  0.00    -0.346 N 
ATOM     11  H27 <0> d   1      22.219   1.166  11.791  0.00  0.00     0.161 HD
ATOM     12  H28 <0> d   1      21.656  -0.152  12.667  0.00  0.00     0.161 HD
ATOM     13  O12 <0> d   1      19.290   0.441  12.444  0.00  0.00    -0.239 OA
ENDBRANCH   8   9
ENDBRANCH   2   8
TORSDOF 4
ENDMDL
MODEL 2
REMARK VINA RESULT:      -4.3      3.655      4.618
REMARK  4 active torsions:
REMARK  status: ('A' for Active; 'I' for Inactive)
REMARK    1  A    between atoms: C2_2  and  C4_3 
REMARK    2  A    between atoms: C2_2  and  O9_8 
REMARK    3  A    between atoms: C4_3  and  N5_4 
REMARK    4  A    between atoms: O9_8  and  C10_9 
REMARK       I    between atoms: C10_9  and  N11_10 
ROOT
ATOM      1  C1  <0> d   1      19.334  -1.401  13.827  0.00  0.00     0.042 C 
ATOM      2  C2  <0> d   1      19.354  -1.818  12.355  0.00  0.00     0.155 C 
ENDROOT
BRANCH   2   3
ATOM      3  C4  <0> d   1      18.123  -2.676  12.051  0.00  0.00     0.268 C 
BRANCH   3   4
ATOM      4  N5  <0> d   1      18.530  -3.860  11.282  0.00  0.00    -0.076 N 
ATOM      5  C6  <0> d   1      19.966  -4.100  11.474  0.00  0.00     0.271 C 
ATOM      6  C7  <0> d   1      17.772  -5.029  11.746  0.00  0.00     0.271 C 
ATOM      7  C8  <0> d   1      18.257  -3.634   9.856  0.00  0.00     0.271 C 
ENDBRANCH   3   4
ENDBRANCH   2   3
BRANCH   2   8
ATOM      8  O9  <0> d   1      19.336  -0.633  11.515  0.00  0.00    -0.297 OA
BRANCH   8   9
ATOM      9  C10 <0> d   1      20.309  -0.525  10.592  0.00  0.00     0.358 C 
ATOM     10  N11 <0> d   1      21.603  -0.586  10.966  0.00  0.00    -0.346 N 
ATOM     11  H27 <0> d   1      21.831  -0.709  11.900  0.00  0.00     0.161 HD
ATOM     12  H28 <0> d   1      22.303  -0.508  10.301  0.00  0.00     0.161 HD
ATOM     13  O12 <0> d   1      20.022  -0.371   9.421  0.00  0.00    -0.239 OA
ENDBRANCH   8   9
ENDBRANCH   2   8
TORSDOF 4
ENDMDL
MODEL 3
REMARK VINA RESULT:      -4.3      2.293      3.969
REMARK  4 active torsions:
REMARK  status: ('A' for Active; 'I' for Inactive)
REMARK    1  A    between atoms: C2_2  and  C4_3 
REMARK    2  A    between atoms: C2_2  and  O9_8 
REMARK    3  A    between atoms: C4_3  and  N5_4 
REMARK    4  A    between atoms: O9_8  and  C10_9 
REMARK       I    between atoms: C10_9  and  N11_10 
ROOT
ATOM      1  C1  <0> d   1      18.968   2.288   9.632  0.00  0.00     0.042 C 
ATOM      2  C2  <0> d   1      19.090   2.227  11.155  0.00  0.00     0.155 C 
ENDROOT
BRANCH   2   3
ATOM      3  C4  <0> d   1      17.791   2.727  11.792  0.00  0.00     0.268 C 
BRANCH   3   4
ATOM      4  N5  <0> d   1      18.092   3.821  12.724  0.00  0.00    -0.076 N 
ATOM      5  C6  <0> d   1      17.149   4.925  12.507  0.00  0.00     0.271 C 
ATOM      6  C7  <0> d   1      17.968   3.336  14.105  0.00  0.00     0.271 C 
ATOM      7  C8  <0> d   1      19.464   4.296  12.495  0.00  0.00     0.271 C 
ENDBRANCH   3   4
ENDBRANCH   2   3
BRANCH   2   8
ATOM      8  O9  <0> d   1      19.333   0.855  11.568  0.00  0.00    -0.297 OA
BRANCH   8   9
ATOM      9  C10 <0> d   1      20.301   0.655  12.481  0.00  0.00     0.358 C 
ATOM     10  N11 <0> d   1      21.592   0.612  12.095  0.00  0.00    -0.346 N 
ATOM     11  H27 <0> d   1      21.823   0.725  11.161  0.00  0.00     0.161 HD
ATOM     12  H28 <0> d   1      22.289   0.467  12.753  0.00  0.00     0.161 HD
ATOM     13  O12 <0> d   1      20.011   0.512  13.652  0.00  0.00    -0.239 OA
ENDBRANCH   8   9
ENDBRANCH   2   8
TORSDOF 4
ENDMDL
MODEL 4
REMARK VINA RESULT:      -4.3      1.951      3.225
REMARK  4 active torsions:
REMARK  status: ('A' for Active; 'I' for Inactive)
REMARK    1  A    between atoms: C2_2  and  C4_3 
REMARK    2  A    between atoms: C2_2  and  O9_8 
REMARK    3  A    between atoms: C4_3  and  N5_4 
REMARK    4  A    between atoms: O9_8  and  C10_9 
REMARK       I    between atoms: C10_9  and  N11_10 
ROOT
ATOM      1  C1  <0> d   1      19.369   1.517   8.209  0.00  0.00     0.042 C 
ATOM      2  C2  <0> d   1      19.316   1.262   9.716  0.00  0.00     0.155 C 
ENDROOT
BRANCH   2   3
ATOM      3  C4  <0> d   1      17.973   1.746  10.268  0.00  0.00     0.268 C 
BRANCH   3   4
ATOM      4  N5  <0> d   1      18.207   2.738  11.326  0.00  0.00    -0.076 N 
ATOM      5  C6  <0> d   1      19.627   3.109  11.344  0.00  0.00     0.271 C 
ATOM      6  C7  <0> d   1      17.392   3.932  11.066  0.00  0.00     0.271 C 
ATOM      7  C8  <0> d   1      17.834   2.165  12.626  0.00  0.00     0.271 C 
ENDBRANCH   3   4
ENDBRANCH   2   3
BRANCH   2   8
ATOM      8  O9  <0> d   1      19.459  -0.160   9.973  0.00  0.00    -0.297 OA
BRANCH   8   9
ATOM      9  C10 <0> d   1      20.212  -0.517  11.030  0.00  0.00     0.358 C 
ATOM     10  N11 <0> d   1      21.555  -0.553  10.920  0.00  0.00    -0.346 N 
ATOM     11  H27 <0> d   1      21.978  -0.321  10.080  0.00  0.00     0.161 HD
ATOM     12  H28 <0> d   1      22.096  -0.810  11.682  0.00  0.00     0.161 HD
ATOM     13  O12 <0> d   1      19.681  -0.808  12.084  0.00  0.00    -0.239 OA
ENDBRANCH   8   9
ENDBRANCH   2   8
TORSDOF 4
ENDMDL
MODEL 5
REMARK VINA RESULT:      -4.2      1.365      2.178
REMARK  4 active torsions:
REMARK  status: ('A' for Active; 'I' for Inactive)
REMARK    1  A    between atoms: C2_2  and  C4_3 
REMARK    2  A    between atoms: C2_2  and  O9_8 
REMARK    3  A    between atoms: C4_3  and  N5_4 
REMARK    4  A    between atoms: O9_8  and  C10_9 
REMARK       I    between atoms: C10_9  and  N11_10 
ROOT
ATOM      1  C1  <0> d   1      17.263  -0.333  12.033  0.00  0.00     0.042 C 
ATOM      2  C2  <0> d   1      18.451   0.244  11.262  0.00  0.00     0.155 C 
ENDROOT
BRANCH   2   3
ATOM      3  C4  <0> d   1      17.940   1.047  10.063  0.00  0.00     0.268 C 
BRANCH   3   4
ATOM      4  N5  <0> d   1      18.561   0.539   8.833  0.00  0.00    -0.076 N 
ATOM      5  C6  <0> d   1      19.542  -0.499   9.171  0.00  0.00     0.271 C 
ATOM      6  C7  <0> d   1      17.525  -0.031   7.961  0.00  0.00     0.271 C 
ATOM      7  C8  <0> d   1      19.235   1.642   8.134  0.00  0.00     0.271 C 
ENDBRANCH   3   4
ENDBRANCH   2   3
BRANCH   2   8
ATOM      8  O9  <0> d   1      19.219   1.115  12.135  0.00  0.00    -0.297 OA
BRANCH   8   9
ATOM      9  C10 <0> d   1      20.302   0.581  12.729  0.00  0.00     0.358 C 
ATOM     10  N11 <0> d   1      21.487   0.572  12.086  0.00  0.00    -0.346 N 
ATOM     11  H27 <0> d   1      21.559   0.949  11.196  0.00  0.00     0.161 HD
ATOM     12  H28 <0> d   1      22.268   0.187  12.514  0.00  0.00     0.161 HD
ATOM     13  O12 <0> d   1      20.213   0.108  13.844  0.00  0.00    -0.239 OA
ENDBRANCH   8   9
ENDBRANCH   2   8
TORSDOF 4
ENDMDL
MODEL 6
REMARK VINA RESULT:      -4.1      2.271      3.596
REMARK  4 active torsions:
REMARK  status: ('A' for Active; 'I' for Inactive)
REMARK    1  A    between atoms: C2_2  and  C4_3 
REMARK    2  A    between atoms: C2_2  and  O9_8 
REMARK    3  A    between atoms: C4_3  and  N5_4 
REMARK    4  A    between atoms: O9_8  and  C10_9 
REMARK       I    between atoms: C10_9  and  N11_10 
ROOT
ATOM      1  C1  <0> d   1      17.022  -0.438  11.702  0.00  0.00     0.042 C 
ATOM      2  C2  <0> d   1      18.191   0.513  11.438  0.00  0.00     0.155 C 
ENDROOT
BRANCH   2   3
ATOM      3  C4  <0> d   1      18.051   1.752  12.325  0.00  0.00     0.268 C 
BRANCH   3   4
ATOM      4  N5  <0> d   1      18.279   2.959  11.520  0.00  0.00    -0.076 N 
ATOM      5  C6  <0> d   1      17.966   2.676  10.113  0.00  0.00     0.271 C 
ATOM      6  C7  <0> d   1      17.413   4.041  12.006  0.00  0.00     0.271 C 
ATOM      7  C8  <0> d   1      19.685   3.368  11.637  0.00  0.00     0.271 C 
ENDBRANCH   3   4
ENDBRANCH   2   3
BRANCH   2   8
ATOM      8  O9  <0> d   1      19.442  -0.160  11.741  0.00  0.00    -0.297 OA
BRANCH   8   9
ATOM      9  C10 <0> d   1      20.318  -0.305  10.729  0.00  0.00     0.358 C 
ATOM     10  N11 <0> d   1      21.600  -0.629  10.989  0.00  0.00    -0.346 N 
ATOM     11  H27 <0> d   1      21.891  -0.757  11.905  0.00  0.00     0.161 HD
ATOM     12  H28 <0> d   1      22.231  -0.733  10.261  0.00  0.00     0.161 HD
ATOM     13  O12 <0> d   1      19.953  -0.144   9.581  0.00  0.00    -0.239 OA
ENDBRANCH   8   9
ENDBRANCH   2   8
TORSDOF 4
ENDMDL
MODEL 7
REMARK VINA RESULT:      -4.0      2.459      3.751
REMARK  4 active torsions:
REMARK  status: ('A' for Active; 'I' for Inactive)
REMARK    1  A    between atoms: C2_2  and  C4_3 
REMARK    2  A    between atoms: C2_2  and  O9_8 
REMARK    3  A    between atoms: C4_3  and  N5_4 
REMARK    4  A    between atoms: O9_8  and  C10_9 
REMARK       I    between atoms: C10_9  and  N11_10 
ROOT
ATOM      1  C1  <0> d   1      19.180   1.905   8.307  0.00  0.00     0.042 C 
ATOM      2  C2  <0> d   1      18.601   2.001   9.720  0.00  0.00     0.155 C 
ENDROOT
BRANCH   2   3
ATOM      3  C4  <0> d   1      19.325   1.012  10.636  0.00  0.00     0.268 C 
BRANCH   3   4
ATOM      4  N5  <0> d   1      18.338   0.246  11.407  0.00  0.00    -0.076 N 
ATOM      5  C6  <0> d   1      18.112   0.900  12.703  0.00  0.00     0.271 C 
ATOM      6  C7  <0> d   1      17.074   0.186  10.662  0.00  0.00     0.271 C 
ATOM      7  C8  <0> d   1      18.840  -1.117  11.628  0.00  0.00     0.271 C 
ENDBRANCH   3   4
ENDBRANCH   2   3
BRANCH   2   8
ATOM      8  O9  <0> d   1      18.779   3.350  10.226  0.00  0.00    -0.297 OA
BRANCH   8   9
ATOM      9  C10 <0> d   1      17.668   4.090  10.396  0.00  0.00     0.358 C 
ATOM     10  N11 <0> d   1      17.515   5.242   9.712  0.00  0.00    -0.346 N 
ATOM     11  H27 <0> d   1      18.205   5.536   9.098  0.00  0.00     0.161 HD
ATOM     12  H28 <0> d   1      16.715   5.775   9.834  0.00  0.00     0.161 HD
ATOM     13  O12 <0> d   1      16.803   3.722  11.165  0.00  0.00    -0.239 OA
ENDBRANCH   8   9
ENDBRANCH   2   8
TORSDOF 4
ENDMDL
MODEL 8
REMARK VINA RESULT:      -4.0      2.784      3.574
REMARK  4 active torsions:
REMARK  status: ('A' for Active; 'I' for Inactive)
REMARK    1  A    between atoms: C2_2  and  C4_3 
REMARK    2  A    between atoms: C2_2  and  O9_8 
REMARK    3  A    between atoms: C4_3  and  N5_4 
REMARK    4  A    between atoms: O9_8  and  C10_9 
REMARK       I    between atoms: C10_9  and  N11_10 
ROOT
ATOM      1  C1  <0> d   1      17.446   0.019  10.063  0.00  0.00     0.042 C 
ATOM      2  C2  <0> d   1      18.601  -0.559  10.882  0.00  0.00     0.155 C 
ENDROOT
BRANCH   2   3
ATOM      3  C4  <0> d   1      18.968  -1.942  10.341  0.00  0.00     0.268 C 
BRANCH   3   4
ATOM      4  N5  <0> d   1      18.687  -2.959  11.363  0.00  0.00    -0.076 N 
ATOM      5  C6  <0> d   1      19.784  -3.934  11.400  0.00  0.00     0.271 C 
ATOM      6  C7  <0> d   1      18.563  -2.312  12.676  0.00  0.00     0.271 C 
ATOM      7  C8  <0> d   1      17.430  -3.647  11.036  0.00  0.00     0.271 C 
ENDBRANCH   3   4
ENDBRANCH   2   3
BRANCH   2   8
ATOM      8  O9  <0> d   1      19.752   0.320  10.784  0.00  0.00    -0.297 OA
BRANCH   8   9
ATOM      9  C10 <0> d   1      20.285   0.760  11.939  0.00  0.00     0.358 C 
ATOM     10  N11 <0> d   1      21.607   0.624  12.166  0.00  0.00    -0.346 N 
ATOM     11  H27 <0> d   1      22.174   0.210  11.497  0.00  0.00     0.161 HD
ATOM     12  H28 <0> d   1      21.991   0.940  12.998  0.00  0.00     0.161 HD
ATOM     13  O12 <0> d   1      19.575   1.277  12.778  0.00  0.00    -0.239 OA
ENDBRANCH   8   9
ENDBRANCH   2   8
TORSDOF 4
ENDMDL
MODEL 9
REMARK VINA RESULT:      -4.0      2.476      3.955
REMARK  4 active torsions:
REMARK  status: ('A' for Active; 'I' for Inactive)
REMARK    1  A    between atoms: C2_2  and  C4_3 
REMARK    2  A    between atoms: C2_2  and  O9_8 
REMARK    3  A    between atoms: C4_3  and  N5_4 
REMARK    4  A    between atoms: O9_8  and  C10_9 
REMARK       I    between atoms: C10_9  and  N11_10 
ROOT
ATOM      1  C1  <0> d   1      19.681   2.916  11.365  0.00  0.00     0.042 C 
ATOM      2  C2  <0> d   1      19.560   1.421  11.666  0.00  0.00     0.155 C 
ENDROOT
BRANCH   2   3
ATOM      3  C4  <0> d   1      18.215   1.143  12.340  0.00  0.00     0.268 C 
BRANCH   3   4
ATOM      4  N5  <0> d   1      18.431   0.342  13.552  0.00  0.00    -0.076 N 
ATOM      5  C6  <0> d   1      17.581   0.852  14.636  0.00  0.00     0.271 C 
ATOM      6  C7  <0> d   1      18.088  -1.060  13.280  0.00  0.00     0.271 C 
ATOM      7  C8  <0> d   1      19.842   0.432  13.953  0.00  0.00     0.271 C 
ENDBRANCH   3   4
ENDBRANCH   2   3
BRANCH   2   8
ATOM      8  O9  <0> d   1      19.644   0.669  10.426  0.00  0.00    -0.297 OA
BRANCH   8   9
ATOM      9  C10 <0> d   1      20.277  -0.517  10.473  0.00  0.00     0.358 C 
ATOM     10  N11 <0> d   1      21.550  -0.584  10.911  0.00  0.00    -0.346 N 
ATOM     11  H27 <0> d   1      22.009   0.222  11.193  0.00  0.00     0.161 HD
ATOM     12  H28 <0> d   1      22.007  -1.439  10.945  0.00  0.00     0.161 HD
ATOM     13  O12 <0> d   1      19.703  -1.528  10.120  0.00  0.00    -0.239 OA
ENDBRANCH   8   9
ENDBRANCH   2   8
TORSDOF 4
ENDMDL
