MODEL 1
REMARK VINA RESULT:      -8.3      0.000      0.000
REMARK  2 active torsions:
REMARK  status: ('A' for Active; 'I' for Inactive)
REMARK    1  A    between atoms: C3_3  and  O4_4 
REMARK    2  A    between atoms: C25_21  and  C26_22 
ROOT
ATOM      1  C1  ZIN A   1      17.009   3.614  11.300  0.00  0.00     0.015 C 
ATOM      2  C2  ZIN A   1      17.980   3.079  10.913  0.00  0.00    -0.078 C 
ATOM      3  C3  ZIN A   1      19.198   2.408  10.428  0.00  0.00     0.128 C 
ATOM      4  C5  ZIN A   1      19.346   2.605   8.900  0.00  0.00     0.052 C 
ATOM      5  C6  ZIN A   1      19.235   1.194   8.263  0.00  0.00     0.010 C 
ATOM      6  C7  ZIN A   1      18.446   0.400   9.313  0.00  0.00     0.003 C 
ATOM      7  C9  ZIN A   1      18.611  -1.105   9.246  0.00  0.00    -0.000 C 
ATOM      8  C11 ZIN A   1      18.139  -1.656   7.902  0.00  0.00     0.010 C 
ATOM      9  C12 ZIN A   1      18.404  -3.166   7.860  0.00  0.00     0.034 C 
ATOM     10  C13 ZIN A   1      17.745  -3.812   9.066  0.00  0.00    -0.079 C 
ATOM     11  C14 ZIN A   1      16.984  -4.848   8.868  0.00  0.00    -0.024 C 
ATOM     12  C15 ZIN A   1      16.271  -5.570   9.974  0.00  0.00     0.027 C 
ATOM     13  C16 ZIN A   1      17.037  -5.361  11.284  0.00  0.00     0.004 C 
ATOM     14  C17 ZIN A   1      17.185  -3.858  11.521  0.00  0.00     0.010 C 
ATOM     15  C18 ZIN A   1      18.014  -3.221  10.421  0.00  0.00     0.023 C 
ATOM     16  C20 ZIN A   1      17.758  -1.715  10.372  0.00  0.00     0.026 C 
ATOM     17  C22 ZIN A   1      18.112  -1.077  11.690  0.00  0.00    -0.083 C 
ATOM     18  C23 ZIN A   1      18.325  -1.819  12.749  0.00  0.00     0.015 C 
ATOM     19  C24 ZIN A   1      18.223   0.439  11.781  0.00  0.00     0.047 C 
ATOM     20  C25 ZIN A   1      19.087   0.899  10.636  0.00  0.00     0.009 C 
ENDROOT
BRANCH   3  21
ATOM     21  O4  ZIN A   1      20.347   2.919  11.108  0.00  0.00    -0.377 OA
ATOM     22  H29 ZIN A   1      20.338   3.877  11.231  0.00  0.00     0.211 HD
ENDBRANCH   3  21
BRANCH  20  23
ATOM     23  C26 ZIN A   1      20.479   0.274  10.753  0.00  0.00     0.010 C 
ATOM     24  C27 ZIN A   1      21.006   0.463  12.177  0.00  0.00     0.006 C 
ENDBRANCH  20  23
TORSDOF 2
ENDMDL
MODEL 2
REMARK VINA RESULT:      -8.2      2.390      6.566
REMARK  2 active torsions:
REMARK  status: ('A' for Active; 'I' for Inactive)
REMARK    1  A    between atoms: C3_3  and  O4_4 
REMARK    2  A    between atoms: C25_21  and  C26_22 
ROOT
ATOM      1  C1  ZIN A   1      15.046  -5.883   8.460  0.00  0.00     0.015 C 
ATOM      2  C2  ZIN A   1      16.078  -5.832   9.017  0.00  0.00    -0.078 C 
ATOM      3  C3  ZIN A   1      17.373  -5.768   9.716  0.00  0.00     0.128 C 
ATOM      4  C5  ZIN A   1      17.165  -5.908  11.243  0.00  0.00     0.052 C 
ATOM      5  C6  ZIN A   1      17.624  -4.567  11.873  0.00  0.00     0.010 C 
ATOM      6  C7  ZIN A   1      17.477  -3.570  10.715  0.00  0.00     0.003 C 
ATOM      7  C9  ZIN A   1      18.311  -2.311  10.833  0.00  0.00    -0.000 C 
ATOM      8  C11 ZIN A   1      17.942  -1.515  12.084  0.00  0.00     0.010 C 
ATOM      9  C12 ZIN A   1      18.870  -0.300  12.195  0.00  0.00     0.034 C 
ATOM     10  C13 ZIN A   1      18.792   0.495  10.903  0.00  0.00    -0.079 C 
ATOM     11  C14 ZIN A   1      18.581   1.776  10.982  0.00  0.00    -0.024 C 
ATOM     12  C15 ZIN A   1      18.475   2.670   9.781  0.00  0.00     0.027 C 
ATOM     13  C16 ZIN A   1      19.254   2.043   8.621  0.00  0.00     0.004 C 
ATOM     14  C17 ZIN A   1      18.719   0.630   8.389  0.00  0.00     0.010 C 
ATOM     15  C18 ZIN A   1      18.967  -0.243   9.606  0.00  0.00     0.023 C 
ATOM     16  C20 ZIN A   1      18.034  -1.453   9.586  0.00  0.00     0.026 C 
ATOM     17  C22 ZIN A   1      18.256  -2.270   8.340  0.00  0.00    -0.083 C 
ATOM     18  C23 ZIN A   1      18.956  -1.782   7.345  0.00  0.00     0.015 C 
ATOM     19  C24 ZIN A   1      17.659  -3.667   8.246  0.00  0.00     0.047 C 
ATOM     20  C25 ZIN A   1      18.013  -4.397   9.515  0.00  0.00     0.009 C 
ENDROOT
BRANCH   3  21
ATOM     21  O4  ZIN A   1      18.243  -6.796   9.237  0.00  0.00    -0.377 OA
ATOM     22  H29 ZIN A   1      19.079  -6.859   9.717  0.00  0.00     0.211 HD
ENDBRANCH   3  21
BRANCH  20  23
ATOM     23  C26 ZIN A   1      19.535  -4.495   9.651  0.00  0.00     0.010 C 
ATOM     24  C27 ZIN A   1      20.120  -5.133   8.389  0.00  0.00     0.006 C 
ENDBRANCH  20  23
TORSDOF 2
ENDMDL
MODEL 3
REMARK VINA RESULT:      -7.9      2.174      6.679
REMARK  2 active torsions:
REMARK  status: ('A' for Active; 'I' for Inactive)
REMARK    1  A    between atoms: C3_3  and  O4_4 
REMARK    2  A    between atoms: C25_21  and  C26_22 
ROOT
ATOM      1  C1  ZIN A   1      17.079  -3.511  11.448  0.00  0.00     0.015 C 
ATOM      2  C2  ZIN A   1      18.069  -2.945  11.731  0.00  0.00    -0.078 C 
ATOM      3  C3  ZIN A   1      19.310  -2.236  12.085  0.00  0.00     0.128 C 
ATOM      4  C5  ZIN A   1      19.594  -2.377  13.600  0.00  0.00     0.052 C 
ATOM      5  C6  ZIN A   1      19.510  -0.947  14.196  0.00  0.00     0.010 C 
ATOM      6  C7  ZIN A   1      18.617  -0.204  13.194  0.00  0.00     0.003 C 
ATOM      7  C9  ZIN A   1      18.756   1.305  13.196  0.00  0.00    -0.000 C 
ATOM      8  C11 ZIN A   1      18.391   1.895  14.557  0.00  0.00     0.010 C 
ATOM      9  C12 ZIN A   1      18.627   3.409  14.526  0.00  0.00     0.034 C 
ATOM     10  C13 ZIN A   1      17.853   4.001  13.361  0.00  0.00    -0.079 C 
ATOM     11  C14 ZIN A   1      17.091   5.030  13.590  0.00  0.00    -0.024 C 
ATOM     12  C15 ZIN A   1      16.269   5.700  12.527  0.00  0.00     0.027 C 
ATOM     13  C16 ZIN A   1      16.923   5.459  11.164  0.00  0.00     0.004 C 
ATOM     14  C17 ZIN A   1      17.081   3.952  10.964  0.00  0.00     0.010 C 
ATOM     15  C18 ZIN A   1      18.015   3.368  12.008  0.00  0.00     0.023 C 
ATOM     16  C20 ZIN A   1      17.795   1.860  12.129  0.00  0.00     0.026 C 
ATOM     17  C22 ZIN A   1      18.047   1.183  10.807  0.00  0.00    -0.083 C 
ATOM     18  C23 ZIN A   1      18.151   1.891   9.710  0.00  0.00     0.015 C 
ATOM     19  C24 ZIN A   1      18.180  -0.333  10.758  0.00  0.00     0.047 C 
ATOM     20  C25 ZIN A   1      19.150  -0.738  11.837  0.00  0.00     0.009 C 
ENDROOT
BRANCH   3  21
ATOM     21  O4  ZIN A   1      20.406  -2.750  11.324  0.00  0.00    -0.377 OA
ATOM     22  H29 ZIN A   1      20.141  -3.257  10.545  0.00  0.00     0.211 HD
ENDBRANCH   3  21
BRANCH  20  23
ATOM     23  C26 ZIN A   1      20.514  -0.093  11.578  0.00  0.00     0.010 C 
ATOM     24  C27 ZIN A   1      20.894  -0.276  10.107  0.00  0.00     0.006 C 
ENDBRANCH  20  23
TORSDOF 2
ENDMDL
MODEL 4
REMARK VINA RESULT:      -7.7      3.632      6.170
REMARK  2 active torsions:
REMARK  status: ('A' for Active; 'I' for Inactive)
REMARK    1  A    between atoms: C3_3  and  O4_4 
REMARK    2  A    between atoms: C25_21  and  C26_22 
ROOT
ATOM      1  C1  ZIN A   1      21.754   5.993  15.279  0.00  0.00     0.015 C 
ATOM      2  C2  ZIN A   1      20.623   5.737  15.462  0.00  0.00    -0.078 C 
ATOM      3  C3  ZIN A   1      19.204   5.416  15.691  0.00  0.00     0.128 C 
ATOM      4  C5  ZIN A   1      19.059   4.463  16.902  0.00  0.00     0.052 C 
ATOM      5  C6  ZIN A   1      18.480   3.135  16.348  0.00  0.00     0.010 C 
ATOM      6  C7  ZIN A   1      18.895   3.164  14.871  0.00  0.00     0.003 C 
ATOM      7  C9  ZIN A   1      18.067   2.295  13.947  0.00  0.00    -0.000 C 
ATOM      8  C11 ZIN A   1      18.149   0.823  14.347  0.00  0.00     0.010 C 
ATOM      9  C12 ZIN A   1      17.230   0.003  13.433  0.00  0.00     0.034 C 
ATOM     10  C13 ZIN A   1      17.607   0.280  11.987  0.00  0.00    -0.079 C 
ATOM     11  C14 ZIN A   1      17.805  -0.736  11.200  0.00  0.00    -0.024 C 
ATOM     12  C15 ZIN A   1      18.189  -0.597   9.755  0.00  0.00     0.027 C 
ATOM     13  C16 ZIN A   1      17.688   0.753   9.233  0.00  0.00     0.004 C 
ATOM     14  C17 ZIN A   1      18.249   1.856  10.130  0.00  0.00     0.010 C 
ATOM     15  C18 ZIN A   1      17.724   1.712  11.548  0.00  0.00     0.023 C 
ATOM     16  C20 ZIN A   1      18.627   2.465  12.524  0.00  0.00     0.026 C 
ATOM     17  C22 ZIN A   1      18.686   3.927  12.166  0.00  0.00    -0.083 C 
ATOM     18  C23 ZIN A   1      18.234   4.344  11.009  0.00  0.00     0.015 C 
ATOM     19  C24 ZIN A   1      19.277   4.917  13.161  0.00  0.00     0.047 C 
ATOM     20  C25 ZIN A   1      18.638   4.649  14.498  0.00  0.00     0.009 C 
ENDROOT
BRANCH   3  21
ATOM     21  O4  ZIN A   1      18.457   6.615  15.910  0.00  0.00    -0.377 OA
ATOM     22  H29 ZIN A   1      18.360   6.854  16.841  0.00  0.00     0.211 HD
ENDBRANCH   3  21
BRANCH  20  23
ATOM     23  C26 ZIN A   1      17.124   4.857  14.402  0.00  0.00     0.010 C 
ATOM     24  C27 ZIN A   1      16.835   6.176  13.682  0.00  0.00     0.006 C 
ENDBRANCH  20  23
TORSDOF 2
ENDMDL
MODEL 5
REMARK VINA RESULT:      -7.6      2.777      6.063
REMARK  2 active torsions:
REMARK  status: ('A' for Active; 'I' for Inactive)
REMARK    1  A    between atoms: C3_3  and  O4_4 
REMARK    2  A    between atoms: C25_21  and  C26_22 
ROOT
ATOM      1  C1  ZIN A   1      21.939  -5.726   7.740  0.00  0.00     0.015 C 
ATOM      2  C2  ZIN A   1      20.796  -5.530   7.555  0.00  0.00    -0.078 C 
ATOM      3  C3  ZIN A   1      19.363  -5.284   7.322  0.00  0.00     0.128 C 
ATOM      4  C5  ZIN A   1      19.168  -4.396   6.070  0.00  0.00     0.052 C 
ATOM      5  C6  ZIN A   1      18.532  -3.071   6.567  0.00  0.00     0.010 C 
ATOM      6  C7  ZIN A   1      18.957  -3.013   8.040  0.00  0.00     0.003 C 
ATOM      7  C9  ZIN A   1      18.095  -2.140   8.930  0.00  0.00    -0.000 C 
ATOM      8  C11 ZIN A   1      18.108  -0.686   8.461  0.00  0.00     0.010 C 
ATOM      9  C12 ZIN A   1      17.158   0.133   9.344  0.00  0.00     0.034 C 
ATOM     10  C13 ZIN A   1      17.555  -0.058  10.797  0.00  0.00    -0.079 C 
ATOM     11  C14 ZIN A   1      17.712   1.001  11.535  0.00  0.00    -0.024 C 
ATOM     12  C15 ZIN A   1      18.110   0.947  12.982  0.00  0.00     0.027 C 
ATOM     13  C16 ZIN A   1      17.674  -0.399  13.570  0.00  0.00     0.004 C 
ATOM     14  C17 ZIN A   1      18.279  -1.516  12.720  0.00  0.00     0.010 C 
ATOM     15  C18 ZIN A   1      17.740  -1.462  11.302  0.00  0.00     0.023 C 
ATOM     16  C20 ZIN A   1      18.671  -2.218  10.354  0.00  0.00     0.026 C 
ATOM     17  C22 ZIN A   1      18.799  -3.658  10.779  0.00  0.00    -0.083 C 
ATOM     18  C23 ZIN A   1      18.372  -4.041  11.958  0.00  0.00     0.015 C 
ATOM     19  C24 ZIN A   1      19.428  -4.665   9.826  0.00  0.00     0.047 C 
ATOM     20  C25 ZIN A   1      18.769  -4.489   8.483  0.00  0.00     0.009 C 
ENDROOT
BRANCH   3  21
ATOM     21  O4  ZIN A   1      18.670  -6.524   7.165  0.00  0.00    -0.377 OA
ATOM     22  H29 ZIN A   1      17.711  -6.454   7.266  0.00  0.00     0.211 HD
ENDBRANCH   3  21
BRANCH  20  23
ATOM     23  C26 ZIN A   1      17.268  -4.761   8.601  0.00  0.00     0.010 C 
ATOM     24  C27 ZIN A   1      17.043  -6.055   9.385  0.00  0.00     0.006 C 
ENDBRANCH  20  23
TORSDOF 2
ENDMDL
MODEL 6
REMARK VINA RESULT:      -7.4      1.963      3.607
REMARK  2 active torsions:
REMARK  status: ('A' for Active; 'I' for Inactive)
REMARK    1  A    between atoms: C3_3  and  O4_4 
REMARK    2  A    between atoms: C25_21  and  C26_22 
ROOT
ATOM      1  C1  ZIN A   1      16.627   0.572  12.474  0.00  0.00     0.015 C 
ATOM      2  C2  ZIN A   1      17.625   0.807  11.901  0.00  0.00    -0.078 C 
ATOM      3  C3  ZIN A   1      18.875   1.101  11.182  0.00  0.00     0.128 C 
ATOM      4  C5  ZIN A   1      18.807   2.510  10.543  0.00  0.00     0.052 C 
ATOM      5  C6  ZIN A   1      18.871   2.297   9.007  0.00  0.00     0.010 C 
ATOM      6  C7  ZIN A   1      18.360   0.861   8.833  0.00  0.00     0.003 C 
ATOM      7  C9  ZIN A   1      18.776   0.176   7.547  0.00  0.00    -0.000 C 
ATOM      8  C11 ZIN A   1      18.253   0.928   6.324  0.00  0.00     0.010 C 
ATOM      9  C12 ZIN A   1      18.771   0.240   5.055  0.00  0.00     0.034 C 
ATOM     10  C13 ZIN A   1      18.380  -1.227   5.100  0.00  0.00    -0.079 C 
ATOM     11  C14 ZIN A   1      17.793  -1.738   4.059  0.00  0.00    -0.024 C 
ATOM     12  C15 ZIN A   1      17.351  -3.171   3.982  0.00  0.00     0.027 C 
ATOM     13  C16 ZIN A   1      18.217  -4.013   4.924  0.00  0.00     0.004 C 
ATOM     14  C17 ZIN A   1      18.127  -3.413   6.326  0.00  0.00     0.010 C 
ATOM     15  C18 ZIN A   1      18.698  -2.006   6.345  0.00  0.00     0.023 C 
ATOM     16  C20 ZIN A   1      18.179  -1.242   7.563  0.00  0.00     0.026 C 
ATOM     17  C22 ZIN A   1      18.568  -1.950   8.835  0.00  0.00    -0.083 C 
ATOM     18  C23 ZIN A   1      19.029  -3.176   8.795  0.00  0.00     0.015 C 
ATOM     19  C24 ZIN A   1      18.423  -1.227  10.167  0.00  0.00     0.047 C 
ATOM     20  C25 ZIN A   1      19.054   0.132  10.016  0.00  0.00     0.009 C 
ENDROOT
BRANCH   3  21
ATOM     21  O4  ZIN A   1      19.989   1.014  12.074  0.00  0.00    -0.377 OA
ATOM     22  H29 ZIN A   1      19.830   0.459  12.849  0.00  0.00     0.211 HD
ENDBRANCH   3  21
BRANCH  20  23
ATOM     23  C26 ZIN A   1      20.538  -0.019   9.673  0.00  0.00     0.010 C 
ATOM     24  C27 ZIN A   1      21.221  -0.885  10.733  0.00  0.00     0.006 C 
ENDBRANCH  20  23
TORSDOF 2
ENDMDL
MODEL 7
REMARK VINA RESULT:      -7.2      4.640      6.657
REMARK  2 active torsions:
REMARK  status: ('A' for Active; 'I' for Inactive)
REMARK    1  A    between atoms: C3_3  and  O4_4 
REMARK    2  A    between atoms: C25_21  and  C26_22 
ROOT
ATOM      1  C1  ZIN A   1      15.412   7.011  16.035  0.00  0.00     0.015 C 
ATOM      2  C2  ZIN A   1      16.383   6.791  15.412  0.00  0.00    -0.078 C 
ATOM      3  C3  ZIN A   1      17.600   6.515  14.631  0.00  0.00     0.128 C 
ATOM      4  C5  ZIN A   1      17.245   6.316  13.138  0.00  0.00     0.052 C 
ATOM      5  C6  ZIN A   1      17.611   4.848  12.793  0.00  0.00     0.010 C 
ATOM      6  C7  ZIN A   1      17.557   4.146  14.156  0.00  0.00     0.003 C 
ATOM      7  C9  ZIN A   1      18.349   2.857  14.254  0.00  0.00    -0.000 C 
ATOM      8  C11 ZIN A   1      17.841   1.817  13.257  0.00  0.00     0.010 C 
ATOM      9  C12 ZIN A   1      18.727   0.568  13.343  0.00  0.00     0.034 C 
ATOM     10  C13 ZIN A   1      18.760   0.089  14.783  0.00  0.00    -0.079 C 
ATOM     11  C14 ZIN A   1      18.515  -1.166  15.019  0.00  0.00    -0.024 C 
ATOM     12  C15 ZIN A   1      18.508  -1.761  16.397  0.00  0.00     0.027 C 
ATOM     13  C16 ZIN A   1      19.411  -0.923  17.307  0.00  0.00     0.004 C 
ATOM     14  C17 ZIN A   1      18.933   0.528  17.258  0.00  0.00     0.010 C 
ATOM     15  C18 ZIN A   1      19.078   1.093  15.856  0.00  0.00     0.023 C 
ATOM     16  C20 ZIN A   1      18.178   2.316  15.684  0.00  0.00     0.026 C 
ATOM     17  C22 ZIN A   1      18.539   3.382  16.685  0.00  0.00    -0.083 C 
ATOM     18  C23 ZIN A   1      19.324   3.101  17.696  0.00  0.00     0.015 C 
ATOM     19  C24 ZIN A   1      17.985   4.789  16.510  0.00  0.00     0.047 C 
ATOM     20  C25 ZIN A   1      18.228   5.197  15.081  0.00  0.00     0.009 C 
ENDROOT
BRANCH   3  21
ATOM     21  O4  ZIN A   1      18.535   7.585  14.781  0.00  0.00    -0.377 OA
ATOM     22  H29 ZIN A   1      19.397   7.415  14.378  0.00  0.00     0.211 HD
ENDBRANCH   3  21
BRANCH  20  23
ATOM     23  C26 ZIN A   1      19.730   5.196  14.788  0.00  0.00     0.010 C 
ATOM     24  C27 ZIN A   1      20.476   5.867  15.943  0.00  0.00     0.006 C 
ENDBRANCH  20  23
TORSDOF 2
ENDMDL
MODEL 8
REMARK VINA RESULT:      -7.2      4.088      6.759
REMARK  2 active torsions:
REMARK  status: ('A' for Active; 'I' for Inactive)
REMARK    1  A    between atoms: C3_3  and  O4_4 
REMARK    2  A    between atoms: C25_21  and  C26_22 
ROOT
ATOM      1  C1  ZIN A   1      15.555   5.929  17.596  0.00  0.00     0.015 C 
ATOM      2  C2  ZIN A   1      16.388   6.339  16.876  0.00  0.00    -0.078 C 
ATOM      3  C3  ZIN A   1      17.431   6.854  15.974  0.00  0.00     0.128 C 
ATOM      4  C5  ZIN A   1      16.821   7.862  14.970  0.00  0.00     0.052 C 
ATOM      5  C6  ZIN A   1      16.987   7.233  13.561  0.00  0.00     0.010 C 
ATOM      6  C7  ZIN A   1      17.089   5.731  13.861  0.00  0.00     0.003 C 
ATOM      7  C9  ZIN A   1      17.762   4.900  12.787  0.00  0.00    -0.000 C 
ATOM      8  C11 ZIN A   1      17.004   4.985  11.463  0.00  0.00     0.010 C 
ATOM      9  C12 ZIN A   1      17.771   4.194  10.397  0.00  0.00     0.034 C 
ATOM     10  C13 ZIN A   1      17.992   2.779  10.901  0.00  0.00    -0.079 C 
ATOM     11  C14 ZIN A   1      17.672   1.791  10.118  0.00  0.00    -0.024 C 
ATOM     12  C15 ZIN A   1      17.833   0.349  10.501  0.00  0.00     0.027 C 
ATOM     13  C16 ZIN A   1      18.946   0.231  11.546  0.00  0.00     0.004 C 
ATOM     14  C17 ZIN A   1      18.605   1.149  12.720  0.00  0.00     0.010 C 
ATOM     15  C18 ZIN A   1      18.572   2.600  12.275  0.00  0.00     0.023 C 
ATOM     16  C20 ZIN A   1      17.775   3.440  13.272  0.00  0.00     0.026 C 
ATOM     17  C22 ZIN A   1      18.392   3.358  14.644  0.00  0.00    -0.083 C 
ATOM     18  C23 ZIN A   1      19.301   2.452  14.907  0.00  0.00     0.015 C 
ATOM     19  C24 ZIN A   1      17.952   4.339  15.721  0.00  0.00     0.047 C 
ATOM     20  C25 ZIN A   1      17.997   5.720  15.121  0.00  0.00     0.009 C 
ENDROOT
BRANCH   3  21
ATOM     21  O4  ZIN A   1      18.474   7.474  16.729  0.00  0.00    -0.377 OA
ATOM     22  H29 ZIN A   1      18.760   8.328  16.378  0.00  0.00     0.211 HD
ENDBRANCH   3  21
BRANCH  20  23
ATOM     23  C26 ZIN A   1      19.425   6.049  14.679  0.00  0.00     0.010 C 
ATOM     24  C27 ZIN A   1      20.398   5.723  15.814  0.00  0.00     0.006 C 
ENDBRANCH  20  23
TORSDOF 2
ENDMDL
MODEL 9
REMARK VINA RESULT:      -7.1      2.015      3.574
REMARK  2 active torsions:
REMARK  status: ('A' for Active; 'I' for Inactive)
REMARK    1  A    between atoms: C3_3  and  O4_4 
REMARK    2  A    between atoms: C25_21  and  C26_22 
ROOT
ATOM      1  C1  ZIN A   1      20.428   3.008  11.487  0.00  0.00     0.015 C 
ATOM      2  C2  ZIN A   1      19.729   2.228  12.017  0.00  0.00    -0.078 C 
ATOM      3  C3  ZIN A   1      18.853   1.250  12.683  0.00  0.00     0.128 C 
ATOM      4  C5  ZIN A   1      19.589   0.596  13.877  0.00  0.00     0.052 C 
ATOM      5  C6  ZIN A   1      19.730  -0.911  13.533  0.00  0.00     0.010 C 
ATOM      6  C7  ZIN A   1      19.653  -0.926  12.000  0.00  0.00     0.003 C 
ATOM      7  C9  ZIN A   1      19.244  -2.249  11.385  0.00  0.00    -0.000 C 
ATOM      8  C11 ZIN A   1      20.236  -3.356  11.738  0.00  0.00     0.010 C 
ATOM      9  C12 ZIN A   1      19.731  -4.684  11.160  0.00  0.00     0.034 C 
ATOM     10  C13 ZIN A   1      19.493  -4.509   9.670  0.00  0.00    -0.079 C 
ATOM     11  C14 ZIN A   1      20.010  -5.385   8.859  0.00  0.00    -0.024 C 
ATOM     12  C15 ZIN A   1      19.855  -5.321   7.368  0.00  0.00     0.027 C 
ATOM     13  C16 ZIN A   1      18.570  -4.559   7.031  0.00  0.00     0.004 C 
ATOM     14  C17 ZIN A   1      18.630  -3.189   7.707  0.00  0.00     0.010 C 
ATOM     15  C18 ZIN A   1      18.670  -3.337   9.217  0.00  0.00     0.023 C 
ATOM     16  C20 ZIN A   1      19.216  -2.061   9.858  0.00  0.00     0.026 C 
ATOM     17  C22 ZIN A   1      18.352  -0.880   9.501  0.00  0.00    -0.083 C 
ATOM     18  C23 ZIN A   1      17.459  -0.978   8.546  0.00  0.00     0.015 C 
ATOM     19  C24 ZIN A   1      18.524   0.429  10.259  0.00  0.00     0.047 C 
ATOM     20  C25 ZIN A   1      18.522   0.104  11.730  0.00  0.00     0.009 C 
ENDROOT
BRANCH   3  21
ATOM     21  O4  ZIN A   1      17.652   1.886  13.128  0.00  0.00    -0.377 OA
ATOM     22  H29 ZIN A   1      16.856   1.587  12.670  0.00  0.00     0.211 HD
ENDBRANCH   3  21
BRANCH  20  23
ATOM     23  C26 ZIN A   1      17.190  -0.543  12.117  0.00  0.00     0.010 C 
ATOM     24  C27 ZIN A   1      16.039   0.240  11.483  0.00  0.00     0.006 C 
ENDBRANCH  20  23
TORSDOF 2
ENDMDL
