MODEL 1
REMARK VINA RESULT:      -9.5      0.000      0.000
REMARK  8 active torsions:
REMARK  status: ('A' for Active; 'I' for Inactive)
REMARK    1  A    between atoms: C2_2  and  N4_4 
REMARK    2  A    between atoms: C2_2  and  C34_32 
REMARK       I    between atoms: N4_4  and  C5_5 
REMARK    3  A    between atoms: C5_5  and  C7_7 
REMARK    4  A    between atoms: C9_9  and  O10_10 
REMARK    5  A    between atoms: C17_16  and  O18_17 
REMARK    6  A    between atoms: N29_27  and  C30_28 
REMARK    7  A    between atoms: C30_28  and  C31_29 
REMARK    8  A    between atoms: C36_34  and  C37_35 
ROOT
ATOM      1  C7  ZIN A   1      19.064  -1.004  13.252  0.00  0.00     0.153 C 
ATOM      2  C8  ZIN A   1      18.005  -0.688  12.194  0.00  0.00     0.063 C 
ATOM      3  C9  ZIN A   1      18.644  -0.801  10.810  0.00  0.00     0.105 C 
ATOM      4  C11 ZIN A   1      17.599  -0.520   9.727  0.00  0.00     0.262 C 
ATOM      5  C13 ZIN A   1      16.927   0.839   9.845  0.00  0.00     0.078 C 
ATOM      6  C14 ZIN A   1      17.823   1.899  10.399  0.00  0.00    -0.046 A 
ATOM      7  C15 ZIN A   1      19.105   1.569  10.772  0.00  0.00    -0.001 A 
ATOM      8  C16 ZIN A   1      19.999   2.411  11.417  0.00  0.00     0.110 A 
ATOM      9  C17 ZIN A   1      19.617   3.742  11.620  0.00  0.00     0.099 A 
ATOM     10  C19 ZIN A   1      18.348   4.109  11.177  0.00  0.00     0.040 A 
ATOM     11  C20 ZIN A   1      17.462   3.222  10.588  0.00  0.00     0.011 A 
ATOM     12  O21 ZIN A   1      21.106   1.727  11.780  0.00  0.00    -0.334 OA
ATOM     13  C22 ZIN A   1      20.810   0.299  11.745  0.00  0.00     0.215 C 
ATOM     14  C24 ZIN A   1      20.235  -0.082  13.097  0.00  0.00     0.170 C 
ATOM     15  O25 ZIN A   1      20.753   0.368  14.091  0.00  0.00    -0.294 OA
ATOM     16  C26 ZIN A   1      19.751   0.230  10.657  0.00  0.00     0.058 C 
ATOM     17  C27 ZIN A   1      20.372   0.100   9.268  0.00  0.00     0.051 C 
ATOM     18  C28 ZIN A   1      19.275   0.327   8.220  0.00  0.00     0.274 C 
ATOM     19  N29 ZIN A   1      18.226  -0.648   8.406  0.00  0.00     0.096 N 
ENDROOT
BRANCH   1  20
ATOM     20  C5  ZIN A   1      18.466  -0.827  14.624  0.00  0.00     0.230 C 
ATOM     21  N4  ZIN A   1      19.222  -1.037  15.720  0.00  0.00    -0.344 N 
ATOM     22  H51 ZIN A   1      20.150  -1.301  15.626  0.00  0.00     0.163 HD
ATOM     23  O6  ZIN A   1      17.305  -0.498  14.743  0.00  0.00    -0.273 OA
BRANCH  21  24
ATOM     24  C2  ZIN A   1      18.642  -0.866  17.054  0.00  0.00     0.095 C 
ATOM     25  C1  ZIN A   1      17.137  -1.135  16.993  0.00  0.00     0.047 C 
ATOM     26  C3  ZIN A   1      19.297  -1.849  18.026  0.00  0.00     0.047 C 
BRANCH  24  27
ATOM     27  C34 ZIN A   1      18.880   0.545  17.529  0.00  0.00     0.200 A 
ATOM     28  O44 ZIN A   1      19.754   0.929  18.465  0.00  0.00    -0.193 OA
ATOM     29  N43 ZIN A   1      19.702   2.133  18.611  0.00  0.00    -0.105 NA
ATOM     30  C36 ZIN A   1      18.802   2.644  17.813  0.00  0.00     0.189 A 
ATOM     31  N35 ZIN A   1      18.266   1.622  17.109  0.00  0.00    -0.201 NA
BRANCH  30  32
ATOM     32  C37 ZIN A   1      18.438   4.078  17.699  0.00  0.00     0.014 A 
ATOM     33  C42 ZIN A   1      19.018   4.870  16.709  0.00  0.00     0.015 A 
ATOM     34  C41 ZIN A   1      18.672   6.202  16.604  0.00  0.00     0.001 A 
ATOM     35  C40 ZIN A   1      17.762   6.755  17.488  0.00  0.00     0.000 A 
ATOM     36  C39 ZIN A   1      17.188   5.975  18.475  0.00  0.00     0.001 A 
ATOM     37  C38 ZIN A   1      17.521   4.641  18.585  0.00  0.00     0.015 A 
ENDBRANCH  30  32
ENDBRANCH  24  27
ENDBRANCH  21  24
ENDBRANCH   1  20
BRANCH   3  38
ATOM     38  O10 ZIN A   1      19.185  -2.112  10.638  0.00  0.00    -0.386 OA
ATOM     39  H55 ZIN A   1      20.024  -2.255  11.098  0.00  0.00     0.210 HD
ENDBRANCH   3  38
BRANCH  19  40
ATOM     40  C30 ZIN A   1      17.210  -0.534   7.351  0.00  0.00     0.277 C 
BRANCH  40  41
ATOM     41  C31 ZIN A   1      17.900  -0.366   5.995  0.00  0.00     0.014 A 
ATOM     42  C33 ZIN A   1      17.363  -1.188   4.823  0.00  0.00     0.007 A 
ATOM     43  C32 ZIN A   1      18.705  -1.552   5.462  0.00  0.00     0.007 A 
ENDBRANCH  40  41
ENDBRANCH  19  40
BRANCH   9  44
ATOM     44  O18 ZIN A   1      20.446   4.636  12.222  0.00  0.00    -0.358 OA
ATOM     45  H58 ZIN A   1      19.986   5.330  12.713  0.00  0.00     0.217 HD
ENDBRANCH   9  44
TORSDOF 8
ENDMDL
MODEL 2
REMARK VINA RESULT:      -8.8      2.614      8.686
REMARK  8 active torsions:
REMARK  status: ('A' for Active; 'I' for Inactive)
REMARK    1  A    between atoms: C2_2  and  N4_4 
REMARK    2  A    between atoms: C2_2  and  C34_32 
REMARK       I    between atoms: N4_4  and  C5_5 
REMARK    3  A    between atoms: C5_5  and  C7_7 
REMARK    4  A    between atoms: C9_9  and  O10_10 
REMARK    5  A    between atoms: C17_16  and  O18_17 
REMARK    6  A    between atoms: N29_27  and  C30_28 
REMARK    7  A    between atoms: C30_28  and  C31_29 
REMARK    8  A    between atoms: C36_34  and  C37_35 
ROOT
ATOM      1  C7  ZIN A   1      18.310  -2.669  12.302  0.00  0.00     0.153 C 
ATOM      2  C8  ZIN A   1      19.294  -1.794  13.082  0.00  0.00     0.063 C 
ATOM      3  C9  ZIN A   1      18.507  -0.923  14.061  0.00  0.00     0.105 C 
ATOM      4  C11 ZIN A   1      19.470  -0.058  14.880  0.00  0.00     0.262 C 
ATOM      5  C13 ZIN A   1      20.369   0.837  14.044  0.00  0.00     0.078 C 
ATOM      6  C14 ZIN A   1      19.726   1.316  12.782  0.00  0.00    -0.046 A 
ATOM      7  C15 ZIN A   1      18.451   0.898  12.477  0.00  0.00    -0.001 A 
ATOM      8  C16 ZIN A   1      17.782   1.152  11.289  0.00  0.00     0.110 A 
ATOM      9  C17 ZIN A   1      18.401   1.988  10.354  0.00  0.00     0.099 A 
ATOM     10  C19 ZIN A   1      19.662   2.480  10.684  0.00  0.00     0.040 A 
ATOM     11  C20 ZIN A   1      20.321   2.156  11.858  0.00  0.00     0.011 A 
ATOM     12  O21 ZIN A   1      16.618   0.467  11.253  0.00  0.00    -0.334 OA
ATOM     13  C22 ZIN A   1      16.665  -0.594  12.254  0.00  0.00     0.215 C 
ATOM     14  C24 ZIN A   1      17.301  -1.809  11.604  0.00  0.00     0.170 C 
ATOM     15  O25 ZIN A   1      16.970  -2.100  10.479  0.00  0.00    -0.294 OA
ATOM     16  C26 ZIN A   1      17.580   0.013  13.304  0.00  0.00     0.058 C 
ATOM     17  C27 ZIN A   1      16.808   0.874  14.302  0.00  0.00     0.051 C 
ATOM     18  C28 ZIN A   1      17.815   1.672  15.138  0.00  0.00     0.274 C 
ATOM     19  N29 ZIN A   1      18.699   0.759  15.825  0.00  0.00     0.096 N 
ENDROOT
BRANCH   1  20
ATOM     20  C5  ZIN A   1      19.065  -3.482  11.283  0.00  0.00     0.230 C 
ATOM     21  N4  ZIN A   1      18.409  -4.366  10.505  0.00  0.00    -0.344 N 
ATOM     22  H51 ZIN A   1      17.450  -4.478  10.602  0.00  0.00     0.163 HD
ATOM     23  O6  ZIN A   1      20.264  -3.343  11.162  0.00  0.00    -0.273 OA
BRANCH  21  24
ATOM     24  C2  ZIN A   1      19.142  -5.157   9.515  0.00  0.00     0.095 C 
ATOM     25  C1  ZIN A   1      20.479  -5.605  10.109  0.00  0.00     0.047 C 
ATOM     26  C3  ZIN A   1      18.317  -6.387   9.131  0.00  0.00     0.047 C 
BRANCH  24  27
ATOM     27  C34 ZIN A   1      19.394  -4.318   8.288  0.00  0.00     0.200 A 
ATOM     28  O44 ZIN A   1      20.105  -4.677   7.214  0.00  0.00    -0.193 OA
ATOM     29  N43 ZIN A   1      20.112  -3.775   6.402  0.00  0.00    -0.105 NA
ATOM     30  C36 ZIN A   1      19.432  -2.756   6.856  0.00  0.00     0.189 A 
ATOM     31  N35 ZIN A   1      18.963  -3.100   8.076  0.00  0.00    -0.201 NA
BRANCH  30  32
ATOM     32  C37 ZIN A   1      19.213  -1.463   6.160  0.00  0.00     0.014 A 
ATOM     33  C42 ZIN A   1      19.106  -0.284   6.895  0.00  0.00     0.015 A 
ATOM     34  C41 ZIN A   1      18.907   0.917   6.244  0.00  0.00     0.001 A 
ATOM     35  C40 ZIN A   1      18.802   0.949   4.865  0.00  0.00     0.000 A 
ATOM     36  C39 ZIN A   1      18.902  -0.219   4.131  0.00  0.00     0.001 A 
ATOM     37  C38 ZIN A   1      19.107  -1.424   4.771  0.00  0.00     0.015 A 
ENDBRANCH  30  32
ENDBRANCH  24  27
ENDBRANCH  21  24
ENDBRANCH   1  20
BRANCH   3  38
ATOM     38  O10 ZIN A   1      17.739  -1.757  14.932  0.00  0.00    -0.386 OA
ATOM     39  H55 ZIN A   1      17.245  -2.452  14.476  0.00  0.00     0.210 HD
ENDBRANCH   3  38
BRANCH  19  40
ATOM     40  C30 ZIN A   1      19.607   1.483  16.725  0.00  0.00     0.277 C 
BRANCH  40  41
ATOM     41  C31 ZIN A   1      19.293   1.107  18.175  0.00  0.00     0.014 A 
ATOM     42  C33 ZIN A   1      18.546  -0.206  18.418  0.00  0.00     0.007 A 
ATOM     43  C32 ZIN A   1      17.826   1.131  18.608  0.00  0.00     0.007 A 
ENDBRANCH  40  41
ENDBRANCH  19  40
BRANCH   9  44
ATOM     44  O18 ZIN A   1      17.800   2.306   9.177  0.00  0.00    -0.358 OA
ATOM     45  H58 ZIN A   1      16.970   2.791   9.276  0.00  0.00     0.217 HD
ENDBRANCH   9  44
TORSDOF 8
ENDMDL
MODEL 3
REMARK VINA RESULT:      -8.8      6.578     10.451
REMARK  8 active torsions:
REMARK  status: ('A' for Active; 'I' for Inactive)
REMARK    1  A    between atoms: C2_2  and  N4_4 
REMARK    2  A    between atoms: C2_2  and  C34_32 
REMARK       I    between atoms: N4_4  and  C5_5 
REMARK    3  A    between atoms: C5_5  and  C7_7 
REMARK    4  A    between atoms: C9_9  and  O10_10 
REMARK    5  A    between atoms: C17_16  and  O18_17 
REMARK    6  A    between atoms: N29_27  and  C30_28 
REMARK    7  A    between atoms: C30_28  and  C31_29 
REMARK    8  A    between atoms: C36_34  and  C37_35 
ROOT
ATOM      1  C7  ZIN A   1      16.629  -7.085   8.035  0.00  0.00     0.153 C 
ATOM      2  C8  ZIN A   1      15.318  -7.007   7.251  0.00  0.00     0.063 C 
ATOM      3  C9  ZIN A   1      15.298  -8.127   6.212  0.00  0.00     0.105 C 
ATOM      4  C11 ZIN A   1      13.981  -8.093   5.431  0.00  0.00     0.262 C 
ATOM      5  C13 ZIN A   1      13.705  -6.773   4.731  0.00  0.00     0.078 C 
ATOM      6  C14 ZIN A   1      14.942  -6.078   4.260  0.00  0.00    -0.046 A 
ATOM      7  C15 ZIN A   1      16.170  -6.643   4.519  0.00  0.00    -0.001 A 
ATOM      8  C16 ZIN A   1      17.399  -6.053   4.261  0.00  0.00     0.110 A 
ATOM      9  C17 ZIN A   1      17.409  -4.827   3.587  0.00  0.00     0.099 A 
ATOM     10  C19 ZIN A   1      16.172  -4.280   3.252  0.00  0.00     0.040 A 
ATOM     11  C20 ZIN A   1      14.964  -4.874   3.579  0.00  0.00     0.011 A 
ATOM     12  O21 ZIN A   1      18.394  -6.803   4.779  0.00  0.00    -0.334 OA
ATOM     13  C22 ZIN A   1      17.829  -7.723   5.762  0.00  0.00     0.215 C 
ATOM     14  C24 ZIN A   1      17.794  -7.001   7.096  0.00  0.00     0.170 C 
ATOM     15  O25 ZIN A   1      18.752  -6.340   7.419  0.00  0.00    -0.294 OA
ATOM     16  C26 ZIN A   1      16.428  -7.937   5.213  0.00  0.00     0.058 C 
ATOM     17  C27 ZIN A   1      16.387  -9.065   4.185  0.00  0.00     0.051 C 
ATOM     18  C28 ZIN A   1      15.028  -9.028   3.475  0.00  0.00     0.274 C 
ATOM     19  N29 ZIN A   1      13.974  -9.184   4.450  0.00  0.00     0.096 N 
ENDROOT
BRANCH   1  20
ATOM     20  C5  ZIN A   1      16.694  -5.943   9.016  0.00  0.00     0.230 C 
ATOM     21  N4  ZIN A   1      17.852  -5.658   9.643  0.00  0.00    -0.344 N 
ATOM     22  H51 ZIN A   1      18.644  -6.188   9.462  0.00  0.00     0.163 HD
ATOM     23  O6  ZIN A   1      15.703  -5.280   9.243  0.00  0.00    -0.273 OA
BRANCH  21  24
ATOM     24  C2  ZIN A   1      17.915  -4.548  10.597  0.00  0.00     0.095 C 
ATOM     25  C1  ZIN A   1      16.657  -4.551  11.466  0.00  0.00     0.047 C 
ATOM     26  C3  ZIN A   1      19.150  -4.709  11.486  0.00  0.00     0.047 C 
BRANCH  24  27
ATOM     27  C34 ZIN A   1      18.003  -3.244   9.846  0.00  0.00     0.200 A 
ATOM     28  O44 ZIN A   1      17.705  -2.031  10.324  0.00  0.00    -0.193 OA
ATOM     29  N43 ZIN A   1      17.886  -1.192   9.467  0.00  0.00    -0.105 NA
ATOM     30  C36 ZIN A   1      18.301  -1.757   8.364  0.00  0.00     0.189 A 
ATOM     31  N35 ZIN A   1      18.380  -3.086   8.602  0.00  0.00    -0.201 NA
BRANCH  30  32
ATOM     32  C37 ZIN A   1      18.626  -1.070   7.089  0.00  0.00     0.014 A 
ATOM     33  C42 ZIN A   1      18.754   0.317   7.056  0.00  0.00     0.015 A 
ATOM     34  C41 ZIN A   1      19.062   0.951   5.870  0.00  0.00     0.001 A 
ATOM     35  C40 ZIN A   1      19.230   0.213   4.712  0.00  0.00     0.000 A 
ATOM     36  C39 ZIN A   1      19.099  -1.164   4.738  0.00  0.00     0.001 A 
ATOM     37  C38 ZIN A   1      18.798  -1.808   5.920  0.00  0.00     0.015 A 
ENDBRANCH  30  32
ENDBRANCH  24  27
ENDBRANCH  21  24
ENDBRANCH   1  20
BRANCH   3  38
ATOM     38  O10 ZIN A   1      15.445  -9.389   6.866  0.00  0.00    -0.386 OA
ATOM     39  H55 ZIN A   1      14.956  -9.459   7.698  0.00  0.00     0.210 HD
ENDBRANCH   3  38
BRANCH  19  40
ATOM     40  C30 ZIN A   1      12.661  -9.266   3.795  0.00  0.00     0.277 C 
BRANCH  40  41
ATOM     41  C31 ZIN A   1      12.848  -9.276   2.276  0.00  0.00     0.014 A 
ATOM     42  C33 ZIN A   1      11.900  -8.413   1.443  0.00  0.00     0.007 A 
ATOM     43  C32 ZIN A   1      11.753  -9.936   1.435  0.00  0.00     0.007 A 
ENDBRANCH  40  41
ENDBRANCH  19  40
BRANCH   9  44
ATOM     44  O18 ZIN A   1      18.572  -4.197   3.275  0.00  0.00    -0.358 OA
ATOM     45  H58 ZIN A   1      19.319  -4.795   3.136  0.00  0.00     0.217 HD
ENDBRANCH   9  44
TORSDOF 8
ENDMDL
MODEL 4
REMARK VINA RESULT:      -8.7      5.197      8.336
REMARK  8 active torsions:
REMARK  status: ('A' for Active; 'I' for Inactive)
REMARK    1  A    between atoms: C2_2  and  N4_4 
REMARK    2  A    between atoms: C2_2  and  C34_32 
REMARK       I    between atoms: N4_4  and  C5_5 
REMARK    3  A    between atoms: C5_5  and  C7_7 
REMARK    4  A    between atoms: C9_9  and  O10_10 
REMARK    5  A    between atoms: C17_16  and  O18_17 
REMARK    6  A    between atoms: N29_27  and  C30_28 
REMARK    7  A    between atoms: C30_28  and  C31_29 
REMARK    8  A    between atoms: C36_34  and  C37_35 
ROOT
ATOM      1  C7  ZIN A   1      18.002  -4.465   8.690  0.00  0.00     0.153 C 
ATOM      2  C8  ZIN A   1      16.561  -4.869   8.377  0.00  0.00     0.063 C 
ATOM      3  C9  ZIN A   1      16.493  -6.391   8.254  0.00  0.00     0.105 C 
ATOM      4  C11 ZIN A   1      15.053  -6.828   7.972  0.00  0.00     0.262 C 
ATOM      5  C13 ZIN A   1      14.447  -6.210   6.722  0.00  0.00     0.078 C 
ATOM      6  C14 ZIN A   1      15.444  -5.962   5.637  0.00  0.00    -0.046 A 
ATOM      7  C15 ZIN A   1      16.768  -6.263   5.859  0.00  0.00    -0.001 A 
ATOM      8  C16 ZIN A   1      17.817  -5.967   5.001  0.00  0.00     0.110 A 
ATOM      9  C17 ZIN A   1      17.508  -5.409   3.755  0.00  0.00     0.099 A 
ATOM     10  C19 ZIN A   1      16.161  -5.170   3.487  0.00  0.00     0.040 A 
ATOM     11  C20 ZIN A   1      15.148  -5.427   4.396  0.00  0.00     0.011 A 
ATOM     12  O21 ZIN A   1      18.998  -6.253   5.591  0.00  0.00    -0.334 OA
ATOM     13  C22 ZIN A   1      18.789  -6.373   7.030  0.00  0.00     0.215 C 
ATOM     14  C24 ZIN A   1      18.924  -4.985   7.629  0.00  0.00     0.170 C 
ATOM     15  O25 ZIN A   1      19.820  -4.274   7.240  0.00  0.00    -0.294 OA
ATOM     16  C26 ZIN A   1      17.351  -6.864   7.093  0.00  0.00     0.058 C 
ATOM     17  C27 ZIN A   1      17.266  -8.385   6.989  0.00  0.00     0.051 C 
ATOM     18  C28 ZIN A   1      15.799  -8.776   6.769  0.00  0.00     0.274 C 
ATOM     19  N29 ZIN A   1      15.003  -8.292   7.872  0.00  0.00     0.096 N 
ENDROOT
BRANCH   1  20
ATOM     20  C5  ZIN A   1      18.099  -2.962   8.744  0.00  0.00     0.230 C 
ATOM     21  N4  ZIN A   1      18.701  -2.362   9.790  0.00  0.00    -0.344 N 
ATOM     22  H51 ZIN A   1      19.071  -2.898  10.509  0.00  0.00     0.163 HD
ATOM     23  O6  ZIN A   1      17.635  -2.291   7.846  0.00  0.00    -0.273 OA
BRANCH  21  24
ATOM     24  C2  ZIN A   1      18.795  -0.901   9.843  0.00  0.00     0.095 C 
ATOM     25  C1  ZIN A   1      19.774  -0.415   8.773  0.00  0.00     0.047 C 
ATOM     26  C3  ZIN A   1      17.415  -0.292   9.586  0.00  0.00     0.047 C 
BRANCH  24  27
ATOM     27  C34 ZIN A   1      19.286  -0.478  11.203  0.00  0.00     0.200 A 
ATOM     28  O44 ZIN A   1      20.416   0.187  11.467  0.00  0.00    -0.193 OA
ATOM     29  N43 ZIN A   1      20.516   0.376  12.661  0.00  0.00    -0.105 NA
ATOM     30  C36 ZIN A   1      19.492  -0.142  13.286  0.00  0.00     0.189 A 
ATOM     31  N35 ZIN A   1      18.690  -0.696  12.348  0.00  0.00    -0.201 NA
BRANCH  30  32
ATOM     32  C37 ZIN A   1      19.251  -0.124  14.751  0.00  0.00     0.014 A 
ATOM     33  C42 ZIN A   1      19.095  -1.320  15.448  0.00  0.00     0.015 A 
ATOM     34  C41 ZIN A   1      18.877  -1.299  16.811  0.00  0.00     0.001 A 
ATOM     35  C40 ZIN A   1      18.801  -0.092  17.482  0.00  0.00     0.000 A 
ATOM     36  C39 ZIN A   1      18.950   1.099  16.794  0.00  0.00     0.001 A 
ATOM     37  C38 ZIN A   1      19.175   1.089  15.433  0.00  0.00     0.015 A 
ENDBRANCH  30  32
ENDBRANCH  24  27
ENDBRANCH  21  24
ENDBRANCH   1  20
BRANCH   3  38
ATOM     38  O10 ZIN A   1      16.955  -6.990   9.467  0.00  0.00    -0.386 OA
ATOM     39  H55 ZIN A   1      17.784  -7.478   9.372  0.00  0.00     0.210 HD
ENDBRANCH   3  38
BRANCH  19  40
ATOM     40  C30 ZIN A   1      13.610  -8.744   7.754  0.00  0.00     0.277 C 
BRANCH  40  41
ATOM     41  C31 ZIN A   1      13.453  -9.584   6.485  0.00  0.00     0.014 A 
ATOM     42  C33 ZIN A   1      12.521  -9.050   5.396  0.00  0.00     0.007 A 
ATOM     43  C32 ZIN A   1      12.098 -10.252   6.244  0.00  0.00     0.007 A 
ENDBRANCH  40  41
ENDBRANCH  19  40
BRANCH   9  44
ATOM     44  O18 ZIN A   1      18.476  -5.114   2.848  0.00  0.00    -0.358 OA
ATOM     45  H58 ZIN A   1      19.376  -5.196   3.192  0.00  0.00     0.217 HD
ENDBRANCH   9  44
TORSDOF 8
ENDMDL
MODEL 5
REMARK VINA RESULT:      -8.6      3.245     10.594
REMARK  8 active torsions:
REMARK  status: ('A' for Active; 'I' for Inactive)
REMARK    1  A    between atoms: C2_2  and  N4_4 
REMARK    2  A    between atoms: C2_2  and  C34_32 
REMARK       I    between atoms: N4_4  and  C5_5 
REMARK    3  A    between atoms: C5_5  and  C7_7 
REMARK    4  A    between atoms: C9_9  and  O10_10 
REMARK    5  A    between atoms: C17_16  and  O18_17 
REMARK    6  A    between atoms: N29_27  and  C30_28 
REMARK    7  A    between atoms: C30_28  and  C31_29 
REMARK    8  A    between atoms: C36_34  and  C37_35 
ROOT
ATOM      1  C7  ZIN A   1      18.042  -1.951   9.790  0.00  0.00     0.153 C 
ATOM      2  C8  ZIN A   1      19.029  -1.739  10.938  0.00  0.00     0.063 C 
ATOM      3  C9  ZIN A   1      18.245  -1.391  12.203  0.00  0.00     0.105 C 
ATOM      4  C11 ZIN A   1      19.208  -1.204  13.379  0.00  0.00     0.262 C 
ATOM      5  C13 ZIN A   1      20.269  -0.139  13.154  0.00  0.00     0.078 C 
ATOM      6  C14 ZIN A   1      19.801   0.997  12.304  0.00  0.00    -0.046 A 
ATOM      7  C15 ZIN A   1      18.526   0.971  11.789  0.00  0.00    -0.001 A 
ATOM      8  C16 ZIN A   1      18.003   1.884  10.885  0.00  0.00     0.110 A 
ATOM      9  C17 ZIN A   1      18.790   2.986  10.535  0.00  0.00     0.099 A 
ATOM     10  C19 ZIN A   1      20.058   3.064  11.110  0.00  0.00     0.040 A 
ATOM     11  C20 ZIN A   1      20.565   2.101  11.966  0.00  0.00     0.011 A 
ATOM     12  O21 ZIN A   1      16.785   1.479  10.464  0.00  0.00    -0.334 OA
ATOM     13  C22 ZIN A   1      16.627   0.061  10.773  0.00  0.00     0.215 C 
ATOM     14  C24 ZIN A   1      17.196  -0.727   9.607  0.00  0.00     0.170 C 
ATOM     15  O25 ZIN A   1      16.947  -0.357   8.485  0.00  0.00    -0.294 OA
ATOM     16  C26 ZIN A   1      17.495  -0.083  12.012  0.00  0.00     0.058 C 
ATOM     17  C27 ZIN A   1      16.722   0.245  13.288  0.00  0.00     0.051 C 
ATOM     18  C28 ZIN A   1      17.720   0.360  14.446  0.00  0.00     0.274 C 
ATOM     19  N29 ZIN A   1      18.437  -0.885  14.587  0.00  0.00     0.096 N 
ENDROOT
BRANCH   1  20
ATOM     20  C5  ZIN A   1      18.804  -2.225   8.519  0.00  0.00     0.230 C 
ATOM     21  N4  ZIN A   1      18.285  -3.046   7.585  0.00  0.00    -0.344 N 
ATOM     22  H51 ZIN A   1      17.420  -3.460   7.731  0.00  0.00     0.163 HD
ATOM     23  O6  ZIN A   1      19.886  -1.709   8.337  0.00  0.00    -0.273 OA
BRANCH  21  24
ATOM     24  C2  ZIN A   1      19.026  -3.313   6.350  0.00  0.00     0.095 C 
ATOM     25  C1  ZIN A   1      19.259  -2.000   5.601  0.00  0.00     0.047 C 
ATOM     26  C3  ZIN A   1      20.374  -3.951   6.693  0.00  0.00     0.047 C 
BRANCH  24  27
ATOM     27  C34 ZIN A   1      18.232  -4.254   5.480  0.00  0.00     0.200 A 
ATOM     28  O44 ZIN A   1      18.405  -5.575   5.377  0.00  0.00    -0.193 OA
ATOM     29  N43 ZIN A   1      17.601  -6.038   4.594  0.00  0.00    -0.105 NA
ATOM     30  C36 ZIN A   1      16.846  -5.088   4.110  0.00  0.00     0.189 A 
ATOM     31  N35 ZIN A   1      17.248  -3.929   4.680  0.00  0.00    -0.201 NA
BRANCH  30  32
ATOM     32  C37 ZIN A   1      15.751  -5.249   3.122  0.00  0.00     0.014 A 
ATOM     33  C42 ZIN A   1      15.806  -4.580   1.901  0.00  0.00     0.015 A 
ATOM     34  C41 ZIN A   1      14.788  -4.738   0.983  0.00  0.00     0.001 A 
ATOM     35  C40 ZIN A   1      13.706  -5.548   1.279  0.00  0.00     0.000 A 
ATOM     36  C39 ZIN A   1      13.644  -6.211   2.491  0.00  0.00     0.001 A 
ATOM     37  C38 ZIN A   1      14.659  -6.065   3.414  0.00  0.00     0.015 A 
ENDBRANCH  30  32
ENDBRANCH  24  27
ENDBRANCH  21  24
ENDBRANCH   1  20
BRANCH   3  38
ATOM     38  O10 ZIN A   1      17.317  -2.438  12.494  0.00  0.00    -0.386 OA
ATOM     39  H55 ZIN A   1      16.542  -2.447  11.915  0.00  0.00     0.210 HD
ENDBRANCH   3  38
BRANCH  19  40
ATOM     40  C30 ZIN A   1      19.323  -0.853  15.759  0.00  0.00     0.277 C 
BRANCH  40  41
ATOM     41  C31 ZIN A   1      18.568  -0.263  16.953  0.00  0.00     0.014 A 
ATOM     42  C33 ZIN A   1      19.191   0.945  17.654  0.00  0.00     0.007 A 
ATOM     43  C32 ZIN A   1      19.201  -0.425  18.336  0.00  0.00     0.007 A 
ENDBRANCH  40  41
ENDBRANCH  19  40
BRANCH   9  44
ATOM     44  O18 ZIN A   1      18.340   3.937   9.675  0.00  0.00    -0.358 OA
ATOM     45  H58 ZIN A   1      18.426   3.697   8.742  0.00  0.00     0.217 HD
ENDBRANCH   9  44
TORSDOF 8
ENDMDL
MODEL 6
REMARK VINA RESULT:      -8.4      2.691      4.184
REMARK  8 active torsions:
REMARK  status: ('A' for Active; 'I' for Inactive)
REMARK    1  A    between atoms: C2_2  and  N4_4 
REMARK    2  A    between atoms: C2_2  and  C34_32 
REMARK       I    between atoms: N4_4  and  C5_5 
REMARK    3  A    between atoms: C5_5  and  C7_7 
REMARK    4  A    between atoms: C9_9  and  O10_10 
REMARK    5  A    between atoms: C17_16  and  O18_17 
REMARK    6  A    between atoms: N29_27  and  C30_28 
REMARK    7  A    between atoms: C30_28  and  C31_29 
REMARK    8  A    between atoms: C36_34  and  C37_35 
ROOT
ATOM      1  C7  ZIN A   1      19.484   0.795  13.540  0.00  0.00     0.153 C 
ATOM      2  C8  ZIN A   1      18.435  -0.266  13.200  0.00  0.00     0.063 C 
ATOM      3  C9  ZIN A   1      19.151  -1.525  12.711  0.00  0.00     0.105 C 
ATOM      4  C11 ZIN A   1      18.127  -2.617  12.392  0.00  0.00     0.262 C 
ATOM      5  C13 ZIN A   1      17.086  -2.215  11.360  0.00  0.00     0.078 C 
ATOM      6  C14 ZIN A   1      17.606  -1.269  10.327  0.00  0.00    -0.046 A 
ATOM      7  C15 ZIN A   1      18.908  -0.832  10.410  0.00  0.00    -0.001 A 
ATOM      8  C16 ZIN A   1      19.485   0.140   9.606  0.00  0.00     0.110 A 
ATOM      9  C17 ZIN A   1      18.725   0.654   8.550  0.00  0.00     0.099 A 
ATOM     10  C19 ZIN A   1      17.428   0.163   8.408  0.00  0.00     0.040 A 
ATOM     11  C20 ZIN A   1      16.869  -0.767   9.269  0.00  0.00     0.011 A 
ATOM     12  O21 ZIN A   1      20.722   0.444  10.056  0.00  0.00    -0.334 OA
ATOM     13  C22 ZIN A   1      20.854  -0.031  11.429  0.00  0.00     0.215 C 
ATOM     14  C24 ZIN A   1      20.345   1.067  12.344  0.00  0.00     0.170 C 
ATOM     15  O25 ZIN A   1      20.658   2.209  12.103  0.00  0.00    -0.294 OA
ATOM     16  C26 ZIN A   1      19.918  -1.229  11.432  0.00  0.00     0.058 C 
ATOM     17  C27 ZIN A   1      20.622  -2.500  10.962  0.00  0.00     0.051 C 
ATOM     18  C28 ZIN A   1      19.562  -3.582  10.717  0.00  0.00     0.274 C 
ATOM     19  N29 ZIN A   1      18.832  -3.822  11.939  0.00  0.00     0.096 N 
ENDROOT
BRANCH   1  20
ATOM     20  C5  ZIN A   1      18.790   2.067  13.957  0.00  0.00     0.230 C 
ATOM     21  N4  ZIN A   1      19.514   3.169  14.235  0.00  0.00    -0.344 N 
ATOM     22  H51 ZIN A   1      20.481   3.143  14.168  0.00  0.00     0.163 HD
ATOM     23  O6  ZIN A   1      17.581   2.099  14.042  0.00  0.00    -0.273 OA
BRANCH  21  24
ATOM     24  C2  ZIN A   1      18.840   4.405  14.641  0.00  0.00     0.095 C 
ATOM     25  C1  ZIN A   1      19.788   5.589  14.445  0.00  0.00     0.047 C 
ATOM     26  C3  ZIN A   1      17.587   4.607  13.786  0.00  0.00     0.047 C 
BRANCH  24  27
ATOM     27  C34 ZIN A   1      18.448   4.310  16.093  0.00  0.00     0.200 A 
ATOM     28  O44 ZIN A   1      19.174   3.770  17.077  0.00  0.00    -0.193 OA
ATOM     29  N43 ZIN A   1      18.576   3.856  18.129  0.00  0.00    -0.105 NA
ATOM     30  C36 ZIN A   1      17.421   4.438  17.943  0.00  0.00     0.189 A 
ATOM     31  N35 ZIN A   1      17.331   4.736  16.627  0.00  0.00    -0.201 NA
BRANCH  30  32
ATOM     32  C37 ZIN A   1      16.398   4.721  18.981  0.00  0.00     0.014 A 
ATOM     33  C42 ZIN A   1      15.413   5.678  18.749  0.00  0.00     0.015 A 
ATOM     34  C41 ZIN A   1      14.462   5.934  19.716  0.00  0.00     0.001 A 
ATOM     35  C40 ZIN A   1      14.494   5.252  20.919  0.00  0.00     0.000 A 
ATOM     36  C39 ZIN A   1      15.473   4.305  21.156  0.00  0.00     0.001 A 
ATOM     37  C38 ZIN A   1      16.425   4.036  20.195  0.00  0.00     0.015 A 
ENDBRANCH  30  32
ENDBRANCH  24  27
ENDBRANCH  21  24
ENDBRANCH   1  20
BRANCH   3  38
ATOM     38  O10 ZIN A   1      20.056  -1.982  13.718  0.00  0.00    -0.386 OA
ATOM     39  H55 ZIN A   1      19.914  -1.580  14.585  0.00  0.00     0.210 HD
ENDBRANCH   3  38
BRANCH  19  40
ATOM     40  C30 ZIN A   1      17.883  -4.932  11.774  0.00  0.00     0.277 C 
BRANCH  40  41
ATOM     41  C31 ZIN A   1      17.795  -5.313  10.294  0.00  0.00     0.014 A 
ATOM     42  C33 ZIN A   1      16.414  -5.281   9.638  0.00  0.00     0.007 A 
ATOM     43  C32 ZIN A   1      17.085  -6.622   9.944  0.00  0.00     0.007 A 
ENDBRANCH  40  41
ENDBRANCH  19  40
BRANCH   9  44
ATOM     44  O18 ZIN A   1      19.226   1.590   7.702  0.00  0.00    -0.358 OA
ATOM     45  H58 ZIN A   1      19.484   2.416   8.135  0.00  0.00     0.217 HD
ENDBRANCH   9  44
TORSDOF 8
ENDMDL
MODEL 7
REMARK VINA RESULT:      -8.3      2.984      9.844
REMARK  8 active torsions:
REMARK  status: ('A' for Active; 'I' for Inactive)
REMARK    1  A    between atoms: C2_2  and  N4_4 
REMARK    2  A    between atoms: C2_2  and  C34_32 
REMARK       I    between atoms: N4_4  and  C5_5 
REMARK    3  A    between atoms: C5_5  and  C7_7 
REMARK    4  A    between atoms: C9_9  and  O10_10 
REMARK    5  A    between atoms: C17_16  and  O18_17 
REMARK    6  A    between atoms: N29_27  and  C30_28 
REMARK    7  A    between atoms: C30_28  and  C31_29 
REMARK    8  A    between atoms: C36_34  and  C37_35 
ROOT
ATOM      1  C7  ZIN A   1      18.843   0.698   9.130  0.00  0.00     0.153 C 
ATOM      2  C8  ZIN A   1      17.891   0.560  10.320  0.00  0.00     0.063 C 
ATOM      3  C9  ZIN A   1      18.655   0.892  11.601  0.00  0.00     0.105 C 
ATOM      4  C11 ZIN A   1      17.718   0.794  12.808  0.00  0.00     0.262 C 
ATOM      5  C13 ZIN A   1      17.053  -0.563  12.973  0.00  0.00     0.078 C 
ATOM      6  C14 ZIN A   1      17.905  -1.703  12.516  0.00  0.00    -0.046 A 
ATOM      7  C15 ZIN A   1      19.144  -1.443  11.976  0.00  0.00    -0.001 A 
ATOM      8  C16 ZIN A   1      19.983  -2.381  11.394  0.00  0.00     0.110 A 
ATOM      9  C17 ZIN A   1      19.599  -3.726  11.444  0.00  0.00     0.099 A 
ATOM     10  C19 ZIN A   1      18.380  -4.011  12.057  0.00  0.00     0.040 A 
ATOM     11  C20 ZIN A   1      17.543  -3.037  12.577  0.00  0.00     0.011 A 
ATOM     12  O21 ZIN A   1      21.043  -1.769  10.824  0.00  0.00    -0.334 OA
ATOM     13  C22 ZIN A   1      20.736  -0.352  10.656  0.00  0.00     0.215 C 
ATOM     14  C24 ZIN A   1      20.034  -0.192   9.320  0.00  0.00     0.170 C 
ATOM     15  O25 ZIN A   1      20.463  -0.799   8.368  0.00  0.00    -0.294 OA
ATOM     16  C26 ZIN A   1      19.782  -0.105  11.814  0.00  0.00     0.058 C 
ATOM     17  C27 ZIN A   1      20.528   0.245  13.099  0.00  0.00     0.051 C 
ATOM     18  C28 ZIN A   1      19.536   0.194  14.268  0.00  0.00     0.274 C 
ATOM     19  N29 ZIN A   1      18.463   1.130  14.027  0.00  0.00     0.096 N 
ENDROOT
BRANCH   1  20
ATOM     20  C5  ZIN A   1      18.123   0.305   7.866  0.00  0.00     0.230 C 
ATOM     21  N4  ZIN A   1      18.819   0.096   6.731  0.00  0.00    -0.344 N 
ATOM     22  H51 ZIN A   1      19.783   0.198   6.728  0.00  0.00     0.163 HD
ATOM     23  O6  ZIN A   1      16.917   0.177   7.869  0.00  0.00    -0.273 OA
BRANCH  21  24
ATOM     24  C2  ZIN A   1      18.119  -0.286   5.502  0.00  0.00     0.095 C 
ATOM     25  C1  ZIN A   1      16.698   0.280   5.528  0.00  0.00     0.047 C 
ATOM     26  C3  ZIN A   1      18.869   0.276   4.292  0.00  0.00     0.047 C 
BRANCH  24  27
ATOM     27  C34 ZIN A   1      18.059  -1.788   5.403  0.00  0.00     0.200 A 
ATOM     28  O44 ZIN A   1      18.041  -2.509   4.277  0.00  0.00    -0.193 OA
ATOM     29  N43 ZIN A   1      17.994  -3.692   4.542  0.00  0.00    -0.105 NA
ATOM     30  C36 ZIN A   1      17.966  -3.861   5.838  0.00  0.00     0.189 A 
ATOM     31  N35 ZIN A   1      18.008  -2.633   6.402  0.00  0.00    -0.201 NA
BRANCH  30  32
ATOM     32  C37 ZIN A   1      17.901  -5.158   6.556  0.00  0.00     0.014 A 
ATOM     33  C42 ZIN A   1      18.454  -5.280   7.830  0.00  0.00     0.015 A 
ATOM     34  C41 ZIN A   1      18.387  -6.487   8.496  0.00  0.00     0.001 A 
ATOM     35  C40 ZIN A   1      17.784  -7.578   7.896  0.00  0.00     0.000 A 
ATOM     36  C39 ZIN A   1      17.238  -7.464   6.630  0.00  0.00     0.001 A 
ATOM     37  C38 ZIN A   1      17.294  -6.261   5.958  0.00  0.00     0.015 A 
ENDBRANCH  30  32
ENDBRANCH  24  27
ENDBRANCH  21  24
ENDBRANCH   1  20
BRANCH   3  38
ATOM     38  O10 ZIN A   1      19.194   2.212  11.508  0.00  0.00    -0.386 OA
ATOM     39  H55 ZIN A   1      18.577   2.864  11.148  0.00  0.00     0.210 HD
ENDBRANCH   3  38
BRANCH  19  40
ATOM     40  C30 ZIN A   1      17.551   1.192  15.177  0.00  0.00     0.277 C 
BRANCH  40  41
ATOM     41  C31 ZIN A   1      18.073   0.281  16.291  0.00  0.00     0.014 A 
ATOM     42  C33 ZIN A   1      17.187  -0.891  16.717  0.00  0.00     0.007 A 
ATOM     43  C32 ZIN A   1      17.344   0.324  17.635  0.00  0.00     0.007 A 
ENDBRANCH  40  41
ENDBRANCH  19  40
BRANCH   9  44
ATOM     44  O18 ZIN A   1      20.378  -4.708  10.919  0.00  0.00    -0.358 OA
ATOM     45  H58 ZIN A   1      20.360  -5.535  11.420  0.00  0.00     0.217 HD
ENDBRANCH   9  44
TORSDOF 8
ENDMDL
MODEL 8
REMARK VINA RESULT:      -8.1      2.131      4.807
REMARK  8 active torsions:
REMARK  status: ('A' for Active; 'I' for Inactive)
REMARK    1  A    between atoms: C2_2  and  N4_4 
REMARK    2  A    between atoms: C2_2  and  C34_32 
REMARK       I    between atoms: N4_4  and  C5_5 
REMARK    3  A    between atoms: C5_5  and  C7_7 
REMARK    4  A    between atoms: C9_9  and  O10_10 
REMARK    5  A    between atoms: C17_16  and  O18_17 
REMARK    6  A    between atoms: N29_27  and  C30_28 
REMARK    7  A    between atoms: C30_28  and  C31_29 
REMARK    8  A    between atoms: C36_34  and  C37_35 
ROOT
ATOM      1  C7  ZIN A   1      18.304   2.655  10.774  0.00  0.00     0.153 C 
ATOM      2  C8  ZIN A   1      19.292   1.777  10.004  0.00  0.00     0.063 C 
ATOM      3  C9  ZIN A   1      18.511   0.905   9.021  0.00  0.00     0.105 C 
ATOM      4  C11 ZIN A   1      19.478   0.036   8.212  0.00  0.00     0.262 C 
ATOM      5  C13 ZIN A   1      20.369  -0.859   9.058  0.00  0.00     0.078 C 
ATOM      6  C14 ZIN A   1      19.715  -1.333  10.315  0.00  0.00    -0.046 A 
ATOM      7  C15 ZIN A   1      18.438  -0.912  10.609  0.00  0.00    -0.001 A 
ATOM      8  C16 ZIN A   1      17.759  -1.162  11.792  0.00  0.00     0.110 A 
ATOM      9  C17 ZIN A   1      18.369  -1.997  12.735  0.00  0.00     0.099 A 
ATOM     10  C19 ZIN A   1      19.633  -2.492  12.416  0.00  0.00     0.040 A 
ATOM     11  C20 ZIN A   1      20.301  -2.172  11.246  0.00  0.00     0.011 A 
ATOM     12  O21 ZIN A   1      16.597  -0.474  11.818  0.00  0.00    -0.334 OA
ATOM     13  C22 ZIN A   1      16.654   0.584  10.814  0.00  0.00     0.215 C 
ATOM     14  C24 ZIN A   1      17.287   1.799  11.466  0.00  0.00     0.170 C 
ATOM     15  O25 ZIN A   1      16.948   2.094  12.587  0.00  0.00    -0.294 OA
ATOM     16  C26 ZIN A   1      17.577  -0.028   9.773  0.00  0.00     0.058 C 
ATOM     17  C27 ZIN A   1      16.811  -0.889   8.771  0.00  0.00     0.051 C 
ATOM     18  C28 ZIN A   1      17.823  -1.692   7.945  0.00  0.00     0.274 C 
ATOM     19  N29 ZIN A   1      18.714  -0.782   7.263  0.00  0.00     0.096 N 
ENDROOT
BRANCH   1  20
ATOM     20  C5  ZIN A   1      19.052   3.469  11.797  0.00  0.00     0.230 C 
ATOM     21  N4  ZIN A   1      18.386   4.335  12.588  0.00  0.00    -0.344 N 
ATOM     22  H51 ZIN A   1      17.426   4.433  12.498  0.00  0.00     0.163 HD
ATOM     23  O6  ZIN A   1      20.253   3.348  11.910  0.00  0.00    -0.273 OA
BRANCH  21  24
ATOM     24  C2  ZIN A   1      19.114   5.127  13.583  0.00  0.00     0.095 C 
ATOM     25  C1  ZIN A   1      20.468   5.546  13.008  0.00  0.00     0.047 C 
ATOM     26  C3  ZIN A   1      18.301   6.374  13.935  0.00  0.00     0.047 C 
BRANCH  24  27
ATOM     27  C34 ZIN A   1      19.329   4.300  14.824  0.00  0.00     0.200 A 
ATOM     28  O44 ZIN A   1      20.022   4.663  15.908  0.00  0.00    -0.193 OA
ATOM     29  N43 ZIN A   1      20.001   3.771  16.731  0.00  0.00    -0.105 NA
ATOM     30  C36 ZIN A   1      19.318   2.755  16.275  0.00  0.00     0.189 A 
ATOM     31  N35 ZIN A   1      18.879   3.089  15.041  0.00  0.00    -0.201 NA
BRANCH  30  32
ATOM     32  C37 ZIN A   1      19.068   1.472  16.980  0.00  0.00     0.014 A 
ATOM     33  C42 ZIN A   1      19.161   0.266  16.290  0.00  0.00     0.015 A 
ATOM     34  C41 ZIN A   1      18.933  -0.924  16.952  0.00  0.00     0.001 A 
ATOM     35  C40 ZIN A   1      18.601  -0.919  18.295  0.00  0.00     0.000 A 
ATOM     36  C39 ZIN A   1      18.503   0.277  18.983  0.00  0.00     0.001 A 
ATOM     37  C38 ZIN A   1      18.734   1.471  18.333  0.00  0.00     0.015 A 
ENDBRANCH  30  32
ENDBRANCH  24  27
ENDBRANCH  21  24
ENDBRANCH   1  20
BRANCH   3  38
ATOM     38  O10 ZIN A   1      17.752   1.738   8.142  0.00  0.00    -0.386 OA
ATOM     39  H55 ZIN A   1      17.214   1.248   7.504  0.00  0.00     0.210 HD
ENDBRANCH   3  38
BRANCH  19  40
ATOM     40  C30 ZIN A   1      19.628  -1.510   6.372  0.00  0.00     0.277 C 
BRANCH  40  41
ATOM     41  C31 ZIN A   1      19.273  -1.201   4.916  0.00  0.00     0.014 A 
ATOM     42  C33 ZIN A   1      18.863   0.234   4.578  0.00  0.00     0.007 A 
ATOM     43  C32 ZIN A   1      17.811  -0.878   4.599  0.00  0.00     0.007 A 
ENDBRANCH  40  41
ENDBRANCH  19  40
BRANCH   9  44
ATOM     44  O18 ZIN A   1      17.759  -2.310  13.908  0.00  0.00    -0.358 OA
ATOM     45  H58 ZIN A   1      17.164  -3.071  13.852  0.00  0.00     0.217 HD
ENDBRANCH   9  44
TORSDOF 8
ENDMDL
MODEL 9
REMARK VINA RESULT:      -7.9      3.238      9.390
REMARK  8 active torsions:
REMARK  status: ('A' for Active; 'I' for Inactive)
REMARK    1  A    between atoms: C2_2  and  N4_4 
REMARK    2  A    between atoms: C2_2  and  C34_32 
REMARK       I    between atoms: N4_4  and  C5_5 
REMARK    3  A    between atoms: C5_5  and  C7_7 
REMARK    4  A    between atoms: C9_9  and  O10_10 
REMARK    5  A    between atoms: C17_16  and  O18_17 
REMARK    6  A    between atoms: N29_27  and  C30_28 
REMARK    7  A    between atoms: C30_28  and  C31_29 
REMARK    8  A    between atoms: C36_34  and  C37_35 
ROOT
ATOM      1  C7  ZIN A   1      18.229   5.210  14.289  0.00  0.00     0.153 C 
ATOM      2  C8  ZIN A   1      16.741   5.409  14.582  0.00  0.00     0.063 C 
ATOM      3  C9  ZIN A   1      16.506   6.872  14.957  0.00  0.00     0.105 C 
ATOM      4  C11 ZIN A   1      15.018   7.109  15.226  0.00  0.00     0.262 C 
ATOM      5  C13 ZIN A   1      14.432   6.226  16.316  0.00  0.00     0.078 C 
ATOM      6  C14 ZIN A   1      15.406   5.890  17.399  0.00  0.00    -0.046 A 
ATOM      7  C15 ZIN A   1      16.698   6.354  17.308  0.00  0.00    -0.001 A 
ATOM      8  C16 ZIN A   1      17.737   6.018  18.163  0.00  0.00     0.110 A 
ATOM      9  C17 ZIN A   1      17.440   5.223  19.276  0.00  0.00     0.099 A 
ATOM     10  C19 ZIN A   1      16.117   4.809  19.421  0.00  0.00     0.040 A 
ATOM     11  C20 ZIN A   1      15.119   5.120  18.512  0.00  0.00     0.011 A 
ATOM     12  O21 ZIN A   1      18.903   6.517  17.700  0.00  0.00    -0.334 OA
ATOM     13  C22 ZIN A   1      18.740   6.865  16.292  0.00  0.00     0.215 C 
ATOM     14  C24 ZIN A   1      19.046   5.624  15.475  0.00  0.00     0.170 C 
ATOM     15  O25 ZIN A   1      19.997   4.948  15.788  0.00  0.00    -0.294 OA
ATOM     16  C26 ZIN A   1      17.262   7.216  16.230  0.00  0.00     0.058 C 
ATOM     17  C27 ZIN A   1      17.011   8.679  16.586  0.00  0.00     0.051 C 
ATOM     18  C28 ZIN A   1      15.503   8.880  16.784  0.00  0.00     0.274 C 
ATOM     19  N29 ZIN A   1      14.808   8.521  15.570  0.00  0.00     0.096 N 
ENDROOT
BRANCH   1  20
ATOM     20  C5  ZIN A   1      18.488   3.756  13.987  0.00  0.00     0.230 C 
ATOM     21  N4  ZIN A   1      17.880   2.797  14.713  0.00  0.00    -0.344 N 
ATOM     22  H51 ZIN A   1      17.276   3.043  15.430  0.00  0.00     0.163 HD
ATOM     23  O6  ZIN A   1      19.245   3.448  13.090  0.00  0.00    -0.273 OA
BRANCH  21  24
ATOM     24  C2  ZIN A   1      18.133   1.385  14.419  0.00  0.00     0.095 C 
ATOM     25  C1  ZIN A   1      19.626   1.091  14.576  0.00  0.00     0.047 C 
ATOM     26  C3  ZIN A   1      17.336   0.511  15.391  0.00  0.00     0.047 C 
BRANCH  24  27
ATOM     27  C34 ZIN A   1      17.707   1.081  13.006  0.00  0.00     0.200 A 
ATOM     28  O44 ZIN A   1      16.498   0.667  12.613  0.00  0.00    -0.193 OA
ATOM     29  N43 ZIN A   1      16.482   0.516  11.409  0.00  0.00    -0.105 NA
ATOM     30  C36 ZIN A   1      17.654   0.800  10.905  0.00  0.00     0.189 A 
ATOM     31  N35 ZIN A   1      18.453   1.166  11.933  0.00  0.00    -0.201 NA
BRANCH  30  32
ATOM     32  C37 ZIN A   1      18.037   0.733   9.473  0.00  0.00     0.014 A 
ATOM     33  C42 ZIN A   1      18.894   1.690   8.933  0.00  0.00     0.015 A 
ATOM     34  C41 ZIN A   1      19.251   1.621   7.602  0.00  0.00     0.001 A 
ATOM     35  C40 ZIN A   1      18.750   0.610   6.800  0.00  0.00     0.000 A 
ATOM     36  C39 ZIN A   1      17.896  -0.340   7.330  0.00  0.00     0.001 A 
ATOM     37  C38 ZIN A   1      17.537  -0.283   8.661  0.00  0.00     0.015 A 
ENDBRANCH  30  32
ENDBRANCH  24  27
ENDBRANCH  21  24
ENDBRANCH   1  20
BRANCH   3  38
ATOM     38  O10 ZIN A   1      16.950   7.716  13.893  0.00  0.00    -0.386 OA
ATOM     39  H55 ZIN A   1      17.296   7.235  13.128  0.00  0.00     0.210 HD
ENDBRANCH   3  38
BRANCH  19  40
ATOM     40  C30 ZIN A   1      13.372   8.807  15.682  0.00  0.00     0.277 C 
BRANCH  40  41
ATOM     41  C31 ZIN A   1      13.110   9.613  16.956  0.00  0.00     0.014 A 
ATOM     42  C33 ZIN A   1      13.021   8.842  18.274  0.00  0.00     0.007 A 
ATOM     43  C32 ZIN A   1      11.756   9.428  17.643  0.00  0.00     0.007 A 
ENDBRANCH  40  41
ENDBRANCH  19  40
BRANCH   9  44
ATOM     44  O18 ZIN A   1      18.397   4.871  20.174  0.00  0.00    -0.358 OA
ATOM     45  H58 ZIN A   1      19.295   5.112  19.908  0.00  0.00     0.217 HD
ENDBRANCH   9  44
TORSDOF 8
ENDMDL
