MODEL 1
REMARK VINA RESULT:      -6.6      0.000      0.000
REMARK  5 active torsions:
REMARK  status: ('A' for Active; 'I' for Inactive)
REMARK    1  A    between atoms: C2_2  and  C3_3 
REMARK    2  A    between atoms: C3_3  and  C4_4 
REMARK    3  A    between atoms: C4_4  and  C5_5 
REMARK    4  A    between atoms: C5_5  and  C8_7 
REMARK    5  A    between atoms: C9_8  and  C10_9 
ROOT
ATOM      1  C4  ZIN A   1      19.084  -0.931  12.138  0.00  0.00     0.139 A 
ATOM      2  C12 ZIN A   1      17.610  -0.953  11.780  0.00  0.00     0.245 A 
ATOM      3  O13 ZIN A   1      16.997  -1.995  11.701  0.00  0.00    -0.272 OA
ATOM      4  N14 ZIN A   1      17.006   0.234  11.551  0.00  0.00    -0.278 N 
ATOM      5  C15 ZIN A   1      17.668   1.393  11.635  0.00  0.00     0.331 A 
ATOM      6  O16 ZIN A   1      17.046   2.413  11.414  0.00  0.00    -0.246 OA
ATOM      7  N17 ZIN A   1      18.964   1.511  11.942  0.00  0.00    -0.273 N 
ATOM      8  C18 ZIN A   1      19.563   2.847  11.998  0.00  0.00     0.164 C 
ATOM      9  C19 ZIN A   1      19.738   0.436  12.204  0.00  0.00     0.247 A 
ATOM     10  O20 ZIN A   1      20.912   0.559  12.482  0.00  0.00    -0.271 OA
ATOM     11  H34 ZIN A   1      16.063   0.245  11.321  0.00  0.00     0.173 HD
ENDROOT
BRANCH   1  12
ATOM     12  C3  ZIN A   1      19.252  -1.607  13.500  0.00  0.00     0.057 C 
BRANCH  12  13
ATOM     13  C2  ZIN A   1      18.431  -0.874  14.529  0.00  0.00    -0.035 C 
ATOM     14  C1  ZIN A   1      18.374  -1.320  15.760  0.00  0.00     0.007 C 
ENDBRANCH  12  13
ENDBRANCH   1  12
BRANCH   1  15
ATOM     15  C5  ZIN A   1      19.833  -1.768  11.099  0.00  0.00     0.088 C 
ATOM     16  C7  ZIN A   1      19.403  -3.231  11.216  0.00  0.00     0.025 C 
BRANCH  15  17
ATOM     17  C8  ZIN A   1      19.520  -1.270   9.750  0.00  0.00    -0.100 C 
ATOM     18  C9  ZIN A   1      19.271  -0.873   8.674  0.00  0.00    -0.106 C 
BRANCH  18  19
ATOM     19  C10 ZIN A   1      18.958  -0.375   7.325  0.00  0.00     0.089 C 
ATOM     20  C11 ZIN A   1      18.976   1.155   7.328  0.00  0.00     0.018 C 
ENDBRANCH  18  19
ENDBRANCH  15  17
ENDBRANCH   1  15
TORSDOF 5
ENDMDL
MODEL 2
REMARK VINA RESULT:      -6.4      1.361      5.172
REMARK  5 active torsions:
REMARK  status: ('A' for Active; 'I' for Inactive)
REMARK    1  A    between atoms: C2_2  and  C3_3 
REMARK    2  A    between atoms: C3_3  and  C4_4 
REMARK    3  A    between atoms: C4_4  and  C5_5 
REMARK    4  A    between atoms: C5_5  and  C8_7 
REMARK    5  A    between atoms: C9_8  and  C10_9 
ROOT
ATOM      1  C4  ZIN A   1      19.074   1.027  10.888  0.00  0.00     0.139 A 
ATOM      2  C12 ZIN A   1      17.605   1.056  11.269  0.00  0.00     0.245 A 
ATOM      3  O13 ZIN A   1      17.007   2.102  11.390  0.00  0.00    -0.272 OA
ATOM      4  N14 ZIN A   1      16.989  -0.130  11.470  0.00  0.00    -0.278 N 
ATOM      5  C15 ZIN A   1      17.635  -1.294  11.340  0.00  0.00     0.331 A 
ATOM      6  O16 ZIN A   1      17.004  -2.313  11.538  0.00  0.00    -0.246 OA
ATOM      7  N17 ZIN A   1      18.925  -1.419  11.008  0.00  0.00    -0.273 N 
ATOM      8  C18 ZIN A   1      19.505  -2.760  10.902  0.00  0.00     0.164 C 
ATOM      9  C19 ZIN A   1      19.709  -0.346  10.768  0.00  0.00     0.247 A 
ATOM     10  O20 ZIN A   1      20.876  -0.474  10.469  0.00  0.00    -0.271 OA
ATOM     11  H34 ZIN A   1      16.050  -0.137  11.714  0.00  0.00     0.173 HD
ENDROOT
BRANCH   1  12
ATOM     12  C3  ZIN A   1      19.230   1.743   9.545  0.00  0.00     0.057 C 
BRANCH  12  13
ATOM     13  C2  ZIN A   1      18.498   0.972   8.476  0.00  0.00    -0.035 C 
ATOM     14  C1  ZIN A   1      18.903   1.034   7.232  0.00  0.00     0.007 C 
ENDBRANCH  12  13
ENDBRANCH   1  12
BRANCH   1  15
ATOM     15  C5  ZIN A   1      19.850   1.821  11.940  0.00  0.00     0.088 C 
ATOM     16  C7  ZIN A   1      19.470   3.300  11.846  0.00  0.00     0.025 C 
BRANCH  15  17
ATOM     17  C8  ZIN A   1      19.518   1.313  13.281  0.00  0.00    -0.100 C 
ATOM     18  C9  ZIN A   1      19.252   0.907  14.350  0.00  0.00    -0.106 C 
BRANCH  18  19
ATOM     19  C10 ZIN A   1      18.920   0.400  15.691  0.00  0.00     0.089 C 
ATOM     20  C11 ZIN A   1      18.868  -1.130  15.659  0.00  0.00     0.018 C 
ENDBRANCH  18  19
ENDBRANCH  15  17
ENDBRANCH   1  15
TORSDOF 5
ENDMDL
MODEL 3
REMARK VINA RESULT:      -6.4      1.784      3.865
REMARK  5 active torsions:
REMARK  status: ('A' for Active; 'I' for Inactive)
REMARK    1  A    between atoms: C2_2  and  C3_3 
REMARK    2  A    between atoms: C3_3  and  C4_4 
REMARK    3  A    between atoms: C4_4  and  C5_5 
REMARK    4  A    between atoms: C5_5  and  C8_7 
REMARK    5  A    between atoms: C9_8  and  C10_9 
ROOT
ATOM      1  C4  ZIN A   1      18.142   1.320  11.771  0.00  0.00     0.139 A 
ATOM      2  C12 ZIN A   1      19.656   1.260  11.680  0.00  0.00     0.245 A 
ATOM      3  O13 ZIN A   1      20.331   2.262  11.770  0.00  0.00    -0.272 OA
ATOM      4  N14 ZIN A   1      20.223   0.048  11.494  0.00  0.00    -0.278 N 
ATOM      5  C15 ZIN A   1      19.492  -1.067  11.393  0.00  0.00     0.331 A 
ATOM      6  O16 ZIN A   1      20.084  -2.115  11.228  0.00  0.00    -0.246 OA
ATOM      7  N17 ZIN A   1      18.157  -1.114  11.460  0.00  0.00    -0.273 N 
ATOM      8  C18 ZIN A   1      17.483  -2.409  11.333  0.00  0.00     0.164 C 
ATOM      9  C19 ZIN A   1      17.411  -0.003  11.643  0.00  0.00     0.247 A 
ATOM     10  O20 ZIN A   1      16.201  -0.061  11.702  0.00  0.00    -0.271 OA
ATOM     11  H34 ZIN A   1      21.189  -0.015  11.433  0.00  0.00     0.173 HD
ENDROOT
BRANCH   1  12
ATOM     12  C3  ZIN A   1      17.771   1.941  13.119  0.00  0.00     0.057 C 
BRANCH  12  13
ATOM     13  C2  ZIN A   1      18.227   1.034  14.233  0.00  0.00    -0.035 C 
ATOM     14  C1  ZIN A   1      18.860   1.533  15.266  0.00  0.00     0.007 C 
ENDBRANCH  12  13
ENDBRANCH   1  12
BRANCH   1  15
ATOM     15  C5  ZIN A   1      17.640   2.251  10.666  0.00  0.00     0.088 C 
ATOM     16  C7  ZIN A   1      18.066   3.687  10.976  0.00  0.00     0.025 C 
BRANCH  15  17
ATOM     17  C8  ZIN A   1      18.214   1.835   9.376  0.00  0.00    -0.100 C 
ATOM     18  C9  ZIN A   1      18.672   1.504   8.347  0.00  0.00    -0.106 C 
BRANCH  18  19
ATOM     19  C10 ZIN A   1      19.246   1.088   7.057  0.00  0.00     0.089 C 
ATOM     20  C11 ZIN A   1      18.134   0.554   6.151  0.00  0.00     0.018 C 
ENDBRANCH  18  19
ENDBRANCH  15  17
ENDBRANCH   1  15
TORSDOF 5
ENDMDL
MODEL 4
REMARK VINA RESULT:      -6.3      1.696      3.697
REMARK  5 active torsions:
REMARK  status: ('A' for Active; 'I' for Inactive)
REMARK    1  A    between atoms: C2_2  and  C3_3 
REMARK    2  A    between atoms: C3_3  and  C4_4 
REMARK    3  A    between atoms: C4_4  and  C5_5 
REMARK    4  A    between atoms: C5_5  and  C8_7 
REMARK    5  A    between atoms: C9_8  and  C10_9 
ROOT
ATOM      1  C4  ZIN A   1      18.780  -0.070  12.087  0.00  0.00     0.139 A 
ATOM      2  C12 ZIN A   1      20.227  -0.351  11.725  0.00  0.00     0.245 A 
ATOM      3  O13 ZIN A   1      21.092   0.478  11.905  0.00  0.00    -0.272 OA
ATOM      4  N14 ZIN A   1      20.513  -1.559  11.193  0.00  0.00    -0.278 N 
ATOM      5  C15 ZIN A   1      19.570  -2.484  10.988  0.00  0.00     0.331 A 
ATOM      6  O16 ZIN A   1      19.916  -3.544  10.506  0.00  0.00    -0.246 OA
ATOM      7  N17 ZIN A   1      18.272  -2.328  11.274  0.00  0.00    -0.273 N 
ATOM      8  C18 ZIN A   1      17.346  -3.428  10.996  0.00  0.00     0.164 C 
ATOM      9  C19 ZIN A   1      17.791  -1.187  11.812  0.00  0.00     0.247 A 
ATOM     10  O20 ZIN A   1      16.613  -1.060  12.067  0.00  0.00    -0.271 OA
ATOM     11  H34 ZIN A   1      21.432  -1.761  10.954  0.00  0.00     0.173 HD
ENDROOT
BRANCH   1  12
ATOM     12  C3  ZIN A   1      18.720   0.265  13.578  0.00  0.00     0.057 C 
BRANCH  12  13
ATOM     13  C2  ZIN A   1      19.191  -0.923  14.379  0.00  0.00    -0.035 C 
ATOM     14  C1  ZIN A   1      18.541  -1.284  15.457  0.00  0.00     0.007 C 
ENDBRANCH  12  13
ENDBRANCH   1  12
BRANCH   1  15
ATOM     15  C5  ZIN A   1      18.330   1.167  11.307  0.00  0.00     0.088 C 
ATOM     16  C7  ZIN A   1      19.158   2.376  11.746  0.00  0.00     0.025 C 
BRANCH  15  17
ATOM     17  C8  ZIN A   1      18.525   0.935   9.867  0.00  0.00    -0.100 C 
ATOM     18  C9  ZIN A   1      18.680   0.750   8.717  0.00  0.00    -0.106 C 
BRANCH  18  19
ATOM     19  C10 ZIN A   1      18.875   0.518   7.277  0.00  0.00     0.089 C 
ATOM     20  C11 ZIN A   1      17.576  -0.012   6.665  0.00  0.00     0.018 C 
ENDBRANCH  18  19
ENDBRANCH  15  17
ENDBRANCH   1  15
TORSDOF 5
ENDMDL
MODEL 5
REMARK VINA RESULT:      -6.2      2.170      4.846
REMARK  5 active torsions:
REMARK  status: ('A' for Active; 'I' for Inactive)
REMARK    1  A    between atoms: C2_2  and  C3_3 
REMARK    2  A    between atoms: C3_3  and  C4_4 
REMARK    3  A    between atoms: C4_4  and  C5_5 
REMARK    4  A    between atoms: C5_5  and  C8_7 
REMARK    5  A    between atoms: C9_8  and  C10_9 
ROOT
ATOM      1  C4  ZIN A   1      18.954  -1.645  12.182  0.00  0.00     0.139 A 
ATOM      2  C12 ZIN A   1      19.921  -2.311  11.221  0.00  0.00     0.245 A 
ATOM      3  O13 ZIN A   1      20.570  -3.278  11.553  0.00  0.00    -0.272 OA
ATOM      4  N14 ZIN A   1      20.032  -1.784   9.983  0.00  0.00    -0.278 N 
ATOM      5  C15 ZIN A   1      19.322  -0.716   9.601  0.00  0.00     0.331 A 
ATOM      6  O16 ZIN A   1      19.484  -0.309   8.468  0.00  0.00    -0.246 OA
ATOM      7  N17 ZIN A   1      18.448  -0.064  10.375  0.00  0.00    -0.273 N 
ATOM      8  C18 ZIN A   1      17.738   1.094   9.827  0.00  0.00     0.164 C 
ATOM      9  C19 ZIN A   1      18.200  -0.441  11.648  0.00  0.00     0.247 A 
ATOM     10  O20 ZIN A   1      17.404   0.159  12.338  0.00  0.00    -0.271 OA
ATOM     11  H34 ZIN A   1      20.645  -2.193   9.351  0.00  0.00     0.173 HD
ENDROOT
BRANCH   1  12
ATOM     12  C3  ZIN A   1      17.929  -2.691  12.625  0.00  0.00     0.057 C 
BRANCH  12  13
ATOM     13  C2  ZIN A   1      17.290  -3.315  11.411  0.00  0.00    -0.035 C 
ATOM     14  C1  ZIN A   1      16.922  -4.572  11.438  0.00  0.00     0.007 C 
ENDBRANCH  12  13
ENDBRANCH   1  12
BRANCH   1  15
ATOM     15  C5  ZIN A   1      19.743  -1.203  13.416  0.00  0.00     0.088 C 
ATOM     16  C7  ZIN A   1      20.295   0.206  13.191  0.00  0.00     0.025 C 
BRANCH  15  17
ATOM     17  C8  ZIN A   1      18.856  -1.201  14.590  0.00  0.00    -0.100 C 
ATOM     18  C9  ZIN A   1      18.148  -1.199  15.527  0.00  0.00    -0.106 C 
BRANCH  18  19
ATOM     19  C10 ZIN A   1      17.261  -1.197  16.701  0.00  0.00     0.089 C 
ATOM     20  C11 ZIN A   1      17.291   0.184  17.361  0.00  0.00     0.018 C 
ENDBRANCH  18  19
ENDBRANCH  15  17
ENDBRANCH   1  15
TORSDOF 5
ENDMDL
MODEL 6
REMARK VINA RESULT:      -6.2      1.351      4.790
REMARK  5 active torsions:
REMARK  status: ('A' for Active; 'I' for Inactive)
REMARK    1  A    between atoms: C2_2  and  C3_3 
REMARK    2  A    between atoms: C3_3  and  C4_4 
REMARK    3  A    between atoms: C4_4  and  C5_5 
REMARK    4  A    between atoms: C5_5  and  C8_7 
REMARK    5  A    between atoms: C9_8  and  C10_9 
ROOT
ATOM      1  C4  ZIN A   1      18.923   0.039  10.836  0.00  0.00     0.139 A 
ATOM      2  C12 ZIN A   1      20.346   0.330  11.274  0.00  0.00     0.245 A 
ATOM      3  O13 ZIN A   1      21.223  -0.498  11.155  0.00  0.00    -0.272 OA
ATOM      4  N14 ZIN A   1      20.600   1.546  11.804  0.00  0.00    -0.278 N 
ATOM      5  C15 ZIN A   1      19.644   2.472  11.943  0.00  0.00     0.331 A 
ATOM      6  O16 ZIN A   1      19.960   3.539  12.428  0.00  0.00    -0.246 OA
ATOM      7  N17 ZIN A   1      18.365   2.307  11.586  0.00  0.00    -0.273 N 
ATOM      8  C18 ZIN A   1      17.421   3.408  11.796  0.00  0.00     0.164 C 
ATOM      9  C19 ZIN A   1      17.918   1.157  11.038  0.00  0.00     0.247 A 
ATOM     10  O20 ZIN A   1      16.755   1.023  10.720  0.00  0.00    -0.271 OA
ATOM     11  H34 ZIN A   1      21.503   1.755  12.092  0.00  0.00     0.173 HD
ENDROOT
BRANCH   1  12
ATOM     12  C3  ZIN A   1      18.948  -0.316   9.348  0.00  0.00     0.057 C 
BRANCH  12  13
ATOM     13  C2  ZIN A   1      19.450   0.865   8.557  0.00  0.00    -0.035 C 
ATOM     14  C1  ZIN A   1      18.924   1.142   7.390  0.00  0.00     0.007 C 
ENDBRANCH  12  13
ENDBRANCH   1  12
BRANCH   1  15
ATOM     15  C5  ZIN A   1      18.433  -1.187  11.607  0.00  0.00     0.088 C 
ATOM     16  C7  ZIN A   1      19.240  -2.415  11.179  0.00  0.00     0.025 C 
BRANCH  15  17
ATOM     17  C8  ZIN A   1      18.610  -0.962  13.050  0.00  0.00    -0.100 C 
ATOM     18  C9  ZIN A   1      18.752  -0.782  14.202  0.00  0.00    -0.106 C 
BRANCH  18  19
ATOM     19  C10 ZIN A   1      18.930  -0.556  15.645  0.00  0.00     0.089 C 
ATOM     20  C11 ZIN A   1      18.010  -1.499  16.426  0.00  0.00     0.018 C 
ENDBRANCH  18  19
ENDBRANCH  15  17
ENDBRANCH   1  15
TORSDOF 5
ENDMDL
MODEL 7
REMARK VINA RESULT:      -6.2      2.285      4.480
REMARK  5 active torsions:
REMARK  status: ('A' for Active; 'I' for Inactive)
REMARK    1  A    between atoms: C2_2  and  C3_3 
REMARK    2  A    between atoms: C3_3  and  C4_4 
REMARK    3  A    between atoms: C4_4  and  C5_5 
REMARK    4  A    between atoms: C5_5  and  C8_7 
REMARK    5  A    between atoms: C9_8  and  C10_9 
ROOT
ATOM      1  C4  ZIN A   1      18.977   0.623  10.980  0.00  0.00     0.139 A 
ATOM      2  C12 ZIN A   1      20.199   0.040  11.664  0.00  0.00     0.245 A 
ATOM      3  O13 ZIN A   1      20.953   0.738  12.307  0.00  0.00    -0.272 OA
ATOM      4  N14 ZIN A   1      20.416  -1.286  11.529  0.00  0.00    -0.278 N 
ATOM      5  C15 ZIN A   1      19.594  -2.071  10.824  0.00  0.00     0.331 A 
ATOM      6  O16 ZIN A   1      19.864  -3.253  10.756  0.00  0.00    -0.246 OA
ATOM      7  N17 ZIN A   1      18.496  -1.648  10.188  0.00  0.00    -0.273 N 
ATOM      8  C18 ZIN A   1      17.684  -2.619   9.449  0.00  0.00     0.164 C 
ATOM      9  C19 ZIN A   1      18.112  -0.354  10.205  0.00  0.00     0.247 A 
ATOM     10  O20 ZIN A   1      17.114   0.014   9.624  0.00  0.00    -0.271 OA
ATOM     11  H34 ZIN A   1      21.192  -1.682  11.958  0.00  0.00     0.173 HD
ENDROOT
BRANCH   1  12
ATOM     12  C3  ZIN A   1      18.106   1.288  12.048  0.00  0.00     0.057 C 
BRANCH  12  13
ATOM     13  C2  ZIN A   1      17.585   0.238  12.996  0.00  0.00    -0.035 C 
ATOM     14  C1  ZIN A   1      17.635   0.442  14.289  0.00  0.00     0.007 C 
ENDBRANCH  12  13
ENDBRANCH   1  12
BRANCH   1  15
ATOM     15  C5  ZIN A   1      19.451   1.710  10.013  0.00  0.00     0.088 C 
ATOM     16  C7  ZIN A   1      19.344   1.196   8.576  0.00  0.00     0.025 C 
BRANCH  15  17
ATOM     17  C8  ZIN A   1      18.609   2.907  10.170  0.00  0.00    -0.100 C 
ATOM     18  C9  ZIN A   1      17.937   3.862  10.296  0.00  0.00    -0.106 C 
BRANCH  18  19
ATOM     19  C10 ZIN A   1      17.096   5.059  10.453  0.00  0.00     0.089 C 
ATOM     20  C11 ZIN A   1      16.561   5.122  11.885  0.00  0.00     0.018 C 
ENDBRANCH  18  19
ENDBRANCH  15  17
ENDBRANCH   1  15
TORSDOF 5
ENDMDL
MODEL 8
REMARK VINA RESULT:      -6.2      1.989      3.884
REMARK  5 active torsions:
REMARK  status: ('A' for Active; 'I' for Inactive)
REMARK    1  A    between atoms: C2_2  and  C3_3 
REMARK    2  A    between atoms: C3_3  and  C4_4 
REMARK    3  A    between atoms: C4_4  and  C5_5 
REMARK    4  A    between atoms: C5_5  and  C8_7 
REMARK    5  A    between atoms: C9_8  and  C10_9 
ROOT
ATOM      1  C4  ZIN A   1      19.115   0.337  10.156  0.00  0.00     0.139 A 
ATOM      2  C12 ZIN A   1      17.599   0.261  10.179  0.00  0.00     0.245 A 
ATOM      3  O13 ZIN A   1      16.959   0.173   9.154  0.00  0.00    -0.272 OA
ATOM      4  N14 ZIN A   1      16.991   0.295  11.384  0.00  0.00    -0.278 N 
ATOM      5  C15 ZIN A   1      17.683   0.391  12.525  0.00  0.00     0.331 A 
ATOM      6  O16 ZIN A   1      17.055   0.415  13.564  0.00  0.00    -0.246 OA
ATOM      7  N17 ZIN A   1      19.016   0.464  12.605  0.00  0.00    -0.273 N 
ATOM      8  C18 ZIN A   1      19.645   0.567  13.924  0.00  0.00     0.164 C 
ATOM      9  C19 ZIN A   1      19.800   0.444  11.506  0.00  0.00     0.247 A 
ATOM     10  O20 ZIN A   1      21.008   0.511  11.593  0.00  0.00    -0.271 OA
ATOM     11  H34 ZIN A   1      16.022   0.248  11.424  0.00  0.00     0.173 HD
ENDROOT
BRANCH   1  12
ATOM     12  C3  ZIN A   1      19.642  -0.914   9.451  0.00  0.00     0.057 C 
BRANCH  12  13
ATOM     13  C2  ZIN A   1      19.265  -2.137  10.248  0.00  0.00    -0.035 C 
ATOM     14  C1  ZIN A   1      18.893  -3.231   9.631  0.00  0.00     0.007 C 
ENDBRANCH  12  13
ENDBRANCH   1  12
BRANCH   1  15
ATOM     15  C5  ZIN A   1      19.513   1.554   9.321  0.00  0.00     0.088 C 
ATOM     16  C7  ZIN A   1      19.241   1.270   7.843  0.00  0.00     0.025 C 
BRANCH  15  17
ATOM     17  C8  ZIN A   1      18.727   2.722   9.750  0.00  0.00    -0.100 C 
ATOM     18  C9  ZIN A   1      18.099   3.654  10.091  0.00  0.00    -0.106 C 
BRANCH  18  19
ATOM     19  C10 ZIN A   1      17.312   4.821  10.520  0.00  0.00     0.089 C 
ATOM     20  C11 ZIN A   1      16.928   4.666  11.993  0.00  0.00     0.018 C 
ENDBRANCH  18  19
ENDBRANCH  15  17
ENDBRANCH   1  15
TORSDOF 5
ENDMDL
MODEL 9
REMARK VINA RESULT:      -6.1      1.951      4.416
REMARK  5 active torsions:
REMARK  status: ('A' for Active; 'I' for Inactive)
REMARK    1  A    between atoms: C2_2  and  C3_3 
REMARK    2  A    between atoms: C3_3  and  C4_4 
REMARK    3  A    between atoms: C4_4  and  C5_5 
REMARK    4  A    between atoms: C5_5  and  C8_7 
REMARK    5  A    between atoms: C9_8  and  C10_9 
ROOT
ATOM      1  C4  ZIN A   1      18.210   0.068  10.366  0.00  0.00     0.139 A 
ATOM      2  C12 ZIN A   1      19.718  -0.096  10.391  0.00  0.00     0.245 A 
ATOM      3  O13 ZIN A   1      20.363  -0.141   9.367  0.00  0.00    -0.272 OA
ATOM      4  N14 ZIN A   1      20.316  -0.192  11.599  0.00  0.00    -0.278 N 
ATOM      5  C15 ZIN A   1      19.619  -0.143  12.740  0.00  0.00     0.331 A 
ATOM      6  O16 ZIN A   1      20.237  -0.235  13.781  0.00  0.00    -0.246 OA
ATOM      7  N17 ZIN A   1      18.291  -0.000  12.817  0.00  0.00    -0.273 N 
ATOM      8  C18 ZIN A   1      17.656   0.036  14.137  0.00  0.00     0.164 C 
ATOM      9  C19 ZIN A   1      17.518   0.111  11.716  0.00  0.00     0.247 A 
ATOM     10  O20 ZIN A   1      16.316   0.240  11.802  0.00  0.00    -0.271 OA
ATOM     11  H34 ZIN A   1      21.280  -0.297  11.640  0.00  0.00     0.173 HD
ENDROOT
BRANCH   1  12
ATOM     12  C3  ZIN A   1      17.887   1.366   9.624  0.00  0.00     0.057 C 
BRANCH  12  13
ATOM     13  C2  ZIN A   1      18.501   2.531  10.356  0.00  0.00    -0.035 C 
ATOM     14  C1  ZIN A   1      18.051   3.744  10.151  0.00  0.00     0.007 C 
ENDBRANCH  12  13
ENDBRANCH   1  12
BRANCH   1  15
ATOM     15  C5  ZIN A   1      17.622  -1.094   9.566  0.00  0.00     0.088 C 
ATOM     16  C7  ZIN A   1      18.192  -1.076   8.146  0.00  0.00     0.025 C 
BRANCH  15  17
ATOM     17  C8  ZIN A   1      17.972  -2.366  10.219  0.00  0.00    -0.100 C 
ATOM     18  C9  ZIN A   1      18.251  -3.381  10.740  0.00  0.00    -0.106 C 
BRANCH  18  19
ATOM     19  C10 ZIN A   1      18.601  -4.652  11.393  0.00  0.00     0.089 C 
ATOM     20  C11 ZIN A   1      17.343  -5.511  11.545  0.00  0.00     0.018 C 
ENDBRANCH  18  19
ENDBRANCH  15  17
ENDBRANCH   1  15
TORSDOF 5
ENDMDL
