MODEL 1
REMARK VINA RESULT:      -6.7      0.000      0.000
REMARK  5 active torsions:
REMARK  status: ('A' for Active; 'I' for Inactive)
REMARK    1  A    between atoms: C2_2  and  C4_4 
REMARK    2  A    between atoms: C4_4  and  C5_5 
REMARK    3  A    between atoms: C5_5  and  C6_6 
REMARK    4  A    between atoms: C6_6  and  C7_7 
REMARK    5  A    between atoms: C7_7  and  N8_8 
ROOT
ATOM      1  N8  ZIN A   1      19.310  -0.248  13.897  0.00  0.00    -0.264 N 
ATOM      2  C9  ZIN A   1      19.269   1.099  13.820  0.00  0.00     0.282 A 
ATOM      3  O10 ZIN A   1      19.202   1.772  14.833  0.00  0.00    -0.265 OA
ATOM      4  C11 ZIN A   1      19.305   1.719  12.552  0.00  0.00     0.151 A 
ATOM      5  C12 ZIN A   1      19.382   0.927  11.414  0.00  0.00     0.167 A 
ATOM      6  N13 ZIN A   1      19.401   1.748  10.360  0.00  0.00    -0.223 NA
ATOM      7  C14 ZIN A   1      19.342   2.990  10.766  0.00  0.00     0.212 A 
ATOM      8  N15 ZIN A   1      19.281   3.027  12.111  0.00  0.00    -0.338 N 
ATOM      9  C16 ZIN A   1      19.202   4.227  12.948  0.00  0.00     0.157 C 
ATOM     10  N17 ZIN A   1      19.421  -0.451  11.558  0.00  0.00    -0.286 N 
ATOM     11  C18 ZIN A   1      19.504  -1.309  10.374  0.00  0.00     0.163 C 
ATOM     12  C19 ZIN A   1      19.391  -1.001  12.786  0.00  0.00     0.333 A 
ATOM     13  O20 ZIN A   1      19.427  -2.212  12.894  0.00  0.00    -0.246 OA
ENDROOT
BRANCH   1  14
ATOM     14  C7  ZIN A   1      19.274  -0.897  15.209  0.00  0.00     0.137 C 
BRANCH  14  15
ATOM     15  C6  ZIN A   1      17.821  -1.069  15.654  0.00  0.00     0.021 C 
BRANCH  15  16
ATOM     16  C5  ZIN A   1      17.715  -0.819  17.159  0.00  0.00     0.009 C 
BRANCH  16  17
ATOM     17  C4  ZIN A   1      19.068  -0.342  17.694  0.00  0.00     0.078 C 
BRANCH  17  18
ATOM     18  C2  ZIN A   1      18.893   0.982  18.392  0.00  0.00     0.123 C 
ATOM     19  C1  ZIN A   1      17.511   1.474  18.738  0.00  0.00     0.091 C 
ATOM     20  O3  ZIN A   1      19.859   1.648  18.673  0.00  0.00    -0.298 OA
ENDBRANCH  17  18
ENDBRANCH  16  17
ENDBRANCH  15  16
ENDBRANCH  14  15
ENDBRANCH   1  14
TORSDOF 5
ENDMDL
MODEL 2
REMARK VINA RESULT:      -6.7      1.629      1.853
REMARK  5 active torsions:
REMARK  status: ('A' for Active; 'I' for Inactive)
REMARK    1  A    between atoms: C2_2  and  C4_4 
REMARK    2  A    between atoms: C4_4  and  C5_5 
REMARK    3  A    between atoms: C5_5  and  C6_6 
REMARK    4  A    between atoms: C6_6  and  C7_7 
REMARK    5  A    between atoms: C7_7  and  N8_8 
ROOT
ATOM      1  N8  ZIN A   1      18.660   0.942  13.673  0.00  0.00    -0.264 N 
ATOM      2  C9  ZIN A   1      18.279   2.186  14.035  0.00  0.00     0.282 A 
ATOM      3  O10 ZIN A   1      18.379   2.547  15.193  0.00  0.00    -0.265 OA
ATOM      4  C11 ZIN A   1      17.766   3.062  13.054  0.00  0.00     0.151 A 
ATOM      5  C12 ZIN A   1      17.664   2.623  11.741  0.00  0.00     0.167 A 
ATOM      6  N13 ZIN A   1      17.155   3.630  11.024  0.00  0.00    -0.223 NA
ATOM      7  C14 ZIN A   1      16.935   4.659  11.801  0.00  0.00     0.212 A 
ATOM      8  N15 ZIN A   1      17.295   4.360  13.065  0.00  0.00    -0.338 N 
ATOM      9  C16 ZIN A   1      17.203   5.244  14.230  0.00  0.00     0.157 C 
ATOM     10  N17 ZIN A   1      18.071   1.335  11.432  0.00  0.00    -0.286 N 
ATOM     11  C18 ZIN A   1      17.976   0.848  10.054  0.00  0.00     0.163 C 
ATOM     12  C19 ZIN A   1      18.561   0.533  12.396  0.00  0.00     0.333 A 
ATOM     13  O20 ZIN A   1      18.914  -0.594  12.107  0.00  0.00    -0.246 OA
ENDROOT
BRANCH   1  14
ATOM     14  C7  ZIN A   1      19.194   0.028  14.685  0.00  0.00     0.137 C 
BRANCH  14  15
ATOM     15  C6  ZIN A   1      18.087  -0.914  15.158  0.00  0.00     0.021 C 
BRANCH  15  16
ATOM     16  C5  ZIN A   1      17.789  -0.649  16.635  0.00  0.00     0.009 C 
BRANCH  16  17
ATOM     17  C4  ZIN A   1      19.097  -0.365  17.377  0.00  0.00     0.078 C 
BRANCH  17  18
ATOM     18  C2  ZIN A   1      18.923   0.847  18.255  0.00  0.00     0.123 C 
ATOM     19  C1  ZIN A   1      17.540   1.309  18.636  0.00  0.00     0.091 C 
ATOM     20  O3  ZIN A   1      19.891   1.448  18.653  0.00  0.00    -0.298 OA
ENDBRANCH  17  18
ENDBRANCH  16  17
ENDBRANCH  15  16
ENDBRANCH  14  15
ENDBRANCH   1  14
TORSDOF 5
ENDMDL
MODEL 3
REMARK VINA RESULT:      -6.6      0.873      2.795
REMARK  5 active torsions:
REMARK  status: ('A' for Active; 'I' for Inactive)
REMARK    1  A    between atoms: C2_2  and  C4_4 
REMARK    2  A    between atoms: C4_4  and  C5_5 
REMARK    3  A    between atoms: C5_5  and  C6_6 
REMARK    4  A    between atoms: C6_6  and  C7_7 
REMARK    5  A    between atoms: C7_7  and  N8_8 
ROOT
ATOM      1  N8  ZIN A   1      19.434   0.249  13.645  0.00  0.00    -0.264 N 
ATOM      2  C9  ZIN A   1      19.515  -0.218  12.381  0.00  0.00     0.282 A 
ATOM      3  O10 ZIN A   1      19.690  -1.404  12.173  0.00  0.00    -0.265 OA
ATOM      4  C11 ZIN A   1      19.392   0.687  11.304  0.00  0.00     0.151 A 
ATOM      5  C12 ZIN A   1      19.193   2.035  11.572  0.00  0.00     0.167 A 
ATOM      6  N13 ZIN A   1      19.112   2.665  10.396  0.00  0.00    -0.223 NA
ATOM      7  C14 ZIN A   1      19.248   1.803   9.422  0.00  0.00     0.212 A 
ATOM      8  N15 ZIN A   1      19.424   0.567   9.929  0.00  0.00    -0.338 N 
ATOM      9  C16 ZIN A   1      19.614  -0.670   9.166  0.00  0.00     0.157 C 
ATOM     10  N17 ZIN A   1      19.119   2.451  12.891  0.00  0.00    -0.286 N 
ATOM     11  C18 ZIN A   1      18.907   3.868  13.201  0.00  0.00     0.163 C 
ATOM     12  C19 ZIN A   1      19.234   1.555  13.889  0.00  0.00     0.333 A 
ATOM     13  O20 ZIN A   1      19.167   1.939  15.041  0.00  0.00    -0.246 OA
ENDROOT
BRANCH   1  14
ATOM     14  C7  ZIN A   1      19.559  -0.685  14.767  0.00  0.00     0.137 C 
BRANCH  14  15
ATOM     15  C6  ZIN A   1      18.185  -1.267  15.102  0.00  0.00     0.021 C 
BRANCH  15  16
ATOM     16  C5  ZIN A   1      17.756  -0.795  16.493  0.00  0.00     0.009 C 
BRANCH  16  17
ATOM     17  C4  ZIN A   1      18.983  -0.709  17.404  0.00  0.00     0.078 C 
BRANCH  17  18
ATOM     18  C2  ZIN A   1      18.928   0.569  18.200  0.00  0.00     0.123 C 
ATOM     19  C1  ZIN A   1      17.596   1.178  18.557  0.00  0.00     0.091 C 
ATOM     20  O3  ZIN A   1      19.951   1.105  18.552  0.00  0.00    -0.298 OA
ENDBRANCH  17  18
ENDBRANCH  16  17
ENDBRANCH  15  16
ENDBRANCH  14  15
ENDBRANCH   1  14
TORSDOF 5
ENDMDL
MODEL 4
REMARK VINA RESULT:      -6.6      4.185      8.664
REMARK  5 active torsions:
REMARK  status: ('A' for Active; 'I' for Inactive)
REMARK    1  A    between atoms: C2_2  and  C4_4 
REMARK    2  A    between atoms: C4_4  and  C5_5 
REMARK    3  A    between atoms: C5_5  and  C6_6 
REMARK    4  A    between atoms: C6_6  and  C7_7 
REMARK    5  A    between atoms: C7_7  and  N8_8 
ROOT
ATOM      1  N8  ZIN A   1      17.999  -0.989   9.108  0.00  0.00    -0.264 N 
ATOM      2  C9  ZIN A   1      18.392  -2.261   8.887  0.00  0.00     0.282 A 
ATOM      3  O10 ZIN A   1      18.238  -2.772   7.792  0.00  0.00    -0.265 OA
ATOM      4  C11 ZIN A   1      18.985  -2.992   9.940  0.00  0.00     0.151 A 
ATOM      5  C12 ZIN A   1      19.148  -2.384  11.178  0.00  0.00     0.167 A 
ATOM      6  N13 ZIN A   1      19.723  -3.279  11.986  0.00  0.00    -0.223 NA
ATOM      7  C14 ZIN A   1      19.927  -4.396  11.336  0.00  0.00     0.212 A 
ATOM      8  N15 ZIN A   1      19.488  -4.272  10.068  0.00  0.00    -0.338 N 
ATOM      9  C16 ZIN A   1      19.535  -5.299   9.024  0.00  0.00     0.157 C 
ATOM     10  N17 ZIN A   1      18.724  -1.075  11.341  0.00  0.00    -0.286 N 
ATOM     11  C18 ZIN A   1      18.886  -0.410  12.637  0.00  0.00     0.163 C 
ATOM     12  C19 ZIN A   1      18.170  -0.412  10.310  0.00  0.00     0.333 A 
ATOM     13  O20 ZIN A   1      17.804   0.737  10.472  0.00  0.00    -0.246 OA
ENDROOT
BRANCH   1  14
ATOM     14  C7  ZIN A   1      17.385  -0.225   8.020  0.00  0.00     0.137 C 
BRANCH  14  15
ATOM     15  C6  ZIN A   1      18.455   0.613   7.318  0.00  0.00     0.021 C 
BRANCH  15  16
ATOM     16  C5  ZIN A   1      18.095   0.764   5.838  0.00  0.00     0.009 C 
BRANCH  16  17
ATOM     17  C4  ZIN A   1      19.213   0.171   4.978  0.00  0.00     0.078 C 
BRANCH  17  18
ATOM     18  C2  ZIN A   1      18.850  -1.237   4.583  0.00  0.00     0.123 C 
ATOM     19  C1  ZIN A   1      17.404  -1.616   4.392  0.00  0.00     0.091 C 
ATOM     20  O3  ZIN A   1      19.716  -2.061   4.420  0.00  0.00    -0.298 OA
ENDBRANCH  17  18
ENDBRANCH  16  17
ENDBRANCH  15  16
ENDBRANCH  14  15
ENDBRANCH   1  14
TORSDOF 5
ENDMDL
MODEL 5
REMARK VINA RESULT:      -6.5      5.263      7.229
REMARK  5 active torsions:
REMARK  status: ('A' for Active; 'I' for Inactive)
REMARK    1  A    between atoms: C2_2  and  C4_4 
REMARK    2  A    between atoms: C4_4  and  C5_5 
REMARK    3  A    between atoms: C5_5  and  C6_6 
REMARK    4  A    between atoms: C6_6  and  C7_7 
REMARK    5  A    between atoms: C7_7  and  N8_8 
ROOT
ATOM      1  N8  ZIN A   1      19.222  -0.180   8.430  0.00  0.00    -0.264 N 
ATOM      2  C9  ZIN A   1      19.296  -1.508   8.661  0.00  0.00     0.282 A 
ATOM      3  O10 ZIN A   1      19.337  -1.934   9.801  0.00  0.00    -0.265 OA
ATOM      4  C11 ZIN A   1      19.326  -2.398   7.565  0.00  0.00     0.151 A 
ATOM      5  C12 ZIN A   1      19.278  -1.884   6.275  0.00  0.00     0.167 A 
ATOM      6  N13 ZIN A   1      19.320  -2.921   5.434  0.00  0.00    -0.223 NA
ATOM      7  C14 ZIN A   1      19.391  -4.038   6.111  0.00  0.00     0.212 A 
ATOM      8  N15 ZIN A   1      19.398  -3.770   7.431  0.00  0.00    -0.338 N 
ATOM      9  C16 ZIN A   1      19.469  -4.748   8.520  0.00  0.00     0.157 C 
ATOM     10  N17 ZIN A   1      19.202  -0.511   6.104  0.00  0.00    -0.286 N 
ATOM     11  C18 ZIN A   1      19.149   0.057   4.755  0.00  0.00     0.163 C 
ATOM     12  C19 ZIN A   1      19.170   0.302   7.177  0.00  0.00     0.333 A 
ATOM     13  O20 ZIN A   1      19.102   1.504   7.007  0.00  0.00    -0.246 OA
ENDROOT
BRANCH   1  14
ATOM     14  C7  ZIN A   1      19.189   0.748   9.563  0.00  0.00     0.137 C 
BRANCH  14  15
ATOM     15  C6  ZIN A   1      17.737   1.063   9.923  0.00  0.00     0.021 C 
BRANCH  15  16
ATOM     16  C5  ZIN A   1      17.690   2.315  10.802  0.00  0.00     0.009 C 
BRANCH  16  17
ATOM     17  C4  ZIN A   1      18.160   3.525   9.992  0.00  0.00     0.078 C 
BRANCH  17  18
ATOM     18  C2  ZIN A   1      17.469   4.766  10.495  0.00  0.00     0.123 C 
ATOM     19  C1  ZIN A   1      16.801   4.760  11.847  0.00  0.00     0.091 C 
ATOM     20  O3  ZIN A   1      17.449   5.764   9.817  0.00  0.00    -0.298 OA
ENDBRANCH  17  18
ENDBRANCH  16  17
ENDBRANCH  15  16
ENDBRANCH  14  15
ENDBRANCH   1  14
TORSDOF 5
ENDMDL
MODEL 6
REMARK VINA RESULT:      -6.5      3.500      7.622
REMARK  5 active torsions:
REMARK  status: ('A' for Active; 'I' for Inactive)
REMARK    1  A    between atoms: C2_2  and  C4_4 
REMARK    2  A    between atoms: C4_4  and  C5_5 
REMARK    3  A    between atoms: C5_5  and  C6_6 
REMARK    4  A    between atoms: C6_6  and  C7_7 
REMARK    5  A    between atoms: C7_7  and  N8_8 
ROOT
ATOM      1  N8  ZIN A   1      19.243   0.564   9.943  0.00  0.00    -0.264 N 
ATOM      2  C9  ZIN A   1      19.366  -0.183  11.061  0.00  0.00     0.282 A 
ATOM      3  O10 ZIN A   1      19.572  -1.380  10.982  0.00  0.00    -0.265 OA
ATOM      4  C11 ZIN A   1      19.255   0.441  12.323  0.00  0.00     0.151 A 
ATOM      5  C12 ZIN A   1      19.020   1.809  12.383  0.00  0.00     0.167 A 
ATOM      6  N13 ZIN A   1      18.957   2.143  13.675  0.00  0.00    -0.223 NA
ATOM      7  C14 ZIN A   1      19.136   1.081  14.417  0.00  0.00     0.212 A 
ATOM      8  N15 ZIN A   1      19.323   0.003  13.630  0.00  0.00    -0.338 N 
ATOM      9  C16 ZIN A   1      19.555  -1.373  14.077  0.00  0.00     0.157 C 
ATOM     10  N17 ZIN A   1      18.904   2.520  11.200  0.00  0.00    -0.286 N 
ATOM     11  C18 ZIN A   1      18.658   3.964  11.235  0.00  0.00     0.163 C 
ATOM     12  C19 ZIN A   1      19.023   1.888  10.017  0.00  0.00     0.333 A 
ATOM     13  O20 ZIN A   1      18.918   2.529   8.989  0.00  0.00    -0.246 OA
ENDROOT
BRANCH   1  14
ATOM     14  C7  ZIN A   1      19.359  -0.077   8.632  0.00  0.00     0.137 C 
BRANCH  14  15
ATOM     15  C6  ZIN A   1      18.004  -0.658   8.226  0.00  0.00     0.021 C 
BRANCH  15  16
ATOM     16  C5  ZIN A   1      17.529   0.008   6.933  0.00  0.00     0.009 C 
BRANCH  16  17
ATOM     17  C4  ZIN A   1      18.740   0.370   6.070  0.00  0.00     0.078 C 
BRANCH  17  18
ATOM     18  C2  ZIN A   1      18.899  -0.652   4.975  0.00  0.00     0.123 C 
ATOM     19  C1  ZIN A   1      17.682  -1.291   4.357  0.00  0.00     0.091 C 
ATOM     20  O3  ZIN A   1      20.002  -0.960   4.592  0.00  0.00    -0.298 OA
ENDBRANCH  17  18
ENDBRANCH  16  17
ENDBRANCH  15  16
ENDBRANCH  14  15
ENDBRANCH   1  14
TORSDOF 5
ENDMDL
MODEL 7
REMARK VINA RESULT:      -6.3      2.841      6.520
REMARK  5 active torsions:
REMARK  status: ('A' for Active; 'I' for Inactive)
REMARK    1  A    between atoms: C2_2  and  C4_4 
REMARK    2  A    between atoms: C4_4  and  C5_5 
REMARK    3  A    between atoms: C5_5  and  C6_6 
REMARK    4  A    between atoms: C6_6  and  C7_7 
REMARK    5  A    between atoms: C7_7  and  N8_8 
ROOT
ATOM      1  N8  ZIN A   1      18.436   1.947  14.163  0.00  0.00    -0.264 N 
ATOM      2  C9  ZIN A   1      18.506   0.751  14.785  0.00  0.00     0.282 A 
ATOM      3  O10 ZIN A   1      18.232  -0.272  14.185  0.00  0.00    -0.265 OA
ATOM      4  C11 ZIN A   1      18.901   0.701  16.140  0.00  0.00     0.151 A 
ATOM      5  C12 ZIN A   1      19.208   1.884  16.799  0.00  0.00     0.167 A 
ATOM      6  N13 ZIN A   1      19.546   1.564  18.051  0.00  0.00    -0.223 NA
ATOM      7  C14 ZIN A   1      19.470   0.268  18.213  0.00  0.00     0.212 A 
ATOM      8  N15 ZIN A   1      19.076  -0.312  17.062  0.00  0.00    -0.338 N 
ATOM      9  C16 ZIN A   1      18.870  -1.744  16.832  0.00  0.00     0.157 C 
ATOM     10  N17 ZIN A   1      19.117   3.080  16.105  0.00  0.00    -0.286 N 
ATOM     11  C18 ZIN A   1      19.436   4.342  16.777  0.00  0.00     0.163 C 
ATOM     12  C19 ZIN A   1      18.742   3.083  14.812  0.00  0.00     0.333 A 
ATOM     13  O20 ZIN A   1      18.668   4.142  14.219  0.00  0.00    -0.246 OA
ENDROOT
BRANCH   1  14
ATOM     14  C7  ZIN A   1      18.029   2.005  12.757  0.00  0.00     0.137 C 
BRANCH  14  15
ATOM     15  C6  ZIN A   1      19.271   2.014  11.865  0.00  0.00     0.021 C 
BRANCH  15  16
ATOM     16  C5  ZIN A   1      19.179   3.175  10.873  0.00  0.00     0.009 C 
BRANCH  16  17
ATOM     17  C4  ZIN A   1      17.738   3.307  10.374  0.00  0.00     0.078 C 
BRANCH  17  18
ATOM     18  C2  ZIN A   1      17.299   4.745  10.482  0.00  0.00     0.123 C 
ATOM     19  C1  ZIN A   1      16.557   5.215  11.707  0.00  0.00     0.091 C 
ATOM     20  O3  ZIN A   1      17.542   5.519   9.589  0.00  0.00    -0.298 OA
ENDBRANCH  17  18
ENDBRANCH  16  17
ENDBRANCH  15  16
ENDBRANCH  14  15
ENDBRANCH   1  14
TORSDOF 5
ENDMDL
MODEL 8
REMARK VINA RESULT:      -6.3      3.209      7.002
REMARK  5 active torsions:
REMARK  status: ('A' for Active; 'I' for Inactive)
REMARK    1  A    between atoms: C2_2  and  C4_4 
REMARK    2  A    between atoms: C4_4  and  C5_5 
REMARK    3  A    between atoms: C5_5  and  C6_6 
REMARK    4  A    between atoms: C6_6  and  C7_7 
REMARK    5  A    between atoms: C7_7  and  N8_8 
ROOT
ATOM      1  N8  ZIN A   1      18.280   1.736  10.921  0.00  0.00    -0.264 N 
ATOM      2  C9  ZIN A   1      17.746   2.868  11.428  0.00  0.00     0.282 A 
ATOM      3  O10 ZIN A   1      17.098   3.615  10.718  0.00  0.00    -0.265 OA
ATOM      4  C11 ZIN A   1      17.949   3.174  12.791  0.00  0.00     0.151 A 
ATOM      5  C12 ZIN A   1      18.693   2.303  13.577  0.00  0.00     0.167 A 
ATOM      6  N13 ZIN A   1      18.734   2.818  14.809  0.00  0.00    -0.223 NA
ATOM      7  C14 ZIN A   1      18.069   3.945  14.841  0.00  0.00     0.212 A 
ATOM      8  N15 ZIN A   1      17.565   4.210  13.619  0.00  0.00    -0.338 N 
ATOM      9  C16 ZIN A   1      16.762   5.376  13.242  0.00  0.00     0.157 C 
ATOM     10  N17 ZIN A   1      19.214   1.158  12.997  0.00  0.00    -0.286 N 
ATOM     11  C18 ZIN A   1      20.001   0.222  13.804  0.00  0.00     0.163 C 
ATOM     12  C19 ZIN A   1      18.992   0.900  11.695  0.00  0.00     0.333 A 
ATOM     13  O20 ZIN A   1      19.457  -0.111  11.203  0.00  0.00    -0.246 OA
ENDROOT
BRANCH   1  14
ATOM     14  C7  ZIN A   1      18.072   1.412   9.507  0.00  0.00     0.137 C 
BRANCH  14  15
ATOM     15  C6  ZIN A   1      19.187   2.041   8.670  0.00  0.00     0.021 C 
BRANCH  15  16
ATOM     16  C5  ZIN A   1      19.127   1.491   7.244  0.00  0.00     0.009 C 
BRANCH  16  17
ATOM     17  C4  ZIN A   1      18.575   0.064   7.270  0.00  0.00     0.078 C 
BRANCH  17  18
ATOM     18  C2  ZIN A   1      19.157  -0.721   6.124  0.00  0.00     0.123 C 
ATOM     19  C1  ZIN A   1      19.152  -0.139   4.733  0.00  0.00     0.091 C 
ATOM     20  O3  ZIN A   1      19.626  -1.816   6.318  0.00  0.00    -0.298 OA
ENDBRANCH  17  18
ENDBRANCH  16  17
ENDBRANCH  15  16
ENDBRANCH  14  15
ENDBRANCH   1  14
TORSDOF 5
ENDMDL
MODEL 9
REMARK VINA RESULT:      -6.1      3.542      7.389
REMARK  5 active torsions:
REMARK  status: ('A' for Active; 'I' for Inactive)
REMARK    1  A    between atoms: C2_2  and  C4_4 
REMARK    2  A    between atoms: C4_4  and  C5_5 
REMARK    3  A    between atoms: C5_5  and  C6_6 
REMARK    4  A    between atoms: C6_6  and  C7_7 
REMARK    5  A    between atoms: C7_7  and  N8_8 
ROOT
ATOM      1  N8  ZIN A   1      18.396   0.233   9.933  0.00  0.00    -0.264 N 
ATOM      2  C9  ZIN A   1      18.236   1.083  10.970  0.00  0.00     0.282 A 
ATOM      3  O10 ZIN A   1      17.722   2.173  10.799  0.00  0.00    -0.265 OA
ATOM      4  C11 ZIN A   1      18.672   0.691  12.255  0.00  0.00     0.151 A 
ATOM      5  C12 ZIN A   1      19.255  -0.558  12.420  0.00  0.00     0.167 A 
ATOM      6  N13 ZIN A   1      19.574  -0.679  13.712  0.00  0.00    -0.223 NA
ATOM      7  C14 ZIN A   1      19.230   0.406  14.356  0.00  0.00     0.212 A 
ATOM      8  N15 ZIN A   1      18.668   1.284  13.501  0.00  0.00    -0.338 N 
ATOM      9  C16 ZIN A   1      18.153   2.615  13.832  0.00  0.00     0.157 C 
ATOM     10  N17 ZIN A   1      19.392  -1.385  11.316  0.00  0.00    -0.286 N 
ATOM     11  C18 ZIN A   1      20.002  -2.708  11.464  0.00  0.00     0.163 C 
ATOM     12  C19 ZIN A   1      18.957  -0.976  10.109  0.00  0.00     0.333 A 
ATOM     13  O20 ZIN A   1      19.085  -1.715   9.152  0.00  0.00    -0.246 OA
ENDROOT
BRANCH   1  14
ATOM     14  C7  ZIN A   1      17.946   0.632   8.598  0.00  0.00     0.137 C 
BRANCH  14  15
ATOM     15  C6  ZIN A   1      19.016   1.501   7.936  0.00  0.00     0.021 C 
BRANCH  15  16
ATOM     16  C5  ZIN A   1      19.254   1.016   6.504  0.00  0.00     0.009 C 
BRANCH  16  17
ATOM     17  C4  ZIN A   1      18.168   0.008   6.120  0.00  0.00     0.078 C 
BRANCH  17  18
ATOM     18  C2  ZIN A   1      18.692  -0.909   5.045  0.00  0.00     0.123 C 
ATOM     19  C1  ZIN A   1      17.757  -1.862   4.347  0.00  0.00     0.091 C 
ATOM     20  O3  ZIN A   1      19.861  -0.880   4.744  0.00  0.00    -0.298 OA
ENDBRANCH  17  18
ENDBRANCH  16  17
ENDBRANCH  15  16
ENDBRANCH  14  15
ENDBRANCH   1  14
TORSDOF 5
ENDMDL
