MODEL 1
REMARK VINA RESULT:      -5.5      0.000      0.000
REMARK  16 active torsions:
REMARK  status: ('A' for Active; 'I' for Inactive)
REMARK    1  A    between atoms: C2_2  and  C3_3 
REMARK    2  A    between atoms: C3_3  and  C4_4 
REMARK    3  A    between atoms: C4_4  and  C5_5 
REMARK    4  A    between atoms: C5_5  and  C6_6 
REMARK    5  A    between atoms: C6_6  and  C7_7 
REMARK    6  A    between atoms: C7_7  and  C8_8 
REMARK    7  A    between atoms: C8_8  and  C9_9 
REMARK    8  A    between atoms: C9_9  and  C10_10 
REMARK    9  A    between atoms: C10_10  and  C11_11 
REMARK   10  A    between atoms: C11_11  and  C12_12 
REMARK   11  A    between atoms: C12_12  and  C13_13 
REMARK   12  A    between atoms: C13_13  and  C14_14 
REMARK   13  A    between atoms: C14_14  and  C15_15 
REMARK   14  A    between atoms: C15_15  and  C16_16 
REMARK   15  A    between atoms: C16_16  and  C17_17 
REMARK   16  A    between atoms: C17_17  and  C18_18 
ROOT
ATOM      1  C10 <0> d   1      17.468  -0.308  12.315  0.00  0.00     0.000 C 
ENDROOT
BRANCH   1   2
ATOM      2  C9  <0> d   1      16.751   0.040  11.009  0.00  0.00     0.000 C 
BRANCH   2   3
ATOM      3  C8  <0> d   1      17.406  -0.714   9.851  0.00  0.00     0.000 C 
BRANCH   3   4
ATOM      4  C7  <0> d   1      17.678   0.256   8.699  0.00  0.00     0.000 C 
BRANCH   4   5
ATOM      5  C6  <0> d   1      19.006   0.975   8.941  0.00  0.00     0.000 C 
BRANCH   5   6
ATOM      6  C5  <0> d   1      18.865   2.449   8.555  0.00  0.00     0.000 C 
BRANCH   6   7
ATOM      7  C4  <0> d   1      18.529   3.273   9.800  0.00  0.00     0.000 C 
BRANCH   7   8
ATOM      8  C3  <0> d   1      19.395   2.805  10.971  0.00  0.00    -0.000 C 
BRANCH   8   9
ATOM      9  C2  <0> d   1      18.732   3.209  12.289  0.00  0.00    -0.005 C 
ATOM     10  C1  <0> d   1      19.494   4.384  12.904  0.00  0.00     0.005 C 
ENDBRANCH   8   9
ENDBRANCH   7   8
ENDBRANCH   6   7
ENDBRANCH   5   6
ENDBRANCH   4   5
ENDBRANCH   3   4
ENDBRANCH   2   3
ENDBRANCH   1   2
BRANCH   1  11
ATOM     11  C11 <0> d   1      18.319  -1.564  12.112  0.00  0.00     0.000 C 
BRANCH  11  12
ATOM     12  C12 <0> d   1      19.111  -1.854  13.387  0.00  0.00     0.000 C 
BRANCH  12  13
ATOM     13  C13 <0> d   1      18.795  -0.788  14.439  0.00  0.00     0.000 C 
BRANCH  13  14
ATOM     14  C14 <0> d   1      18.973  -1.383  15.837  0.00  0.00     0.000 C 
BRANCH  14  15
ATOM     15  C15 <0> d   1      17.659  -1.263  16.613  0.00  0.00     0.001 C 
BRANCH  15  16
ATOM     16  C16 <0> d   1      17.325   0.215  16.823  0.00  0.00     0.010 C 
BRANCH  16  17
ATOM     17  C17 <0> d   1      17.911   0.685  18.156  0.00  0.00     0.113 C 
BRANCH  17  18
ATOM     18  C18 <0> d   1      19.062   1.622  17.897  0.00  0.00     0.172 C 
ATOM     19  O19 <0> d   1      19.265   2.042  16.770  0.00  0.00    -0.648 OA
ATOM     20  O20 <0> d   1      19.791   1.962  18.813  0.00  0.00    -0.648 OA
ENDBRANCH  17  18
ENDBRANCH  16  17
ENDBRANCH  15  16
ENDBRANCH  14  15
ENDBRANCH  13  14
ENDBRANCH  12  13
ENDBRANCH  11  12
ENDBRANCH   1  11
TORSDOF 16
ENDMDL
MODEL 2
REMARK VINA RESULT:      -5.3      1.233      2.709
REMARK  16 active torsions:
REMARK  status: ('A' for Active; 'I' for Inactive)
REMARK    1  A    between atoms: C2_2  and  C3_3 
REMARK    2  A    between atoms: C3_3  and  C4_4 
REMARK    3  A    between atoms: C4_4  and  C5_5 
REMARK    4  A    between atoms: C5_5  and  C6_6 
REMARK    5  A    between atoms: C6_6  and  C7_7 
REMARK    6  A    between atoms: C7_7  and  C8_8 
REMARK    7  A    between atoms: C8_8  and  C9_9 
REMARK    8  A    between atoms: C9_9  and  C10_10 
REMARK    9  A    between atoms: C10_10  and  C11_11 
REMARK   10  A    between atoms: C11_11  and  C12_12 
REMARK   11  A    between atoms: C12_12  and  C13_13 
REMARK   12  A    between atoms: C13_13  and  C14_14 
REMARK   13  A    between atoms: C14_14  and  C15_15 
REMARK   14  A    between atoms: C15_15  and  C16_16 
REMARK   15  A    between atoms: C16_16  and  C17_17 
REMARK   16  A    between atoms: C17_17  and  C18_18 
ROOT
ATOM      1  C10 <0> d   1      17.291  -0.950  11.410  0.00  0.00     0.000 C 
ENDROOT
BRANCH   1   2
ATOM      2  C9  <0> d   1      17.052   0.301  12.258  0.00  0.00     0.000 C 
BRANCH   2   3
ATOM      3  C8  <0> d   1      18.072   1.376  11.881  0.00  0.00     0.000 C 
BRANCH   3   4
ATOM      4  C7  <0> d   1      17.341   2.602  11.330  0.00  0.00     0.000 C 
BRANCH   4   5
ATOM      5  C6  <0> d   1      18.019   3.061  10.037  0.00  0.00     0.000 C 
BRANCH   5   6
ATOM      6  C5  <0> d   1      19.353   2.330   9.874  0.00  0.00     0.000 C 
BRANCH   6   7
ATOM      7  C4  <0> d   1      19.414   1.683   8.488  0.00  0.00     0.000 C 
BRANCH   7   8
ATOM      8  C3  <0> d   1      19.582   0.169   8.639  0.00  0.00    -0.000 C 
BRANCH   8   9
ATOM      9  C2  <0> d   1      18.685  -0.546   7.626  0.00  0.00    -0.005 C 
ATOM     10  C1  <0> d   1      17.233  -0.111   7.835  0.00  0.00     0.005 C 
ENDBRANCH   8   9
ENDBRANCH   7   8
ENDBRANCH   6   7
ENDBRANCH   5   6
ENDBRANCH   4   5
ENDBRANCH   3   4
ENDBRANCH   2   3
ENDBRANCH   1   2
BRANCH   1  11
ATOM     11  C11 <0> d   1      18.293  -1.864  12.118  0.00  0.00     0.000 C 
BRANCH  11  12
ATOM     12  C12 <0> d   1      18.127  -1.727  13.632  0.00  0.00     0.000 C 
BRANCH  12  13
ATOM     13  C13 <0> d   1      19.502  -1.563  14.284  0.00  0.00     0.000 C 
BRANCH  13  14
ATOM     14  C14 <0> d   1      19.341  -0.899  15.653  0.00  0.00     0.000 C 
BRANCH  14  15
ATOM     15  C15 <0> d   1      17.995  -1.301  16.258  0.00  0.00     0.001 C 
BRANCH  15  16
ATOM     16  C16 <0> d   1      17.375  -0.096  16.968  0.00  0.00     0.010 C 
BRANCH  16  17
ATOM     17  C17 <0> d   1      18.002   0.056  18.356  0.00  0.00     0.113 C 
BRANCH  17  18
ATOM     18  C18 <0> d   1      18.659   1.407  18.466  0.00  0.00     0.172 C 
ATOM     19  O19 <0> d   1      17.975   2.410  18.583  0.00  0.00    -0.648 OA
ATOM     20  O20 <0> d   1      19.874   1.500  18.438  0.00  0.00    -0.648 OA
ENDBRANCH  17  18
ENDBRANCH  16  17
ENDBRANCH  15  16
ENDBRANCH  14  15
ENDBRANCH  13  14
ENDBRANCH  12  13
ENDBRANCH  11  12
ENDBRANCH   1  11
TORSDOF 16
ENDMDL
MODEL 3
REMARK VINA RESULT:      -5.2      1.388      3.533
REMARK  16 active torsions:
REMARK  status: ('A' for Active; 'I' for Inactive)
REMARK    1  A    between atoms: C2_2  and  C3_3 
REMARK    2  A    between atoms: C3_3  and  C4_4 
REMARK    3  A    between atoms: C4_4  and  C5_5 
REMARK    4  A    between atoms: C5_5  and  C6_6 
REMARK    5  A    between atoms: C6_6  and  C7_7 
REMARK    6  A    between atoms: C7_7  and  C8_8 
REMARK    7  A    between atoms: C8_8  and  C9_9 
REMARK    8  A    between atoms: C9_9  and  C10_10 
REMARK    9  A    between atoms: C10_10  and  C11_11 
REMARK   10  A    between atoms: C11_11  and  C12_12 
REMARK   11  A    between atoms: C12_12  and  C13_13 
REMARK   12  A    between atoms: C13_13  and  C14_14 
REMARK   13  A    between atoms: C14_14  and  C15_15 
REMARK   14  A    between atoms: C15_15  and  C16_16 
REMARK   15  A    between atoms: C16_16  and  C17_17 
REMARK   16  A    between atoms: C17_17  and  C18_18 
ROOT
ATOM      1  C10 <0> d   1      20.061   1.048  12.239  0.00  0.00     0.000 C 
ENDROOT
BRANCH   1   2
ATOM      2  C9  <0> d   1      19.920   2.519  11.844  0.00  0.00     0.000 C 
BRANCH   2   3
ATOM      3  C8  <0> d   1      19.104   2.626  10.555  0.00  0.00     0.000 C 
BRANCH   3   4
ATOM      4  C7  <0> d   1      19.207   1.314   9.776  0.00  0.00     0.000 C 
BRANCH   4   5
ATOM      5  C6  <0> d   1      17.812   0.877   9.324  0.00  0.00     0.000 C 
BRANCH   5   6
ATOM      6  C5  <0> d   1      17.135   0.092  10.450  0.00  0.00     0.000 C 
BRANCH   6   7
ATOM      7  C4  <0> d   1      17.700  -1.329  10.492  0.00  0.00     0.000 C 
BRANCH   7   8
ATOM      8  C3  <0> d   1      17.564  -1.890  11.909  0.00  0.00    -0.000 C 
BRANCH   8   9
ATOM      9  C2  <0> d   1      18.891  -2.520  12.337  0.00  0.00    -0.005 C 
ATOM     10  C1  <0> d   1      19.117  -3.814  11.552  0.00  0.00     0.005 C 
ENDBRANCH   8   9
ENDBRANCH   7   8
ENDBRANCH   6   7
ENDBRANCH   5   6
ENDBRANCH   4   5
ENDBRANCH   3   4
ENDBRANCH   2   3
ENDBRANCH   1   2
BRANCH   1  11
ATOM     11  C11 <0> d   1      19.671   0.873  13.708  0.00  0.00     0.000 C 
BRANCH  11  12
ATOM     12  C12 <0> d   1      18.264   1.429  13.932  0.00  0.00     0.000 C 
BRANCH  12  13
ATOM     13  C13 <0> d   1      17.490   0.498  14.868  0.00  0.00     0.000 C 
BRANCH  13  14
ATOM     14  C14 <0> d   1      18.422  -0.605  15.374  0.00  0.00     0.000 C 
BRANCH  14  15
ATOM     15  C15 <0> d   1      18.077  -0.935  16.828  0.00  0.00     0.001 C 
BRANCH  15  16
ATOM     16  C16 <0> d   1      19.131  -0.322  17.753  0.00  0.00     0.010 C 
BRANCH  16  17
ATOM     17  C17 <0> d   1      18.485   0.769  18.609  0.00  0.00     0.113 C 
BRANCH  17  18
ATOM     18  C18 <0> d   1      18.992   2.118  18.170  0.00  0.00     0.172 C 
ATOM     19  O19 <0> d   1      18.680   3.119  18.793  0.00  0.00    -0.648 OA
ATOM     20  O20 <0> d   1      19.715   2.211  17.193  0.00  0.00    -0.648 OA
ENDBRANCH  17  18
ENDBRANCH  16  17
ENDBRANCH  15  16
ENDBRANCH  14  15
ENDBRANCH  13  14
ENDBRANCH  12  13
ENDBRANCH  11  12
ENDBRANCH   1  11
TORSDOF 16
ENDMDL
MODEL 4
REMARK VINA RESULT:      -5.2      4.635      8.283
REMARK  16 active torsions:
REMARK  status: ('A' for Active; 'I' for Inactive)
REMARK    1  A    between atoms: C2_2  and  C3_3 
REMARK    2  A    between atoms: C3_3  and  C4_4 
REMARK    3  A    between atoms: C4_4  and  C5_5 
REMARK    4  A    between atoms: C5_5  and  C6_6 
REMARK    5  A    between atoms: C6_6  and  C7_7 
REMARK    6  A    between atoms: C7_7  and  C8_8 
REMARK    7  A    between atoms: C8_8  and  C9_9 
REMARK    8  A    between atoms: C9_9  and  C10_10 
REMARK    9  A    between atoms: C10_10  and  C11_11 
REMARK   10  A    between atoms: C11_11  and  C12_12 
REMARK   11  A    between atoms: C12_12  and  C13_13 
REMARK   12  A    between atoms: C13_13  and  C14_14 
REMARK   13  A    between atoms: C14_14  and  C15_15 
REMARK   14  A    between atoms: C15_15  and  C16_16 
REMARK   15  A    between atoms: C16_16  and  C17_17 
REMARK   16  A    between atoms: C17_17  and  C18_18 
ROOT
ATOM      1  C10 <0> d   1      17.486  -1.586  11.661  0.00  0.00     0.000 C 
ENDROOT
BRANCH   1   2
ATOM      2  C9  <0> d   1      18.375  -1.970  12.846  0.00  0.00     0.000 C 
BRANCH   2   3
ATOM      3  C8  <0> d   1      19.405  -0.866  13.089  0.00  0.00     0.000 C 
BRANCH   3   4
ATOM      4  C7  <0> d   1      19.118  -0.185  14.428  0.00  0.00     0.000 C 
BRANCH   4   5
ATOM      5  C6  <0> d   1      18.796  -1.247  15.482  0.00  0.00     0.000 C 
BRANCH   5   6
ATOM      6  C5  <0> d   1      17.661  -0.748  16.378  0.00  0.00     0.000 C 
BRANCH   6   7
ATOM      7  C4  <0> d   1      18.197  -0.497  17.789  0.00  0.00     0.000 C 
BRANCH   7   8
ATOM      8  C3  <0> d   1      17.881   0.941  18.206  0.00  0.00    -0.000 C 
BRANCH   8   9
ATOM      9  C2  <0> d   1      19.176   1.755  18.247  0.00  0.00    -0.005 C 
ATOM     10  C1  <0> d   1      19.279   2.612  16.984  0.00  0.00     0.005 C 
ENDBRANCH   8   9
ENDBRANCH   7   8
ENDBRANCH   6   7
ENDBRANCH   5   6
ENDBRANCH   4   5
ENDBRANCH   3   4
ENDBRANCH   2   3
ENDBRANCH   1   2
BRANCH   1  11
ATOM     11  C11 <0> d   1      18.195  -0.530  10.810  0.00  0.00     0.000 C 
BRANCH  11  12
ATOM     12  C12 <0> d   1      17.286   0.689  10.648  0.00  0.00     0.000 C 
BRANCH  12  13
ATOM     13  C13 <0> d   1      18.009   1.759   9.827  0.00  0.00     0.000 C 
BRANCH  13  14
ATOM     14  C14 <0> d   1      19.165   1.117   9.058  0.00  0.00     0.000 C 
BRANCH  14  15
ATOM     15  C15 <0> d   1      19.187   1.657   7.627  0.00  0.00     0.001 C 
BRANCH  15  16
ATOM     16  C16 <0> d   1      18.363   0.738   6.723  0.00  0.00     0.010 C 
BRANCH  16  17
ATOM     17  C17 <0> d   1      19.167  -0.525   6.412  0.00  0.00     0.113 C 
BRANCH  17  18
ATOM     18  C18 <0> d   1      19.202  -0.744   4.921  0.00  0.00     0.172 C 
ATOM     19  O19 <0> d   1      19.788  -1.709   4.460  0.00  0.00    -0.648 OA
ATOM     20  O20 <0> d   1      18.646   0.043   4.175  0.00  0.00    -0.648 OA
ENDBRANCH  17  18
ENDBRANCH  16  17
ENDBRANCH  15  16
ENDBRANCH  14  15
ENDBRANCH  13  14
ENDBRANCH  12  13
ENDBRANCH  11  12
ENDBRANCH   1  11
TORSDOF 16
ENDMDL
MODEL 5
REMARK VINA RESULT:      -5.2      2.579      6.696
REMARK  16 active torsions:
REMARK  status: ('A' for Active; 'I' for Inactive)
REMARK    1  A    between atoms: C2_2  and  C3_3 
REMARK    2  A    between atoms: C3_3  and  C4_4 
REMARK    3  A    between atoms: C4_4  and  C5_5 
REMARK    4  A    between atoms: C5_5  and  C6_6 
REMARK    5  A    between atoms: C6_6  and  C7_7 
REMARK    6  A    between atoms: C7_7  and  C8_8 
REMARK    7  A    between atoms: C8_8  and  C9_9 
REMARK    8  A    between atoms: C9_9  and  C10_10 
REMARK    9  A    between atoms: C10_10  and  C11_11 
REMARK   10  A    between atoms: C11_11  and  C12_12 
REMARK   11  A    between atoms: C12_12  and  C13_13 
REMARK   12  A    between atoms: C13_13  and  C14_14 
REMARK   13  A    between atoms: C14_14  and  C15_15 
REMARK   14  A    between atoms: C15_15  and  C16_16 
REMARK   15  A    between atoms: C16_16  and  C17_17 
REMARK   16  A    between atoms: C17_17  and  C18_18 
ROOT
ATOM      1  C10 <0> d   1      18.152   1.707  13.849  0.00  0.00     0.000 C 
ENDROOT
BRANCH   1   2
ATOM      2  C9  <0> d   1      19.453   0.956  13.555  0.00  0.00     0.000 C 
BRANCH   2   3
ATOM      3  C8  <0> d   1      19.360  -0.464  14.115  0.00  0.00     0.000 C 
BRANCH   3   4
ATOM      4  C7  <0> d   1      18.257  -0.523  15.175  0.00  0.00     0.000 C 
BRANCH   4   5
ATOM      5  C6  <0> d   1      18.695  -1.446  16.314  0.00  0.00     0.000 C 
BRANCH   5   6
ATOM      6  C5  <0> d   1      19.082  -0.604  17.532  0.00  0.00     0.000 C 
BRANCH   6   7
ATOM      7  C4  <0> d   1      18.268   0.692  17.535  0.00  0.00     0.000 C 
BRANCH   7   8
ATOM      8  C3  <0> d   1      19.085   1.806  18.193  0.00  0.00    -0.000 C 
BRANCH   8   9
ATOM      9  C2  <0> d   1      19.305   2.938  17.187  0.00  0.00    -0.005 C 
ATOM     10  C1  <0> d   1      18.363   4.099  17.513  0.00  0.00     0.005 C 
ENDBRANCH   8   9
ENDBRANCH   7   8
ENDBRANCH   6   7
ENDBRANCH   5   6
ENDBRANCH   4   5
ENDBRANCH   3   4
ENDBRANCH   2   3
ENDBRANCH   1   2
BRANCH   1  11
ATOM     11  C11 <0> d   1      18.371   3.208  13.642  0.00  0.00     0.000 C 
BRANCH  11  12
ATOM     12  C12 <0> d   1      19.243   3.430  12.406  0.00  0.00     0.000 C 
BRANCH  12  13
ATOM     13  C13 <0> d   1      18.466   4.252  11.375  0.00  0.00     0.000 C 
BRANCH  13  14
ATOM     14  C14 <0> d   1      17.781   3.310  10.383  0.00  0.00     0.000 C 
BRANCH  14  15
ATOM     15  C15 <0> d   1      18.755   2.200   9.980  0.00  0.00     0.001 C 
BRANCH  15  16
ATOM     16  C16 <0> d   1      17.966   0.993   9.467  0.00  0.00     0.010 C 
BRANCH  16  17
ATOM     17  C17 <0> d   1      17.063   0.462  10.581  0.00  0.00     0.113 C 
BRANCH  17  18
ATOM     18  C18 <0> d   1      17.488  -0.936  10.950  0.00  0.00     0.172 C 
ATOM     19  O19 <0> d   1      18.389  -1.481  10.336  0.00  0.00    -0.648 OA
ATOM     20  O20 <0> d   1      16.931  -1.523  11.862  0.00  0.00    -0.648 OA
ENDBRANCH  17  18
ENDBRANCH  16  17
ENDBRANCH  15  16
ENDBRANCH  14  15
ENDBRANCH  13  14
ENDBRANCH  12  13
ENDBRANCH  11  12
ENDBRANCH   1  11
TORSDOF 16
ENDMDL
MODEL 6
REMARK VINA RESULT:      -5.2      1.317      2.288
REMARK  16 active torsions:
REMARK  status: ('A' for Active; 'I' for Inactive)
REMARK    1  A    between atoms: C2_2  and  C3_3 
REMARK    2  A    between atoms: C3_3  and  C4_4 
REMARK    3  A    between atoms: C4_4  and  C5_5 
REMARK    4  A    between atoms: C5_5  and  C6_6 
REMARK    5  A    between atoms: C6_6  and  C7_7 
REMARK    6  A    between atoms: C7_7  and  C8_8 
REMARK    7  A    between atoms: C8_8  and  C9_9 
REMARK    8  A    between atoms: C9_9  and  C10_10 
REMARK    9  A    between atoms: C10_10  and  C11_11 
REMARK   10  A    between atoms: C11_11  and  C12_12 
REMARK   11  A    between atoms: C12_12  and  C13_13 
REMARK   12  A    between atoms: C13_13  and  C14_14 
REMARK   13  A    between atoms: C14_14  and  C15_15 
REMARK   14  A    between atoms: C15_15  and  C16_16 
REMARK   15  A    between atoms: C16_16  and  C17_17 
REMARK   16  A    between atoms: C17_17  and  C18_18 
ROOT
ATOM      1  C10 <0> d   1      17.004  -0.114  10.600  0.00  0.00     0.000 C 
ENDROOT
BRANCH   1   2
ATOM      2  C9  <0> d   1      17.573   0.597   9.370  0.00  0.00     0.000 C 
BRANCH   2   3
ATOM      3  C8  <0> d   1      19.027   0.987   9.633  0.00  0.00     0.000 C 
BRANCH   3   4
ATOM      4  C7  <0> d   1      19.193   2.497   9.446  0.00  0.00     0.000 C 
BRANCH   4   5
ATOM      5  C6  <0> d   1      18.065   3.228  10.176  0.00  0.00     0.000 C 
BRANCH   5   6
ATOM      6  C5  <0> d   1      18.553   3.669  11.558  0.00  0.00     0.000 C 
BRANCH   6   7
ATOM      7  C4  <0> d   1      17.933   2.771  12.630  0.00  0.00     0.000 C 
BRANCH   7   8
ATOM      8  C3  <0> d   1      17.746   3.571  13.921  0.00  0.00    -0.000 C 
BRANCH   8   9
ATOM      9  C2  <0> d   1      19.115   3.909  14.513  0.00  0.00    -0.005 C 
ATOM     10  C1  <0> d   1      19.093   3.661  16.023  0.00  0.00     0.005 C 
ENDBRANCH   8   9
ENDBRANCH   7   8
ENDBRANCH   6   7
ENDBRANCH   5   6
ENDBRANCH   4   5
ENDBRANCH   3   4
ENDBRANCH   2   3
ENDBRANCH   1   2
BRANCH   1  11
ATOM     11  C11 <0> d   1      18.121  -0.887  11.305  0.00  0.00     0.000 C 
BRANCH  11  12
ATOM     12  C12 <0> d   1      17.790  -1.017  12.793  0.00  0.00     0.000 C 
BRANCH  12  13
ATOM     13  C13 <0> d   1      19.077  -1.263  13.582  0.00  0.00     0.000 C 
BRANCH  13  14
ATOM     14  C14 <0> d   1      19.273  -0.137  14.600  0.00  0.00     0.000 C 
BRANCH  14  15
ATOM     15  C15 <0> d   1      17.957   0.117  15.338  0.00  0.00     0.001 C 
BRANCH  15  16
ATOM     16  C16 <0> d   1      17.851  -0.833  16.533  0.00  0.00     0.010 C 
BRANCH  16  17
ATOM     17  C17 <0> d   1      19.134  -0.754  17.361  0.00  0.00     0.113 C 
BRANCH  17  18
ATOM     18  C18 <0> d   1      19.013   0.357  18.372  0.00  0.00     0.172 C 
ATOM     19  O19 <0> d   1      18.057   0.392  19.128  0.00  0.00    -0.648 OA
ATOM     20  O20 <0> d   1      19.870   1.222  18.435  0.00  0.00    -0.648 OA
ENDBRANCH  17  18
ENDBRANCH  16  17
ENDBRANCH  15  16
ENDBRANCH  14  15
ENDBRANCH  13  14
ENDBRANCH  12  13
ENDBRANCH  11  12
ENDBRANCH   1  11
TORSDOF 16
ENDMDL
MODEL 7
REMARK VINA RESULT:      -5.2      5.358      7.876
REMARK  16 active torsions:
REMARK  status: ('A' for Active; 'I' for Inactive)
REMARK    1  A    between atoms: C2_2  and  C3_3 
REMARK    2  A    between atoms: C3_3  and  C4_4 
REMARK    3  A    between atoms: C4_4  and  C5_5 
REMARK    4  A    between atoms: C5_5  and  C6_6 
REMARK    5  A    between atoms: C6_6  and  C7_7 
REMARK    6  A    between atoms: C7_7  and  C8_8 
REMARK    7  A    between atoms: C8_8  and  C9_9 
REMARK    8  A    between atoms: C9_9  and  C10_10 
REMARK    9  A    between atoms: C10_10  and  C11_11 
REMARK   10  A    between atoms: C11_11  and  C12_12 
REMARK   11  A    between atoms: C12_12  and  C13_13 
REMARK   12  A    between atoms: C13_13  and  C14_14 
REMARK   13  A    between atoms: C14_14  and  C15_15 
REMARK   14  A    between atoms: C15_15  and  C16_16 
REMARK   15  A    between atoms: C16_16  and  C17_17 
REMARK   16  A    between atoms: C17_17  and  C18_18 
ROOT
ATOM      1  C10 <0> d   1      19.623  -2.855  11.957  0.00  0.00     0.000 C 
ENDROOT
BRANCH   1   2
ATOM      2  C9  <0> d   1      18.777  -1.674  12.437  0.00  0.00     0.000 C 
BRANCH   2   3
ATOM      3  C8  <0> d   1      17.412  -1.711  11.749  0.00  0.00     0.000 C 
BRANCH   3   4
ATOM      4  C7  <0> d   1      17.378  -0.671  10.627  0.00  0.00     0.000 C 
BRANCH   4   5
ATOM      5  C6  <0> d   1      17.477   0.732  11.230  0.00  0.00     0.000 C 
BRANCH   5   6
ATOM      6  C5  <0> d   1      18.086   1.687  10.201  0.00  0.00     0.000 C 
BRANCH   6   7
ATOM      7  C4  <0> d   1      19.028   0.909   9.279  0.00  0.00     0.000 C 
BRANCH   7   8
ATOM      8  C3  <0> d   1      19.093   1.600   7.915  0.00  0.00    -0.000 C 
BRANCH   8   9
ATOM      9  C2  <0> d   1      18.852   0.570   6.810  0.00  0.00    -0.005 C 
ATOM     10  C1  <0> d   1      17.416   0.049   6.903  0.00  0.00     0.005 C 
ENDBRANCH   8   9
ENDBRANCH   7   8
ENDBRANCH   6   7
ENDBRANCH   5   6
ENDBRANCH   4   5
ENDBRANCH   3   4
ENDBRANCH   2   3
ENDBRANCH   1   2
BRANCH   1  11
ATOM     11  C11 <0> d   1      18.709  -4.034  11.618  0.00  0.00     0.000 C 
BRANCH  11  12
ATOM     12  C12 <0> d   1      19.121  -4.628  10.270  0.00  0.00     0.000 C 
BRANCH  12  13
ATOM     13  C13 <0> d   1      17.884  -4.794   9.386  0.00  0.00     0.000 C 
BRANCH  13  14
ATOM     14  C14 <0> d   1      17.816  -3.641   8.382  0.00  0.00     0.000 C 
BRANCH  14  15
ATOM     15  C15 <0> d   1      19.192  -2.983   8.269  0.00  0.00     0.001 C 
BRANCH  15  16
ATOM     16  C16 <0> d   1      19.688  -3.083   6.825  0.00  0.00     0.010 C 
BRANCH  16  17
ATOM     17  C17 <0> d   1      18.518  -3.446   5.909  0.00  0.00     0.113 C 
BRANCH  17  18
ATOM     18  C18 <0> d   1      18.516  -2.534   4.709  0.00  0.00     0.172 C 
ATOM     19  O19 <0> d   1      17.484  -2.347   4.088  0.00  0.00    -0.648 OA
ATOM     20  O20 <0> d   1      19.546  -1.983   4.360  0.00  0.00    -0.648 OA
ENDBRANCH  17  18
ENDBRANCH  16  17
ENDBRANCH  15  16
ENDBRANCH  14  15
ENDBRANCH  13  14
ENDBRANCH  12  13
ENDBRANCH  11  12
ENDBRANCH   1  11
TORSDOF 16
ENDMDL
MODEL 8
REMARK VINA RESULT:      -5.2      4.858      8.523
REMARK  16 active torsions:
REMARK  status: ('A' for Active; 'I' for Inactive)
REMARK    1  A    between atoms: C2_2  and  C3_3 
REMARK    2  A    between atoms: C3_3  and  C4_4 
REMARK    3  A    between atoms: C4_4  and  C5_5 
REMARK    4  A    between atoms: C5_5  and  C6_6 
REMARK    5  A    between atoms: C6_6  and  C7_7 
REMARK    6  A    between atoms: C7_7  and  C8_8 
REMARK    7  A    between atoms: C8_8  and  C9_9 
REMARK    8  A    between atoms: C9_9  and  C10_10 
REMARK    9  A    between atoms: C10_10  and  C11_11 
REMARK   10  A    between atoms: C11_11  and  C12_12 
REMARK   11  A    between atoms: C12_12  and  C13_13 
REMARK   12  A    between atoms: C13_13  and  C14_14 
REMARK   13  A    between atoms: C14_14  and  C15_15 
REMARK   14  A    between atoms: C15_15  and  C16_16 
REMARK   15  A    between atoms: C16_16  and  C17_17 
REMARK   16  A    between atoms: C17_17  and  C18_18 
ROOT
ATOM      1  C10 <0> d   1      17.533   1.238  10.543  0.00  0.00     0.000 C 
ENDROOT
BRANCH   1   2
ATOM      2  C9  <0> d   1      16.983  -0.078  11.097  0.00  0.00     0.000 C 
BRANCH   2   3
ATOM      3  C8  <0> d   1      17.254  -0.153  12.600  0.00  0.00     0.000 C 
BRANCH   3   4
ATOM      4  C7  <0> d   1      18.037  -1.429  12.915  0.00  0.00     0.000 C 
BRANCH   4   5
ATOM      5  C6  <0> d   1      18.194  -2.259  11.640  0.00  0.00     0.000 C 
BRANCH   5   6
ATOM      6  C5  <0> d   1      19.440  -3.140  11.755  0.00  0.00     0.000 C 
BRANCH   6   7
ATOM      7  C4  <0> d   1      19.090  -4.575  11.358  0.00  0.00     0.000 C 
BRANCH   7   8
ATOM      8  C3  <0> d   1      19.717  -4.897  10.000  0.00  0.00    -0.000 C 
BRANCH   8   9
ATOM      9  C2  <0> d   1      18.778  -5.809   9.208  0.00  0.00    -0.005 C 
ATOM     10  C1  <0> d   1      17.513  -6.072  10.028  0.00  0.00     0.005 C 
ENDBRANCH   8   9
ENDBRANCH   7   8
ENDBRANCH   6   7
ENDBRANCH   5   6
ENDBRANCH   4   5
ENDBRANCH   3   4
ENDBRANCH   2   3
ENDBRANCH   1   2
BRANCH   1  11
ATOM     11  C11 <0> d   1      19.063   1.207  10.578  0.00  0.00     0.000 C 
BRANCH  11  12
ATOM     12  C12 <0> d   1      19.596   0.793   9.206  0.00  0.00     0.000 C 
BRANCH  12  13
ATOM     13  C13 <0> d   1      19.155   1.816   8.157  0.00  0.00     0.000 C 
BRANCH  13  14
ATOM     14  C14 <0> d   1      18.839   1.096   6.844  0.00  0.00     0.000 C 
BRANCH  14  15
ATOM     15  C15 <0> d   1      17.709   0.091   7.075  0.00  0.00     0.001 C 
BRANCH  15  16
ATOM     16  C16 <0> d   1      17.985  -1.179   6.266  0.00  0.00     0.010 C 
BRANCH  16  17
ATOM     17  C17 <0> d   1      18.860  -2.127   7.089  0.00  0.00     0.113 C 
BRANCH  17  18
ATOM     18  C18 <0> d   1      19.637  -3.025   6.162  0.00  0.00     0.172 C 
ATOM     19  O19 <0> d   1      20.411  -3.850   6.619  0.00  0.00    -0.648 OA
ATOM     20  O20 <0> d   1      19.493  -2.929   4.955  0.00  0.00    -0.648 OA
ENDBRANCH  17  18
ENDBRANCH  16  17
ENDBRANCH  15  16
ENDBRANCH  14  15
ENDBRANCH  13  14
ENDBRANCH  12  13
ENDBRANCH  11  12
ENDBRANCH   1  11
TORSDOF 16
ENDMDL
MODEL 9
REMARK VINA RESULT:      -5.1      1.567      2.022
REMARK  16 active torsions:
REMARK  status: ('A' for Active; 'I' for Inactive)
REMARK    1  A    between atoms: C2_2  and  C3_3 
REMARK    2  A    between atoms: C3_3  and  C4_4 
REMARK    3  A    between atoms: C4_4  and  C5_5 
REMARK    4  A    between atoms: C5_5  and  C6_6 
REMARK    5  A    between atoms: C6_6  and  C7_7 
REMARK    6  A    between atoms: C7_7  and  C8_8 
REMARK    7  A    between atoms: C8_8  and  C9_9 
REMARK    8  A    between atoms: C9_9  and  C10_10 
REMARK    9  A    between atoms: C10_10  and  C11_11 
REMARK   10  A    between atoms: C11_11  and  C12_12 
REMARK   11  A    between atoms: C12_12  and  C13_13 
REMARK   12  A    between atoms: C13_13  and  C14_14 
REMARK   13  A    between atoms: C14_14  and  C15_15 
REMARK   14  A    between atoms: C15_15  and  C16_16 
REMARK   15  A    between atoms: C16_16  and  C17_17 
REMARK   16  A    between atoms: C17_17  and  C18_18 
ROOT
ATOM      1  C10 <0> d   1      19.081  -1.554  10.319  0.00  0.00     0.000 C 
ENDROOT
BRANCH   1   2
ATOM      2  C9  <0> d   1      17.703  -0.943  10.580  0.00  0.00     0.000 C 
BRANCH   2   3
ATOM      3  C8  <0> d   1      17.442   0.176   9.571  0.00  0.00     0.000 C 
BRANCH   3   4
ATOM      4  C7  <0> d   1      18.751   0.548   8.871  0.00  0.00     0.000 C 
BRANCH   4   5
ATOM      5  C6  <0> d   1      19.054   2.029   9.108  0.00  0.00     0.000 C 
BRANCH   5   6
ATOM      6  C5  <0> d   1      18.002   2.619  10.049  0.00  0.00     0.000 C 
BRANCH   6   7
ATOM      7  C4  <0> d   1      18.689   3.168  11.302  0.00  0.00     0.000 C 
BRANCH   7   8
ATOM      8  C3  <0> d   1      18.350   4.652  11.462  0.00  0.00    -0.000 C 
BRANCH   8   9
ATOM      9  C2  <0> d   1      16.837   4.845  11.333  0.00  0.00    -0.005 C 
ATOM     10  C1  <0> d   1      16.295   5.484  12.613  0.00  0.00     0.005 C 
ENDBRANCH   8   9
ENDBRANCH   7   8
ENDBRANCH   6   7
ENDBRANCH   5   6
ENDBRANCH   4   5
ENDBRANCH   3   4
ENDBRANCH   2   3
ENDBRANCH   1   2
BRANCH   1  11
ATOM     11  C11 <0> d   1      19.659  -2.090  11.631  0.00  0.00     0.000 C 
BRANCH  11  12
ATOM     12  C12 <0> d   1      18.568  -2.097  12.703  0.00  0.00     0.000 C 
BRANCH  12  13
ATOM     13  C13 <0> d   1      19.109  -1.462  13.986  0.00  0.00     0.000 C 
BRANCH  13  14
ATOM     14  C14 <0> d   1      19.811  -0.145  13.646  0.00  0.00     0.000 C 
BRANCH  14  15
ATOM     15  C15 <0> d   1      19.167   0.994  14.438  0.00  0.00     0.001 C 
BRANCH  15  16
ATOM     16  C16 <0> d   1      18.398   0.416  15.628  0.00  0.00     0.010 C 
BRANCH  16  17
ATOM     17  C17 <0> d   1      18.459   1.399  16.799  0.00  0.00     0.113 C 
BRANCH  17  18
ATOM     18  C18 <0> d   1      19.324   0.826  17.892  0.00  0.00     0.172 C 
ATOM     19  O19 <0> d   1      19.882   1.570  18.681  0.00  0.00    -0.648 OA
ATOM     20  O20 <0> d   1      19.465  -0.381  17.990  0.00  0.00    -0.648 OA
ENDBRANCH  17  18
ENDBRANCH  16  17
ENDBRANCH  15  16
ENDBRANCH  14  15
ENDBRANCH  13  14
ENDBRANCH  12  13
ENDBRANCH  11  12
ENDBRANCH   1  11
TORSDOF 16
ENDMDL
