MODEL 1
REMARK VINA RESULT:      -8.3      0.000      0.000
REMARK  15 active torsions:
REMARK  status: ('A' for Active; 'I' for Inactive)
REMARK    1  A    between atoms: C2_2  and  C4_4 
REMARK    2  A    between atoms: C4_4  and  N5_5 
REMARK    3  A    between atoms: N5_5  and  C6_6 
REMARK    4  A    between atoms: N5_5  and  S33_30 
REMARK    5  A    between atoms: C6_6  and  C7_7 
REMARK    6  A    between atoms: C7_7  and  O9_8 
REMARK    7  A    between atoms: C7_7  and  C14_13 
REMARK    8  A    between atoms: O9_8  and  P10_9 
REMARK    9  A    between atoms: C14_13  and  C16_14 
REMARK   10  A    between atoms: C14_13  and  N23_21 
REMARK   11  A    between atoms: C16_14  and  C17_15 
REMARK       I    between atoms: N23_21  and  C24_22 
REMARK   12  A    between atoms: C24_22  and  O26_24 
REMARK   13  A    between atoms: O26_24  and  C27_25 
REMARK   14  A    between atoms: S33_30  and  C36_33 
REMARK   15  A    between atoms: C39_36  and  N40_37 
ROOT
ATOM      1  C7  ZIN A   1      18.001   2.310  11.924  0.00  0.00     0.177 C 
ENDROOT
BRANCH   1   2
ATOM      2  C6  ZIN A   1      17.670   1.040  11.138  0.00  0.00     0.170 C 
BRANCH   2   3
ATOM      3  N5  ZIN A   1      18.732   0.778  10.164  0.00  0.00    -0.304 N 
BRANCH   3   4
ATOM      4  C4  ZIN A   1      18.700   1.429   8.852  0.00  0.00     0.139 C 
BRANCH   4   5
ATOM      5  C2  ZIN A   1      18.562   0.367   7.759  0.00  0.00    -0.004 C 
ATOM      6  C1  ZIN A   1      17.153  -0.229   7.802  0.00  0.00     0.011 C 
ATOM      7  C3  ZIN A   1      18.802   1.010   6.391  0.00  0.00     0.011 C 
ENDBRANCH   4   5
ENDBRANCH   3   4
BRANCH   3   8
ATOM      8  S33 ZIN A   1      19.969  -0.254  10.546  0.00  0.00     0.260 S 
ATOM      9  O34 ZIN A   1      20.691  -0.480   9.343  0.00  0.00    -0.200 OA
ATOM     10  O35 ZIN A   1      20.570   0.258  11.727  0.00  0.00    -0.200 OA
BRANCH   8  11
ATOM     11  C36 ZIN A   1      19.243  -1.799  10.987  0.00  0.00     0.079 A 
ATOM     12  C42 ZIN A   1      20.051  -2.859  11.357  0.00  0.00     0.027 A 
ATOM     13  C41 ZIN A   1      19.484  -4.069  11.708  0.00  0.00     0.030 A 
ATOM     14  C39 ZIN A   1      18.104  -4.224  11.678  0.00  0.00     0.025 A 
ATOM     15  C38 ZIN A   1      17.297  -3.158  11.300  0.00  0.00     0.030 A 
ATOM     16  C37 ZIN A   1      17.870  -1.949  10.956  0.00  0.00     0.027 A 
BRANCH  14  17
ATOM     17  N40 ZIN A   1      17.529  -5.448  12.026  0.00  0.00    -0.399 N 
ATOM     18  H70 ZIN A   1      16.597  -5.488  12.292  0.00  0.00     0.156 HD
ATOM     19  H71 ZIN A   1      18.062  -6.258  12.003  0.00  0.00     0.156 HD
ENDBRANCH  14  17
ENDBRANCH   8  11
ENDBRANCH   3   8
ENDBRANCH   2   3
ENDBRANCH   1   2
BRANCH   1  20
ATOM     20  O9  ZIN A   1      16.982   3.287  11.703  0.00  0.00    -0.274 OA
BRANCH  20  21
ATOM     21  P10 ZIN A   1      17.298   4.853  11.499  0.00  0.00     0.422 P 
ATOM     22  O11 ZIN A   1      17.125   5.227   9.987  0.00  0.00    -0.617 OA
ATOM     23  O12 ZIN A   1      16.309   5.703  12.364  0.00  0.00    -0.617 OA
ATOM     24  O13 ZIN A   1      18.771   5.151  11.945  0.00  0.00    -0.617 OA
ENDBRANCH  20  21
ENDBRANCH   1  20
BRANCH   1  25
ATOM     25  C14 ZIN A   1      18.077   1.982  13.417  0.00  0.00     0.122 C 
BRANCH  25  26
ATOM     26  C16 ZIN A   1      17.167   0.789  13.723  0.00  0.00     0.066 C 
BRANCH  26  27
ATOM     27  C17 ZIN A   1      17.800  -0.064  14.791  0.00  0.00    -0.056 A 
ATOM     28  C22 ZIN A   1      18.858  -0.896  14.474  0.00  0.00     0.007 A 
ATOM     29  C21 ZIN A   1      19.443  -1.676  15.454  0.00  0.00     0.001 A 
ATOM     30  C20 ZIN A   1      18.962  -1.631  16.750  0.00  0.00     0.000 A 
ATOM     31  C19 ZIN A   1      17.901  -0.804  17.066  0.00  0.00     0.001 A 
ATOM     32  C18 ZIN A   1      17.320  -0.021  16.086  0.00  0.00     0.007 A 
ENDBRANCH  26  27
ENDBRANCH  25  26
BRANCH  25  33
ATOM     33  N23 ZIN A   1      17.640   3.142  14.195  0.00  0.00    -0.329 N 
ATOM     34  C24 ZIN A   1      18.335   3.522  15.286  0.00  0.00     0.361 C 
ATOM     35  O25 ZIN A   1      19.324   2.902  15.623  0.00  0.00    -0.238 OA
ATOM     36  H61 ZIN A   1      16.851   3.637  13.927  0.00  0.00     0.165 HD
BRANCH  34  37
ATOM     37  O26 ZIN A   1      17.933   4.589  16.002  0.00  0.00    -0.296 OA
BRANCH  37  38
ATOM     38  C27 ZIN A   1      17.645   5.807  15.267  0.00  0.00     0.159 C 
ATOM     39  C32 ZIN A   1      18.902   6.698  15.164  0.00  0.00     0.200 C 
ATOM     40  O31 ZIN A   1      18.482   8.057  15.359  0.00  0.00    -0.389 OA
ATOM     41  C30 ZIN A   1      17.058   8.112  15.529  0.00  0.00     0.170 C 
ATOM     42  C29 ZIN A   1      16.658   6.710  16.056  0.00  0.00     0.061 C 
ENDBRANCH  37  38
ENDBRANCH  34  37
ENDBRANCH  25  33
ENDBRANCH   1  25
TORSDOF 15
ENDMDL
MODEL 2
REMARK VINA RESULT:      -8.3      4.081      9.875
REMARK  15 active torsions:
REMARK  status: ('A' for Active; 'I' for Inactive)
REMARK    1  A    between atoms: C2_2  and  C4_4 
REMARK    2  A    between atoms: C4_4  and  N5_5 
REMARK    3  A    between atoms: N5_5  and  C6_6 
REMARK    4  A    between atoms: N5_5  and  S33_30 
REMARK    5  A    between atoms: C6_6  and  C7_7 
REMARK    6  A    between atoms: C7_7  and  O9_8 
REMARK    7  A    between atoms: C7_7  and  C14_13 
REMARK    8  A    between atoms: O9_8  and  P10_9 
REMARK    9  A    between atoms: C14_13  and  C16_14 
REMARK   10  A    between atoms: C14_13  and  N23_21 
REMARK   11  A    between atoms: C16_14  and  C17_15 
REMARK       I    between atoms: N23_21  and  C24_22 
REMARK   12  A    between atoms: C24_22  and  O26_24 
REMARK   13  A    between atoms: O26_24  and  C27_25 
REMARK   14  A    between atoms: S33_30  and  C36_33 
REMARK   15  A    between atoms: C39_36  and  N40_37 
ROOT
ATOM      1  C7  ZIN A   1      18.267  -2.565  10.672  0.00  0.00     0.177 C 
ENDROOT
BRANCH   1   2
ATOM      2  C6  ZIN A   1      17.981  -1.213  11.329  0.00  0.00     0.170 C 
BRANCH   2   3
ATOM      3  N5  ZIN A   1      19.148  -0.792  12.108  0.00  0.00    -0.304 N 
BRANCH   3   4
ATOM      4  C4  ZIN A   1      19.331  -1.281  13.477  0.00  0.00     0.139 C 
BRANCH   4   5
ATOM      5  C2  ZIN A   1      18.114  -0.899  14.322  0.00  0.00    -0.004 C 
ATOM      6  C1  ZIN A   1      18.218  -1.564  15.696  0.00  0.00     0.011 C 
ATOM      7  C3  ZIN A   1      18.069   0.621  14.493  0.00  0.00     0.011 C 
ENDBRANCH   4   5
ENDBRANCH   3   4
BRANCH   3   8
ATOM      8  S33 ZIN A   1      20.261   0.237  11.441  0.00  0.00     0.260 S 
ATOM      9  O34 ZIN A   1      21.145   0.607  12.490  0.00  0.00    -0.200 OA
ATOM     10  O35 ZIN A   1      20.698  -0.372  10.234  0.00  0.00    -0.200 OA
BRANCH   8  11
ATOM     11  C36 ZIN A   1      19.402   1.704  10.975  0.00  0.00     0.079 A 
ATOM     12  C42 ZIN A   1      19.145   1.958   9.640  0.00  0.00     0.027 A 
ATOM     13  C41 ZIN A   1      18.468   3.104   9.272  0.00  0.00     0.030 A 
ATOM     14  C39 ZIN A   1      18.054   4.007  10.244  0.00  0.00     0.025 A 
ATOM     15  C38 ZIN A   1      18.319   3.751  11.583  0.00  0.00     0.030 A 
ATOM     16  C37 ZIN A   1      18.992   2.601  11.944  0.00  0.00     0.027 A 
BRANCH  14  17
ATOM     17  N40 ZIN A   1      17.374   5.170   9.874  0.00  0.00    -0.399 N 
ATOM     18  H70 ZIN A   1      17.652   5.663   9.086  0.00  0.00     0.156 HD
ATOM     19  H71 ZIN A   1      16.627   5.484  10.405  0.00  0.00     0.156 HD
ENDBRANCH  14  17
ENDBRANCH   8  11
ENDBRANCH   3   8
ENDBRANCH   2   3
ENDBRANCH   1   2
BRANCH   1  20
ATOM     20  O9  ZIN A   1      17.299  -3.522  11.107  0.00  0.00    -0.274 OA
BRANCH  20  21
ATOM     21  P10 ZIN A   1      17.691  -5.004  11.601  0.00  0.00     0.422 P 
ATOM     22  O11 ZIN A   1      17.088  -6.058  10.612  0.00  0.00    -0.617 OA
ATOM     23  O12 ZIN A   1      19.250  -5.148  11.633  0.00  0.00    -0.617 OA
ATOM     24  O13 ZIN A   1      17.115  -5.245  13.038  0.00  0.00    -0.617 OA
ENDBRANCH  20  21
ENDBRANCH   1  20
BRANCH   1  25
ATOM     25  C14 ZIN A   1      18.192  -2.419   9.151  0.00  0.00     0.122 C 
BRANCH  25  26
ATOM     26  C16 ZIN A   1      17.583  -1.060   8.798  0.00  0.00     0.066 C 
BRANCH  26  27
ATOM     27  C17 ZIN A   1      17.923  -0.712   7.373  0.00  0.00    -0.056 A 
ATOM     28  C22 ZIN A   1      19.162  -1.044   6.857  0.00  0.00     0.007 A 
ATOM     29  C21 ZIN A   1      19.472  -0.730   5.547  0.00  0.00     0.001 A 
ATOM     30  C20 ZIN A   1      18.548  -0.073   4.756  0.00  0.00     0.000 A 
ATOM     31  C19 ZIN A   1      17.311   0.264   5.273  0.00  0.00     0.001 A 
ATOM     32  C18 ZIN A   1      16.999  -0.055   6.582  0.00  0.00     0.007 A 
ENDBRANCH  26  27
ENDBRANCH  25  26
BRANCH  25  33
ATOM     33  N23 ZIN A   1      17.355  -3.487   8.599  0.00  0.00    -0.329 N 
ATOM     34  C24 ZIN A   1      17.905  -4.440   7.821  0.00  0.00     0.361 C 
ATOM     35  O25 ZIN A   1      19.095  -4.414   7.577  0.00  0.00    -0.238 OA
ATOM     36  H61 ZIN A   1      16.405  -3.508   8.792  0.00  0.00     0.165 HD
BRANCH  34  37
ATOM     37  O26 ZIN A   1      17.136  -5.421   7.313  0.00  0.00    -0.296 OA
BRANCH  37  38
ATOM     38  C27 ZIN A   1      17.784  -6.692   7.038  0.00  0.00     0.159 C 
ATOM     39  C32 ZIN A   1      17.771  -7.000   5.525  0.00  0.00     0.200 C 
ATOM     40  O31 ZIN A   1      17.485  -8.398   5.374  0.00  0.00    -0.389 OA
ATOM     41  C30 ZIN A   1      17.362  -9.017   6.664  0.00  0.00     0.170 C 
ATOM     42  C29 ZIN A   1      16.962  -7.870   7.627  0.00  0.00     0.061 C 
ENDBRANCH  37  38
ENDBRANCH  34  37
ENDBRANCH  25  33
ENDBRANCH   1  25
TORSDOF 15
ENDMDL
MODEL 3
REMARK VINA RESULT:      -8.1      3.834      6.023
REMARK  15 active torsions:
REMARK  status: ('A' for Active; 'I' for Inactive)
REMARK    1  A    between atoms: C2_2  and  C4_4 
REMARK    2  A    between atoms: C4_4  and  N5_5 
REMARK    3  A    between atoms: N5_5  and  C6_6 
REMARK    4  A    between atoms: N5_5  and  S33_30 
REMARK    5  A    between atoms: C6_6  and  C7_7 
REMARK    6  A    between atoms: C7_7  and  O9_8 
REMARK    7  A    between atoms: C7_7  and  C14_13 
REMARK    8  A    between atoms: O9_8  and  P10_9 
REMARK    9  A    between atoms: C14_13  and  C16_14 
REMARK   10  A    between atoms: C14_13  and  N23_21 
REMARK   11  A    between atoms: C16_14  and  C17_15 
REMARK       I    between atoms: N23_21  and  C24_22 
REMARK   12  A    between atoms: C24_22  and  O26_24 
REMARK   13  A    between atoms: O26_24  and  C27_25 
REMARK   14  A    between atoms: S33_30  and  C36_33 
REMARK   15  A    between atoms: C39_36  and  N40_37 
ROOT
ATOM      1  C7  ZIN A   1      18.724  -2.107   7.082  0.00  0.00     0.177 C 
ENDROOT
BRANCH   1   2
ATOM      2  C6  ZIN A   1      17.863  -3.371   7.086  0.00  0.00     0.170 C 
BRANCH   2   3
ATOM      3  N5  ZIN A   1      18.509  -4.405   6.274  0.00  0.00    -0.304 N 
BRANCH   3   4
ATOM      4  C4  ZIN A   1      18.547  -4.273   4.815  0.00  0.00     0.139 C 
BRANCH   4   5
ATOM      5  C2  ZIN A   1      17.162  -4.576   4.239  0.00  0.00    -0.004 C 
ATOM      6  C1  ZIN A   1      16.613  -3.328   3.546  0.00  0.00     0.011 C 
ATOM      7  C3  ZIN A   1      17.271  -5.717   3.224  0.00  0.00     0.011 C 
ENDBRANCH   4   5
ENDBRANCH   3   4
BRANCH   3   8
ATOM      8  S33 ZIN A   1      19.197  -5.722   7.004  0.00  0.00     0.260 S 
ATOM      9  O34 ZIN A   1      18.611  -6.867   6.400  0.00  0.00    -0.200 OA
ATOM     10  O35 ZIN A   1      20.597  -5.485   7.024  0.00  0.00    -0.200 OA
BRANCH   8  11
ATOM     11  C36 ZIN A   1      18.668  -5.722   8.685  0.00  0.00     0.079 A 
ATOM     12  C42 ZIN A   1      19.536  -5.312   9.681  0.00  0.00     0.027 A 
ATOM     13  C41 ZIN A   1      19.122  -5.305  10.999  0.00  0.00     0.030 A 
ATOM     14  C39 ZIN A   1      17.838  -5.723  11.325  0.00  0.00     0.025 A 
ATOM     15  C38 ZIN A   1      16.972  -6.141  10.323  0.00  0.00     0.030 A 
ATOM     16  C37 ZIN A   1      17.389  -6.139   9.006  0.00  0.00     0.027 A 
BRANCH  14  17
ATOM     17  N40 ZIN A   1      17.420  -5.725  12.658  0.00  0.00    -0.399 N 
ATOM     18  H70 ZIN A   1      16.543  -6.067  12.889  0.00  0.00     0.156 HD
ATOM     19  H71 ZIN A   1      18.007  -5.383  13.350  0.00  0.00     0.156 HD
ENDBRANCH  14  17
ENDBRANCH   8  11
ENDBRANCH   3   8
ENDBRANCH   2   3
ENDBRANCH   1   2
BRANCH   1  20
ATOM     20  O9  ZIN A   1      18.103  -1.109   6.269  0.00  0.00    -0.274 OA
BRANCH  20  21
ATOM     21  P10 ZIN A   1      18.873  -0.342   5.080  0.00  0.00     0.422 P 
ATOM     22  O11 ZIN A   1      20.072  -1.220   4.585  0.00  0.00    -0.617 OA
ATOM     23  O12 ZIN A   1      17.883  -0.091   3.893  0.00  0.00    -0.617 OA
ATOM     24  O13 ZIN A   1      19.414   1.030   5.609  0.00  0.00    -0.617 OA
ENDBRANCH  20  21
ENDBRANCH   1  20
BRANCH   1  25
ATOM     25  C14 ZIN A   1      18.868  -1.582   8.512  0.00  0.00     0.122 C 
BRANCH  25  26
ATOM     26  C16 ZIN A   1      17.807  -2.233   9.403  0.00  0.00     0.066 C 
BRANCH  26  27
ATOM     27  C17 ZIN A   1      17.900  -1.662  10.794  0.00  0.00    -0.056 A 
ATOM     28  C22 ZIN A   1      18.886  -2.104  11.657  0.00  0.00     0.007 A 
ATOM     29  C21 ZIN A   1      18.976  -1.578  12.932  0.00  0.00     0.001 A 
ATOM     30  C20 ZIN A   1      18.073  -0.617  13.348  0.00  0.00     0.000 A 
ATOM     31  C19 ZIN A   1      17.084  -0.179  12.487  0.00  0.00     0.001 A 
ATOM     32  C18 ZIN A   1      16.997  -0.703  11.211  0.00  0.00     0.007 A 
ENDBRANCH  26  27
ENDBRANCH  25  26
BRANCH  25  33
ATOM     33  N23 ZIN A   1      18.688  -0.129   8.519  0.00  0.00    -0.329 N 
ATOM     34  C24 ZIN A   1      19.621   0.662   9.086  0.00  0.00     0.361 C 
ATOM     35  O25 ZIN A   1      20.611   0.170   9.590  0.00  0.00    -0.238 OA
ATOM     36  H61 ZIN A   1      17.898   0.264   8.118  0.00  0.00     0.165 HD
BRANCH  34  37
ATOM     37  O26 ZIN A   1      19.456   1.999   9.093  0.00  0.00    -0.296 OA
BRANCH  37  38
ATOM     38  C27 ZIN A   1      18.641   2.556  10.158  0.00  0.00     0.159 C 
ATOM     39  C32 ZIN A   1      18.101   3.948   9.766  0.00  0.00     0.200 C 
ATOM     40  O31 ZIN A   1      18.189   4.786  10.929  0.00  0.00    -0.389 OA
ATOM     41  C30 ZIN A   1      18.695   4.032  12.041  0.00  0.00     0.170 C 
ATOM     42  C29 ZIN A   1      19.506   2.872  11.409  0.00  0.00     0.061 C 
ENDBRANCH  37  38
ENDBRANCH  34  37
ENDBRANCH  25  33
ENDBRANCH   1  25
TORSDOF 15
ENDMDL
MODEL 4
REMARK VINA RESULT:      -8.1      4.102      9.819
REMARK  15 active torsions:
REMARK  status: ('A' for Active; 'I' for Inactive)
REMARK    1  A    between atoms: C2_2  and  C4_4 
REMARK    2  A    between atoms: C4_4  and  N5_5 
REMARK    3  A    between atoms: N5_5  and  C6_6 
REMARK    4  A    between atoms: N5_5  and  S33_30 
REMARK    5  A    between atoms: C6_6  and  C7_7 
REMARK    6  A    between atoms: C7_7  and  O9_8 
REMARK    7  A    between atoms: C7_7  and  C14_13 
REMARK    8  A    between atoms: O9_8  and  P10_9 
REMARK    9  A    between atoms: C14_13  and  C16_14 
REMARK   10  A    between atoms: C14_13  and  N23_21 
REMARK   11  A    between atoms: C16_14  and  C17_15 
REMARK       I    between atoms: N23_21  and  C24_22 
REMARK   12  A    between atoms: C24_22  and  O26_24 
REMARK   13  A    between atoms: O26_24  and  C27_25 
REMARK   14  A    between atoms: S33_30  and  C36_33 
REMARK   15  A    between atoms: C39_36  and  N40_37 
ROOT
ATOM      1  C7  ZIN A   1      18.264  -2.542  10.686  0.00  0.00     0.177 C 
ENDROOT
BRANCH   1   2
ATOM      2  C6  ZIN A   1      17.961  -1.199  11.355  0.00  0.00     0.170 C 
BRANCH   2   3
ATOM      3  N5  ZIN A   1      19.123  -0.770  12.138  0.00  0.00    -0.304 N 
BRANCH   3   4
ATOM      4  C4  ZIN A   1      19.296  -1.247  13.512  0.00  0.00     0.139 C 
BRANCH   4   5
ATOM      5  C2  ZIN A   1      18.066  -0.872  14.342  0.00  0.00    -0.004 C 
ATOM      6  C1  ZIN A   1      18.157  -1.536  15.717  0.00  0.00     0.011 C 
ATOM      7  C3  ZIN A   1      18.012   0.648  14.512  0.00  0.00     0.011 C 
ENDBRANCH   4   5
ENDBRANCH   3   4
BRANCH   3   8
ATOM      8  S33 ZIN A   1      20.239   0.253  11.469  0.00  0.00     0.260 S 
ATOM      9  O34 ZIN A   1      21.122   0.625  12.519  0.00  0.00    -0.200 OA
ATOM     10  O35 ZIN A   1      20.678  -0.361  10.266  0.00  0.00    -0.200 OA
BRANCH   8  11
ATOM     11  C36 ZIN A   1      19.384   1.721  10.996  0.00  0.00     0.079 A 
ATOM     12  C42 ZIN A   1      18.953   2.610  11.964  0.00  0.00     0.027 A 
ATOM     13  C41 ZIN A   1      18.288   3.763  11.595  0.00  0.00     0.030 A 
ATOM     14  C39 ZIN A   1      18.042   4.023  10.253  0.00  0.00     0.025 A 
ATOM     15  C38 ZIN A   1      18.471   3.124   9.285  0.00  0.00     0.030 A 
ATOM     16  C37 ZIN A   1      19.141   1.976   9.659  0.00  0.00     0.027 A 
BRANCH  14  17
ATOM     17  N40 ZIN A   1      17.363   5.185   9.878  0.00  0.00    -0.399 N 
ATOM     18  H70 ZIN A   1      16.566   5.125   9.329  0.00  0.00     0.156 HD
ATOM     19  H71 ZIN A   1      17.689   6.051  10.167  0.00  0.00     0.156 HD
ENDBRANCH  14  17
ENDBRANCH   8  11
ENDBRANCH   3   8
ENDBRANCH   2   3
ENDBRANCH   1   2
BRANCH   1  20
ATOM     20  O9  ZIN A   1      17.274  -3.500  11.069  0.00  0.00    -0.274 OA
BRANCH  20  21
ATOM     21  P10 ZIN A   1      17.637  -5.001  11.524  0.00  0.00     0.422 P 
ATOM     22  O11 ZIN A   1      19.193  -5.181  11.535  0.00  0.00    -0.617 OA
ATOM     23  O12 ZIN A   1      17.070  -5.263  12.960  0.00  0.00    -0.617 OA
ATOM     24  O13 ZIN A   1      17.000  -6.020  10.518  0.00  0.00    -0.617 OA
ENDBRANCH  20  21
ENDBRANCH   1  20
BRANCH   1  25
ATOM     25  C14 ZIN A   1      18.248  -2.371   9.166  0.00  0.00     0.122 C 
BRANCH  25  26
ATOM     26  C16 ZIN A   1      17.569  -1.046   8.810  0.00  0.00     0.066 C 
BRANCH  26  27
ATOM     27  C17 ZIN A   1      17.904  -0.677   7.388  0.00  0.00    -0.056 A 
ATOM     28  C22 ZIN A   1      16.941  -0.105   6.578  0.00  0.00     0.007 A 
ATOM     29  C21 ZIN A   1      17.249   0.238   5.274  0.00  0.00     0.001 A 
ATOM     30  C20 ZIN A   1      18.517  -0.001   4.778  0.00  0.00     0.000 A 
ATOM     31  C19 ZIN A   1      19.478  -0.578   5.586  0.00  0.00     0.001 A 
ATOM     32  C18 ZIN A   1      19.171  -0.917   6.891  0.00  0.00     0.007 A 
ENDBRANCH  26  27
ENDBRANCH  25  26
BRANCH  25  33
ATOM     33  N23 ZIN A   1      17.507  -3.479   8.558  0.00  0.00    -0.329 N 
ATOM     34  C24 ZIN A   1      18.153  -4.380   7.792  0.00  0.00     0.361 C 
ATOM     35  O25 ZIN A   1      19.349  -4.274   7.605  0.00  0.00    -0.238 OA
ATOM     36  H61 ZIN A   1      16.553  -3.563   8.706  0.00  0.00     0.165 HD
BRANCH  34  37
ATOM     37  O26 ZIN A   1      17.472  -5.398   7.232  0.00  0.00    -0.296 OA
BRANCH  37  38
ATOM     38  C27 ZIN A   1      17.969  -5.907   5.966  0.00  0.00     0.159 C 
ATOM     39  C32 ZIN A   1      17.448  -5.056   4.788  0.00  0.00     0.200 C 
ATOM     40  O31 ZIN A   1      17.105  -5.958   3.726  0.00  0.00    -0.389 OA
ATOM     41  C30 ZIN A   1      17.408  -7.308   4.109  0.00  0.00     0.170 C 
ATOM     42  C29 ZIN A   1      17.371  -7.307   5.659  0.00  0.00     0.061 C 
ENDBRANCH  37  38
ENDBRANCH  34  37
ENDBRANCH  25  33
ENDBRANCH   1  25
TORSDOF 15
ENDMDL
MODEL 5
REMARK VINA RESULT:      -8.1      2.180      2.640
REMARK  15 active torsions:
REMARK  status: ('A' for Active; 'I' for Inactive)
REMARK    1  A    between atoms: C2_2  and  C4_4 
REMARK    2  A    between atoms: C4_4  and  N5_5 
REMARK    3  A    between atoms: N5_5  and  C6_6 
REMARK    4  A    between atoms: N5_5  and  S33_30 
REMARK    5  A    between atoms: C6_6  and  C7_7 
REMARK    6  A    between atoms: C7_7  and  O9_8 
REMARK    7  A    between atoms: C7_7  and  C14_13 
REMARK    8  A    between atoms: O9_8  and  P10_9 
REMARK    9  A    between atoms: C14_13  and  C16_14 
REMARK   10  A    between atoms: C14_13  and  N23_21 
REMARK   11  A    between atoms: C16_14  and  C17_15 
REMARK       I    between atoms: N23_21  and  C24_22 
REMARK   12  A    between atoms: C24_22  and  O26_24 
REMARK   13  A    between atoms: O26_24  and  C27_25 
REMARK   14  A    between atoms: S33_30  and  C36_33 
REMARK   15  A    between atoms: C39_36  and  N40_37 
ROOT
ATOM      1  C7  ZIN A   1      18.395   0.564  11.623  0.00  0.00     0.177 C 
ENDROOT
BRANCH   1   2
ATOM      2  C6  ZIN A   1      17.648  -0.738  11.328  0.00  0.00     0.170 C 
BRANCH   2   3
ATOM      3  N5  ZIN A   1      18.550  -1.675  10.653  0.00  0.00    -0.304 N 
BRANCH   3   4
ATOM      4  C4  ZIN A   1      19.058  -1.366   9.314  0.00  0.00     0.139 C 
BRANCH   4   5
ATOM      5  C2  ZIN A   1      17.971  -1.657   8.276  0.00  0.00    -0.004 C 
ATOM      6  C1  ZIN A   1      17.420  -0.338   7.731  0.00  0.00     0.011 C 
ATOM      7  C3  ZIN A   1      18.568  -2.474   7.128  0.00  0.00     0.011 C 
ENDBRANCH   4   5
ENDBRANCH   3   4
BRANCH   3   8
ATOM      8  S33 ZIN A   1      18.994  -3.083  11.403  0.00  0.00     0.260 S 
ATOM      9  O34 ZIN A   1      20.414  -3.076  11.461  0.00  0.00    -0.200 OA
ATOM     10  O35 ZIN A   1      18.171  -3.202  12.554  0.00  0.00    -0.200 OA
BRANCH   8  11
ATOM     11  C36 ZIN A   1      18.547  -4.409  10.331  0.00  0.00     0.079 A 
ATOM     12  C42 ZIN A   1      19.528  -5.099   9.643  0.00  0.00     0.027 A 
ATOM     13  C41 ZIN A   1      19.181  -6.143   8.807  0.00  0.00     0.030 A 
ATOM     14  C39 ZIN A   1      17.845  -6.490   8.649  0.00  0.00     0.025 A 
ATOM     15  C38 ZIN A   1      16.863  -5.790   9.338  0.00  0.00     0.030 A 
ATOM     16  C37 ZIN A   1      17.217  -4.752  10.177  0.00  0.00     0.027 A 
BRANCH  14  17
ATOM     17  N40 ZIN A   1      17.491  -7.541   7.799  0.00  0.00    -0.399 N 
ATOM     18  H70 ZIN A   1      17.919  -7.628   6.933  0.00  0.00     0.156 HD
ATOM     19  H71 ZIN A   1      16.817  -8.181   8.074  0.00  0.00     0.156 HD
ENDBRANCH  14  17
ENDBRANCH   8  11
ENDBRANCH   3   8
ENDBRANCH   2   3
ENDBRANCH   1   2
BRANCH   1  20
ATOM     20  O9  ZIN A   1      17.849   1.618  10.826  0.00  0.00    -0.274 OA
BRANCH  20  21
ATOM     21  P10 ZIN A   1      18.754   2.766  10.151  0.00  0.00     0.422 P 
ATOM     22  O11 ZIN A   1      17.878   4.041   9.902  0.00  0.00    -0.617 OA
ATOM     23  O12 ZIN A   1      19.940   3.126  11.109  0.00  0.00    -0.617 OA
ATOM     24  O13 ZIN A   1      19.324   2.248   8.787  0.00  0.00    -0.617 OA
ENDBRANCH  20  21
ENDBRANCH   1  20
BRANCH   1  25
ATOM     25  C14 ZIN A   1      18.244   0.916  13.104  0.00  0.00     0.122 C 
BRANCH  25  26
ATOM     26  C16 ZIN A   1      17.375  -0.140  13.793  0.00  0.00     0.066 C 
BRANCH  26  27
ATOM     27  C17 ZIN A   1      17.889  -0.381  15.188  0.00  0.00    -0.056 A 
ATOM     28  C22 ZIN A   1      17.302   0.265  16.261  0.00  0.00     0.007 A 
ATOM     29  C21 ZIN A   1      17.769   0.041  17.543  0.00  0.00     0.001 A 
ATOM     30  C20 ZIN A   1      18.831  -0.820  17.750  0.00  0.00     0.000 A 
ATOM     31  C19 ZIN A   1      19.421  -1.461  16.678  0.00  0.00     0.001 A 
ATOM     32  C18 ZIN A   1      18.951  -1.240  15.397  0.00  0.00     0.007 A 
ENDBRANCH  26  27
ENDBRANCH  25  26
BRANCH  25  33
ATOM     33  N23 ZIN A   1      17.609   2.229  13.233  0.00  0.00    -0.329 N 
ATOM     34  C24 ZIN A   1      18.122   3.145  14.078  0.00  0.00     0.361 C 
ATOM     35  O25 ZIN A   1      19.110   2.882  14.733  0.00  0.00    -0.238 OA
ATOM     36  H61 ZIN A   1      16.820   2.440  12.711  0.00  0.00     0.165 HD
BRANCH  34  37
ATOM     37  O26 ZIN A   1      17.538   4.353  14.196  0.00  0.00    -0.296 OA
BRANCH  37  38
ATOM     38  C27 ZIN A   1      18.132   5.283  15.140  0.00  0.00     0.159 C 
ATOM     39  C32 ZIN A   1      17.316   5.334  16.449  0.00  0.00     0.200 C 
ATOM     40  O31 ZIN A   1      17.256   6.707  16.865  0.00  0.00    -0.389 OA
ATOM     41  C30 ZIN A   1      18.006   7.529  15.957  0.00  0.00     0.170 C 
ATOM     42  C29 ZIN A   1      18.024   6.742  14.621  0.00  0.00     0.061 C 
ENDBRANCH  37  38
ENDBRANCH  34  37
ENDBRANCH  25  33
ENDBRANCH   1  25
TORSDOF 15
ENDMDL
MODEL 6
REMARK VINA RESULT:      -8.1      3.983      6.274
REMARK  15 active torsions:
REMARK  status: ('A' for Active; 'I' for Inactive)
REMARK    1  A    between atoms: C2_2  and  C4_4 
REMARK    2  A    between atoms: C4_4  and  N5_5 
REMARK    3  A    between atoms: N5_5  and  C6_6 
REMARK    4  A    between atoms: N5_5  and  S33_30 
REMARK    5  A    between atoms: C6_6  and  C7_7 
REMARK    6  A    between atoms: C7_7  and  O9_8 
REMARK    7  A    between atoms: C7_7  and  C14_13 
REMARK    8  A    between atoms: O9_8  and  P10_9 
REMARK    9  A    between atoms: C14_13  and  C16_14 
REMARK   10  A    between atoms: C14_13  and  N23_21 
REMARK   11  A    between atoms: C16_14  and  C17_15 
REMARK       I    between atoms: N23_21  and  C24_22 
REMARK   12  A    between atoms: C24_22  and  O26_24 
REMARK   13  A    between atoms: O26_24  and  C27_25 
REMARK   14  A    between atoms: S33_30  and  C36_33 
REMARK   15  A    between atoms: C39_36  and  N40_37 
ROOT
ATOM      1  C7  ZIN A   1      18.479  -1.726   7.992  0.00  0.00     0.177 C 
ENDROOT
BRANCH   1   2
ATOM      2  C6  ZIN A   1      17.699  -3.027   8.189  0.00  0.00     0.170 C 
BRANCH   2   3
ATOM      3  N5  ZIN A   1      18.637  -4.147   8.296  0.00  0.00    -0.304 N 
BRANCH   3   4
ATOM      4  C4  ZIN A   1      18.959  -4.710   9.609  0.00  0.00     0.139 C 
BRANCH   4   5
ATOM      5  C2  ZIN A   1      17.667  -5.125  10.318  0.00  0.00    -0.004 C 
ATOM      6  C1  ZIN A   1      17.157  -6.438   9.722  0.00  0.00     0.011 C 
ATOM      7  C3  ZIN A   1      17.944  -5.315  11.811  0.00  0.00     0.011 C 
ENDBRANCH   4   5
ENDBRANCH   3   4
BRANCH   3   8
ATOM      8  S33 ZIN A   1      19.332  -4.777   6.932  0.00  0.00     0.260 S 
ATOM      9  O34 ZIN A   1      20.349  -3.864   6.541  0.00  0.00    -0.200 OA
ATOM     10  O35 ZIN A   1      19.583  -6.148   7.206  0.00  0.00    -0.200 OA
BRANCH   8  11
ATOM     11  C36 ZIN A   1      18.113  -4.739   5.659  0.00  0.00     0.079 A 
ATOM     12  C42 ZIN A   1      18.274  -3.893   4.577  0.00  0.00     0.027 A 
ATOM     13  C41 ZIN A   1      17.323  -3.865   3.575  0.00  0.00     0.030 A 
ATOM     14  C39 ZIN A   1      16.200  -4.679   3.661  0.00  0.00     0.025 A 
ATOM     15  C38 ZIN A   1      16.040  -5.522   4.753  0.00  0.00     0.030 A 
ATOM     16  C37 ZIN A   1      16.998  -5.550   5.748  0.00  0.00     0.027 A 
BRANCH  14  17
ATOM     17  N40 ZIN A   1      15.234  -4.647   2.653  0.00  0.00    -0.399 N 
ATOM     18  H70 ZIN A   1      15.237  -5.324   1.958  0.00  0.00     0.156 HD
ATOM     19  H71 ZIN A   1      14.562  -3.949   2.647  0.00  0.00     0.156 HD
ENDBRANCH  14  17
ENDBRANCH   8  11
ENDBRANCH   3   8
ENDBRANCH   2   3
ENDBRANCH   1   2
BRANCH   1  20
ATOM     20  O9  ZIN A   1      17.856  -0.947   6.967  0.00  0.00    -0.274 OA
BRANCH  20  21
ATOM     21  P10 ZIN A   1      18.671  -0.306   5.736  0.00  0.00     0.422 P 
ATOM     22  O11 ZIN A   1      17.739  -0.224   4.480  0.00  0.00    -0.617 OA
ATOM     23  O12 ZIN A   1      19.156   1.132   6.122  0.00  0.00    -0.617 OA
ATOM     24  O13 ZIN A   1      19.913  -1.204   5.407  0.00  0.00    -0.617 OA
ENDBRANCH  20  21
ENDBRANCH   1  20
BRANCH   1  25
ATOM     25  C14 ZIN A   1      18.489  -0.932   9.300  0.00  0.00     0.122 C 
BRANCH  25  26
ATOM     26  C16 ZIN A   1      17.488  -1.551  10.279  0.00  0.00     0.066 C 
BRANCH  26  27
ATOM     27  C17 ZIN A   1      17.952  -1.310  11.691  0.00  0.00    -0.056 A 
ATOM     28  C22 ZIN A   1      17.250  -0.447  12.512  0.00  0.00     0.007 A 
ATOM     29  C21 ZIN A   1      17.673  -0.228  13.810  0.00  0.00     0.001 A 
ATOM     30  C20 ZIN A   1      18.804  -0.865  14.284  0.00  0.00     0.000 A 
ATOM     31  C19 ZIN A   1      19.510  -1.724  13.462  0.00  0.00     0.001 A 
ATOM     32  C18 ZIN A   1      19.084  -1.945  12.166  0.00  0.00     0.007 A 
ENDBRANCH  26  27
ENDBRANCH  25  26
BRANCH  25  33
ATOM     33  N23 ZIN A   1      18.115   0.457   9.031  0.00  0.00    -0.329 N 
ATOM     34  C24 ZIN A   1      18.856   1.464   9.535  0.00  0.00     0.361 C 
ATOM     35  O25 ZIN A   1      19.834   1.219  10.212  0.00  0.00    -0.238 OA
ATOM     36  H61 ZIN A   1      17.334   0.654   8.492  0.00  0.00     0.165 HD
BRANCH  34  37
ATOM     37  O26 ZIN A   1      18.511   2.742   9.289  0.00  0.00    -0.296 OA
BRANCH  37  38
ATOM     38  C27 ZIN A   1      18.422   3.633  10.432  0.00  0.00     0.159 C 
ATOM     39  C32 ZIN A   1      17.505   3.039  11.523  0.00  0.00     0.200 C 
ATOM     40  O31 ZIN A   1      16.714   4.113  12.052  0.00  0.00    -0.389 OA
ATOM     41  C30 ZIN A   1      17.083   5.351  11.424  0.00  0.00     0.170 C 
ATOM     42  C29 ZIN A   1      17.684   4.946  10.054  0.00  0.00     0.061 C 
ENDBRANCH  37  38
ENDBRANCH  34  37
ENDBRANCH  25  33
ENDBRANCH   1  25
TORSDOF 15
ENDMDL
MODEL 7
REMARK VINA RESULT:      -8.0      2.845      8.619
REMARK  15 active torsions:
REMARK  status: ('A' for Active; 'I' for Inactive)
REMARK    1  A    between atoms: C2_2  and  C4_4 
REMARK    2  A    between atoms: C4_4  and  N5_5 
REMARK    3  A    between atoms: N5_5  and  C6_6 
REMARK    4  A    between atoms: N5_5  and  S33_30 
REMARK    5  A    between atoms: C6_6  and  C7_7 
REMARK    6  A    between atoms: C7_7  and  O9_8 
REMARK    7  A    between atoms: C7_7  and  C14_13 
REMARK    8  A    between atoms: O9_8  and  P10_9 
REMARK    9  A    between atoms: C14_13  and  C16_14 
REMARK   10  A    between atoms: C14_13  and  N23_21 
REMARK   11  A    between atoms: C16_14  and  C17_15 
REMARK       I    between atoms: N23_21  and  C24_22 
REMARK   12  A    between atoms: C24_22  and  O26_24 
REMARK   13  A    between atoms: O26_24  and  C27_25 
REMARK   14  A    between atoms: S33_30  and  C36_33 
REMARK   15  A    between atoms: C39_36  and  N40_37 
ROOT
ATOM      1  C7  ZIN A   1      18.452   1.246  13.244  0.00  0.00     0.177 C 
ENDROOT
BRANCH   1   2
ATOM      2  C6  ZIN A   1      17.486   2.432  13.203  0.00  0.00     0.170 C 
BRANCH   2   3
ATOM      3  N5  ZIN A   1      18.247   3.683  13.253  0.00  0.00    -0.304 N 
BRANCH   3   4
ATOM      4  C4  ZIN A   1      18.657   4.341  12.010  0.00  0.00     0.139 C 
BRANCH   4   5
ATOM      5  C2  ZIN A   1      17.461   4.423  11.058  0.00  0.00    -0.004 C 
ATOM      6  C1  ZIN A   1      16.416   5.381  11.633  0.00  0.00     0.011 C 
ATOM      7  C3  ZIN A   1      17.930   4.938   9.695  0.00  0.00     0.011 C 
ENDBRANCH   4   5
ENDBRANCH   3   4
BRANCH   3   8
ATOM      8  S33 ZIN A   1      18.643   4.354  14.714  0.00  0.00     0.260 S 
ATOM      9  O34 ZIN A   1      18.211   3.435  15.708  0.00  0.00    -0.200 OA
ATOM     10  O35 ZIN A   1      19.987   4.800  14.601  0.00  0.00    -0.200 OA
BRANCH   8  11
ATOM     11  C36 ZIN A   1      17.653   5.799  14.911  0.00  0.00     0.079 A 
ATOM     12  C42 ZIN A   1      16.317   5.679  15.245  0.00  0.00     0.027 A 
ATOM     13  C41 ZIN A   1      15.540   6.810  15.405  0.00  0.00     0.030 A 
ATOM     14  C39 ZIN A   1      16.100   8.068  15.218  0.00  0.00     0.025 A 
ATOM     15  C38 ZIN A   1      17.441   8.184  14.876  0.00  0.00     0.030 A 
ATOM     16  C37 ZIN A   1      18.213   7.049  14.724  0.00  0.00     0.027 A 
BRANCH  14  17
ATOM     17  N40 ZIN A   1      15.315   9.213  15.373  0.00  0.00    -0.399 N 
ATOM     18  H70 ZIN A   1      15.278   9.662  16.232  0.00  0.00     0.156 HD
ATOM     19  H71 ZIN A   1      14.808   9.558  14.622  0.00  0.00     0.156 HD
ENDBRANCH  14  17
ENDBRANCH   8  11
ENDBRANCH   3   8
ENDBRANCH   2   3
ENDBRANCH   1   2
BRANCH   1  20
ATOM     20  O9  ZIN A   1      17.884   0.195  14.028  0.00  0.00    -0.274 OA
BRANCH  20  21
ATOM     21  P10 ZIN A   1      18.636  -0.462  15.292  0.00  0.00     0.422 P 
ATOM     22  O11 ZIN A   1      19.319   0.667  16.136  0.00  0.00    -0.617 OA
ATOM     23  O12 ZIN A   1      17.595  -1.223  16.181  0.00  0.00    -0.617 OA
ATOM     24  O13 ZIN A   1      19.725  -1.468  14.786  0.00  0.00    -0.617 OA
ENDBRANCH  20  21
ENDBRANCH   1  20
BRANCH   1  25
ATOM     25  C14 ZIN A   1      18.704   0.742  11.822  0.00  0.00     0.122 C 
BRANCH  25  26
ATOM     26  C16 ZIN A   1      17.488   1.058  10.947  0.00  0.00     0.066 C 
BRANCH  26  27
ATOM     27  C17 ZIN A   1      17.868   0.933   9.495  0.00  0.00    -0.056 A 
ATOM     28  C22 ZIN A   1      17.221   0.016   8.687  0.00  0.00     0.007 A 
ATOM     29  C21 ZIN A   1      17.566  -0.095   7.353  0.00  0.00     0.001 A 
ATOM     30  C20 ZIN A   1      18.566   0.702   6.829  0.00  0.00     0.000 A 
ATOM     31  C19 ZIN A   1      19.217   1.615   7.638  0.00  0.00     0.001 A 
ATOM     32  C18 ZIN A   1      18.869   1.729   8.971  0.00  0.00     0.007 A 
ENDBRANCH  26  27
ENDBRANCH  25  26
BRANCH  25  33
ATOM     33  N23 ZIN A   1      18.926  -0.705  11.848  0.00  0.00    -0.329 N 
ATOM     34  C24 ZIN A   1      20.044  -1.225  11.305  0.00  0.00     0.361 C 
ATOM     35  O25 ZIN A   1      20.869  -0.494  10.794  0.00  0.00    -0.238 OA
ATOM     36  H61 ZIN A   1      18.268  -1.289  12.255  0.00  0.00     0.165 HD
BRANCH  34  37
ATOM     37  O26 ZIN A   1      20.248  -2.556  11.328  0.00  0.00    -0.296 OA
BRANCH  37  38
ATOM     38  C27 ZIN A   1      19.209  -3.392  10.755  0.00  0.00     0.159 C 
ATOM     39  C32 ZIN A   1      19.656  -4.868  10.704  0.00  0.00     0.200 C 
ATOM     40  O31 ZIN A   1      19.211  -5.409   9.451  0.00  0.00    -0.389 OA
ATOM     41  C30 ZIN A   1      18.477  -4.416   8.719  0.00  0.00     0.170 C 
ATOM     42  C29 ZIN A   1      18.993  -3.055   9.254  0.00  0.00     0.061 C 
ENDBRANCH  37  38
ENDBRANCH  34  37
ENDBRANCH  25  33
ENDBRANCH   1  25
TORSDOF 15
ENDMDL
MODEL 8
REMARK VINA RESULT:      -8.0      3.546      5.856
REMARK  15 active torsions:
REMARK  status: ('A' for Active; 'I' for Inactive)
REMARK    1  A    between atoms: C2_2  and  C4_4 
REMARK    2  A    between atoms: C4_4  and  N5_5 
REMARK    3  A    between atoms: N5_5  and  C6_6 
REMARK    4  A    between atoms: N5_5  and  S33_30 
REMARK    5  A    between atoms: C6_6  and  C7_7 
REMARK    6  A    between atoms: C7_7  and  O9_8 
REMARK    7  A    between atoms: C7_7  and  C14_13 
REMARK    8  A    between atoms: O9_8  and  P10_9 
REMARK    9  A    between atoms: C14_13  and  C16_14 
REMARK   10  A    between atoms: C14_13  and  N23_21 
REMARK   11  A    between atoms: C16_14  and  C17_15 
REMARK       I    between atoms: N23_21  and  C24_22 
REMARK   12  A    between atoms: C24_22  and  O26_24 
REMARK   13  A    between atoms: O26_24  and  C27_25 
REMARK   14  A    between atoms: S33_30  and  C36_33 
REMARK   15  A    between atoms: C39_36  and  N40_37 
ROOT
ATOM      1  C7  ZIN A   1      18.600  -1.677   9.689  0.00  0.00     0.177 C 
ENDROOT
BRANCH   1   2
ATOM      2  C6  ZIN A   1      19.516  -1.629   8.463  0.00  0.00     0.170 C 
BRANCH   2   3
ATOM      3  N5  ZIN A   1      18.934  -2.435   7.387  0.00  0.00    -0.304 N 
BRANCH   3   4
ATOM      4  C4  ZIN A   1      18.089  -1.800   6.372  0.00  0.00     0.139 C 
BRANCH   4   5
ATOM      5  C2  ZIN A   1      18.628  -0.402   6.061  0.00  0.00    -0.004 C 
ATOM      6  C1  ZIN A   1      19.174  -0.373   4.632  0.00  0.00     0.011 C 
ATOM      7  C3  ZIN A   1      17.499   0.621   6.197  0.00  0.00     0.011 C 
ENDBRANCH   4   5
ENDBRANCH   3   4
BRANCH   3   8
ATOM      8  S33 ZIN A   1      19.231  -4.062   7.318  0.00  0.00     0.260 S 
ATOM      9  O34 ZIN A   1      19.709  -4.328   6.007  0.00  0.00    -0.200 OA
ATOM     10  O35 ZIN A   1      19.962  -4.388   8.492  0.00  0.00    -0.200 OA
BRANCH   8  11
ATOM     11  C36 ZIN A   1      17.677  -4.883   7.456  0.00  0.00     0.079 A 
ATOM     12  C42 ZIN A   1      17.023  -4.921   8.674  0.00  0.00     0.027 A 
ATOM     13  C41 ZIN A   1      15.803  -5.558   8.784  0.00  0.00     0.030 A 
ATOM     14  C39 ZIN A   1      15.238  -6.172   7.673  0.00  0.00     0.025 A 
ATOM     15  C38 ZIN A   1      15.901  -6.137   6.453  0.00  0.00     0.030 A 
ATOM     16  C37 ZIN A   1      17.118  -5.492   6.348  0.00  0.00     0.027 A 
BRANCH  14  17
ATOM     17  N40 ZIN A   1      14.007  -6.823   7.783  0.00  0.00    -0.399 N 
ATOM     18  H70 ZIN A   1      13.964  -7.790   7.722  0.00  0.00     0.156 HD
ATOM     19  H71 ZIN A   1      13.198  -6.308   7.920  0.00  0.00     0.156 HD
ENDBRANCH  14  17
ENDBRANCH   8  11
ENDBRANCH   3   8
ENDBRANCH   2   3
ENDBRANCH   1   2
BRANCH   1  20
ATOM     20  O9  ZIN A   1      19.284  -2.314  10.770  0.00  0.00    -0.274 OA
BRANCH  20  21
ATOM     21  P10 ZIN A   1      18.541  -3.255  11.845  0.00  0.00     0.422 P 
ATOM     22  O11 ZIN A   1      19.100  -4.714  11.736  0.00  0.00    -0.617 OA
ATOM     23  O12 ZIN A   1      18.797  -2.703  13.288  0.00  0.00    -0.617 OA
ATOM     24  O13 ZIN A   1      17.001  -3.263  11.555  0.00  0.00    -0.617 OA
ENDBRANCH  20  21
ENDBRANCH   1  20
BRANCH   1  25
ATOM     25  C14 ZIN A   1      18.217  -0.254  10.097  0.00  0.00     0.122 C 
BRANCH  25  26
ATOM     26  C16 ZIN A   1      19.265   0.728   9.567  0.00  0.00     0.066 C 
BRANCH  26  27
ATOM     27  C17 ZIN A   1      19.072   2.071  10.222  0.00  0.00    -0.056 A 
ATOM     28  C22 ZIN A   1      19.972   2.511  11.175  0.00  0.00     0.007 A 
ATOM     29  C21 ZIN A   1      19.798   3.745  11.772  0.00  0.00     0.001 A 
ATOM     30  C20 ZIN A   1      18.717   4.535  11.425  0.00  0.00     0.000 A 
ATOM     31  C19 ZIN A   1      17.814   4.092  10.477  0.00  0.00     0.001 A 
ATOM     32  C18 ZIN A   1      17.991   2.860   9.877  0.00  0.00     0.007 A 
ENDBRANCH  26  27
ENDBRANCH  25  26
BRANCH  25  33
ATOM     33  N23 ZIN A   1      18.156  -0.163  11.557  0.00  0.00    -0.329 N 
ATOM     34  C24 ZIN A   1      16.976   0.061  12.169  0.00  0.00     0.361 C 
ATOM     35  O25 ZIN A   1      15.963   0.189  11.510  0.00  0.00    -0.238 OA
ATOM     36  H61 ZIN A   1      18.963  -0.264  12.083  0.00  0.00     0.165 HD
BRANCH  34  37
ATOM     37  O26 ZIN A   1      16.919   0.145  13.512  0.00  0.00    -0.296 OA
BRANCH  37  38
ATOM     38  C27 ZIN A   1      18.100   0.649  14.191  0.00  0.00     0.159 C 
ATOM     39  C32 ZIN A   1      18.160   0.132  15.645  0.00  0.00     0.200 C 
ATOM     40  O31 ZIN A   1      18.605   1.220  16.469  0.00  0.00    -0.389 OA
ATOM     41  C30 ZIN A   1      18.879   2.372  15.657  0.00  0.00     0.170 C 
ATOM     42  C29 ZIN A   1      18.012   2.187  14.386  0.00  0.00     0.061 C 
ENDBRANCH  37  38
ENDBRANCH  34  37
ENDBRANCH  25  33
ENDBRANCH   1  25
TORSDOF 15
ENDMDL
MODEL 9
REMARK VINA RESULT:      -7.9      2.808      8.860
REMARK  15 active torsions:
REMARK  status: ('A' for Active; 'I' for Inactive)
REMARK    1  A    between atoms: C2_2  and  C4_4 
REMARK    2  A    between atoms: C4_4  and  N5_5 
REMARK    3  A    between atoms: N5_5  and  C6_6 
REMARK    4  A    between atoms: N5_5  and  S33_30 
REMARK    5  A    between atoms: C6_6  and  C7_7 
REMARK    6  A    between atoms: C7_7  and  O9_8 
REMARK    7  A    between atoms: C7_7  and  C14_13 
REMARK    8  A    between atoms: O9_8  and  P10_9 
REMARK    9  A    between atoms: C14_13  and  C16_14 
REMARK   10  A    between atoms: C14_13  and  N23_21 
REMARK   11  A    between atoms: C16_14  and  C17_15 
REMARK       I    between atoms: N23_21  and  C24_22 
REMARK   12  A    between atoms: C24_22  and  O26_24 
REMARK   13  A    between atoms: O26_24  and  C27_25 
REMARK   14  A    between atoms: S33_30  and  C36_33 
REMARK   15  A    between atoms: C39_36  and  N40_37 
ROOT
ATOM      1  C7  ZIN A   1      18.521   1.102  14.142  0.00  0.00     0.177 C 
ENDROOT
BRANCH   1   2
ATOM      2  C6  ZIN A   1      17.763   2.424  14.284  0.00  0.00     0.170 C 
BRANCH   2   3
ATOM      3  N5  ZIN A   1      18.684   3.469  14.738  0.00  0.00    -0.304 N 
BRANCH   3   4
ATOM      4  C4  ZIN A   1      19.424   3.298  15.991  0.00  0.00     0.139 C 
BRANCH   4   5
ATOM      5  C2  ZIN A   1      18.451   3.362  17.171  0.00  0.00    -0.004 C 
ATOM      6  C1  ZIN A   1      19.076   2.672  18.385  0.00  0.00     0.011 C 
ATOM      7  C3  ZIN A   1      18.157   4.825  17.511  0.00  0.00     0.011 C 
ENDBRANCH   4   5
ENDBRANCH   3   4
BRANCH   3   8
ATOM      8  S33 ZIN A   1      18.888   4.842  13.836  0.00  0.00     0.260 S 
ATOM      9  O34 ZIN A   1      20.131   5.403  14.236  0.00  0.00    -0.200 OA
ATOM     10  O35 ZIN A   1      18.591   4.488  12.493  0.00  0.00    -0.200 OA
BRANCH   8  11
ATOM     11  C36 ZIN A   1      17.642   5.985  14.337  0.00  0.00     0.079 A 
ATOM     12  C42 ZIN A   1      18.001   7.250  14.767  0.00  0.00     0.027 A 
ATOM     13  C41 ZIN A   1      17.027   8.150  15.154  0.00  0.00     0.030 A 
ATOM     14  C39 ZIN A   1      15.688   7.779  15.122  0.00  0.00     0.025 A 
ATOM     15  C38 ZIN A   1      15.334   6.506  14.696  0.00  0.00     0.030 A 
ATOM     16  C37 ZIN A   1      16.312   5.613  14.304  0.00  0.00     0.027 A 
BRANCH  14  17
ATOM     17  N40 ZIN A   1      14.702   8.685  15.520  0.00  0.00    -0.399 N 
ATOM     18  H70 ZIN A   1      14.567   9.504  15.019  0.00  0.00     0.156 HD
ATOM     19  H71 ZIN A   1      14.154   8.494  16.296  0.00  0.00     0.156 HD
ENDBRANCH  14  17
ENDBRANCH   8  11
ENDBRANCH   3   8
ENDBRANCH   2   3
ENDBRANCH   1   2
BRANCH   1  20
ATOM     20  O9  ZIN A   1      17.744   0.044  14.706  0.00  0.00    -0.274 OA
BRANCH  20  21
ATOM     21  P10 ZIN A   1      17.956  -0.494  16.209  0.00  0.00     0.422 P 
ATOM     22  O11 ZIN A   1      16.872   0.139  17.146  0.00  0.00    -0.617 OA
ATOM     23  O12 ZIN A   1      17.818  -2.054  16.229  0.00  0.00    -0.617 OA
ATOM     24  O13 ZIN A   1      19.383  -0.090  16.712  0.00  0.00    -0.617 OA
ENDBRANCH  20  21
ENDBRANCH   1  20
BRANCH   1  25
ATOM     25  C14 ZIN A   1      18.775   0.815  12.660  0.00  0.00     0.122 C 
BRANCH  25  26
ATOM     26  C16 ZIN A   1      17.596   1.332  11.832  0.00  0.00     0.066 C 
BRANCH  26  27
ATOM     27  C17 ZIN A   1      17.932   1.237  10.367  0.00  0.00    -0.056 A 
ATOM     28  C22 ZIN A   1      18.880   2.080   9.819  0.00  0.00     0.007 A 
ATOM     29  C21 ZIN A   1      19.192   1.990   8.475  0.00  0.00     0.001 A 
ATOM     30  C20 ZIN A   1      18.548   1.063   7.677  0.00  0.00     0.000 A 
ATOM     31  C19 ZIN A   1      17.596   0.223   8.223  0.00  0.00     0.001 A 
ATOM     32  C18 ZIN A   1      17.287   0.311   9.568  0.00  0.00     0.007 A 
ENDBRANCH  26  27
ENDBRANCH  25  26
BRANCH  25  33
ATOM     33  N23 ZIN A   1      18.917  -0.628  12.460  0.00  0.00    -0.329 N 
ATOM     34  C24 ZIN A   1      19.974  -1.113  11.779  0.00  0.00     0.361 C 
ATOM     35  O25 ZIN A   1      20.809  -0.353  11.331  0.00  0.00    -0.238 OA
ATOM     36  H61 ZIN A   1      18.251  -1.235  12.816  0.00  0.00     0.165 HD
BRANCH  34  37
ATOM     37  O26 ZIN A   1      20.105  -2.440  11.594  0.00  0.00    -0.296 OA
BRANCH  37  38
ATOM     38  C27 ZIN A   1      18.972  -3.140  11.015  0.00  0.00     0.159 C 
ATOM     39  C32 ZIN A   1      19.131  -4.668  11.172  0.00  0.00     0.200 C 
ATOM     40  O31 ZIN A   1      18.689  -5.274   9.948  0.00  0.00    -0.389 OA
ATOM     41  C30 ZIN A   1      18.218  -4.265   9.042  0.00  0.00     0.170 C 
ATOM     42  C29 ZIN A   1      18.942  -2.964   9.473  0.00  0.00     0.061 C 
ENDBRANCH  37  38
ENDBRANCH  34  37
ENDBRANCH  25  33
ENDBRANCH   1  25
TORSDOF 15
ENDMDL
