MODEL 1
REMARK VINA RESULT:      -7.5      0.000      0.000
REMARK  5 active torsions:
REMARK  status: ('A' for Active; 'I' for Inactive)
REMARK    1  A    between atoms: C5_5  and  S6_6 
REMARK    2  A    between atoms: S6_6  and  N9_9 
REMARK    3  A    between atoms: C10_10  and  O11_11 
REMARK    4  A    between atoms: C10_10  and  N12_12 
REMARK    5  A    between atoms: N12_12  and  N13_13 
ROOT
ATOM      1  N9  ZIN A   1      17.841   2.749  12.764  0.00  0.00    -0.116 NA
ATOM      2  C10 ZIN A   1      17.741   3.425  13.870  0.00  0.00     0.265 C 
ENDROOT
BRANCH   2   3
ATOM      3  O11 ZIN A   1      17.703   4.775  13.835  0.00  0.00    -0.330 OA
ATOM      4  H27 ZIN A   1      16.908   5.136  13.419  0.00  0.00     0.221 HD
ENDBRANCH   2   3
BRANCH   2   5
ATOM      5  N12 ZIN A   1      17.675   2.768  15.074  0.00  0.00    -0.282 N 
ATOM      6  H28 ZIN A   1      16.999   3.013  15.724  0.00  0.00     0.184 HD
BRANCH   5   7
ATOM      7  N13 ZIN A   1      18.564   1.769  15.356  0.00  0.00    -0.228 NA
ATOM      8  C19 ZIN A   1      17.865   0.479  15.556  0.00  0.00     0.113 C 
ATOM      9  C18 ZIN A   1      18.759  -0.585  16.132  0.00  0.00     0.016 C 
ATOM     10  C17 ZIN A   1      18.601  -0.580  17.667  0.00  0.00     0.001 C 
ATOM     11  C16 ZIN A   1      19.350   0.502  18.294  0.00  0.00     0.001 C 
ATOM     12  C15 ZIN A   1      18.876   1.891  17.820  0.00  0.00     0.016 C 
ATOM     13  C14 ZIN A   1      19.466   2.160  16.463  0.00  0.00     0.113 C 
ENDBRANCH   5   7
ENDBRANCH   2   5
BRANCH   1  14
ATOM     14  S6  ZIN A   1      17.921   3.541  11.312  0.00  0.00     0.286 S 
ATOM     15  O7  ZIN A   1      19.114   4.314  11.342  0.00  0.00    -0.198 OA
ATOM     16  O8  ZIN A   1      16.635   4.104  11.092  0.00  0.00    -0.198 OA
BRANCH  14  17
ATOM     17  C5  ZIN A   1      18.150   2.319  10.063  0.00  0.00     0.081 A 
ATOM     18  C4  ZIN A   1      18.977   2.579   8.987  0.00  0.00     0.026 A 
ATOM     19  C3  ZIN A   1      19.159   1.621   8.007  0.00  0.00     0.008 A 
ATOM     20  C2  ZIN A   1      18.512   0.403   8.104  0.00  0.00    -0.062 A 
ATOM     21  C1  ZIN A   1      18.709  -0.642   7.035  0.00  0.00     0.048 C 
ATOM     22  C21 ZIN A   1      17.680   0.146   9.178  0.00  0.00     0.008 A 
ATOM     23  C20 ZIN A   1      17.502   1.102  10.159  0.00  0.00     0.026 A 
ENDBRANCH  14  17
ENDBRANCH   1  14
TORSDOF 5
ENDMDL
MODEL 2
REMARK VINA RESULT:      -7.3      2.516      7.726
REMARK  5 active torsions:
REMARK  status: ('A' for Active; 'I' for Inactive)
REMARK    1  A    between atoms: C5_5  and  S6_6 
REMARK    2  A    between atoms: S6_6  and  N9_9 
REMARK    3  A    between atoms: C10_10  and  O11_11 
REMARK    4  A    between atoms: C10_10  and  N12_12 
REMARK    5  A    between atoms: N12_12  and  N13_13 
ROOT
ATOM      1  N9  ZIN A   1      18.999   1.219  10.427  0.00  0.00    -0.116 NA
ATOM      2  C10 ZIN A   1      19.065   1.795   9.263  0.00  0.00     0.265 C 
ENDROOT
BRANCH   2   3
ATOM      3  O11 ZIN A   1      18.701   3.089   9.128  0.00  0.00    -0.330 OA
ATOM      4  H27 ZIN A   1      18.973   3.653   9.864  0.00  0.00     0.221 HD
ENDBRANCH   2   3
BRANCH   2   5
ATOM      5  N12 ZIN A   1      19.503   1.088   8.170  0.00  0.00    -0.282 N 
ATOM      6  H28 ZIN A   1      20.403   1.223   7.834  0.00  0.00     0.184 HD
BRANCH   5   7
ATOM      7  N13 ZIN A   1      18.672   0.195   7.557  0.00  0.00    -0.228 NA
ATOM      8  C19 ZIN A   1      19.242  -1.171   7.592  0.00  0.00     0.113 C 
ATOM      9  C18 ZIN A   1      18.506  -2.134   6.701  0.00  0.00     0.016 C 
ATOM     10  C17 ZIN A   1      19.214  -2.175   5.331  0.00  0.00     0.001 C 
ATOM     11  C16 ZIN A   1      18.876  -1.024   4.502  0.00  0.00     0.001 C 
ATOM     12  C15 ZIN A   1      19.300   0.309   5.154  0.00  0.00     0.016 C 
ATOM     13  C14 ZIN A   1      18.288   0.668   6.207  0.00  0.00     0.113 C 
ENDBRANCH   5   7
ENDBRANCH   2   5
BRANCH   1  14
ATOM     14  S6  ZIN A   1      18.471   2.071  11.745  0.00  0.00     0.286 S 
ATOM     15  O7  ZIN A   1      17.125   2.439  11.471  0.00  0.00    -0.198 OA
ATOM     16  O8  ZIN A   1      19.489   3.014  12.046  0.00  0.00    -0.198 OA
BRANCH  14  17
ATOM     17  C5  ZIN A   1      18.413   0.949  13.103  0.00  0.00     0.081 A 
ATOM     18  C4  ZIN A   1      19.084  -0.257  13.031  0.00  0.00     0.026 A 
ATOM     19  C3  ZIN A   1      19.041  -1.137  14.096  0.00  0.00     0.008 A 
ATOM     20  C2  ZIN A   1      18.325  -0.810  15.233  0.00  0.00    -0.062 A 
ATOM     21  C1  ZIN A   1      18.276  -1.770  16.394  0.00  0.00     0.048 C 
ATOM     22  C21 ZIN A   1      17.649   0.394  15.302  0.00  0.00     0.008 A 
ATOM     23  C20 ZIN A   1      17.696   1.275  14.238  0.00  0.00     0.026 A 
ENDBRANCH  14  17
ENDBRANCH   1  14
TORSDOF 5
ENDMDL
MODEL 3
REMARK VINA RESULT:      -7.2      4.299      7.958
REMARK  5 active torsions:
REMARK  status: ('A' for Active; 'I' for Inactive)
REMARK    1  A    between atoms: C5_5  and  S6_6 
REMARK    2  A    between atoms: S6_6  and  N9_9 
REMARK    3  A    between atoms: C10_10  and  O11_11 
REMARK    4  A    between atoms: C10_10  and  N12_12 
REMARK    5  A    between atoms: N12_12  and  N13_13 
ROOT
ATOM      1  N9  ZIN A   1      19.521  -1.444  12.170  0.00  0.00    -0.116 NA
ATOM      2  C10 ZIN A   1      19.940  -1.758  10.980  0.00  0.00     0.265 C 
ENDROOT
BRANCH   2   3
ATOM      3  O11 ZIN A   1      20.456  -0.806  10.172  0.00  0.00    -0.330 OA
ATOM      4  H27 ZIN A   1      19.925  -0.628   9.384  0.00  0.00     0.221 HD
ENDBRANCH   2   3
BRANCH   2   5
ATOM      5  N12 ZIN A   1      19.857  -3.058  10.544  0.00  0.00    -0.282 N 
ATOM      6  H28 ZIN A   1      20.596  -3.667  10.693  0.00  0.00     0.184 HD
BRANCH   5   7
ATOM      7  N13 ZIN A   1      18.733  -3.491   9.899  0.00  0.00    -0.228 NA
ATOM      8  C19 ZIN A   1      17.833  -4.210  10.829  0.00  0.00     0.113 C 
ATOM      9  C18 ZIN A   1      16.724  -4.937  10.120  0.00  0.00     0.016 C 
ATOM     10  C17 ZIN A   1      17.171  -6.392   9.871  0.00  0.00     0.001 C 
ATOM     11  C16 ZIN A   1      18.078  -6.503   8.734  0.00  0.00     0.001 C 
ATOM     12  C15 ZIN A   1      19.375  -5.694   8.942  0.00  0.00     0.016 C 
ATOM     13  C14 ZIN A   1      19.083  -4.244   8.673  0.00  0.00     0.113 C 
ENDBRANCH   5   7
ENDBRANCH   2   5
BRANCH   1  14
ATOM     14  S6  ZIN A   1      19.621   0.123  12.697  0.00  0.00     0.286 S 
ATOM     15  O7  ZIN A   1      18.537   0.818  12.095  0.00  0.00    -0.198 OA
ATOM     16  O8  ZIN A   1      20.978   0.513  12.540  0.00  0.00    -0.198 OA
BRANCH  14  17
ATOM     17  C5  ZIN A   1      19.304   0.112  14.431  0.00  0.00     0.081 A 
ATOM     18  C4  ZIN A   1      19.128  -1.088  15.093  0.00  0.00     0.026 A 
ATOM     19  C3  ZIN A   1      18.880  -1.097  16.452  0.00  0.00     0.008 A 
ATOM     20  C2  ZIN A   1      18.807   0.094  17.150  0.00  0.00    -0.062 A 
ATOM     21  C1  ZIN A   1      18.536   0.084  18.632  0.00  0.00     0.048 C 
ATOM     22  C21 ZIN A   1      18.977   1.295  16.486  0.00  0.00     0.008 A 
ATOM     23  C20 ZIN A   1      19.229   1.304  15.127  0.00  0.00     0.026 A 
ENDBRANCH  14  17
ENDBRANCH   1  14
TORSDOF 5
ENDMDL
MODEL 4
REMARK VINA RESULT:      -7.1      4.639      6.828
REMARK  5 active torsions:
REMARK  status: ('A' for Active; 'I' for Inactive)
REMARK    1  A    between atoms: C5_5  and  S6_6 
REMARK    2  A    between atoms: S6_6  and  N9_9 
REMARK    3  A    between atoms: C10_10  and  O11_11 
REMARK    4  A    between atoms: C10_10  and  N12_12 
REMARK    5  A    between atoms: N12_12  and  N13_13 
ROOT
ATOM      1  N9  ZIN A   1      18.695  -1.249  11.971  0.00  0.00    -0.116 NA
ATOM      2  C10 ZIN A   1      19.046  -2.488  12.154  0.00  0.00     0.265 C 
ENDROOT
BRANCH   2   3
ATOM      3  O11 ZIN A   1      20.327  -2.788  12.460  0.00  0.00    -0.330 OA
ATOM      4  H27 ZIN A   1      20.978  -2.205  12.046  0.00  0.00     0.221 HD
ENDBRANCH   2   3
BRANCH   2   5
ATOM      5  N12 ZIN A   1      18.116  -3.491  12.036  0.00  0.00    -0.282 N 
ATOM      6  H28 ZIN A   1      17.843  -3.994  12.819  0.00  0.00     0.184 HD
BRANCH   5   7
ATOM      7  N13 ZIN A   1      17.575  -3.780  10.815  0.00  0.00    -0.228 NA
ATOM      8  C19 ZIN A   1      16.595  -4.884  10.918  0.00  0.00     0.113 C 
ATOM      9  C18 ZIN A   1      16.177  -5.420   9.576  0.00  0.00     0.016 C 
ATOM     10  C17 ZIN A   1      17.077  -6.624   9.227  0.00  0.00     0.001 C 
ATOM     11  C16 ZIN A   1      18.389  -6.210   8.743  0.00  0.00     0.001 C 
ATOM     12  C15 ZIN A   1      19.168  -5.395   9.796  0.00  0.00     0.016 C 
ATOM     13  C14 ZIN A   1      18.635  -3.988   9.802  0.00  0.00     0.113 C 
ENDBRANCH   5   7
ENDBRANCH   2   5
BRANCH   1  14
ATOM     14  S6  ZIN A   1      19.816  -0.039  12.114  0.00  0.00     0.286 S 
ATOM     15  O7  ZIN A   1      20.810  -0.296  11.130  0.00  0.00    -0.198 OA
ATOM     16  O8  ZIN A   1      20.106   0.077  13.500  0.00  0.00    -0.198 OA
BRANCH  14  17
ATOM     17  C5  ZIN A   1      19.026   1.464  11.643  0.00  0.00     0.081 A 
ATOM     18  C4  ZIN A   1      19.153   1.935  10.350  0.00  0.00     0.026 A 
ATOM     19  C3  ZIN A   1      18.533   3.113   9.980  0.00  0.00     0.008 A 
ATOM     20  C2  ZIN A   1      17.784   3.820  10.903  0.00  0.00    -0.062 A 
ATOM     21  C1  ZIN A   1      17.108   5.105  10.499  0.00  0.00     0.048 C 
ATOM     22  C21 ZIN A   1      17.662   3.351  12.197  0.00  0.00     0.008 A 
ATOM     23  C20 ZIN A   1      18.279   2.171  12.566  0.00  0.00     0.026 A 
ENDBRANCH  14  17
ENDBRANCH   1  14
TORSDOF 5
ENDMDL
MODEL 5
REMARK VINA RESULT:      -7.0      6.798      8.557
REMARK  5 active torsions:
REMARK  status: ('A' for Active; 'I' for Inactive)
REMARK    1  A    between atoms: C5_5  and  S6_6 
REMARK    2  A    between atoms: S6_6  and  N9_9 
REMARK    3  A    between atoms: C10_10  and  O11_11 
REMARK    4  A    between atoms: C10_10  and  N12_12 
REMARK    5  A    between atoms: N12_12  and  N13_13 
ROOT
ATOM      1  N9  ZIN A   1      19.471  -2.995   6.559  0.00  0.00    -0.116 NA
ATOM      2  C10 ZIN A   1      19.400  -4.160   5.985  0.00  0.00     0.265 C 
ENDROOT
BRANCH   2   3
ATOM      3  O11 ZIN A   1      18.855  -4.274   4.754  0.00  0.00    -0.330 OA
ATOM      4  H27 ZIN A   1      18.564  -5.169   4.534  0.00  0.00     0.221 HD
ENDBRANCH   2   3
BRANCH   2   5
ATOM      5  N12 ZIN A   1      19.877  -5.274   6.631  0.00  0.00    -0.282 N 
ATOM      6  H28 ZIN A   1      20.799  -5.548   6.508  0.00  0.00     0.184 HD
BRANCH   5   7
ATOM      7  N13 ZIN A   1      19.052  -5.996   7.446  0.00  0.00    -0.228 NA
ATOM      8  C19 ZIN A   1      17.655  -5.515   7.347  0.00  0.00     0.113 C 
ATOM      9  C18 ZIN A   1      16.765  -6.088   8.416  0.00  0.00     0.016 C 
ATOM     10  C17 ZIN A   1      16.725  -5.103   9.602  0.00  0.00     0.001 C 
ATOM     11  C16 ZIN A   1      17.919  -5.196  10.435  0.00  0.00     0.001 C 
ATOM     12  C15 ZIN A   1      19.204  -4.858   9.652  0.00  0.00     0.016 C 
ATOM     13  C14 ZIN A   1      19.588  -6.055   8.825  0.00  0.00     0.113 C 
ENDBRANCH   5   7
ENDBRANCH   2   5
BRANCH   1  14
ATOM     14  S6  ZIN A   1      18.896  -1.651   5.781  0.00  0.00     0.286 S 
ATOM     15  O7  ZIN A   1      17.558  -1.947   5.405  0.00  0.00    -0.198 OA
ATOM     16  O8  ZIN A   1      19.899  -1.268   4.850  0.00  0.00    -0.198 OA
BRANCH  14  17
ATOM     17  C5  ZIN A   1      18.803  -0.357   6.973  0.00  0.00     0.081 A 
ATOM     18  C4  ZIN A   1      18.378  -0.632   8.259  0.00  0.00     0.026 A 
ATOM     19  C3  ZIN A   1      18.306   0.382   9.195  0.00  0.00     0.008 A 
ATOM     20  C2  ZIN A   1      18.659   1.673   8.845  0.00  0.00    -0.062 A 
ATOM     21  C1  ZIN A   1      18.580   2.779   9.865  0.00  0.00     0.048 C 
ATOM     22  C21 ZIN A   1      19.078   1.948   7.557  0.00  0.00     0.008 A 
ATOM     23  C20 ZIN A   1      19.154   0.933   6.622  0.00  0.00     0.026 A 
ENDBRANCH  14  17
ENDBRANCH   1  14
TORSDOF 5
ENDMDL
MODEL 6
REMARK VINA RESULT:      -7.0      3.332      4.500
REMARK  5 active torsions:
REMARK  status: ('A' for Active; 'I' for Inactive)
REMARK    1  A    between atoms: C5_5  and  S6_6 
REMARK    2  A    between atoms: S6_6  and  N9_9 
REMARK    3  A    between atoms: C10_10  and  O11_11 
REMARK    4  A    between atoms: C10_10  and  N12_12 
REMARK    5  A    between atoms: N12_12  and  N13_13 
ROOT
ATOM      1  N9  ZIN A   1      19.384   1.411  11.028  0.00  0.00    -0.116 NA
ATOM      2  C10 ZIN A   1      19.721   1.740  12.240  0.00  0.00     0.265 C 
ENDROOT
BRANCH   2   3
ATOM      3  O11 ZIN A   1      20.306   0.831  13.049  0.00  0.00    -0.330 OA
ATOM      4  H27 ZIN A   1      19.846   0.696  13.888  0.00  0.00     0.221 HD
ENDBRANCH   2   3
BRANCH   2   5
ATOM      5  N12 ZIN A   1      19.480   3.012  12.698  0.00  0.00    -0.282 N 
ATOM      6  H28 ZIN A   1      20.221   3.611  12.878  0.00  0.00     0.184 HD
BRANCH   5   7
ATOM      7  N13 ZIN A   1      18.197   3.434  12.901  0.00  0.00    -0.228 NA
ATOM      8  C19 ZIN A   1      17.917   4.670  12.135  0.00  0.00     0.113 C 
ATOM      9  C18 ZIN A   1      16.621   5.321  12.533  0.00  0.00     0.016 C 
ATOM     10  C17 ZIN A   1      16.916   6.387  13.608  0.00  0.00     0.001 C 
ATOM     11  C16 ZIN A   1      17.116   5.797  14.927  0.00  0.00     0.001 C 
ATOM     12  C15 ZIN A   1      18.316   4.827  14.956  0.00  0.00     0.016 C 
ATOM     13  C14 ZIN A   1      17.889   3.521  14.346  0.00  0.00     0.113 C 
ENDBRANCH   5   7
ENDBRANCH   2   5
BRANCH   1  14
ATOM     14  S6  ZIN A   1      19.673  -0.123  10.474  0.00  0.00     0.286 S 
ATOM     15  O7  ZIN A   1      18.665  -0.950  11.040  0.00  0.00    -0.198 OA
ATOM     16  O8  ZIN A   1      21.063  -0.357  10.654  0.00  0.00    -0.198 OA
BRANCH  14  17
ATOM     17  C5  ZIN A   1      19.391  -0.112   8.734  0.00  0.00     0.081 A 
ATOM     18  C4  ZIN A   1      19.341  -1.303   8.036  0.00  0.00     0.026 A 
ATOM     19  C3  ZIN A   1      19.119  -1.295   6.672  0.00  0.00     0.008 A 
ATOM     20  C2  ZIN A   1      18.947  -0.096   6.006  0.00  0.00    -0.062 A 
ATOM     21  C1  ZIN A   1      18.705  -0.087   4.519  0.00  0.00     0.048 C 
ATOM     22  C21 ZIN A   1      19.003   1.096   6.705  0.00  0.00     0.008 A 
ATOM     23  C20 ZIN A   1      19.221   1.088   8.070  0.00  0.00     0.026 A 
ENDBRANCH  14  17
ENDBRANCH   1  14
TORSDOF 5
ENDMDL
MODEL 7
REMARK VINA RESULT:      -7.0      2.568      7.854
REMARK  5 active torsions:
REMARK  status: ('A' for Active; 'I' for Inactive)
REMARK    1  A    between atoms: C5_5  and  S6_6 
REMARK    2  A    between atoms: S6_6  and  N9_9 
REMARK    3  A    between atoms: C10_10  and  O11_11 
REMARK    4  A    between atoms: C10_10  and  N12_12 
REMARK    5  A    between atoms: N12_12  and  N13_13 
ROOT
ATOM      1  N9  ZIN A   1      18.150   0.882  10.547  0.00  0.00    -0.116 NA
ATOM      2  C10 ZIN A   1      18.211   1.334   9.329  0.00  0.00     0.265 C 
ENDROOT
BRANCH   2   3
ATOM      3  O11 ZIN A   1      18.557   2.620   9.102  0.00  0.00    -0.330 OA
ATOM      4  H27 ZIN A   1      18.102   3.256   9.670  0.00  0.00     0.221 HD
ENDBRANCH   2   3
BRANCH   2   5
ATOM      5  N12 ZIN A   1      17.923   0.504   8.273  0.00  0.00    -0.282 N 
ATOM      6  H28 ZIN A   1      17.026   0.153   8.164  0.00  0.00     0.184 HD
BRANCH   5   7
ATOM      7  N13 ZIN A   1      18.900   0.173   7.378  0.00  0.00    -0.228 NA
ATOM      8  C19 ZIN A   1      18.477   0.481   5.994  0.00  0.00     0.113 C 
ATOM      9  C18 ZIN A   1      19.394  -0.110   4.958  0.00  0.00     0.016 C 
ATOM     10  C17 ZIN A   1      18.832  -1.481   4.529  0.00  0.00     0.001 C 
ATOM     11  C16 ZIN A   1      19.127  -2.526   5.503  0.00  0.00     0.001 C 
ATOM     12  C15 ZIN A   1      18.503  -2.230   6.882  0.00  0.00     0.016 C 
ATOM     13  C14 ZIN A   1      19.363  -1.217   7.588  0.00  0.00     0.113 C 
ENDBRANCH   5   7
ENDBRANCH   2   5
BRANCH   1  14
ATOM     14  S6  ZIN A   1      18.497   1.882  11.821  0.00  0.00     0.286 S 
ATOM     15  O7  ZIN A   1      17.346   2.692  12.019  0.00  0.00    -0.198 OA
ATOM     16  O8  ZIN A   1      19.790   2.416  11.570  0.00  0.00    -0.198 OA
BRANCH  14  17
ATOM     17  C5  ZIN A   1      18.647   0.868  13.254  0.00  0.00     0.081 A 
ATOM     18  C4  ZIN A   1      18.505  -0.502  13.149  0.00  0.00     0.026 A 
ATOM     19  C3  ZIN A   1      18.622  -1.298  14.273  0.00  0.00     0.008 A 
ATOM     20  C2  ZIN A   1      18.882  -0.723  15.503  0.00  0.00    -0.062 A 
ATOM     21  C1  ZIN A   1      19.010  -1.590  16.729  0.00  0.00     0.048 C 
ATOM     22  C21 ZIN A   1      19.018   0.649  15.609  0.00  0.00     0.008 A 
ATOM     23  C20 ZIN A   1      18.905   1.444  14.484  0.00  0.00     0.026 A 
ENDBRANCH  14  17
ENDBRANCH   1  14
TORSDOF 5
ENDMDL
MODEL 8
REMARK VINA RESULT:      -6.8      4.805      6.693
REMARK  5 active torsions:
REMARK  status: ('A' for Active; 'I' for Inactive)
REMARK    1  A    between atoms: C5_5  and  S6_6 
REMARK    2  A    between atoms: S6_6  and  N9_9 
REMARK    3  A    between atoms: C10_10  and  O11_11 
REMARK    4  A    between atoms: C10_10  and  N12_12 
REMARK    5  A    between atoms: N12_12  and  N13_13 
ROOT
ATOM      1  N9  ZIN A   1      18.385   3.111  17.555  0.00  0.00    -0.116 NA
ATOM      2  C10 ZIN A   1      18.366   4.090  18.411  0.00  0.00     0.265 C 
ENDROOT
BRANCH   2   3
ATOM      3  O11 ZIN A   1      18.553   3.840  19.726  0.00  0.00    -0.330 OA
ATOM      4  H27 ZIN A   1      19.267   3.216  19.910  0.00  0.00     0.221 HD
ENDBRANCH   2   3
BRANCH   2   5
ATOM      5  N12 ZIN A   1      18.154   5.376  17.980  0.00  0.00    -0.282 N 
ATOM      6  H28 ZIN A   1      18.228   6.115  18.604  0.00  0.00     0.184 HD
BRANCH   5   7
ATOM      7  N13 ZIN A   1      17.840   5.615  16.672  0.00  0.00    -0.228 NA
ATOM      8  C19 ZIN A   1      18.819   6.535  16.051  0.00  0.00     0.113 C 
ATOM      9  C18 ZIN A   1      18.372   7.042  14.708  0.00  0.00     0.016 C 
ATOM     10  C17 ZIN A   1      17.651   8.392  14.907  0.00  0.00     0.001 C 
ATOM     11  C16 ZIN A   1      16.285   8.220  15.386  0.00  0.00     0.001 C 
ATOM     12  C15 ZIN A   1      16.232   7.510  16.755  0.00  0.00     0.016 C 
ATOM     13  C14 ZIN A   1      16.427   6.035  16.535  0.00  0.00     0.113 C 
ENDBRANCH   5   7
ENDBRANCH   2   5
BRANCH   1  14
ATOM     14  S6  ZIN A   1      18.640   1.560  18.074  0.00  0.00     0.286 S 
ATOM     15  O7  ZIN A   1      17.461   1.171  18.767  0.00  0.00    -0.198 OA
ATOM     16  O8  ZIN A   1      19.931   1.543  18.666  0.00  0.00    -0.198 OA
BRANCH  14  17
ATOM     17  C5  ZIN A   1      18.735   0.538  16.641  0.00  0.00     0.081 A 
ATOM     18  C4  ZIN A   1      19.145   1.076  15.436  0.00  0.00     0.026 A 
ATOM     19  C3  ZIN A   1      19.221   0.276  14.312  0.00  0.00     0.008 A 
ATOM     20  C2  ZIN A   1      18.886  -1.063  14.393  0.00  0.00    -0.062 A 
ATOM     21  C1  ZIN A   1      18.967  -1.936  13.167  0.00  0.00     0.048 C 
ATOM     22  C21 ZIN A   1      18.469  -1.599  15.597  0.00  0.00     0.008 A 
ATOM     23  C20 ZIN A   1      18.398  -0.799  16.722  0.00  0.00     0.026 A 
ENDBRANCH  14  17
ENDBRANCH   1  14
TORSDOF 5
ENDMDL
MODEL 9
REMARK VINA RESULT:      -6.8      4.087      5.930
REMARK  5 active torsions:
REMARK  status: ('A' for Active; 'I' for Inactive)
REMARK    1  A    between atoms: C5_5  and  S6_6 
REMARK    2  A    between atoms: S6_6  and  N9_9 
REMARK    3  A    between atoms: C10_10  and  O11_11 
REMARK    4  A    between atoms: C10_10  and  N12_12 
REMARK    5  A    between atoms: N12_12  and  N13_13 
ROOT
ATOM      1  N9  ZIN A   1      17.634  -1.438  11.911  0.00  0.00    -0.116 NA
ATOM      2  C10 ZIN A   1      18.869  -1.812  12.075  0.00  0.00     0.265 C 
ENDROOT
BRANCH   2   3
ATOM      3  O11 ZIN A   1      19.872  -0.921  11.917  0.00  0.00    -0.330 OA
ATOM      4  H27 ZIN A   1      19.793  -0.136  12.476  0.00  0.00     0.221 HD
ENDBRANCH   2   3
BRANCH   2   5
ATOM      5  N12 ZIN A   1      19.154  -3.114  12.406  0.00  0.00    -0.282 N 
ATOM      6  H28 ZIN A   1      19.345  -3.349  13.328  0.00  0.00     0.184 HD
BRANCH   5   7
ATOM      7  N13 ZIN A   1      19.169  -4.077  11.438  0.00  0.00    -0.228 NA
ATOM      8  C19 ZIN A   1      19.145  -3.472  10.087  0.00  0.00     0.113 C 
ATOM      9  C18 ZIN A   1      18.887  -4.480   9.001  0.00  0.00     0.016 C 
ATOM     10  C17 ZIN A   1      17.372  -4.510   8.710  0.00  0.00     0.001 C 
ATOM     11  C16 ZIN A   1      16.635  -5.278   9.707  0.00  0.00     0.001 C 
ATOM     12  C15 ZIN A   1      16.778  -4.682  11.123  0.00  0.00     0.016 C 
ATOM     13  C14 ZIN A   1      18.115  -5.089  11.680  0.00  0.00     0.113 C 
ENDBRANCH   5   7
ENDBRANCH   2   5
BRANCH   1  14
ATOM     14  S6  ZIN A   1      17.290   0.132  11.512  0.00  0.00     0.286 S 
ATOM     15  O7  ZIN A   1      18.115   0.945  12.336  0.00  0.00    -0.198 OA
ATOM     16  O8  ZIN A   1      15.873   0.237  11.485  0.00  0.00    -0.198 OA
BRANCH  14  17
ATOM     17  C5  ZIN A   1      17.839   0.382   9.856  0.00  0.00     0.081 A 
ATOM     18  C4  ZIN A   1      18.726   1.402   9.569  0.00  0.00     0.026 A 
ATOM     19  C3  ZIN A   1      19.158   1.598   8.271  0.00  0.00     0.008 A 
ATOM     20  C2  ZIN A   1      18.702   0.773   7.259  0.00  0.00    -0.062 A 
ATOM     21  C1  ZIN A   1      19.172   0.987   5.843  0.00  0.00     0.048 C 
ATOM     22  C21 ZIN A   1      17.811  -0.243   7.546  0.00  0.00     0.008 A 
ATOM     23  C20 ZIN A   1      17.382  -0.442   8.845  0.00  0.00     0.026 A 
ENDBRANCH  14  17
ENDBRANCH   1  14
TORSDOF 5
ENDMDL
