MODEL 1
REMARK VINA RESULT:      -8.4      0.000      0.000
REMARK  7 active torsions:
REMARK  status: ('A' for Active; 'I' for Inactive)
REMARK    1  A    between atoms: C2_2  and  C3_3 
REMARK    2  A    between atoms: C3_3  and  N4_4 
REMARK    3  A    between atoms: N4_4  and  C5_5 
REMARK    4  A    between atoms: C17_13  and  O19_14 
REMARK    5  A    between atoms: C20_15  and  N22_16 
REMARK    6  A    between atoms: C37_30  and  O39_31 
REMARK    7  A    between atoms: O39_31  and  C40_32 
ROOT
ATOM      1  C5  ZIN A   1      19.384   1.316  12.674  0.00  0.00     0.221 C 
ATOM      2  C7  ZIN A   1      19.584  -0.224  12.685  0.00  0.00     0.042 C 
ATOM      3  C8  ZIN A   1      19.635  -0.575  11.195  0.00  0.00     0.003 C 
ATOM      4  C10 ZIN A   1      19.307  -2.013  10.841  0.00  0.00    -0.005 C 
ATOM      5  C12 ZIN A   1      20.335  -2.962  11.459  0.00  0.00     0.006 C 
ATOM      6  C13 ZIN A   1      20.007  -4.400  11.052  0.00  0.00     0.006 C 
ATOM      7  C14 ZIN A   1      20.052  -4.525   9.528  0.00  0.00    -0.004 C 
ATOM      8  C16 ZIN A   1      19.716  -5.962   9.124  0.00  0.00     0.039 C 
ATOM      9  C17 ZIN A   1      19.765  -6.088   7.601  0.00  0.00     0.151 C 
ATOM     10  C20 ZIN A   1      18.746  -5.132   6.977  0.00  0.00     0.252 C 
ATOM     11  C28 ZIN A   1      19.082  -3.695   7.381  0.00  0.00     0.048 C 
ATOM     12  C29 ZIN A   1      19.033  -3.570   8.905  0.00  0.00    -0.034 C 
ATOM     13  C30 ZIN A   1      17.628  -3.926   9.401  0.00  0.00     0.016 C 
ATOM     14  C31 ZIN A   1      19.344  -2.127   9.308  0.00  0.00    -0.002 C 
ATOM     15  C33 ZIN A   1      18.354  -1.175   8.647  0.00  0.00     0.007 C 
ATOM     16  C34 ZIN A   1      18.576   0.275   9.108  0.00  0.00     0.012 C 
ATOM     17  C35 ZIN A   1      18.503   0.321  10.622  0.00  0.00    -0.011 C 
ATOM     18  C36 ZIN A   1      17.180  -0.285  11.095  0.00  0.00     0.018 C 
ATOM     19  C37 ZIN A   1      18.736   1.663  11.310  0.00  0.00     0.171 C 
ENDROOT
BRANCH   1  20
ATOM     20  N4  ZIN A   1      18.494   1.717  13.772  0.00  0.00    -0.057 N 
ATOM     21  C46 ZIN A   1      17.307   0.843  13.793  0.00  0.00     0.238 C 
ATOM     22  C45 ZIN A   1      17.273   0.151  15.171  0.00  0.00     0.030 C 
ATOM     23  C44 ZIN A   1      18.121   1.099  16.059  0.00  0.00     0.030 C 
ATOM     24  C43 ZIN A   1      19.204   1.578  15.060  0.00  0.00     0.238 C 
BRANCH  20  25
ATOM     25  C3  ZIN A   1      18.077   3.113  13.585  0.00  0.00     0.264 C 
BRANCH  25  26
ATOM     26  C2  ZIN A   1      19.150   4.032  14.110  0.00  0.00    -0.009 C 
ATOM     27  C1  ZIN A   1      19.573   5.031  13.376  0.00  0.00     0.008 C 
ENDBRANCH  25  26
ENDBRANCH  20  25
ENDBRANCH   1  20
BRANCH  19  28
ATOM     28  O39 ZIN A   1      17.470   2.330  11.556  0.00  0.00    -0.313 OA
BRANCH  28  29
ATOM     29  C40 ZIN A   1      17.250   3.480  10.901  0.00  0.00     0.255 C 
ATOM     30  C41 ZIN A   1      18.157   3.890   9.770  0.00  0.00     0.126 C 
ATOM     31  O42 ZIN A   1      16.322   4.187  11.217  0.00  0.00    -0.266 OA
ENDBRANCH  28  29
ENDBRANCH  19  28
BRANCH  10  32
ATOM     32  N22 ZIN A   1      17.399  -5.472   7.453  0.00  0.00     0.099 N 
ATOM     33  C27 ZIN A   1      16.426  -5.439   6.351  0.00  0.00     0.299 C 
ATOM     34  C26 ZIN A   1      15.030  -5.741   6.901  0.00  0.00     0.198 C 
ATOM     35  O25 ZIN A   1      15.049  -7.005   7.570  0.00  0.00    -0.388 OA
ATOM     36  C24 ZIN A   1      15.984  -7.073   8.649  0.00  0.00     0.198 C 
ATOM     37  C23 ZIN A   1      17.391  -6.784   8.117  0.00  0.00     0.299 C 
ENDBRANCH  10  32
BRANCH   9  38
ATOM     38  O19 ZIN A   1      21.075  -5.758   7.137  0.00  0.00    -0.393 OA
ATOM     39  H60 ZIN A   1      21.580  -6.515   6.813  0.00  0.00     0.210 HD
ENDBRANCH   9  38
TORSDOF 7
ENDMDL
MODEL 2
REMARK VINA RESULT:      -7.6      2.274      3.612
REMARK  7 active torsions:
REMARK  status: ('A' for Active; 'I' for Inactive)
REMARK    1  A    between atoms: C2_2  and  C3_3 
REMARK    2  A    between atoms: C3_3  and  N4_4 
REMARK    3  A    between atoms: N4_4  and  C5_5 
REMARK    4  A    between atoms: C17_13  and  O19_14 
REMARK    5  A    between atoms: C20_15  and  N22_16 
REMARK    6  A    between atoms: C37_30  and  O39_31 
REMARK    7  A    between atoms: O39_31  and  C40_32 
ROOT
ATOM      1  C5  ZIN A   1      19.498  -1.068  10.516  0.00  0.00     0.221 C 
ATOM      2  C7  ZIN A   1      18.794  -2.426  10.780  0.00  0.00     0.042 C 
ATOM      3  C8  ZIN A   1      19.043  -3.201   9.482  0.00  0.00     0.003 C 
ATOM      4  C10 ZIN A   1      18.080  -4.337   9.193  0.00  0.00    -0.005 C 
ATOM      5  C12 ZIN A   1      18.190  -5.417  10.271  0.00  0.00     0.006 C 
ATOM      6  C13 ZIN A   1      17.241  -6.569   9.934  0.00  0.00     0.006 C 
ATOM      7  C14 ZIN A   1      17.622  -7.165   8.577  0.00  0.00    -0.004 C 
ATOM      8  C16 ZIN A   1      16.667  -8.312   8.239  0.00  0.00     0.039 C 
ATOM      9  C17 ZIN A   1      17.049  -8.911   6.884  0.00  0.00     0.151 C 
ATOM     10  C20 ZIN A   1      16.953  -7.832   5.803  0.00  0.00     0.252 C 
ATOM     11  C28 ZIN A   1      17.907  -6.686   6.142  0.00  0.00     0.048 C 
ATOM     12  C29 ZIN A   1      17.524  -6.086   7.497  0.00  0.00    -0.034 C 
ATOM     13  C30 ZIN A   1      16.089  -5.556   7.432  0.00  0.00     0.016 C 
ATOM     14  C31 ZIN A   1      18.463  -4.924   7.824  0.00  0.00    -0.002 C 
ATOM     15  C33 ZIN A   1      18.397  -3.873   6.721  0.00  0.00     0.007 C 
ATOM     16  C34 ZIN A   1      19.254  -2.643   7.065  0.00  0.00     0.012 C 
ATOM     17  C35 ZIN A   1      18.810  -2.102   8.411  0.00  0.00    -0.011 C 
ATOM     18  C36 ZIN A   1      17.306  -1.822   8.385  0.00  0.00     0.018 C 
ATOM     19  C37 ZIN A   1      19.555  -0.896   8.977  0.00  0.00     0.171 C 
ENDROOT
BRANCH   1  20
ATOM     20  N4  ZIN A   1      18.725   0.026  11.118  0.00  0.00    -0.057 N 
ATOM     21  C46 ZIN A   1      17.371   0.057  10.536  0.00  0.00     0.238 C 
ATOM     22  C45 ZIN A   1      16.370  -0.131  11.694  0.00  0.00     0.030 C 
ATOM     23  C44 ZIN A   1      17.187   0.312  12.936  0.00  0.00     0.030 C 
ATOM     24  C43 ZIN A   1      18.606  -0.194  12.574  0.00  0.00     0.238 C 
BRANCH  20  25
ATOM     25  C3  ZIN A   1      19.400   1.306  10.865  0.00  0.00     0.264 C 
BRANCH  25  26
ATOM     26  C2  ZIN A   1      18.405   2.432  10.987  0.00  0.00    -0.009 C 
ATOM     27  C1  ZIN A   1      18.499   3.477  10.202  0.00  0.00     0.008 C 
ENDBRANCH  25  26
ENDBRANCH  20  25
ENDBRANCH   1  20
BRANCH  19  28
ATOM     28  O39 ZIN A   1      18.866   0.332   8.624  0.00  0.00    -0.313 OA
BRANCH  28  29
ATOM     29  C40 ZIN A   1      19.294   0.977   7.527  0.00  0.00     0.255 C 
ATOM     30  C41 ZIN A   1      18.559   0.815   6.222  0.00  0.00     0.126 C 
ATOM     31  O42 ZIN A   1      20.269   1.690   7.587  0.00  0.00    -0.266 OA
ENDBRANCH  28  29
ENDBRANCH  19  28
BRANCH  10  32
ATOM     32  N22 ZIN A   1      15.577  -7.321   5.742  0.00  0.00     0.099 N 
ATOM     33  C27 ZIN A   1      15.306  -6.691   4.442  0.00  0.00     0.299 C 
ATOM     34  C26 ZIN A   1      13.885  -6.123   4.442  0.00  0.00     0.198 C 
ATOM     35  O25 ZIN A   1      12.957  -7.169   4.741  0.00  0.00    -0.388 OA
ATOM     36  C24 ZIN A   1      13.191  -7.805   6.001  0.00  0.00     0.198 C 
ATOM     37  C23 ZIN A   1      14.606  -8.391   6.015  0.00  0.00     0.299 C 
ENDBRANCH  10  32
BRANCH   9  38
ATOM     38  O19 ZIN A   1      18.387  -9.408   6.943  0.00  0.00    -0.393 OA
ATOM     39  H60 ZIN A   1      18.449 -10.346   7.171  0.00  0.00     0.210 HD
ENDBRANCH   9  38
TORSDOF 7
ENDMDL
MODEL 3
REMARK VINA RESULT:      -7.4      3.935     10.745
REMARK  7 active torsions:
REMARK  status: ('A' for Active; 'I' for Inactive)
REMARK    1  A    between atoms: C2_2  and  C3_3 
REMARK    2  A    between atoms: C3_3  and  N4_4 
REMARK    3  A    between atoms: N4_4  and  C5_5 
REMARK    4  A    between atoms: C17_13  and  O19_14 
REMARK    5  A    between atoms: C20_15  and  N22_16 
REMARK    6  A    between atoms: C37_30  and  O39_31 
REMARK    7  A    between atoms: O39_31  and  C40_32 
ROOT
ATOM      1  C5  ZIN A   1      19.563   0.585  12.834  0.00  0.00     0.221 C 
ATOM      2  C7  ZIN A   1      18.983   1.964  12.420  0.00  0.00     0.042 C 
ATOM      3  C8  ZIN A   1      19.087   2.783  13.711  0.00  0.00     0.003 C 
ATOM      4  C10 ZIN A   1      18.159   3.978  13.815  0.00  0.00    -0.005 C 
ATOM      5  C12 ZIN A   1      18.484   5.001  12.726  0.00  0.00     0.006 C 
ATOM      6  C13 ZIN A   1      17.564   6.215  12.879  0.00  0.00     0.006 C 
ATOM      7  C14 ZIN A   1      17.779   6.850  14.254  0.00  0.00    -0.004 C 
ATOM      8  C16 ZIN A   1      16.853   8.059  14.407  0.00  0.00     0.039 C 
ATOM      9  C17 ZIN A   1      17.069   8.697  15.780  0.00  0.00     0.151 C 
ATOM     10  C20 ZIN A   1      16.757   7.673  16.874  0.00  0.00     0.252 C 
ATOM     11  C28 ZIN A   1      17.683   6.466  16.720  0.00  0.00     0.048 C 
ATOM     12  C29 ZIN A   1      17.465   5.827  15.347  0.00  0.00    -0.034 C 
ATOM     13  C30 ZIN A   1      16.008   5.374  15.220  0.00  0.00     0.016 C 
ATOM     14  C31 ZIN A   1      18.373   4.605  15.203  0.00  0.00    -0.002 C 
ATOM     15  C33 ZIN A   1      18.090   3.609  16.322  0.00  0.00     0.007 C 
ATOM     16  C34 ZIN A   1      18.915   2.322  16.152  0.00  0.00     0.012 C 
ATOM     17  C35 ZIN A   1      18.639   1.745  14.777  0.00  0.00    -0.011 C 
ATOM     18  C36 ZIN A   1      17.134   1.545  14.593  0.00  0.00     0.018 C 
ATOM     19  C37 ZIN A   1      19.388   0.479  14.370  0.00  0.00     0.171 C 
ENDROOT
BRANCH   1  20
ATOM     20  N4  ZIN A   1      18.823  -0.494  12.166  0.00  0.00    -0.057 N 
ATOM     21  C46 ZIN A   1      17.380  -0.343  12.428  0.00  0.00     0.238 C 
ATOM     22  C45 ZIN A   1      16.681  -0.191  11.061  0.00  0.00     0.030 C 
ATOM     23  C44 ZIN A   1      17.694  -0.832  10.077  0.00  0.00     0.030 C 
ATOM     24  C43 ZIN A   1      19.048  -0.419  10.707  0.00  0.00     0.238 C 
BRANCH  20  25
ATOM     25  C3  ZIN A   1      19.283  -1.795  12.670  0.00  0.00     0.264 C 
BRANCH  25  26
ATOM     26  C2  ZIN A   1      20.032  -2.519  11.581  0.00  0.00    -0.009 C 
ATOM     27  C1  ZIN A   1      20.029  -3.829  11.544  0.00  0.00     0.008 C 
ENDBRANCH  25  26
ENDBRANCH  20  25
ENDBRANCH   1  20
BRANCH  19  28
ATOM     28  O39 ZIN A   1      18.586  -0.695  14.664  0.00  0.00    -0.313 OA
BRANCH  28  29
ATOM     29  C40 ZIN A   1      18.633  -1.167  15.919  0.00  0.00     0.255 C 
ATOM     30  C41 ZIN A   1      17.386  -1.185  16.765  0.00  0.00     0.126 C 
ATOM     31  O42 ZIN A   1      19.676  -1.580  16.371  0.00  0.00    -0.266 OA
ENDBRANCH  28  29
ENDBRANCH  19  28
BRANCH  10  32
ATOM     32  N22 ZIN A   1      15.359   7.237  16.752  0.00  0.00     0.099 N 
ATOM     33  C27 ZIN A   1      14.847   6.745  18.039  0.00  0.00     0.299 C 
ATOM     34  C26 ZIN A   1      13.411   6.248  17.853  0.00  0.00     0.198 C 
ATOM     35  O25 ZIN A   1      12.610   7.305  17.320  0.00  0.00    -0.388 OA
ATOM     36  C24 ZIN A   1      13.080   7.809  16.066  0.00  0.00     0.198 C 
ATOM     37  C23 ZIN A   1      14.513   8.322  16.234  0.00  0.00     0.299 C 
ENDBRANCH  10  32
BRANCH   9  38
ATOM     38  O19 ZIN A   1      18.428   9.121  15.899  0.00  0.00    -0.393 OA
ATOM     39  H60 ZIN A   1      18.598   9.688  16.663  0.00  0.00     0.210 HD
ENDBRANCH   9  38
TORSDOF 7
ENDMDL
MODEL 4
REMARK VINA RESULT:      -7.2      2.193      3.839
REMARK  7 active torsions:
REMARK  status: ('A' for Active; 'I' for Inactive)
REMARK    1  A    between atoms: C2_2  and  C3_3 
REMARK    2  A    between atoms: C3_3  and  N4_4 
REMARK    3  A    between atoms: N4_4  and  C5_5 
REMARK    4  A    between atoms: C17_13  and  O19_14 
REMARK    5  A    between atoms: C20_15  and  N22_16 
REMARK    6  A    between atoms: C37_30  and  O39_31 
REMARK    7  A    between atoms: O39_31  and  C40_32 
ROOT
ATOM      1  C5  ZIN A   1      19.264  -1.088  10.777  0.00  0.00     0.221 C 
ATOM      2  C7  ZIN A   1      18.544  -2.450  10.969  0.00  0.00     0.042 C 
ATOM      3  C8  ZIN A   1      18.881  -3.203   9.678  0.00  0.00     0.003 C 
ATOM      4  C10 ZIN A   1      17.941  -4.332   9.303  0.00  0.00    -0.005 C 
ATOM      5  C12 ZIN A   1      17.976  -5.430  10.367  0.00  0.00     0.006 C 
ATOM      6  C13 ZIN A   1      17.053  -6.575   9.946  0.00  0.00     0.006 C 
ATOM      7  C14 ZIN A   1      17.525  -7.148   8.608  0.00  0.00    -0.004 C 
ATOM      8  C16 ZIN A   1      16.596  -8.288   8.186  0.00  0.00     0.039 C 
ATOM      9  C17 ZIN A   1      17.070  -8.864   6.850  0.00  0.00     0.151 C 
ATOM     10  C20 ZIN A   1      17.048  -7.766   5.784  0.00  0.00     0.252 C 
ATOM     11  C28 ZIN A   1      17.977  -6.627   6.208  0.00  0.00     0.048 C 
ATOM     12  C29 ZIN A   1      17.501  -6.051   7.543  0.00  0.00    -0.034 C 
ATOM     13  C30 ZIN A   1      16.075  -5.518   7.389  0.00  0.00     0.016 C 
ATOM     14  C31 ZIN A   1      18.416  -4.895   7.954  0.00  0.00    -0.002 C 
ATOM     15  C33 ZIN A   1      18.426  -3.826   6.867  0.00  0.00     0.007 C 
ATOM     16  C34 ZIN A   1      19.257  -2.603   7.291  0.00  0.00     0.012 C 
ATOM     17  C35 ZIN A   1      18.722  -2.084   8.612  0.00  0.00    -0.011 C 
ATOM     18  C36 ZIN A   1      17.223  -1.803   8.488  0.00  0.00     0.018 C 
ATOM     19  C37 ZIN A   1      19.426  -0.890   9.249  0.00  0.00     0.171 C 
ENDROOT
BRANCH   1  20
ATOM     20  N4  ZIN A   1      18.452  -0.003  11.343  0.00  0.00    -0.057 N 
ATOM     21  C46 ZIN A   1      19.330   0.999  11.972  0.00  0.00     0.238 C 
ATOM     22  C45 ZIN A   1      19.073   2.344  11.261  0.00  0.00     0.030 C 
ATOM     23  C44 ZIN A   1      17.657   2.153  10.656  0.00  0.00     0.030 C 
ATOM     24  C43 ZIN A   1      17.683   0.654  10.266  0.00  0.00     0.238 C 
BRANCH  20  25
ATOM     25  C3  ZIN A   1      17.528  -0.549  12.347  0.00  0.00     0.264 C 
BRANCH  25  26
ATOM     26  C2  ZIN A   1      18.013  -0.185  13.727  0.00  0.00    -0.009 C 
ATOM     27  C1  ZIN A   1      18.296  -1.128  14.591  0.00  0.00     0.008 C 
ENDBRANCH  25  26
ENDBRANCH  20  25
ENDBRANCH   1  20
BRANCH  19  28
ATOM     28  O39 ZIN A   1      18.763   0.346   8.870  0.00  0.00    -0.313 OA
BRANCH  28  29
ATOM     29  C40 ZIN A   1      19.295   1.034   7.849  0.00  0.00     0.255 C 
ATOM     30  C41 ZIN A   1      18.688   0.931   6.473  0.00  0.00     0.126 C 
ATOM     31  O42 ZIN A   1      20.260   1.739   8.032  0.00  0.00    -0.266 OA
ENDBRANCH  28  29
ENDBRANCH  19  28
BRANCH  10  32
ATOM     32  N22 ZIN A   1      15.679  -7.253   5.638  0.00  0.00     0.099 N 
ATOM     33  C27 ZIN A   1      15.519  -6.535   4.365  0.00  0.00     0.299 C 
ATOM     34  C26 ZIN A   1      14.099  -5.968   4.280  0.00  0.00     0.198 C 
ATOM     35  O25 ZIN A   1      13.156  -7.033   4.424  0.00  0.00    -0.388 OA
ATOM     36  C24 ZIN A   1      13.283  -7.754   5.653  0.00  0.00     0.198 C 
ATOM     37  C23 ZIN A   1      14.694  -8.339   5.752  0.00  0.00     0.299 C 
ENDBRANCH  10  32
BRANCH   9  38
ATOM     38  O19 ZIN A   1      18.400  -9.363   6.992  0.00  0.00    -0.393 OA
ATOM     39  H60 ZIN A   1      18.928  -9.313   6.183  0.00  0.00     0.210 HD
ENDBRANCH   9  38
TORSDOF 7
ENDMDL
MODEL 5
REMARK VINA RESULT:      -6.6      2.542      9.412
REMARK  7 active torsions:
REMARK  status: ('A' for Active; 'I' for Inactive)
REMARK    1  A    between atoms: C2_2  and  C3_3 
REMARK    2  A    between atoms: C3_3  and  N4_4 
REMARK    3  A    between atoms: N4_4  and  C5_5 
REMARK    4  A    between atoms: C17_13  and  O19_14 
REMARK    5  A    between atoms: C20_15  and  N22_16 
REMARK    6  A    between atoms: C37_30  and  O39_31 
REMARK    7  A    between atoms: O39_31  and  C40_32 
ROOT
ATOM      1  C5  ZIN A   1      17.507  -1.980  10.916  0.00  0.00     0.221 C 
ATOM      2  C7  ZIN A   1      17.814  -1.491  12.357  0.00  0.00     0.042 C 
ATOM      3  C8  ZIN A   1      17.363  -0.026  12.326  0.00  0.00     0.003 C 
ATOM      4  C10 ZIN A   1      17.979   0.879  13.375  0.00  0.00    -0.005 C 
ATOM      5  C12 ZIN A   1      17.579   0.420  14.778  0.00  0.00     0.006 C 
ATOM      6  C13 ZIN A   1      18.177   1.373  15.815  0.00  0.00     0.006 C 
ATOM      7  C14 ZIN A   1      17.650   2.789  15.573  0.00  0.00    -0.004 C 
ATOM      8  C16 ZIN A   1      18.255   3.741  16.606  0.00  0.00     0.039 C 
ATOM      9  C17 ZIN A   1      17.725   5.156  16.368  0.00  0.00     0.151 C 
ATOM     10  C20 ZIN A   1      18.113   5.616  14.961  0.00  0.00     0.252 C 
ATOM     11  C28 ZIN A   1      17.507   4.663  13.929  0.00  0.00     0.048 C 
ATOM     12  C29 ZIN A   1      18.039   3.249  14.168  0.00  0.00    -0.034 C 
ATOM     13  C30 ZIN A   1      19.564   3.247  14.033  0.00  0.00     0.016 C 
ATOM     14  C31 ZIN A   1      17.453   2.301  13.120  0.00  0.00    -0.002 C 
ATOM     15  C33 ZIN A   1      17.803   2.790  11.719  0.00  0.00     0.007 C 
ATOM     16  C34 ZIN A   1      17.315   1.806  10.642  0.00  0.00     0.012 C 
ATOM     17  C35 ZIN A   1      17.888   0.434  10.939  0.00  0.00    -0.011 C 
ATOM     18  C36 ZIN A   1      19.411   0.524  11.051  0.00  0.00     0.018 C 
ATOM     19  C37 ZIN A   1      17.500  -0.718  10.017  0.00  0.00     0.171 C 
ENDROOT
BRANCH   1  20
ATOM     20  N4  ZIN A   1      18.549  -2.914  10.468  0.00  0.00    -0.057 N 
ATOM     21  C46 ZIN A   1      19.880  -2.347  10.753  0.00  0.00     0.238 C 
ATOM     22  C45 ZIN A   1      20.608  -3.336  11.685  0.00  0.00     0.030 C 
ATOM     23  C44 ZIN A   1      19.871  -4.675  11.418  0.00  0.00     0.030 C 
ATOM     24  C43 ZIN A   1      18.415  -4.192  11.197  0.00  0.00     0.238 C 
BRANCH  20  25
ATOM     25  C3  ZIN A   1      18.412  -3.152   9.024  0.00  0.00     0.264 C 
BRANCH  25  26
ATOM     26  C2  ZIN A   1      17.401  -4.245   8.789  0.00  0.00    -0.009 C 
ATOM     27  C1  ZIN A   1      17.500  -5.011   7.732  0.00  0.00     0.008 C 
ENDBRANCH  25  26
ENDBRANCH  20  25
ENDBRANCH   1  20
BRANCH  19  28
ATOM     28  O39 ZIN A   1      18.499  -0.887   8.976  0.00  0.00    -0.313 OA
BRANCH  28  29
ATOM     29  C40 ZIN A   1      18.358  -0.140   7.870  0.00  0.00     0.255 C 
ATOM     30  C41 ZIN A   1      17.082  -0.208   7.071  0.00  0.00     0.126 C 
ATOM     31  O42 ZIN A   1      19.255   0.589   7.515  0.00  0.00    -0.266 OA
ENDBRANCH  28  29
ENDBRANCH  19  28
BRANCH  10  32
ATOM     32  N22 ZIN A   1      19.576   5.613  14.831  0.00  0.00     0.099 N 
ATOM     33  C27 ZIN A   1      20.036   6.754  14.025  0.00  0.00     0.299 C 
ATOM     34  C26 ZIN A   1      21.557   6.679  13.865  0.00  0.00     0.198 C 
ATOM     35  O25 ZIN A   1      22.166   6.649  15.159  0.00  0.00    -0.388 OA
ATOM     36  C24 ZIN A   1      21.742   5.551  15.971  0.00  0.00     0.198 C 
ATOM     37  C23 ZIN A   1      20.222   5.615  16.152  0.00  0.00     0.299 C 
ENDBRANCH  10  32
BRANCH   9  38
ATOM     38  O19 ZIN A   1      16.302   5.160  16.495  0.00  0.00    -0.393 OA
ATOM     39  H60 ZIN A   1      15.988   5.282  17.401  0.00  0.00     0.210 HD
ENDBRANCH   9  38
TORSDOF 7
ENDMDL
MODEL 6
REMARK VINA RESULT:      -6.5      1.872      4.034
REMARK  7 active torsions:
REMARK  status: ('A' for Active; 'I' for Inactive)
REMARK    1  A    between atoms: C2_2  and  C3_3 
REMARK    2  A    between atoms: C3_3  and  N4_4 
REMARK    3  A    between atoms: N4_4  and  C5_5 
REMARK    4  A    between atoms: C17_13  and  O19_14 
REMARK    5  A    between atoms: C20_15  and  N22_16 
REMARK    6  A    between atoms: C37_30  and  O39_31 
REMARK    7  A    between atoms: O39_31  and  C40_32 
ROOT
ATOM      1  C5  ZIN A   1      17.430   2.252  12.220  0.00  0.00     0.221 C 
ATOM      2  C7  ZIN A   1      17.866   1.843  10.786  0.00  0.00     0.042 C 
ATOM      3  C8  ZIN A   1      17.361   0.401  10.671  0.00  0.00     0.003 C 
ATOM      4  C10 ZIN A   1      18.049  -0.461   9.630  0.00  0.00    -0.005 C 
ATOM      5  C12 ZIN A   1      17.812   0.105   8.229  0.00  0.00     0.006 C 
ATOM      6  C13 ZIN A   1      18.479  -0.805   7.195  0.00  0.00     0.006 C 
ATOM      7  C14 ZIN A   1      17.878  -2.209   7.284  0.00  0.00    -0.004 C 
ATOM      8  C16 ZIN A   1      18.552  -3.118   6.254  0.00  0.00     0.039 C 
ATOM      9  C17 ZIN A   1      17.949  -4.522   6.341  0.00  0.00     0.151 C 
ATOM     10  C20 ZIN A   1      18.173  -5.088   7.745  0.00  0.00     0.252 C 
ATOM     11  C28 ZIN A   1      17.499  -4.178   8.774  0.00  0.00     0.048 C 
ATOM     12  C29 ZIN A   1      18.104  -2.775   8.687  0.00  0.00    -0.034 C 
ATOM     13  C30 ZIN A   1      19.606  -2.848   8.974  0.00  0.00     0.016 C 
ATOM     14  C31 ZIN A   1      17.448  -1.872   9.733  0.00  0.00    -0.002 C 
ATOM     15  C33 ZIN A   1      17.634  -2.465  11.126  0.00  0.00     0.007 C 
ATOM     16  C34 ZIN A   1      17.073  -1.533  12.213  0.00  0.00     0.012 C 
ATOM     17  C35 ZIN A   1      17.724  -0.170  12.069  0.00  0.00    -0.011 C 
ATOM     18  C36 ZIN A   1      19.246  -0.318  12.105  0.00  0.00     0.018 C 
ATOM     19  C37 ZIN A   1      17.285   0.936  13.025  0.00  0.00     0.171 C 
ENDROOT
BRANCH   1  20
ATOM     20  N4  ZIN A   1      18.454   3.108  12.833  0.00  0.00    -0.057 N 
ATOM     21  C46 ZIN A   1      19.782   2.490  12.669  0.00  0.00     0.238 C 
ATOM     22  C45 ZIN A   1      20.656   3.487  11.881  0.00  0.00     0.030 C 
ATOM     23  C44 ZIN A   1      19.953   4.846  12.135  0.00  0.00     0.030 C 
ATOM     24  C43 ZIN A   1      18.462   4.426  12.164  0.00  0.00     0.238 C 
BRANCH  20  25
ATOM     25  C3  ZIN A   1      18.162   3.282  14.262  0.00  0.00     0.264 C 
BRANCH  25  26
ATOM     26  C2  ZIN A   1      17.376   4.552  14.464  0.00  0.00    -0.009 C 
ATOM     27  C1  ZIN A   1      17.506   5.233  15.575  0.00  0.00     0.008 C 
ENDBRANCH  25  26
ENDBRANCH  20  25
ENDBRANCH   1  20
BRANCH  19  28
ATOM     28  O39 ZIN A   1      18.176   0.994  14.170  0.00  0.00    -0.313 OA
BRANCH  28  29
ATOM     29  C40 ZIN A   1      17.905   0.172  15.196  0.00  0.00     0.255 C 
ATOM     30  C41 ZIN A   1      18.847  -0.955  15.527  0.00  0.00     0.126 C 
ATOM     31  O42 ZIN A   1      16.905   0.338  15.855  0.00  0.00    -0.266 OA
ENDBRANCH  28  29
ENDBRANCH  19  28
BRANCH  10  32
ATOM     32  N22 ZIN A   1      19.614  -5.156   8.021  0.00  0.00     0.099 N 
ATOM     33  C27 ZIN A   1      19.910  -6.195   9.018  0.00  0.00     0.299 C 
ATOM     34  C26 ZIN A   1      21.411  -6.193   9.319  0.00  0.00     0.198 C 
ATOM     35  O25 ZIN A   1      22.137  -6.386   8.103  0.00  0.00    -0.388 OA
ATOM     36  C24 ZIN A   1      21.874  -5.392   7.109  0.00  0.00     0.198 C 
ATOM     37  C23 ZIN A   1      20.377  -5.387   6.785  0.00  0.00     0.299 C 
ENDBRANCH  10  32
BRANCH   9  38
ATOM     38  O19 ZIN A   1      16.548  -4.455   6.072  0.00  0.00    -0.393 OA
ATOM     39  H60 ZIN A   1      16.021  -4.115   6.808  0.00  0.00     0.210 HD
ENDBRANCH   9  38
TORSDOF 7
ENDMDL
MODEL 7
REMARK VINA RESULT:      -6.2      3.171      5.360
REMARK  7 active torsions:
REMARK  status: ('A' for Active; 'I' for Inactive)
REMARK    1  A    between atoms: C2_2  and  C3_3 
REMARK    2  A    between atoms: C3_3  and  N4_4 
REMARK    3  A    between atoms: N4_4  and  C5_5 
REMARK    4  A    between atoms: C17_13  and  O19_14 
REMARK    5  A    between atoms: C20_15  and  N22_16 
REMARK    6  A    between atoms: C37_30  and  O39_31 
REMARK    7  A    between atoms: O39_31  and  C40_32 
ROOT
ATOM      1  C5  ZIN A   1      18.323   4.346  15.408  0.00  0.00     0.221 C 
ATOM      2  C7  ZIN A   1      17.521   3.201  14.732  0.00  0.00     0.042 C 
ATOM      3  C8  ZIN A   1      18.583   2.490  13.886  0.00  0.00     0.003 C 
ATOM      4  C10 ZIN A   1      18.062   1.668  12.722  0.00  0.00    -0.005 C 
ATOM      5  C12 ZIN A   1      17.191   0.518  13.228  0.00  0.00     0.006 C 
ATOM      6  C13 ZIN A   1      16.715  -0.319  12.039  0.00  0.00     0.006 C 
ATOM      7  C14 ZIN A   1      17.925  -0.887  11.294  0.00  0.00    -0.004 C 
ATOM      8  C16 ZIN A   1      17.445  -1.717  10.102  0.00  0.00     0.039 C 
ATOM      9  C17 ZIN A   1      18.655  -2.289   9.360  0.00  0.00     0.151 C 
ATOM     10  C20 ZIN A   1      19.537  -1.141   8.861  0.00  0.00     0.252 C 
ATOM     11  C28 ZIN A   1      20.015  -0.312  10.054  0.00  0.00     0.048 C 
ATOM     12  C29 ZIN A   1      18.805   0.260  10.795  0.00  0.00    -0.034 C 
ATOM     13  C30 ZIN A   1      17.998   1.148   9.845  0.00  0.00     0.016 C 
ATOM     14  C31 ZIN A   1      19.284   1.110  11.973  0.00  0.00    -0.002 C 
ATOM     15  C33 ZIN A   1      20.200   2.223  11.476  0.00  0.00     0.007 C 
ATOM     16  C34 ZIN A   1      20.621   3.159  12.622  0.00  0.00     0.012 C 
ATOM     17  C35 ZIN A   1      19.373   3.691  13.299  0.00  0.00    -0.011 C 
ATOM     18  C36 ZIN A   1      18.464   4.353  12.262  0.00  0.00     0.018 C 
ATOM     19  C37 ZIN A   1      19.551   4.615  14.501  0.00  0.00     0.171 C 
ENDROOT
BRANCH   1  20
ATOM     20  N4  ZIN A   1      17.493   5.554  15.505  0.00  0.00    -0.057 N 
ATOM     21  C46 ZIN A   1      17.262   6.107  14.158  0.00  0.00     0.238 C 
ATOM     22  C45 ZIN A   1      15.737   6.125  13.926  0.00  0.00     0.030 C 
ATOM     23  C44 ZIN A   1      15.164   6.113  15.368  0.00  0.00     0.030 C 
ATOM     24  C43 ZIN A   1      16.186   5.209  16.102  0.00  0.00     0.238 C 
BRANCH  20  25
ATOM     25  C3  ZIN A   1      18.170   6.554  16.341  0.00  0.00     0.264 C 
BRANCH  25  26
ATOM     26  C2  ZIN A   1      17.995   6.195  17.794  0.00  0.00    -0.009 C 
ATOM     27  C1  ZIN A   1      17.660   7.118  18.661  0.00  0.00     0.008 C 
ENDBRANCH  25  26
ENDBRANCH  20  25
ENDBRANCH   1  20
BRANCH  19  28
ATOM     28  O39 ZIN A   1      19.517   6.003  14.078  0.00  0.00    -0.313 OA
BRANCH  28  29
ATOM     29  C40 ZIN A   1      20.620   6.735  14.299  0.00  0.00     0.255 C 
ATOM     30  C41 ZIN A   1      21.756   6.161  15.107  0.00  0.00     0.126 C 
ATOM     31  O42 ZIN A   1      20.704   7.853  13.849  0.00  0.00    -0.266 OA
ENDBRANCH  28  29
ENDBRANCH  19  28
BRANCH  10  32
ATOM     32  N22 ZIN A   1      18.762  -0.288   7.951  0.00  0.00     0.099 N 
ATOM     33  C27 ZIN A   1      19.644   0.611   7.193  0.00  0.00     0.299 C 
ATOM     34  C26 ZIN A   1      18.794   1.520   6.302  0.00  0.00     0.198 C 
ATOM     35  O25 ZIN A   1      17.977   0.715   5.448  0.00  0.00    -0.388 OA
ATOM     36  C24 ZIN A   1      17.105  -0.172   6.152  0.00  0.00     0.198 C 
ATOM     37  C23 ZIN A   1      17.939  -1.099   7.041  0.00  0.00     0.299 C 
ENDBRANCH  10  32
BRANCH   9  38
ATOM     38  O19 ZIN A   1      19.408  -3.119  10.245  0.00  0.00    -0.393 OA
ATOM     39  H60 ZIN A   1      19.592  -4.002   9.896  0.00  0.00     0.210 HD
ENDBRANCH   9  38
TORSDOF 7
ENDMDL
MODEL 8
REMARK VINA RESULT:      -5.9      3.649      6.178
REMARK  7 active torsions:
REMARK  status: ('A' for Active; 'I' for Inactive)
REMARK    1  A    between atoms: C2_2  and  C3_3 
REMARK    2  A    between atoms: C3_3  and  N4_4 
REMARK    3  A    between atoms: N4_4  and  C5_5 
REMARK    4  A    between atoms: C17_13  and  O19_14 
REMARK    5  A    between atoms: C20_15  and  N22_16 
REMARK    6  A    between atoms: C37_30  and  O39_31 
REMARK    7  A    between atoms: O39_31  and  C40_32 
ROOT
ATOM      1  C5  ZIN A   1      17.565   5.362  16.264  0.00  0.00     0.221 C 
ATOM      2  C7  ZIN A   1      17.243   3.907  15.828  0.00  0.00     0.042 C 
ATOM      3  C8  ZIN A   1      18.376   3.582  14.850  0.00  0.00     0.003 C 
ATOM      4  C10 ZIN A   1      18.098   2.465  13.861  0.00  0.00    -0.005 C 
ATOM      5  C12 ZIN A   1      17.881   1.143  14.597  0.00  0.00     0.006 C 
ATOM      6  C13 ZIN A   1      17.646   0.027  13.577  0.00  0.00     0.006 C 
ATOM      7  C14 ZIN A   1      18.866  -0.095  12.661  0.00  0.00    -0.004 C 
ATOM      8  C16 ZIN A   1      18.624  -1.207  11.637  0.00  0.00     0.039 C 
ATOM      9  C17 ZIN A   1      19.845  -1.332  10.723  0.00  0.00     0.151 C 
ATOM     10  C20 ZIN A   1      20.074  -0.006   9.993  0.00  0.00     0.252 C 
ATOM     11  C28 ZIN A   1      20.314   1.104  11.017  0.00  0.00     0.048 C 
ATOM     12  C29 ZIN A   1      19.093   1.229  11.930  0.00  0.00    -0.034 C 
ATOM     13  C30 ZIN A   1      17.860   1.567  11.089  0.00  0.00     0.016 C 
ATOM     14  C31 ZIN A   1      19.323   2.357  12.938  0.00  0.00    -0.002 C 
ATOM     15  C33 ZIN A   1      19.597   3.665  12.205  0.00  0.00     0.007 C 
ATOM     16  C34 ZIN A   1      19.735   4.841  13.187  0.00  0.00     0.012 C 
ATOM     17  C35 ZIN A   1      18.487   4.906  14.047  0.00  0.00    -0.011 C 
ATOM     18  C36 ZIN A   1      17.247   4.986  13.154  0.00  0.00     0.018 C 
ATOM     19  C37 ZIN A   1      18.420   5.980  15.129  0.00  0.00     0.171 C 
ENDROOT
BRANCH   1  20
ATOM     20  N4  ZIN A   1      16.322   6.126  16.432  0.00  0.00    -0.057 N 
ATOM     21  C46 ZIN A   1      15.531   5.552  17.536  0.00  0.00     0.238 C 
ATOM     22  C45 ZIN A   1      15.338   6.664  18.587  0.00  0.00     0.030 C 
ATOM     23  C44 ZIN A   1      15.542   7.963  17.762  0.00  0.00     0.030 C 
ATOM     24  C43 ZIN A   1      16.644   7.529  16.763  0.00  0.00     0.238 C 
BRANCH  20  25
ATOM     25  C3  ZIN A   1      15.541   6.079  15.188  0.00  0.00     0.264 C 
BRANCH  25  26
ATOM     26  C2  ZIN A   1      14.072   6.183  15.513  0.00  0.00    -0.009 C 
ATOM     27  C1  ZIN A   1      13.184   6.129  14.552  0.00  0.00     0.008 C 
ENDBRANCH  25  26
ENDBRANCH  20  25
ENDBRANCH   1  20
BRANCH  19  28
ATOM     28  O39 ZIN A   1      17.739   7.159  14.627  0.00  0.00    -0.313 OA
BRANCH  28  29
ATOM     29  C40 ZIN A   1      18.481   8.264  14.451  0.00  0.00     0.255 C 
ATOM     30  C41 ZIN A   1      17.816   9.613  14.369  0.00  0.00     0.126 C 
ATOM     31  O42 ZIN A   1      19.683   8.176  14.361  0.00  0.00    -0.266 OA
ENDBRANCH  28  29
ENDBRANCH  19  28
BRANCH  10  32
ATOM     32  N22 ZIN A   1      18.890   0.319   9.187  0.00  0.00     0.099 N 
ATOM     33  C27 ZIN A   1      19.242   1.208   8.070  0.00  0.00     0.299 C 
ATOM     34  C26 ZIN A   1      17.973   1.569   7.293  0.00  0.00     0.198 C 
ATOM     35  O25 ZIN A   1      17.333   0.369   6.850  0.00  0.00    -0.388 OA
ATOM     36  C24 ZIN A   1      16.976  -0.520   7.911  0.00  0.00     0.198 C 
ATOM     37  C23 ZIN A   1      18.235  -0.902   8.695  0.00  0.00     0.299 C 
ENDBRANCH  10  32
BRANCH   9  38
ATOM     38  O19 ZIN A   1      20.996  -1.649  11.507  0.00  0.00    -0.393 OA
ATOM     39  H60 ZIN A   1      20.948  -1.337  12.421  0.00  0.00     0.210 HD
ENDBRANCH   9  38
TORSDOF 7
ENDMDL
MODEL 9
REMARK VINA RESULT:      -5.7      4.503      7.868
REMARK  7 active torsions:
REMARK  status: ('A' for Active; 'I' for Inactive)
REMARK    1  A    between atoms: C2_2  and  C3_3 
REMARK    2  A    between atoms: C3_3  and  N4_4 
REMARK    3  A    between atoms: N4_4  and  C5_5 
REMARK    4  A    between atoms: C17_13  and  O19_14 
REMARK    5  A    between atoms: C20_15  and  N22_16 
REMARK    6  A    between atoms: C37_30  and  O39_31 
REMARK    7  A    between atoms: O39_31  and  C40_32 
ROOT
ATOM      1  C5  ZIN A   1      17.088   5.916  18.822  0.00  0.00     0.221 C 
ATOM      2  C7  ZIN A   1      16.861   4.395  18.609  0.00  0.00     0.042 C 
ATOM      3  C8  ZIN A   1      17.983   4.013  17.638  0.00  0.00     0.003 C 
ATOM      4  C10 ZIN A   1      17.757   2.750  16.829  0.00  0.00    -0.005 C 
ATOM      5  C12 ZIN A   1      17.664   1.534  17.752  0.00  0.00     0.006 C 
ATOM      6  C13 ZIN A   1      17.479   0.270  16.910  0.00  0.00     0.006 C 
ATOM      7  C14 ZIN A   1      18.673   0.103  15.967  0.00  0.00    -0.004 C 
ATOM      8  C16 ZIN A   1      18.482  -1.158  15.121  0.00  0.00     0.039 C 
ATOM      9  C17 ZIN A   1      19.677  -1.327  14.182  0.00  0.00     0.151 C 
ATOM     10  C20 ZIN A   1      19.781  -0.107  13.263  0.00  0.00     0.252 C 
ATOM     11  C28 ZIN A   1      19.972   1.152  14.110  0.00  0.00     0.048 C 
ATOM     12  C29 ZIN A   1      18.776   1.322  15.049  0.00  0.00    -0.034 C 
ATOM     13  C30 ZIN A   1      17.493   1.449  14.223  0.00  0.00     0.016 C 
ATOM     14  C31 ZIN A   1      18.955   2.595  15.877  0.00  0.00    -0.002 C 
ATOM     15  C33 ZIN A   1      19.104   3.801  14.957  0.00  0.00     0.007 C 
ATOM     16  C34 ZIN A   1      19.186   5.112  15.756  0.00  0.00     0.012 C 
ATOM     17  C35 ZIN A   1      17.967   5.213  16.653  0.00  0.00    -0.011 C 
ATOM     18  C36 ZIN A   1      16.695   5.078  15.813  0.00  0.00     0.018 C 
ATOM     19  C37 ZIN A   1      17.856   6.423  17.575  0.00  0.00     0.171 C 
ENDROOT
BRANCH   1  20
ATOM     20  N4  ZIN A   1      15.797   6.608  18.935  0.00  0.00    -0.057 N 
ATOM     21  C46 ZIN A   1      14.922   5.877  19.869  0.00  0.00     0.238 C 
ATOM     22  C45 ZIN A   1      14.562   6.847  21.013  0.00  0.00     0.030 C 
ATOM     23  C44 ZIN A   1      14.788   8.242  20.372  0.00  0.00     0.030 C 
ATOM     24  C43 ZIN A   1      16.011   7.972  19.460  0.00  0.00     0.238 C 
BRANCH  20  25
ATOM     25  C3  ZIN A   1      15.158   6.682  17.614  0.00  0.00     0.264 C 
BRANCH  25  26
ATOM     26  C2  ZIN A   1      13.722   6.238  17.726  0.00  0.00    -0.009 C 
ATOM     27  C1  ZIN A   1      12.776   6.930  17.140  0.00  0.00     0.008 C 
ENDBRANCH  25  26
ENDBRANCH  20  25
ENDBRANCH   1  20
BRANCH  19  28
ATOM     28  O39 ZIN A   1      17.072   7.468  16.943  0.00  0.00    -0.313 OA
BRANCH  28  29
ATOM     29  C40 ZIN A   1      17.748   8.464  16.350  0.00  0.00     0.255 C 
ATOM     30  C41 ZIN A   1      18.033   8.406  14.871  0.00  0.00     0.126 C 
ATOM     31  O42 ZIN A   1      18.128   9.409  17.001  0.00  0.00    -0.266 OA
ENDBRANCH  28  29
ENDBRANCH  19  28
BRANCH  10  32
ATOM     32  N22 ZIN A   1      18.550   0.016  12.472  0.00  0.00     0.099 N 
ATOM     33  C27 ZIN A   1      18.699   1.033  11.420  0.00  0.00     0.299 C 
ATOM     34  C26 ZIN A   1      17.378   1.171  10.660  0.00  0.00     0.198 C 
ATOM     35  O25 ZIN A   1      17.001  -0.104  10.132  0.00  0.00    -0.388 OA
ATOM     36  C24 ZIN A   1      16.847  -1.118  11.128  0.00  0.00     0.198 C 
ATOM     37  C23 ZIN A   1      18.163  -1.279  11.893  0.00  0.00     0.299 C 
ENDBRANCH  10  32
BRANCH   9  38
ATOM     38  O19 ZIN A   1      20.875  -1.448  14.951  0.00  0.00    -0.393 OA
ATOM     39  H60 ZIN A   1      20.981  -2.307  15.380  0.00  0.00     0.210 HD
ENDBRANCH   9  38
TORSDOF 7
ENDMDL
