MODEL 1
REMARK VINA RESULT:      -6.6      0.000      0.000
REMARK  6 active torsions:
REMARK  status: ('A' for Active; 'I' for Inactive)
REMARK    1  A    between atoms: C2_2  and  C3_3 
REMARK    2  A    between atoms: C2_2  and  C5_5 
REMARK    3  A    between atoms: C5_5  and  C7_7 
REMARK    4  A    between atoms: C10_10  and  O11_11 
REMARK    5  A    between atoms: O11_11  and  C12_12 
REMARK    6  A    between atoms: C12_12  and  C13_13 
ROOT
ATOM      1  C7  ZIN A   1      19.104   2.283  12.820  0.00  0.00     0.038 A 
ATOM      2  C8  ZIN A   1      18.336   2.934  13.789  0.00  0.00     0.020 A 
ATOM      3  C9  ZIN A   1      17.981   2.274  14.944  0.00  0.00     0.039 A 
ATOM      4  C10 ZIN A   1      18.385   0.959  15.149  0.00  0.00     0.092 A 
ATOM      5  C16 ZIN A   1      19.150   0.304  14.189  0.00  0.00     0.090 A 
ATOM      6 Cl17 ZIN A   1      19.651  -1.336  14.450  0.00  0.00    -0.080 Cl
ATOM      7  C18 ZIN A   1      19.505   0.957  13.026  0.00  0.00     0.072 A 
ATOM      8 Cl19 ZIN A   1      20.459   0.141  11.828  0.00  0.00    -0.081 Cl
ENDROOT
BRANCH   1   9
ATOM      9  C5  ZIN A   1      19.486   2.987  11.582  0.00  0.00     0.189 C 
ATOM     10  O6  ZIN A   1      20.591   3.483  11.480  0.00  0.00    -0.287 OA
BRANCH   9  11
ATOM     11  C2  ZIN A   1      18.529   3.091  10.471  0.00  0.00    -0.017 C 
ATOM     12  C1  ZIN A   1      17.884   4.235  10.252  0.00  0.00     0.023 C 
BRANCH  11  13
ATOM     13  C3  ZIN A   1      18.279   1.902   9.578  0.00  0.00     0.037 C 
ATOM     14  C4  ZIN A   1      19.375   1.825   8.513  0.00  0.00     0.010 C 
ENDBRANCH  11  13
ENDBRANCH   9  11
ENDBRANCH   1   9
BRANCH   4  15
ATOM     15  O11 ZIN A   1      18.033   0.312  16.289  0.00  0.00    -0.339 OA
BRANCH  15  16
ATOM     16  C12 ZIN A   1      17.931   1.101  17.476  0.00  0.00     0.288 C 
BRANCH  16  17
ATOM     17  C13 ZIN A   1      19.235   1.046  18.229  0.00  0.00     0.198 C 
ATOM     18  O14 ZIN A   1      19.791  -0.025  18.408  0.00  0.00    -0.646 OA
ATOM     19  O15 ZIN A   1      19.735   2.071  18.658  0.00  0.00    -0.646 OA
ENDBRANCH  16  17
ENDBRANCH  15  16
ENDBRANCH   4  15
TORSDOF 6
ENDMDL
MODEL 2
REMARK VINA RESULT:      -6.5      3.880      7.347
REMARK  6 active torsions:
REMARK  status: ('A' for Active; 'I' for Inactive)
REMARK    1  A    between atoms: C2_2  and  C3_3 
REMARK    2  A    between atoms: C2_2  and  C5_5 
REMARK    3  A    between atoms: C5_5  and  C7_7 
REMARK    4  A    between atoms: C10_10  and  O11_11 
REMARK    5  A    between atoms: O11_11  and  C12_12 
REMARK    6  A    between atoms: C12_12  and  C13_13 
ROOT
ATOM      1  C7  ZIN A   1      18.119   2.364  10.349  0.00  0.00     0.038 A 
ATOM      2  C8  ZIN A   1      18.844   2.717   9.208  0.00  0.00     0.020 A 
ATOM      3  C9  ZIN A   1      19.257   1.743   8.327  0.00  0.00     0.039 A 
ATOM      4  C10 ZIN A   1      18.954   0.408   8.570  0.00  0.00     0.092 A 
ATOM      5  C16 ZIN A   1      18.233   0.049   9.704  0.00  0.00     0.090 A 
ATOM      6 Cl17 ZIN A   1      17.858  -1.619  10.001  0.00  0.00    -0.080 Cl
ATOM      7  C18 ZIN A   1      17.820   1.018  10.595  0.00  0.00     0.072 A 
ATOM      8 Cl19 ZIN A   1      16.920   0.571  12.009  0.00  0.00    -0.081 Cl
ENDROOT
BRANCH   1   9
ATOM      9  C5  ZIN A   1      17.675   3.404  11.295  0.00  0.00     0.189 C 
ATOM     10  O6  ZIN A   1      16.622   3.985  11.112  0.00  0.00    -0.287 OA
BRANCH   9  11
ATOM     11  C2  ZIN A   1      18.506   3.741  12.461  0.00  0.00    -0.017 C 
ATOM     12  C1  ZIN A   1      19.732   4.229  12.286  0.00  0.00     0.023 C 
BRANCH  11  13
ATOM     13  C3  ZIN A   1      17.969   3.534  13.854  0.00  0.00     0.037 C 
ATOM     14  C4  ZIN A   1      18.729   2.391  14.529  0.00  0.00     0.010 C 
ENDBRANCH  11  13
ENDBRANCH   9  11
ENDBRANCH   1   9
BRANCH   4  15
ATOM     15  O11 ZIN A   1      19.364  -0.549   7.698  0.00  0.00    -0.339 OA
BRANCH  15  16
ATOM     16  C12 ZIN A   1      18.748  -0.556   6.408  0.00  0.00     0.288 C 
BRANCH  16  17
ATOM     17  C13 ZIN A   1      19.442  -1.562   5.527  0.00  0.00     0.198 C 
ATOM     18  O14 ZIN A   1      19.732  -1.270   4.378  0.00  0.00    -0.646 OA
ATOM     19  O15 ZIN A   1      19.716  -2.668   5.962  0.00  0.00    -0.646 OA
ENDBRANCH  16  17
ENDBRANCH  15  16
ENDBRANCH   4  15
TORSDOF 6
ENDMDL
MODEL 3
REMARK VINA RESULT:      -6.4      3.972      7.261
REMARK  6 active torsions:
REMARK  status: ('A' for Active; 'I' for Inactive)
REMARK    1  A    between atoms: C2_2  and  C3_3 
REMARK    2  A    between atoms: C2_2  and  C5_5 
REMARK    3  A    between atoms: C5_5  and  C7_7 
REMARK    4  A    between atoms: C10_10  and  O11_11 
REMARK    5  A    between atoms: O11_11  and  C12_12 
REMARK    6  A    between atoms: C12_12  and  C13_13 
ROOT
ATOM      1  C7  ZIN A   1      19.192   2.035  10.096  0.00  0.00     0.038 A 
ATOM      2  C8  ZIN A   1      19.235   2.179   8.707  0.00  0.00     0.020 A 
ATOM      3  C9  ZIN A   1      19.187   1.067   7.898  0.00  0.00     0.039 A 
ATOM      4  C10 ZIN A   1      19.095  -0.201   8.460  0.00  0.00     0.092 A 
ATOM      5  C16 ZIN A   1      19.052  -0.353   9.842  0.00  0.00     0.090 A 
ATOM      6 Cl17 ZIN A   1      18.938  -1.939  10.537  0.00  0.00    -0.080 Cl
ATOM      7  C18 ZIN A   1      19.105   0.756  10.661  0.00  0.00     0.072 A 
ATOM      8 Cl19 ZIN A   1      19.051   0.568  12.385  0.00  0.00    -0.081 Cl
ENDROOT
BRANCH   1   9
ATOM      9  C5  ZIN A   1      19.244   3.225  10.966  0.00  0.00     0.189 C 
ATOM     10  O6  ZIN A   1      20.276   3.514  11.541  0.00  0.00    -0.287 OA
BRANCH   9  11
ATOM     11  C2  ZIN A   1      18.047   4.062  11.139  0.00  0.00    -0.017 C 
ATOM     12  C1  ZIN A   1      17.610   4.815  10.132  0.00  0.00     0.023 C 
BRANCH  11  13
ATOM     13  C3  ZIN A   1      17.316   4.066  12.457  0.00  0.00     0.037 C 
ATOM     14  C4  ZIN A   1      16.529   5.370  12.600  0.00  0.00     0.010 C 
ENDBRANCH  11  13
ENDBRANCH   9  11
ENDBRANCH   1   9
BRANCH   4  15
ATOM     15  O11 ZIN A   1      19.048  -1.296   7.658  0.00  0.00    -0.339 OA
BRANCH  15  16
ATOM     16  C12 ZIN A   1      18.424  -1.137   6.382  0.00  0.00     0.288 C 
BRANCH  16  17
ATOM     17  C13 ZIN A   1      19.372  -1.589   5.301  0.00  0.00     0.198 C 
ATOM     18  O14 ZIN A   1      19.581  -2.779   5.132  0.00  0.00    -0.646 OA
ATOM     19  O15 ZIN A   1      19.929  -0.766   4.595  0.00  0.00    -0.646 OA
ENDBRANCH  16  17
ENDBRANCH  15  16
ENDBRANCH   4  15
TORSDOF 6
ENDMDL
MODEL 4
REMARK VINA RESULT:      -6.3      4.479      8.232
REMARK  6 active torsions:
REMARK  status: ('A' for Active; 'I' for Inactive)
REMARK    1  A    between atoms: C2_2  and  C3_3 
REMARK    2  A    between atoms: C2_2  and  C5_5 
REMARK    3  A    between atoms: C5_5  and  C7_7 
REMARK    4  A    between atoms: C10_10  and  O11_11 
REMARK    5  A    between atoms: O11_11  and  C12_12 
REMARK    6  A    between atoms: C12_12  and  C13_13 
ROOT
ATOM      1  C7  ZIN A   1      17.638  -0.633  10.569  0.00  0.00     0.038 A 
ATOM      2  C8  ZIN A   1      17.835  -1.978  10.248  0.00  0.00     0.020 A 
ATOM      3  C9  ZIN A   1      18.468  -2.320   9.074  0.00  0.00     0.039 A 
ATOM      4  C10 ZIN A   1      18.913  -1.327   8.207  0.00  0.00     0.092 A 
ATOM      5  C16 ZIN A   1      18.720   0.014   8.521  0.00  0.00     0.090 A 
ATOM      6 Cl17 ZIN A   1      19.277   1.247   7.434  0.00  0.00    -0.080 Cl
ATOM      7  C18 ZIN A   1      18.081   0.365   9.692  0.00  0.00     0.072 A 
ATOM      8 Cl19 ZIN A   1      17.840   2.038  10.084  0.00  0.00    -0.081 Cl
ENDROOT
BRANCH   1   9
ATOM      9  C5  ZIN A   1      16.959  -0.264  11.826  0.00  0.00     0.189 C 
ATOM     10  O6  ZIN A   1      15.771  -0.001  11.821  0.00  0.00    -0.287 OA
BRANCH   9  11
ATOM     11  C2  ZIN A   1      17.718  -0.213  13.084  0.00  0.00    -0.017 C 
ATOM     12  C1  ZIN A   1      17.733   0.904  13.808  0.00  0.00     0.023 C 
BRANCH  11  13
ATOM     13  C3  ZIN A   1      18.478  -1.427  13.555  0.00  0.00     0.037 C 
ATOM     14  C4  ZIN A   1      19.028  -1.171  14.959  0.00  0.00     0.010 C 
ENDBRANCH  11  13
ENDBRANCH   9  11
ENDBRANCH   1   9
BRANCH   4  15
ATOM     15  O11 ZIN A   1      19.537  -1.668   7.051  0.00  0.00    -0.339 OA
BRANCH  15  16
ATOM     16  C12 ZIN A   1      18.708  -2.114   5.975  0.00  0.00     0.288 C 
BRANCH  16  17
ATOM     17  C13 ZIN A   1      18.900  -1.209   4.785  0.00  0.00     0.198 C 
ATOM     18  O14 ZIN A   1      17.953  -0.938   4.066  0.00  0.00    -0.646 OA
ATOM     19  O15 ZIN A   1      20.002  -0.747   4.542  0.00  0.00    -0.646 OA
ENDBRANCH  16  17
ENDBRANCH  15  16
ENDBRANCH   4  15
TORSDOF 6
ENDMDL
MODEL 5
REMARK VINA RESULT:      -6.2      3.820      7.789
REMARK  6 active torsions:
REMARK  status: ('A' for Active; 'I' for Inactive)
REMARK    1  A    between atoms: C2_2  and  C3_3 
REMARK    2  A    between atoms: C2_2  and  C5_5 
REMARK    3  A    between atoms: C5_5  and  C7_7 
REMARK    4  A    between atoms: C10_10  and  O11_11 
REMARK    5  A    between atoms: O11_11  and  C12_12 
REMARK    6  A    between atoms: C12_12  and  C13_13 
ROOT
ATOM      1  C7  ZIN A   1      19.569   0.636  10.696  0.00  0.00     0.038 A 
ATOM      2  C8  ZIN A   1      19.256   1.823  10.027  0.00  0.00     0.020 A 
ATOM      3  C9  ZIN A   1      18.809   1.782   8.726  0.00  0.00     0.039 A 
ATOM      4  C10 ZIN A   1      18.667   0.561   8.076  0.00  0.00     0.092 A 
ATOM      5  C16 ZIN A   1      18.976  -0.624   8.735  0.00  0.00     0.090 A 
ATOM      6 Cl17 ZIN A   1      18.796  -2.144   7.917  0.00  0.00    -0.080 Cl
ATOM      7  C18 ZIN A   1      19.430  -0.592  10.037  0.00  0.00     0.072 A 
ATOM      8 Cl19 ZIN A   1      19.816  -2.069  10.861  0.00  0.00    -0.081 Cl
ENDROOT
BRANCH   1   9
ATOM      9  C5  ZIN A   1      20.049   0.677  12.090  0.00  0.00     0.189 C 
ATOM     10  O6  ZIN A   1      21.241   0.618  12.325  0.00  0.00    -0.287 OA
BRANCH   9  11
ATOM     11  C2  ZIN A   1      19.087   0.787  13.196  0.00  0.00    -0.017 C 
ATOM     12  C1  ZIN A   1      18.908   1.955  13.809  0.00  0.00     0.023 C 
BRANCH  11  13
ATOM     13  C3  ZIN A   1      18.303  -0.423  13.636  0.00  0.00     0.037 C 
ATOM     14  C4  ZIN A   1      19.161  -1.272  14.576  0.00  0.00     0.010 C 
ENDBRANCH  11  13
ENDBRANCH   9  11
ENDBRANCH   1   9
BRANCH   4  15
ATOM     15  O11 ZIN A   1      18.225   0.525   6.792  0.00  0.00    -0.339 OA
BRANCH  15  16
ATOM     16  C12 ZIN A   1      19.187   0.789   5.768  0.00  0.00     0.288 C 
BRANCH  16  17
ATOM     17  C13 ZIN A   1      19.118  -0.296   4.724  0.00  0.00     0.198 C 
ATOM     18  O14 ZIN A   1      18.165  -0.351   3.964  0.00  0.00    -0.646 OA
ATOM     19  O15 ZIN A   1      20.014  -1.117   4.639  0.00  0.00    -0.646 OA
ENDBRANCH  16  17
ENDBRANCH  15  16
ENDBRANCH   4  15
TORSDOF 6
ENDMDL
MODEL 6
REMARK VINA RESULT:      -6.1      3.151      4.160
REMARK  6 active torsions:
REMARK  status: ('A' for Active; 'I' for Inactive)
REMARK    1  A    between atoms: C2_2  and  C3_3 
REMARK    2  A    between atoms: C2_2  and  C5_5 
REMARK    3  A    between atoms: C5_5  and  C7_7 
REMARK    4  A    between atoms: C10_10  and  O11_11 
REMARK    5  A    between atoms: O11_11  and  C12_12 
REMARK    6  A    between atoms: C12_12  and  C13_13 
ROOT
ATOM      1  C7  ZIN A   1      18.292  -1.105  12.835  0.00  0.00     0.038 A 
ATOM      2  C8  ZIN A   1      18.858  -1.504  14.049  0.00  0.00     0.020 A 
ATOM      3  C9  ZIN A   1      19.107  -0.573  15.031  0.00  0.00     0.039 A 
ATOM      4  C10 ZIN A   1      18.796   0.766  14.818  0.00  0.00     0.092 A 
ATOM      5  C16 ZIN A   1      18.233   1.171  13.612  0.00  0.00     0.090 A 
ATOM      6 Cl17 ZIN A   1      17.848   2.843  13.353  0.00  0.00    -0.080 Cl
ATOM      7  C18 ZIN A   1      17.985   0.244  12.620  0.00  0.00     0.072 A 
ATOM      8 Cl19 ZIN A   1      17.282   0.748  11.116  0.00  0.00    -0.081 Cl
ENDROOT
BRANCH   1   9
ATOM      9  C5  ZIN A   1      18.024  -2.101  11.780  0.00  0.00     0.189 C 
ATOM     10  O6  ZIN A   1      16.906  -2.561  11.647  0.00  0.00    -0.287 OA
BRANCH   9  11
ATOM     11  C2  ZIN A   1      19.109  -2.539  10.890  0.00  0.00    -0.017 C 
ATOM     12  C1  ZIN A   1      19.322  -1.907   9.738  0.00  0.00     0.023 C 
BRANCH  11  13
ATOM     13  C3  ZIN A   1      19.982  -3.703  11.284  0.00  0.00     0.037 C 
ATOM     14  C4  ZIN A   1      19.707  -4.885  10.351  0.00  0.00     0.010 C 
ENDBRANCH  11  13
ENDBRANCH   9  11
ENDBRANCH   1   9
BRANCH   4  15
ATOM     15  O11 ZIN A   1      19.044   1.682  15.789  0.00  0.00    -0.339 OA
BRANCH  15  16
ATOM     16  C12 ZIN A   1      18.330   1.531  17.018  0.00  0.00     0.288 C 
BRANCH  16  17
ATOM     17  C13 ZIN A   1      19.310   1.361  18.150  0.00  0.00     0.198 C 
ATOM     18  O14 ZIN A   1      19.708   2.338  18.764  0.00  0.00    -0.646 OA
ATOM     19  O15 ZIN A   1      19.705   0.248  18.454  0.00  0.00    -0.646 OA
ENDBRANCH  16  17
ENDBRANCH  15  16
ENDBRANCH   4  15
TORSDOF 6
ENDMDL
MODEL 7
REMARK VINA RESULT:      -6.1      4.592      8.055
REMARK  6 active torsions:
REMARK  status: ('A' for Active; 'I' for Inactive)
REMARK    1  A    between atoms: C2_2  and  C3_3 
REMARK    2  A    between atoms: C2_2  and  C5_5 
REMARK    3  A    between atoms: C5_5  and  C7_7 
REMARK    4  A    between atoms: C10_10  and  O11_11 
REMARK    5  A    between atoms: O11_11  and  C12_12 
REMARK    6  A    between atoms: C12_12  and  C13_13 
ROOT
ATOM      1  C7  ZIN A   1      17.662  -0.382  10.210  0.00  0.00     0.038 A 
ATOM      2  C8  ZIN A   1      17.977   0.381   9.083  0.00  0.00     0.020 A 
ATOM      3  C9  ZIN A   1      18.590  -0.209   8.001  0.00  0.00     0.039 A 
ATOM      4  C10 ZIN A   1      18.898  -1.565   8.028  0.00  0.00     0.092 A 
ATOM      5  C16 ZIN A   1      18.588  -2.332   9.147  0.00  0.00     0.090 A 
ATOM      6 Cl17 ZIN A   1      18.974  -4.023   9.173  0.00  0.00    -0.080 Cl
ATOM      7  C18 ZIN A   1      17.978  -1.746  10.237  0.00  0.00     0.072 A 
ATOM      8 Cl19 ZIN A   1      17.591  -2.701  11.633  0.00  0.00    -0.081 Cl
ENDROOT
BRANCH   1   9
ATOM      9  C5  ZIN A   1      17.006   0.248  11.371  0.00  0.00     0.189 C 
ATOM     10  O6  ZIN A   1      15.810   0.106  11.545  0.00  0.00    -0.287 OA
BRANCH   9  11
ATOM     11  C2  ZIN A   1      17.796   1.048  12.318  0.00  0.00    -0.017 C 
ATOM     12  C1  ZIN A   1      17.703   2.376  12.307  0.00  0.00     0.023 C 
BRANCH  11  13
ATOM     13  C3  ZIN A   1      18.711   0.364  13.301  0.00  0.00     0.037 C 
ATOM     14  C4  ZIN A   1      17.875  -0.306  14.394  0.00  0.00     0.010 C 
ENDBRANCH  11  13
ENDBRANCH   9  11
ENDBRANCH   1   9
BRANCH   4  15
ATOM     15  O11 ZIN A   1      19.503  -2.144   6.959  0.00  0.00    -0.339 OA
BRANCH  15  16
ATOM     16  C12 ZIN A   1      18.663  -2.520   5.865  0.00  0.00     0.288 C 
BRANCH  16  17
ATOM     17  C13 ZIN A   1      18.808  -1.514   4.753  0.00  0.00     0.198 C 
ATOM     18  O14 ZIN A   1      19.913  -1.095   4.449  0.00  0.00    -0.646 OA
ATOM     19  O15 ZIN A   1      17.822  -1.119   4.155  0.00  0.00    -0.646 OA
ENDBRANCH  16  17
ENDBRANCH  15  16
ENDBRANCH   4  15
TORSDOF 6
ENDMDL
MODEL 8
REMARK VINA RESULT:      -6.1      2.527      3.155
REMARK  6 active torsions:
REMARK  status: ('A' for Active; 'I' for Inactive)
REMARK    1  A    between atoms: C2_2  and  C3_3 
REMARK    2  A    between atoms: C2_2  and  C5_5 
REMARK    3  A    between atoms: C5_5  and  C7_7 
REMARK    4  A    between atoms: C10_10  and  O11_11 
REMARK    5  A    between atoms: O11_11  and  C12_12 
REMARK    6  A    between atoms: C12_12  and  C13_13 
ROOT
ATOM      1  C7  ZIN A   1      17.621   0.756  12.685  0.00  0.00     0.038 A 
ATOM      2  C8  ZIN A   1      17.881  -0.052  13.796  0.00  0.00     0.020 A 
ATOM      3  C9  ZIN A   1      18.491   0.482  14.908  0.00  0.00     0.039 A 
ATOM      4  C10 ZIN A   1      18.849   1.826  14.929  0.00  0.00     0.092 A 
ATOM      5  C16 ZIN A   1      18.594   2.636  13.828  0.00  0.00     0.090 A 
ATOM      6 Cl17 ZIN A   1      19.044   4.312  13.862  0.00  0.00    -0.080 Cl
ATOM      7  C18 ZIN A   1      17.988   2.108  12.707  0.00  0.00     0.072 A 
ATOM      8 Cl19 ZIN A   1      17.669   3.118  11.333  0.00  0.00    -0.081 Cl
ENDROOT
BRANCH   1   9
ATOM      9  C5  ZIN A   1      16.968   0.187  11.492  0.00  0.00     0.189 C 
ATOM     10  O6  ZIN A   1      15.757   0.078  11.454  0.00  0.00    -0.287 OA
BRANCH   9  11
ATOM     11  C2  ZIN A   1      17.781  -0.251  10.348  0.00  0.00    -0.017 C 
ATOM     12  C1  ZIN A   1      18.753  -1.143  10.524  0.00  0.00     0.023 C 
BRANCH  11  13
ATOM     13  C3  ZIN A   1      17.511   0.308   8.975  0.00  0.00     0.037 C 
ATOM     14  C4  ZIN A   1      18.738   1.084   8.490  0.00  0.00     0.010 C 
ENDBRANCH  11  13
ENDBRANCH   9  11
ENDBRANCH   1   9
BRANCH   4  15
ATOM     15  O11 ZIN A   1      19.451   2.349  16.029  0.00  0.00    -0.339 OA
BRANCH  15  16
ATOM     16  C12 ZIN A   1      18.598   2.751  17.103  0.00  0.00     0.288 C 
BRANCH  16  17
ATOM     17  C13 ZIN A   1      18.734   1.774  18.243  0.00  0.00     0.198 C 
ATOM     18  O14 ZIN A   1      17.738   1.298  18.760  0.00  0.00    -0.646 OA
ATOM     19  O15 ZIN A   1      19.841   1.459  18.647  0.00  0.00    -0.646 OA
ENDBRANCH  16  17
ENDBRANCH  15  16
ENDBRANCH   4  15
TORSDOF 6
ENDMDL
MODEL 9
REMARK VINA RESULT:      -6.0      2.035      2.617
REMARK  6 active torsions:
REMARK  status: ('A' for Active; 'I' for Inactive)
REMARK    1  A    between atoms: C2_2  and  C3_3 
REMARK    2  A    between atoms: C2_2  and  C5_5 
REMARK    3  A    between atoms: C5_5  and  C7_7 
REMARK    4  A    between atoms: C10_10  and  O11_11 
REMARK    5  A    between atoms: O11_11  and  C12_12 
REMARK    6  A    between atoms: C12_12  and  C13_13 
ROOT
ATOM      1  C7  ZIN A   1      19.147   0.060  11.854  0.00  0.00     0.038 A 
ATOM      2  C8  ZIN A   1      18.665  -1.113  12.442  0.00  0.00     0.020 A 
ATOM      3  C9  ZIN A   1      18.260  -1.107  13.757  0.00  0.00     0.039 A 
ATOM      4  C10 ZIN A   1      18.328   0.064  14.503  0.00  0.00     0.092 A 
ATOM      5  C16 ZIN A   1      18.806   1.236  13.926  0.00  0.00     0.090 A 
ATOM      6 Cl17 ZIN A   1      18.888   2.694  14.862  0.00  0.00    -0.080 Cl
ATOM      7  C18 ZIN A   1      19.220   1.237  12.609  0.00  0.00     0.072 A 
ATOM      8 Cl19 ZIN A   1      19.817   2.698  11.887  0.00  0.00    -0.081 Cl
ENDROOT
BRANCH   1   9
ATOM      9  C5  ZIN A   1      19.583   0.057  10.446  0.00  0.00     0.189 C 
ATOM     10  O6  ZIN A   1      20.670  -0.398  10.146  0.00  0.00    -0.287 OA
BRANCH   9  11
ATOM     11  C2  ZIN A   1      18.704   0.606   9.403  0.00  0.00    -0.017 C 
ATOM     12  C1  ZIN A   1      17.455   0.161   9.282  0.00  0.00     0.023 C 
BRANCH  11  13
ATOM     13  C3  ZIN A   1      19.217   1.672   8.470  0.00  0.00     0.037 C 
ATOM     14  C4  ZIN A   1      19.002   1.230   7.021  0.00  0.00     0.010 C 
ENDBRANCH  11  13
ENDBRANCH   9  11
ENDBRANCH   1   9
BRANCH   4  15
ATOM     15  O11 ZIN A   1      17.926   0.065  15.800  0.00  0.00    -0.339 OA
BRANCH  15  16
ATOM     16  C12 ZIN A   1      18.890  -0.337  16.777  0.00  0.00     0.288 C 
BRANCH  16  17
ATOM     17  C13 ZIN A   1      18.882   0.642  17.922  0.00  0.00     0.198 C 
ATOM     18  O14 ZIN A   1      19.929   0.959  18.462  0.00  0.00    -0.646 OA
ATOM     19  O15 ZIN A   1      17.828   1.119  18.309  0.00  0.00    -0.646 OA
ENDBRANCH  16  17
ENDBRANCH  15  16
ENDBRANCH   4  15
TORSDOF 6
ENDMDL
