MODEL 1
REMARK VINA RESULT:      -7.7      0.000      0.000
REMARK  4 active torsions:
REMARK  status: ('A' for Active; 'I' for Inactive)
REMARK    1  A    between atoms: C7_6  and  N9_7 
REMARK       I    between atoms: N9_7  and  C10_8 
REMARK    2  A    between atoms: C10_8  and  C12_10 
REMARK    3  A    between atoms: C12_10  and  C13_11 
REMARK    4  A    between atoms: C22_20  and  C24_21 
ROOT
ATOM      1  C1  <0> d   1      19.502  -5.836   9.227  0.00  0.00     0.029 C 
ATOM      2  C2  <0> d   1      18.457  -4.889   8.634  0.00  0.00     0.029 C 
ATOM      3  C3  <0> d   1      17.420  -4.484   9.683  0.00  0.00     0.029 C 
ATOM      4  S4  <0> d   1      19.250  -3.412   7.868  0.00  0.00    -0.135 SA
ATOM      5  C5  <0> d   1      19.587  -4.236   6.265  0.00  0.00     0.160 C 
ATOM      6  C7  <0> d   1      18.902  -3.584   5.071  0.00  0.00     0.199 C 
ATOM      7  C19 <0> d   1      18.140  -4.882   5.058  0.00  0.00     0.227 C 
ATOM      8  O20 <0> d   1      17.335  -5.340   4.276  0.00  0.00    -0.277 OA
ATOM      9  N21 <0> d   1      18.666  -5.379   6.219  0.00  0.00    -0.219 NA
ATOM     10  C22 <0> d   1      17.781  -5.507   7.380  0.00  0.00     0.186 C 
ENDROOT
BRANCH   6  11
ATOM     11  N9  <0> d   1      18.092  -2.409   5.403  0.00  0.00    -0.346 N 
ATOM     12  C10 <0> d   1      18.564  -1.172   5.151  0.00  0.00     0.222 C 
ATOM     13  O11 <0> d   1      19.659  -1.032   4.648  0.00  0.00    -0.273 OA
ATOM     14  H33 <0> d   1      17.217  -2.522   5.805  0.00  0.00     0.163 HD
BRANCH  12  15
ATOM     15  C12 <0> d   1      17.732   0.036   5.493  0.00  0.00     0.141 C 
BRANCH  15  16
ATOM     16  C13 <0> d   1      18.032   0.471   6.905  0.00  0.00    -0.050 A 
ATOM     17  C18 <0> d   1      19.021   1.407   7.143  0.00  0.00     0.007 A 
ATOM     18  C17 <0> d   1      19.294   1.810   8.437  0.00  0.00     0.001 A 
ATOM     19  C16 <0> d   1      18.585   1.270   9.493  0.00  0.00     0.000 A 
ATOM     20  C15 <0> d   1      17.601   0.329   9.256  0.00  0.00     0.001 A 
ATOM     21  C14 <0> d   1      17.324  -0.071   7.961  0.00  0.00     0.007 A 
ENDBRANCH  15  16
ENDBRANCH  12  15
ENDBRANCH   6  11
BRANCH  10  22
ATOM     22  C24 <0> d   1      17.484  -6.965   7.626  0.00  0.00     0.193 C 
ATOM     23  O25 <0> d   1      16.586  -7.284   8.385  0.00  0.00    -0.647 OA
ATOM     24  O26 <0> d   1      18.142  -7.824   7.065  0.00  0.00    -0.647 OA
ENDBRANCH  10  22
TORSDOF 4
ENDMDL
MODEL 2
REMARK VINA RESULT:      -7.6      7.439      9.675
REMARK  4 active torsions:
REMARK  status: ('A' for Active; 'I' for Inactive)
REMARK    1  A    between atoms: C7_6  and  N9_7 
REMARK       I    between atoms: N9_7  and  C10_8 
REMARK    2  A    between atoms: C10_8  and  C12_10 
REMARK    3  A    between atoms: C12_10  and  C13_11 
REMARK    4  A    between atoms: C22_20  and  C24_21 
ROOT
ATOM      1  C1  <0> d   1      17.037  -0.133  16.735  0.00  0.00     0.029 C 
ATOM      2  C2  <0> d   1      18.251   0.168  15.853  0.00  0.00     0.029 C 
ATOM      3  C3  <0> d   1      19.112  -1.080  15.653  0.00  0.00     0.029 C 
ATOM      4  S4  <0> d   1      17.741   0.899  14.240  0.00  0.00    -0.135 SA
ATOM      5  C5  <0> d   1      17.630   2.613  14.879  0.00  0.00     0.160 C 
ATOM      6  C7  <0> d   1      18.574   3.597  14.198  0.00  0.00     0.199 C 
ATOM      7  C19 <0> d   1      19.210   3.615  15.563  0.00  0.00     0.227 C 
ATOM      8  O20 <0> d   1      20.101   4.291  16.030  0.00  0.00    -0.277 OA
ATOM      9  N21 <0> d   1      18.442   2.621  16.103  0.00  0.00    -0.219 NA
ATOM     10  C22 <0> d   1      19.087   1.345  16.424  0.00  0.00     0.186 C 
ENDROOT
BRANCH   6  11
ATOM     11  N9  <0> d   1      19.409   3.008  13.148  0.00  0.00    -0.346 N 
ATOM     12  C10 <0> d   1      19.161   3.288  11.853  0.00  0.00     0.222 C 
ATOM     13  O11 <0> d   1      18.247   4.030  11.558  0.00  0.00    -0.273 OA
ATOM     14  H33 <0> d   1      20.139   2.415  13.385  0.00  0.00     0.163 HD
BRANCH  12  15
ATOM     15  C12 <0> d   1      20.019   2.683  10.774  0.00  0.00     0.141 C 
BRANCH  15  16
ATOM     16  C13 <0> d   1      19.172   1.800   9.893  0.00  0.00    -0.050 A 
ATOM     17  C18 <0> d   1      18.230   0.961  10.458  0.00  0.00     0.007 A 
ATOM     18  C17 <0> d   1      17.450   0.154   9.651  0.00  0.00     0.001 A 
ATOM     19  C16 <0> d   1      17.619   0.179   8.280  0.00  0.00     0.000 A 
ATOM     20  C15 <0> d   1      18.566   1.013   7.714  0.00  0.00     0.001 A 
ATOM     21  C14 <0> d   1      19.343   1.823   8.521  0.00  0.00     0.007 A 
ENDBRANCH  15  16
ENDBRANCH  12  15
ENDBRANCH   6  11
BRANCH  10  22
ATOM     22  C24 <0> d   1      19.207   1.208  17.921  0.00  0.00     0.193 C 
ATOM     23  O25 <0> d   1      19.982   0.397  18.398  0.00  0.00    -0.647 OA
ATOM     24  O26 <0> d   1      18.529   1.907  18.654  0.00  0.00    -0.647 OA
ENDBRANCH  10  22
TORSDOF 4
ENDMDL
MODEL 3
REMARK VINA RESULT:      -7.6      3.405      5.702
REMARK  4 active torsions:
REMARK  status: ('A' for Active; 'I' for Inactive)
REMARK    1  A    between atoms: C7_6  and  N9_7 
REMARK       I    between atoms: N9_7  and  C10_8 
REMARK    2  A    between atoms: C10_8  and  C12_10 
REMARK    3  A    between atoms: C12_10  and  C13_11 
REMARK    4  A    between atoms: C22_20  and  C24_21 
ROOT
ATOM      1  C1  <0> d   1      17.045  -0.102   6.268  0.00  0.00     0.029 C 
ATOM      2  C2  <0> d   1      18.268  -0.335   7.158  0.00  0.00     0.029 C 
ATOM      3  C3  <0> d   1      19.106   0.938   7.289  0.00  0.00     0.029 C 
ATOM      4  S4  <0> d   1      17.779  -0.992   8.809  0.00  0.00    -0.135 SA
ATOM      5  C5  <0> d   1      17.698  -2.738   8.258  0.00  0.00     0.160 C 
ATOM      6  C7  <0> d   1      18.663  -3.668   8.984  0.00  0.00     0.199 C 
ATOM      7  C19 <0> d   1      19.293  -3.744   7.619  0.00  0.00     0.227 C 
ATOM      8  O20 <0> d   1      20.195  -4.426   7.182  0.00  0.00    -0.277 OA
ATOM      9  N21 <0> d   1      18.504  -2.793   7.032  0.00  0.00    -0.219 NA
ATOM     10  C22 <0> d   1      19.124  -1.524   6.643  0.00  0.00     0.186 C 
ENDROOT
BRANCH   6  11
ATOM     11  N9  <0> d   1      19.491  -3.011   9.998  0.00  0.00    -0.346 N 
ATOM     12  C10 <0> d   1      19.198  -3.156  11.305  0.00  0.00     0.222 C 
ATOM     13  O11 <0> d   1      18.248  -3.831  11.642  0.00  0.00    -0.273 OA
ATOM     14  H33 <0> d   1      20.250  -2.471   9.728  0.00  0.00     0.163 HD
BRANCH  12  15
ATOM     15  C12 <0> d   1      20.049  -2.480  12.348  0.00  0.00     0.141 C 
BRANCH  15  16
ATOM     16  C13 <0> d   1      19.197  -1.539  13.162  0.00  0.00    -0.050 A 
ATOM     17  C18 <0> d   1      18.459  -0.556  12.531  0.00  0.00     0.007 A 
ATOM     18  C17 <0> d   1      17.674   0.305  13.276  0.00  0.00     0.001 A 
ATOM     19  C16 <0> d   1      17.636   0.187  14.652  0.00  0.00     0.000 A 
ATOM     20  C15 <0> d   1      18.379  -0.792  15.284  0.00  0.00     0.001 A 
ATOM     21  C14 <0> d   1      19.160  -1.656  14.539  0.00  0.00     0.007 A 
ENDBRANCH  15  16
ENDBRANCH  12  15
ENDBRANCH   6  11
BRANCH  10  22
ATOM     22  C24 <0> d   1      19.235  -1.461   5.140  0.00  0.00     0.193 C 
ATOM     23  O25 <0> d   1      19.980  -0.650   4.618  0.00  0.00    -0.647 OA
ATOM     24  O26 <0> d   1      18.579  -2.220   4.448  0.00  0.00    -0.647 OA
ENDBRANCH  10  22
TORSDOF 4
ENDMDL
MODEL 4
REMARK VINA RESULT:      -7.5      3.059      4.475
REMARK  4 active torsions:
REMARK  status: ('A' for Active; 'I' for Inactive)
REMARK    1  A    between atoms: C7_6  and  N9_7 
REMARK       I    between atoms: N9_7  and  C10_8 
REMARK    2  A    between atoms: C10_8  and  C12_10 
REMARK    3  A    between atoms: C12_10  and  C13_11 
REMARK    4  A    between atoms: C22_20  and  C24_21 
ROOT
ATOM      1  C1  <0> d   1      17.917  -6.955   8.101  0.00  0.00     0.029 C 
ATOM      2  C2  <0> d   1      17.897  -5.428   8.185  0.00  0.00     0.029 C 
ATOM      3  C3  <0> d   1      17.659  -4.802   6.810  0.00  0.00     0.029 C 
ATOM      4  S4  <0> d   1      16.657  -4.840   9.415  0.00  0.00    -0.135 SA
ATOM      5  C5  <0> d   1      17.775  -5.024  10.856  0.00  0.00     0.160 C 
ATOM      6  C7  <0> d   1      18.052  -3.724  11.601  0.00  0.00     0.199 C 
ATOM      7  C19 <0> d   1      19.442  -3.956  11.072  0.00  0.00     0.227 C 
ATOM      8  O20 <0> d   1      20.491  -3.383  11.274  0.00  0.00    -0.277 OA
ATOM      9  N21 <0> d   1      19.131  -5.036  10.292  0.00  0.00    -0.219 NA
ATOM     10  C22 <0> d   1      19.196  -4.880   8.836  0.00  0.00     0.186 C 
ENDROOT
BRANCH   6  11
ATOM     11  N9  <0> d   1      17.379  -2.549  11.043  0.00  0.00    -0.346 N 
ATOM     12  C10 <0> d   1      17.489  -1.354  11.656  0.00  0.00     0.222 C 
ATOM     13  O11 <0> d   1      18.146  -1.251  12.670  0.00  0.00    -0.273 OA
ATOM     14  H33 <0> d   1      16.854  -2.632  10.231  0.00  0.00     0.163 HD
BRANCH  12  15
ATOM     15  C12 <0> d   1      16.797  -0.146  11.081  0.00  0.00     0.141 C 
BRANCH  15  16
ATOM     16  C13 <0> d   1      17.601   0.392   9.924  0.00  0.00    -0.050 A 
ATOM     17  C18 <0> d   1      18.513   1.409  10.131  0.00  0.00     0.007 A 
ATOM     18  C17 <0> d   1      19.253   1.900   9.071  0.00  0.00     0.001 A 
ATOM     19  C16 <0> d   1      19.073   1.380   7.803  0.00  0.00     0.000 A 
ATOM     20  C15 <0> d   1      18.156   0.367   7.595  0.00  0.00     0.001 A 
ATOM     21  C14 <0> d   1      17.419  -0.127   8.655  0.00  0.00     0.007 A 
ENDBRANCH  15  16
ENDBRANCH  12  15
ENDBRANCH   6  11
BRANCH  10  22
ATOM     22  C24 <0> d   1      20.391  -5.632   8.306  0.00  0.00     0.193 C 
ATOM     23  O25 <0> d   1      20.859  -6.559   8.944  0.00  0.00    -0.647 OA
ATOM     24  O26 <0> d   1      20.888  -5.312   7.240  0.00  0.00    -0.647 OA
ENDBRANCH  10  22
TORSDOF 4
ENDMDL
MODEL 5
REMARK VINA RESULT:      -7.3      5.197      6.624
REMARK  4 active torsions:
REMARK  status: ('A' for Active; 'I' for Inactive)
REMARK    1  A    between atoms: C7_6  and  N9_7 
REMARK       I    between atoms: N9_7  and  C10_8 
REMARK    2  A    between atoms: C10_8  and  C12_10 
REMARK    3  A    between atoms: C12_10  and  C13_11 
REMARK    4  A    between atoms: C22_20  and  C24_21 
ROOT
ATOM      1  C1  <0> d   1      19.740  -4.724  10.557  0.00  0.00     0.029 C 
ATOM      2  C2  <0> d   1      18.616  -3.871  11.149  0.00  0.00     0.029 C 
ATOM      3  C3  <0> d   1      17.593  -4.739  11.884  0.00  0.00     0.029 C 
ATOM      4  S4  <0> d   1      19.285  -2.547  12.243  0.00  0.00    -0.135 SA
ATOM      5  C5  <0> d   1      19.617  -1.374  10.874  0.00  0.00     0.160 C 
ATOM      6  C7  <0> d   1      18.849  -0.061  10.977  0.00  0.00     0.199 C 
ATOM      7  C19 <0> d   1      18.172  -0.598   9.744  0.00  0.00     0.227 C 
ATOM      8  O20 <0> d   1      17.370  -0.102   8.982  0.00  0.00    -0.277 OA
ATOM      9  N21 <0> d   1      18.769  -1.828   9.764  0.00  0.00    -0.219 NA
ATOM     10  C22 <0> d   1      17.936  -2.997  10.060  0.00  0.00     0.186 C 
ENDROOT
BRANCH   6  11
ATOM     11  N9  <0> d   1      17.978   0.042  12.150  0.00  0.00    -0.346 N 
ATOM     12  C10 <0> d   1      18.309   0.864  13.165  0.00  0.00     0.222 C 
ATOM     13  O11 <0> d   1      19.328   1.520  13.106  0.00  0.00    -0.273 OA
ATOM     14  H33 <0> d   1      17.163  -0.483  12.197  0.00  0.00     0.163 HD
BRANCH  12  15
ATOM     15  C12 <0> d   1      17.414   0.971  14.372  0.00  0.00     0.141 C 
BRANCH  15  16
ATOM     16  C13 <0> d   1      18.121   0.401  15.575  0.00  0.00    -0.050 A 
ATOM     17  C18 <0> d   1      18.527   1.238  16.598  0.00  0.00     0.007 A 
ATOM     18  C17 <0> d   1      19.173   0.715  17.704  0.00  0.00     0.001 A 
ATOM     19  C16 <0> d   1      19.420  -0.642  17.782  0.00  0.00     0.000 A 
ATOM     20  C15 <0> d   1      19.019  -1.478  16.756  0.00  0.00     0.001 A 
ATOM     21  C14 <0> d   1      18.370  -0.957  15.653  0.00  0.00     0.007 A 
ENDBRANCH  15  16
ENDBRANCH  12  15
ENDBRANCH   6  11
BRANCH  10  22
ATOM     22  C24 <0> d   1      17.742  -3.805   8.802  0.00  0.00     0.193 C 
ATOM     23  O25 <0> d   1      18.428  -3.578   7.821  0.00  0.00    -0.647 OA
ATOM     24  O26 <0> d   1      16.899  -4.684   8.766  0.00  0.00    -0.647 OA
ENDBRANCH  10  22
TORSDOF 4
ENDMDL
MODEL 6
REMARK VINA RESULT:      -7.2      5.326      8.237
REMARK  4 active torsions:
REMARK  status: ('A' for Active; 'I' for Inactive)
REMARK    1  A    between atoms: C7_6  and  N9_7 
REMARK       I    between atoms: N9_7  and  C10_8 
REMARK    2  A    between atoms: C10_8  and  C12_10 
REMARK    3  A    between atoms: C12_10  and  C13_11 
REMARK    4  A    between atoms: C22_20  and  C24_21 
ROOT
ATOM      1  C1  <0> d   1      19.747   4.755  12.348  0.00  0.00     0.029 C 
ATOM      2  C2  <0> d   1      18.628   3.874  11.791  0.00  0.00     0.029 C 
ATOM      3  C3  <0> d   1      17.514   4.721  11.172  0.00  0.00     0.029 C 
ATOM      4  S4  <0> d   1      19.282   2.642  10.587  0.00  0.00    -0.135 SA
ATOM      5  C5  <0> d   1      19.767   1.423  11.867  0.00  0.00     0.160 C 
ATOM      6  C7  <0> d   1      19.059   0.078  11.749  0.00  0.00     0.199 C 
ATOM      7  C19 <0> d   1      18.445   0.518  13.052  0.00  0.00     0.227 C 
ATOM      8  O20 <0> d   1      17.724  -0.055  13.840  0.00  0.00    -0.277 OA
ATOM      9  N21 <0> d   1      18.978   1.778  13.055  0.00  0.00    -0.219 NA
ATOM     10  C22 <0> d   1      18.070   2.914  12.876  0.00  0.00     0.186 C 
ENDROOT
BRANCH   6  11
ATOM     11  N9  <0> d   1      18.114  -0.014  10.634  0.00  0.00    -0.346 N 
ATOM     12  C10 <0> d   1      18.372  -0.838   9.599  0.00  0.00     0.222 C 
ATOM     13  O11 <0> d   1      19.386  -1.503   9.591  0.00  0.00    -0.273 OA
ATOM     14  H33 <0> d   1      17.303   0.518  10.641  0.00  0.00     0.163 HD
BRANCH  12  15
ATOM     15  C12 <0> d   1      17.400  -0.933   8.452  0.00  0.00     0.141 C 
BRANCH  15  16
ATOM     16  C13 <0> d   1      18.103  -0.582   7.165  0.00  0.00    -0.050 A 
ATOM     17  C18 <0> d   1      18.331  -1.559   6.214  0.00  0.00     0.007 A 
ATOM     18  C17 <0> d   1      18.973  -1.237   5.033  0.00  0.00     0.001 A 
ATOM     19  C16 <0> d   1      19.395   0.059   4.807  0.00  0.00     0.000 A 
ATOM     20  C15 <0> d   1      19.173   1.035   5.761  0.00  0.00     0.001 A 
ATOM     21  C14 <0> d   1      18.527   0.715   6.940  0.00  0.00     0.007 A 
ENDBRANCH  15  16
ENDBRANCH  12  15
ENDBRANCH   6  11
BRANCH  10  22
ATOM     22  C24 <0> d   1      17.925   3.650  14.184  0.00  0.00     0.193 C 
ATOM     23  O25 <0> d   1      18.632   3.351  15.132  0.00  0.00    -0.647 OA
ATOM     24  O26 <0> d   1      17.101   4.541  14.295  0.00  0.00    -0.647 OA
ENDBRANCH  10  22
TORSDOF 4
ENDMDL
MODEL 7
REMARK VINA RESULT:      -7.0      9.867     12.893
REMARK  4 active torsions:
REMARK  status: ('A' for Active; 'I' for Inactive)
REMARK    1  A    between atoms: C7_6  and  N9_7 
REMARK       I    between atoms: N9_7  and  C10_8 
REMARK    2  A    between atoms: C10_8  and  C12_10 
REMARK    3  A    between atoms: C12_10  and  C13_11 
REMARK    4  A    between atoms: C22_20  and  C24_21 
ROOT
ATOM      1  C1  <0> d   1      19.899   5.838  15.976  0.00  0.00     0.029 C 
ATOM      2  C2  <0> d   1      18.754   4.833  15.839  0.00  0.00     0.029 C 
ATOM      3  C3  <0> d   1      18.186   4.833  14.418  0.00  0.00     0.029 C 
ATOM      4  S4  <0> d   1      19.281   3.143  16.351  0.00  0.00    -0.135 SA
ATOM      5  C5  <0> d   1      18.978   3.426  18.137  0.00  0.00     0.160 C 
ATOM      6  C7  <0> d   1      17.936   2.496  18.749  0.00  0.00     0.199 C 
ATOM      7  C19 <0> d   1      17.164   3.782  18.881  0.00  0.00     0.227 C 
ATOM      8  O20 <0> d   1      16.111   4.041  19.422  0.00  0.00    -0.277 OA
ATOM      9  N21 <0> d   1      18.052   4.565  18.194  0.00  0.00    -0.219 NA
ATOM     10  C22 <0> d   1      17.643   5.094  16.891  0.00  0.00     0.186 C 
ENDROOT
BRANCH   6  11
ATOM     11  N9  <0> d   1      17.356   1.534  17.810  0.00  0.00    -0.346 N 
ATOM     12  C10 <0> d   1      17.758   0.248  17.828  0.00  0.00     0.222 C 
ATOM     13  O11 <0> d   1      18.600  -0.113  18.622  0.00  0.00    -0.273 OA
ATOM     14  H33 <0> d   1      16.682   1.823  17.174  0.00  0.00     0.163 HD
BRANCH  12  15
ATOM     15  C12 <0> d   1      17.160  -0.742  16.862  0.00  0.00     0.141 C 
BRANCH  15  16
ATOM     16  C13 <0> d   1      17.865  -0.637  15.533  0.00  0.00    -0.050 A 
ATOM     17  C18 <0> d   1      18.982  -1.411  15.281  0.00  0.00     0.007 A 
ATOM     18  C17 <0> d   1      19.627  -1.318  14.061  0.00  0.00     0.001 A 
ATOM     19  C16 <0> d   1      19.160  -0.444  13.098  0.00  0.00     0.000 A 
ATOM     20  C15 <0> d   1      18.047   0.336  13.352  0.00  0.00     0.001 A 
ATOM     21  C14 <0> d   1      17.399   0.239  14.570  0.00  0.00     0.007 A 
ENDBRANCH  15  16
ENDBRANCH  12  15
ENDBRANCH   6  11
BRANCH  10  22
ATOM     22  C24 <0> d   1      17.390   6.576  17.010  0.00  0.00     0.193 C 
ATOM     23  O25 <0> d   1      16.665   7.136  16.206  0.00  0.00    -0.647 OA
ATOM     24  O26 <0> d   1      17.910   7.214  17.909  0.00  0.00    -0.647 OA
ENDBRANCH  10  22
TORSDOF 4
ENDMDL
MODEL 8
REMARK VINA RESULT:      -7.0      1.768      2.830
REMARK  4 active torsions:
REMARK  status: ('A' for Active; 'I' for Inactive)
REMARK    1  A    between atoms: C7_6  and  N9_7 
REMARK       I    between atoms: N9_7  and  C10_8 
REMARK    2  A    between atoms: C10_8  and  C12_10 
REMARK    3  A    between atoms: C12_10  and  C13_11 
REMARK    4  A    between atoms: C22_20  and  C24_21 
ROOT
ATOM      1  C1  <0> d   1      19.480  -3.951  10.884  0.00  0.00     0.029 C 
ATOM      2  C2  <0> d   1      18.482  -3.384   9.872  0.00  0.00     0.029 C 
ATOM      3  C3  <0> d   1      17.801  -2.126  10.414  0.00  0.00     0.029 C 
ATOM      4  S4  <0> d   1      19.286  -3.066   8.245  0.00  0.00    -0.135 SA
ATOM      5  C5  <0> d   1      19.099  -4.787   7.645  0.00  0.00     0.160 C 
ATOM      6  C7  <0> d   1      18.257  -4.921   6.381  0.00  0.00     0.199 C 
ATOM      7  C19 <0> d   1      17.323  -5.632   7.325  0.00  0.00     0.227 C 
ATOM      8  O20 <0> d   1      16.294  -6.243   7.135  0.00  0.00    -0.277 OA
ATOM      9  N21 <0> d   1      18.029  -5.367   8.467  0.00  0.00    -0.219 NA
ATOM     10  C22 <0> d   1      17.438  -4.453   9.448  0.00  0.00     0.186 C 
ENDROOT
BRANCH   6  11
ATOM     11  N9  <0> d   1      17.741  -3.653   5.860  0.00  0.00    -0.346 N 
ATOM     12  C10 <0> d   1      17.719  -3.429   4.531  0.00  0.00     0.222 C 
ATOM     13  O11 <0> d   1      18.126  -4.279   3.767  0.00  0.00    -0.273 OA
ATOM     14  H33 <0> d   1      17.416  -2.974   6.472  0.00  0.00     0.163 HD
BRANCH  12  15
ATOM     15  C12 <0> d   1      17.189  -2.125   3.995  0.00  0.00     0.141 C 
BRANCH  15  16
ATOM     16  C13 <0> d   1      17.773  -0.981   4.784  0.00  0.00    -0.050 A 
ATOM     17  C18 <0> d   1      19.026  -0.492   4.466  0.00  0.00     0.007 A 
ATOM     18  C17 <0> d   1      19.561   0.560   5.187  0.00  0.00     0.001 A 
ATOM     19  C16 <0> d   1      18.847   1.115   6.232  0.00  0.00     0.000 A 
ATOM     20  C15 <0> d   1      17.596   0.621   6.554  0.00  0.00     0.001 A 
ATOM     21  C14 <0> d   1      17.059  -0.428   5.831  0.00  0.00     0.007 A 
ENDBRANCH  15  16
ENDBRANCH  12  15
ENDBRANCH   6  11
BRANCH  10  22
ATOM     22  C24 <0> d   1      16.988  -5.236  10.655  0.00  0.00     0.193 C 
ATOM     23  O25 <0> d   1      17.376  -6.380  10.817  0.00  0.00    -0.647 OA
ATOM     24  O26 <0> d   1      16.235  -4.727  11.467  0.00  0.00    -0.647 OA
ENDBRANCH  10  22
TORSDOF 4
ENDMDL
MODEL 9
REMARK VINA RESULT:      -6.8      3.182      4.524
REMARK  4 active torsions:
REMARK  status: ('A' for Active; 'I' for Inactive)
REMARK    1  A    between atoms: C7_6  and  N9_7 
REMARK       I    between atoms: N9_7  and  C10_8 
REMARK    2  A    between atoms: C10_8  and  C12_10 
REMARK    3  A    between atoms: C12_10  and  C13_11 
REMARK    4  A    between atoms: C22_20  and  C24_21 
ROOT
ATOM      1  C1  <0> d   1      17.763  -5.008   7.006  0.00  0.00     0.029 C 
ATOM      2  C2  <0> d   1      18.758  -3.893   7.334  0.00  0.00     0.029 C 
ATOM      3  C3  <0> d   1      19.630  -3.557   6.123  0.00  0.00     0.029 C 
ATOM      4  S4  <0> d   1      17.898  -2.396   7.979  0.00  0.00    -0.135 SA
ATOM      5  C5  <0> d   1      17.821  -2.999   9.708  0.00  0.00     0.160 C 
ATOM      6  C7  <0> d   1      18.554  -2.117  10.711  0.00  0.00     0.199 C 
ATOM      7  C19 <0> d   1      19.447  -3.325  10.811  0.00  0.00     0.227 C 
ATOM      8  O20 <0> d   1      20.374  -3.586  11.547  0.00  0.00    -0.277 OA
ATOM      9  N21 <0> d   1      18.858  -4.035   9.801  0.00  0.00    -0.219 NA
ATOM     10  C22 <0> d   1      19.624  -4.254   8.571  0.00  0.00     0.186 C 
ENDROOT
BRANCH   6  11
ATOM     11  N9  <0> d   1      19.195  -0.936  10.126  0.00  0.00    -0.346 N 
ATOM     12  C10 <0> d   1      18.545   0.244  10.108  0.00  0.00     0.222 C 
ATOM     13  O11 <0> d   1      17.430   0.329  10.578  0.00  0.00    -0.273 OA
ATOM     14  H33 <0> d   1      20.087  -1.005   9.750  0.00  0.00     0.163 HD
BRANCH  12  15
ATOM     15  C12 <0> d   1      19.204   1.458   9.506  0.00  0.00     0.141 C 
BRANCH  15  16
ATOM     16  C13 <0> d   1      18.935   2.660  10.376  0.00  0.00    -0.050 A 
ATOM     17  C18 <0> d   1      18.002   3.601   9.983  0.00  0.00     0.007 A 
ATOM     18  C17 <0> d   1      17.752   4.702  10.782  0.00  0.00     0.001 A 
ATOM     19  C16 <0> d   1      18.442   4.865  11.967  0.00  0.00     0.000 A 
ATOM     20  C15 <0> d   1      19.379   3.927  12.358  0.00  0.00     0.001 A 
ATOM     21  C14 <0> d   1      19.626   2.824  11.561  0.00  0.00     0.007 A 
ENDBRANCH  15  16
ENDBRANCH  12  15
ENDBRANCH   6  11
BRANCH  10  22
ATOM     22  C24 <0> d   1      20.047  -5.699   8.495  0.00  0.00     0.193 C 
ATOM     23  O25 <0> d   1      19.373  -6.559   9.035  0.00  0.00    -0.647 OA
ATOM     24  O26 <0> d   1      21.063  -6.007   7.896  0.00  0.00    -0.647 OA
ENDBRANCH  10  22
TORSDOF 4
ENDMDL
