MODEL 1
REMARK VINA RESULT:      -8.1      0.000      0.000
REMARK  10 active torsions:
REMARK  status: ('A' for Active; 'I' for Inactive)
REMARK    1  A    between atoms: C2_2  and  O3_3 
REMARK    2  A    between atoms: O3_3  and  C4_4 
REMARK    3  A    between atoms: C4_4  and  C6_6 
REMARK    4  A    between atoms: C6_6  and  C8_7 
REMARK    5  A    between atoms: C6_6  and  N16_15 
REMARK    6  A    between atoms: C8_7  and  C9_8 
REMARK    7  A    between atoms: C9_8  and  C10_9 
REMARK    8  A    between atoms: N16_15  and  C17_16 
REMARK    9  A    between atoms: N27_25  and  C28_26 
REMARK   10  A    between atoms: C28_26  and  C29_27 
ROOT
ATOM      1  C17 ZIN A   1      18.770  -0.781   9.982  0.00  0.00     0.313 C 
ATOM      2  C19 ZIN A   1      17.384  -0.174  10.203  0.00  0.00     0.050 C 
ATOM      3  C20 ZIN A   1      16.732  -0.818  11.428  0.00  0.00     0.043 C 
ATOM      4  C21 ZIN A   1      17.733  -0.948  12.544  0.00  0.00    -0.031 A 
ATOM      5  C22 ZIN A   1      17.700  -0.074  13.613  0.00  0.00     0.009 A 
ATOM      6  C23 ZIN A   1      18.616  -0.205  14.642  0.00  0.00     0.001 A 
ATOM      7  C24 ZIN A   1      19.565  -1.212  14.604  0.00  0.00     0.002 A 
ATOM      8  C25 ZIN A   1      19.605  -2.086  13.536  0.00  0.00     0.030 A 
ATOM      9  C26 ZIN A   1      18.691  -1.950  12.501  0.00  0.00     0.044 A 
ATOM     10  N27 ZIN A   1      18.738  -2.809  11.393  0.00  0.00    -0.306 N 
ATOM     11  C32 ZIN A   1      18.726  -2.273  10.158  0.00  0.00     0.258 C 
ATOM     12  O33 ZIN A   1      18.679  -2.996   9.186  0.00  0.00    -0.271 OA
ENDROOT
BRANCH   1  13
ATOM     13  N16 ZIN A   1      19.225  -0.468   8.622  0.00  0.00     0.111 N 
ATOM     14  H48 ZIN A   1      19.122  -1.265   8.013  0.00  0.00     0.318 HD
BRANCH  13  15
ATOM     15  C6  ZIN A   1      18.513   0.700   8.084  0.00  0.00     0.320 C 
BRANCH  15  16
ATOM     16  C4  ZIN A   1      18.152   0.448   6.643  0.00  0.00     0.292 C 
ATOM     17  O5  ZIN A   1      17.034   0.093   6.353  0.00  0.00    -0.263 OA
BRANCH  16  18
ATOM     18  O3  ZIN A   1      19.074   0.618   5.681  0.00  0.00    -0.320 OA
BRANCH  18  19
ATOM     19  C2  ZIN A   1      18.923  -0.179   4.477  0.00  0.00     0.174 C 
ATOM     20  C1  ZIN A   1      19.276  -1.636   4.783  0.00  0.00     0.034 C 
ENDBRANCH  18  19
ENDBRANCH  16  18
ENDBRANCH  15  16
BRANCH  15  21
ATOM     21  C8  ZIN A   1      19.413   1.934   8.176  0.00  0.00     0.051 C 
BRANCH  21  22
ATOM     22  C9  ZIN A   1      18.574   3.147   8.582  0.00  0.00     0.041 C 
BRANCH  22  23
ATOM     23  C10 ZIN A   1      18.522   3.243  10.084  0.00  0.00    -0.058 A 
ATOM     24  C15 ZIN A   1      17.425   3.816  10.702  0.00  0.00     0.007 A 
ATOM     25  C14 ZIN A   1      17.375   3.900  12.081  0.00  0.00     0.001 A 
ATOM     26  C13 ZIN A   1      18.424   3.419  12.841  0.00  0.00     0.000 A 
ATOM     27  C12 ZIN A   1      19.523   2.851  12.224  0.00  0.00     0.001 A 
ATOM     28  C11 ZIN A   1      19.571   2.763  10.845  0.00  0.00     0.007 A 
ENDBRANCH  22  23
ENDBRANCH  21  22
ENDBRANCH  15  21
ENDBRANCH  13  15
ENDBRANCH   1  13
BRANCH  10  29
ATOM     29  C28 ZIN A   1      18.798  -4.261  11.578  0.00  0.00     0.245 C 
BRANCH  29  30
ATOM     30  C29 ZIN A   1      17.425  -4.782  11.916  0.00  0.00     0.192 C 
ATOM     31  O30 ZIN A   1      16.443  -4.316  11.362  0.00  0.00    -0.647 OA
ATOM     32  O31 ZIN A   1      17.296  -5.668  12.744  0.00  0.00    -0.647 OA
ENDBRANCH  29  30
ENDBRANCH  10  29
TORSDOF 10
ENDMDL
MODEL 2
REMARK VINA RESULT:      -7.9      2.298      5.986
REMARK  10 active torsions:
REMARK  status: ('A' for Active; 'I' for Inactive)
REMARK    1  A    between atoms: C2_2  and  O3_3 
REMARK    2  A    between atoms: O3_3  and  C4_4 
REMARK    3  A    between atoms: C4_4  and  C6_6 
REMARK    4  A    between atoms: C6_6  and  C8_7 
REMARK    5  A    between atoms: C6_6  and  N16_15 
REMARK    6  A    between atoms: C8_7  and  C9_8 
REMARK    7  A    between atoms: C9_8  and  C10_9 
REMARK    8  A    between atoms: N16_15  and  C17_16 
REMARK    9  A    between atoms: N27_25  and  C28_26 
REMARK   10  A    between atoms: C28_26  and  C29_27 
ROOT
ATOM      1  C17 ZIN A   1      18.183  -0.564  11.744  0.00  0.00     0.313 C 
ATOM      2  C19 ZIN A   1      19.668  -0.200  11.773  0.00  0.00     0.050 C 
ATOM      3  C20 ZIN A   1      20.320  -0.599  10.447  0.00  0.00     0.043 C 
ATOM      4  C21 ZIN A   1      19.428  -0.223   9.294  0.00  0.00    -0.031 A 
ATOM      5  C22 ZIN A   1      19.717   0.886   8.523  0.00  0.00     0.009 A 
ATOM      6  C23 ZIN A   1      18.900   1.219   7.458  0.00  0.00     0.001 A 
ATOM      7  C24 ZIN A   1      17.794   0.444   7.160  0.00  0.00     0.002 A 
ATOM      8  C25 ZIN A   1      17.498  -0.664   7.930  0.00  0.00     0.030 A 
ATOM      9  C26 ZIN A   1      18.313  -0.995   9.002  0.00  0.00     0.044 A 
ATOM     10  N27 ZIN A   1      18.009  -2.097   9.814  0.00  0.00    -0.306 N 
ATOM     11  C32 ZIN A   1      17.989  -1.931  11.150  0.00  0.00     0.258 C 
ATOM     12  O33 ZIN A   1      17.812  -2.887  11.875  0.00  0.00    -0.271 OA
ENDROOT
BRANCH   1  13
ATOM     13  N16 ZIN A   1      17.655  -0.552  13.114  0.00  0.00     0.111 N 
ATOM     14  H48 ZIN A   1      17.567  -1.489  13.476  0.00  0.00     0.318 HD
BRANCH  13  15
ATOM     15  C6  ZIN A   1      18.492   0.275  13.994  0.00  0.00     0.320 C 
BRANCH  15  16
ATOM     16  C4  ZIN A   1      18.689  -0.432  15.310  0.00  0.00     0.292 C 
ATOM     17  O5  ZIN A   1      19.370  -1.428  15.364  0.00  0.00    -0.263 OA
BRANCH  16  18
ATOM     18  O3  ZIN A   1      18.109   0.047  16.422  0.00  0.00    -0.320 OA
BRANCH  18  19
ATOM     19  C2  ZIN A   1      18.810  -0.168  17.676  0.00  0.00     0.174 C 
ATOM     20  C1  ZIN A   1      19.185   1.183  18.288  0.00  0.00     0.034 C 
ENDBRANCH  18  19
ENDBRANCH  16  18
ENDBRANCH  15  16
BRANCH  15  21
ATOM     21  C8  ZIN A   1      17.803   1.620  14.236  0.00  0.00     0.051 C 
BRANCH  21  22
ATOM     22  C9  ZIN A   1      18.747   2.756  13.836  0.00  0.00     0.041 C 
BRANCH  22  23
ATOM     23  C10 ZIN A   1      18.180   3.485  12.646  0.00  0.00    -0.058 A 
ATOM     24  C15 ZIN A   1      17.264   4.505  12.833  0.00  0.00     0.007 A 
ATOM     25  C14 ZIN A   1      16.747   5.177  11.741  0.00  0.00     0.001 A 
ATOM     26  C13 ZIN A   1      17.138   4.825  10.464  0.00  0.00     0.000 A 
ATOM     27  C12 ZIN A   1      18.049   3.802  10.276  0.00  0.00     0.001 A 
ATOM     28  C11 ZIN A   1      18.569   3.133  11.368  0.00  0.00     0.007 A 
ENDBRANCH  22  23
ENDBRANCH  21  22
ENDBRANCH  15  21
ENDBRANCH  13  15
ENDBRANCH   1  13
BRANCH  10  29
ATOM     29  C28 ZIN A   1      17.719  -3.404   9.219  0.00  0.00     0.245 C 
BRANCH  29  30
ATOM     30  C29 ZIN A   1      19.010  -4.073   8.823  0.00  0.00     0.192 C 
ATOM     31  O30 ZIN A   1      19.390  -4.028   7.665  0.00  0.00    -0.647 OA
ATOM     32  O31 ZIN A   1      19.674  -4.661   9.661  0.00  0.00    -0.647 OA
ENDBRANCH  29  30
ENDBRANCH  10  29
TORSDOF 10
ENDMDL
MODEL 3
REMARK VINA RESULT:      -7.8      3.735      5.550
REMARK  10 active torsions:
REMARK  status: ('A' for Active; 'I' for Inactive)
REMARK    1  A    between atoms: C2_2  and  O3_3 
REMARK    2  A    between atoms: O3_3  and  C4_4 
REMARK    3  A    between atoms: C4_4  and  C6_6 
REMARK    4  A    between atoms: C6_6  and  C8_7 
REMARK    5  A    between atoms: C6_6  and  N16_15 
REMARK    6  A    between atoms: C8_7  and  C9_8 
REMARK    7  A    between atoms: C9_8  and  C10_9 
REMARK    8  A    between atoms: N16_15  and  C17_16 
REMARK    9  A    between atoms: N27_25  and  C28_26 
REMARK   10  A    between atoms: C28_26  and  C29_27 
ROOT
ATOM      1  C17 ZIN A   1      18.138   1.435  12.758  0.00  0.00     0.313 C 
ATOM      2  C19 ZIN A   1      19.477   0.725  12.557  0.00  0.00     0.050 C 
ATOM      3  C20 ZIN A   1      20.140   0.489  13.916  0.00  0.00     0.043 C 
ATOM      4  C21 ZIN A   1      19.122   0.007  14.916  0.00  0.00    -0.031 A 
ATOM      5  C22 ZIN A   1      19.074  -1.327  15.272  0.00  0.00     0.009 A 
ATOM      6  C23 ZIN A   1      18.144  -1.761  16.200  0.00  0.00     0.001 A 
ATOM      7  C24 ZIN A   1      17.262  -0.863  16.774  0.00  0.00     0.002 A 
ATOM      8  C25 ZIN A   1      17.303   0.472  16.419  0.00  0.00     0.030 A 
ATOM      9  C26 ZIN A   1      18.231   0.906  15.483  0.00  0.00     0.044 A 
ATOM     10  N27 ZIN A   1      18.265   2.250  15.086  0.00  0.00    -0.306 N 
ATOM     11  C32 ZIN A   1      18.273   2.537  13.771  0.00  0.00     0.258 C 
ATOM     12  O33 ZIN A   1      18.388   3.687  13.404  0.00  0.00    -0.271 OA
ENDROOT
BRANCH   1  13
ATOM     13  N16 ZIN A   1      17.696   2.006  11.478  0.00  0.00     0.111 N 
ATOM     14  H48 ZIN A   1      17.963   2.975  11.403  0.00  0.00     0.318 HD
BRANCH  13  15
ATOM     15  C6  ZIN A   1      18.219   1.228  10.347  0.00  0.00     0.320 C 
BRANCH  15  16
ATOM     16  C4  ZIN A   1      18.763   2.166   9.300  0.00  0.00     0.292 C 
ATOM     17  O5  ZIN A   1      18.572   3.355   9.398  0.00  0.00    -0.263 OA
BRANCH  16  18
ATOM     18  O3  ZIN A   1      19.459   1.680   8.260  0.00  0.00    -0.320 OA
BRANCH  18  19
ATOM     19  C2  ZIN A   1      18.911   1.912   6.935  0.00  0.00     0.174 C 
ATOM     20  C1  ZIN A   1      19.070   0.647   6.090  0.00  0.00     0.034 C 
ENDBRANCH  18  19
ENDBRANCH  16  18
ENDBRANCH  15  16
BRANCH  15  21
ATOM     21  C8  ZIN A   1      17.093   0.387   9.742  0.00  0.00     0.051 C 
BRANCH  21  22
ATOM     22  C9  ZIN A   1      17.679  -0.887   9.131  0.00  0.00     0.041 C 
BRANCH  22  23
ATOM     23  C10 ZIN A   1      18.237  -1.759  10.226  0.00  0.00    -0.058 A 
ATOM     24  C15 ZIN A   1      17.428  -2.151  11.277  0.00  0.00     0.007 A 
ATOM     25  C14 ZIN A   1      17.939  -2.954  12.279  0.00  0.00     0.001 A 
ATOM     26  C13 ZIN A   1      19.259  -3.357  12.236  0.00  0.00     0.000 A 
ATOM     27  C12 ZIN A   1      20.070  -2.961  11.188  0.00  0.00     0.001 A 
ATOM     28  C11 ZIN A   1      19.558  -2.162  10.184  0.00  0.00     0.007 A 
ENDBRANCH  22  23
ENDBRANCH  21  22
ENDBRANCH  15  21
ENDBRANCH  13  15
ENDBRANCH   1  13
BRANCH  10  29
ATOM     29  C28 ZIN A   1      18.292   3.322  16.085  0.00  0.00     0.245 C 
BRANCH  29  30
ATOM     30  C29 ZIN A   1      19.612   3.296  16.814  0.00  0.00     0.192 C 
ATOM     31  O30 ZIN A   1      20.541   3.978  16.416  0.00  0.00    -0.647 OA
ATOM     32  O31 ZIN A   1      19.750   2.592  17.800  0.00  0.00    -0.647 OA
ENDBRANCH  29  30
ENDBRANCH  10  29
TORSDOF 10
ENDMDL
MODEL 4
REMARK VINA RESULT:      -7.8      2.390      5.573
REMARK  10 active torsions:
REMARK  status: ('A' for Active; 'I' for Inactive)
REMARK    1  A    between atoms: C2_2  and  O3_3 
REMARK    2  A    between atoms: O3_3  and  C4_4 
REMARK    3  A    between atoms: C4_4  and  C6_6 
REMARK    4  A    between atoms: C6_6  and  C8_7 
REMARK    5  A    between atoms: C6_6  and  N16_15 
REMARK    6  A    between atoms: C8_7  and  C9_8 
REMARK    7  A    between atoms: C9_8  and  C10_9 
REMARK    8  A    between atoms: N16_15  and  C17_16 
REMARK    9  A    between atoms: N27_25  and  C28_26 
REMARK   10  A    between atoms: C28_26  and  C29_27 
ROOT
ATOM      1  C17 ZIN A   1      19.161  -1.690  10.724  0.00  0.00     0.313 C 
ATOM      2  C19 ZIN A   1      17.658  -1.634  10.448  0.00  0.00     0.050 C 
ATOM      3  C20 ZIN A   1      17.042  -0.454  11.203  0.00  0.00     0.043 C 
ATOM      4  C21 ZIN A   1      17.922   0.761  11.079  0.00  0.00    -0.031 A 
ATOM      5  C22 ZIN A   1      17.579   1.784  10.216  0.00  0.00     0.009 A 
ATOM      6  C23 ZIN A   1      18.386   2.903  10.116  0.00  0.00     0.001 A 
ATOM      7  C24 ZIN A   1      19.537   3.002  10.878  0.00  0.00     0.002 A 
ATOM      8  C25 ZIN A   1      19.887   1.980  11.739  0.00  0.00     0.030 A 
ATOM      9  C26 ZIN A   1      19.081   0.855  11.835  0.00  0.00     0.044 A 
ATOM     10  N27 ZIN A   1      19.439  -0.206  12.680  0.00  0.00    -0.306 N 
ATOM     11  C32 ZIN A   1      19.437  -1.457  12.183  0.00  0.00     0.258 C 
ATOM     12  O33 ZIN A   1      19.659  -2.398  12.915  0.00  0.00    -0.271 OA
ENDROOT
BRANCH   1  13
ATOM     13  N16 ZIN A   1      19.675  -3.010  10.339  0.00  0.00     0.111 N 
ATOM     14  H48 ZIN A   1      19.730  -3.624  11.137  0.00  0.00     0.318 HD
BRANCH  13  15
ATOM     15  C6  ZIN A   1      18.855  -3.605   9.275  0.00  0.00     0.320 C 
BRANCH  15  16
ATOM     16  C4  ZIN A   1      18.775  -5.097   9.476  0.00  0.00     0.292 C 
ATOM     17  O5  ZIN A   1      19.780  -5.766   9.439  0.00  0.00    -0.263 OA
BRANCH  16  18
ATOM     18  O3  ZIN A   1      17.586  -5.681   9.697  0.00  0.00    -0.320 OA
BRANCH  18  19
ATOM     19  C2  ZIN A   1      16.760  -5.117  10.750  0.00  0.00     0.174 C 
ATOM     20  C1  ZIN A   1      17.419  -5.375  12.107  0.00  0.00     0.034 C 
ENDBRANCH  18  19
ENDBRANCH  16  18
ENDBRANCH  15  16
BRANCH  15  21
ATOM     21  C8  ZIN A   1      19.489  -3.307   7.915  0.00  0.00     0.051 C 
BRANCH  21  22
ATOM     22  C9  ZIN A   1      18.402  -2.875   6.929  0.00  0.00     0.041 C 
BRANCH  22  23
ATOM     23  C10 ZIN A   1      18.686  -1.475   6.450  0.00  0.00    -0.058 A 
ATOM     24  C15 ZIN A   1      19.072  -1.257   5.140  0.00  0.00     0.007 A 
ATOM     25  C14 ZIN A   1      19.329   0.027   4.700  0.00  0.00     0.001 A 
ATOM     26  C13 ZIN A   1      19.207   1.094   5.571  0.00  0.00     0.000 A 
ATOM     27  C12 ZIN A   1      18.825   0.876   6.882  0.00  0.00     0.001 A 
ATOM     28  C11 ZIN A   1      18.565  -0.408   7.321  0.00  0.00     0.007 A 
ENDBRANCH  22  23
ENDBRANCH  21  22
ENDBRANCH  15  21
ENDBRANCH  13  15
ENDBRANCH   1  13
BRANCH  10  29
ATOM     29  C28 ZIN A   1      19.807   0.044  14.076  0.00  0.00     0.245 C 
BRANCH  29  30
ATOM     30  C29 ZIN A   1      18.581   0.451  14.853  0.00  0.00     0.192 C 
ATOM     31  O30 ZIN A   1      18.506   1.570  15.332  0.00  0.00    -0.647 OA
ATOM     32  O31 ZIN A   1      17.665  -0.340  15.003  0.00  0.00    -0.647 OA
ENDBRANCH  29  30
ENDBRANCH  10  29
TORSDOF 10
ENDMDL
MODEL 5
REMARK VINA RESULT:      -7.7      2.893      5.443
REMARK  10 active torsions:
REMARK  status: ('A' for Active; 'I' for Inactive)
REMARK    1  A    between atoms: C2_2  and  O3_3 
REMARK    2  A    between atoms: O3_3  and  C4_4 
REMARK    3  A    between atoms: C4_4  and  C6_6 
REMARK    4  A    between atoms: C6_6  and  C8_7 
REMARK    5  A    between atoms: C6_6  and  N16_15 
REMARK    6  A    between atoms: C8_7  and  C9_8 
REMARK    7  A    between atoms: C9_8  and  C10_9 
REMARK    8  A    between atoms: N16_15  and  C17_16 
REMARK    9  A    between atoms: N27_25  and  C28_26 
REMARK   10  A    between atoms: C28_26  and  C29_27 
ROOT
ATOM      1  C17 ZIN A   1      18.058   0.455  10.893  0.00  0.00     0.313 C 
ATOM      2  C19 ZIN A   1      19.540   0.084  10.846  0.00  0.00     0.050 C 
ATOM      3  C20 ZIN A   1      20.221   0.531  12.142  0.00  0.00     0.043 C 
ATOM      4  C21 ZIN A   1      19.354   0.202  13.327  0.00  0.00    -0.031 A 
ATOM      5  C22 ZIN A   1      19.656  -0.878  14.133  0.00  0.00     0.009 A 
ATOM      6  C23 ZIN A   1      18.861  -1.168  15.228  0.00  0.00     0.001 A 
ATOM      7  C24 ZIN A   1      17.764  -0.377  15.520  0.00  0.00     0.002 A 
ATOM      8  C25 ZIN A   1      17.454   0.702  14.715  0.00  0.00     0.030 A 
ATOM      9  C26 ZIN A   1      18.248   0.989  13.613  0.00  0.00     0.044 A 
ATOM     10  N27 ZIN A   1      17.929   2.060  12.767  0.00  0.00    -0.306 N 
ATOM     11  C32 ZIN A   1      17.879   1.844  11.439  0.00  0.00     0.258 C 
ATOM     12  O33 ZIN A   1      17.690   2.772  10.682  0.00  0.00    -0.271 OA
ENDROOT
BRANCH   1  13
ATOM     13  N16 ZIN A   1      17.500   0.393   9.536  0.00  0.00     0.111 N 
ATOM     14  H48 ZIN A   1      17.213   1.307   9.221  0.00  0.00     0.318 HD
BRANCH  13  15
ATOM     15  C6  ZIN A   1      18.459  -0.209   8.600  0.00  0.00     0.320 C 
BRANCH  15  16
ATOM     16  C4  ZIN A   1      18.694   0.733   7.447  0.00  0.00     0.292 C 
ATOM     17  O5  ZIN A   1      19.288   1.770   7.626  0.00  0.00    -0.263 OA
BRANCH  16  18
ATOM     18  O3  ZIN A   1      18.244   0.419   6.222  0.00  0.00    -0.320 OA
BRANCH  18  19
ATOM     19  C2  ZIN A   1      19.237   0.284   5.170  0.00  0.00     0.174 C 
ATOM     20  C1  ZIN A   1      19.174  -1.130   4.589  0.00  0.00     0.034 C 
ENDBRANCH  18  19
ENDBRANCH  16  18
ENDBRANCH  15  16
BRANCH  15  21
ATOM     21  C8  ZIN A   1      17.896  -1.530   8.072  0.00  0.00     0.051 C 
BRANCH  21  22
ATOM     22  C9  ZIN A   1      18.887  -2.659   8.363  0.00  0.00     0.041 C 
BRANCH  22  23
ATOM     23  C10 ZIN A   1      18.429  -3.431   9.573  0.00  0.00    -0.058 A 
ATOM     24  C15 ZIN A   1      19.178  -3.402  10.736  0.00  0.00     0.007 A 
ATOM     25  C14 ZIN A   1      18.756  -4.107  11.847  0.00  0.00     0.001 A 
ATOM     26  C13 ZIN A   1      17.589  -4.846  11.794  0.00  0.00     0.000 A 
ATOM     27  C12 ZIN A   1      16.843  -4.879  10.632  0.00  0.00     0.001 A 
ATOM     28  C11 ZIN A   1      17.263  -4.171   9.521  0.00  0.00     0.007 A 
ENDBRANCH  22  23
ENDBRANCH  21  22
ENDBRANCH  15  21
ENDBRANCH  13  15
ENDBRANCH   1  13
BRANCH  10  29
ATOM     29  C28 ZIN A   1      17.655   3.390  13.319  0.00  0.00     0.245 C 
BRANCH  29  30
ATOM     30  C29 ZIN A   1      18.953   4.047  13.711  0.00  0.00     0.192 C 
ATOM     31  O30 ZIN A   1      19.270   4.117  14.887  0.00  0.00    -0.647 OA
ATOM     32  O31 ZIN A   1      19.686   4.510  12.853  0.00  0.00    -0.647 OA
ENDBRANCH  29  30
ENDBRANCH  10  29
TORSDOF 10
ENDMDL
MODEL 6
REMARK VINA RESULT:      -7.6      3.232      6.261
REMARK  10 active torsions:
REMARK  status: ('A' for Active; 'I' for Inactive)
REMARK    1  A    between atoms: C2_2  and  O3_3 
REMARK    2  A    between atoms: O3_3  and  C4_4 
REMARK    3  A    between atoms: C4_4  and  C6_6 
REMARK    4  A    between atoms: C6_6  and  C8_7 
REMARK    5  A    between atoms: C6_6  and  N16_15 
REMARK    6  A    between atoms: C8_7  and  C9_8 
REMARK    7  A    between atoms: C9_8  and  C10_9 
REMARK    8  A    between atoms: N16_15  and  C17_16 
REMARK    9  A    between atoms: N27_25  and  C28_26 
REMARK   10  A    between atoms: C28_26  and  C29_27 
ROOT
ATOM      1  C17 ZIN A   1      18.905   1.562  12.444  0.00  0.00     0.313 C 
ATOM      2  C19 ZIN A   1      17.398   1.361  12.609  0.00  0.00     0.050 C 
ATOM      3  C20 ZIN A   1      16.922   0.260  11.658  0.00  0.00     0.043 C 
ATOM      4  C21 ZIN A   1      17.888  -0.894  11.672  0.00  0.00    -0.031 A 
ATOM      5  C22 ZIN A   1      17.579  -2.052  12.359  0.00  0.00     0.009 A 
ATOM      6  C23 ZIN A   1      18.466  -3.114  12.358  0.00  0.00     0.001 A 
ATOM      7  C24 ZIN A   1      19.661  -3.021  11.669  0.00  0.00     0.002 A 
ATOM      8  C25 ZIN A   1      19.977  -1.864  10.983  0.00  0.00     0.030 A 
ATOM      9  C26 ZIN A   1      19.091  -0.797  10.989  0.00  0.00     0.044 A 
ATOM     10  N27 ZIN A   1      19.410   0.396  10.326  0.00  0.00    -0.306 N 
ATOM     11  C32 ZIN A   1      19.281   1.561  10.989  0.00  0.00     0.258 C 
ATOM     12  O33 ZIN A   1      19.468   2.610  10.411  0.00  0.00    -0.271 OA
ENDROOT
BRANCH   1  13
ATOM     13  N16 ZIN A   1      19.289   2.847  13.042  0.00  0.00     0.111 N 
ATOM     14  H48 ZIN A   1      19.181   3.601  12.381  0.00  0.00     0.318 HD
BRANCH  13  15
ATOM     15  C6  ZIN A   1      18.522   3.109  14.267  0.00  0.00     0.320 C 
BRANCH  15  16
ATOM     16  C4  ZIN A   1      18.032   4.534  14.259  0.00  0.00     0.292 C 
ATOM     17  O5  ZIN A   1      18.700   5.405  14.764  0.00  0.00    -0.263 OA
BRANCH  16  18
ATOM     18  O3  ZIN A   1      16.854   4.835  13.689  0.00  0.00    -0.320 OA
BRANCH  18  19
ATOM     19  C2  ZIN A   1      16.893   5.657  12.492  0.00  0.00     0.174 C 
ATOM     20  C1  ZIN A   1      16.750   4.764  11.257  0.00  0.00     0.034 C 
ENDBRANCH  18  19
ENDBRANCH  16  18
ENDBRANCH  15  16
BRANCH  15  21
ATOM     21  C8  ZIN A   1      19.417   2.884  15.488  0.00  0.00     0.051 C 
BRANCH  21  22
ATOM     22  C9  ZIN A   1      18.574   2.347  16.646  0.00  0.00     0.041 C 
BRANCH  22  23
ATOM     23  C10 ZIN A   1      18.354   0.867  16.464  0.00  0.00    -0.058 A 
ATOM     24  C15 ZIN A   1      17.259   0.255  17.045  0.00  0.00     0.007 A 
ATOM     25  C14 ZIN A   1      17.055  -1.101  16.874  0.00  0.00     0.001 A 
ATOM     26  C13 ZIN A   1      17.950  -1.846  16.130  0.00  0.00     0.000 A 
ATOM     27  C12 ZIN A   1      19.048  -1.236  15.553  0.00  0.00     0.001 A 
ATOM     28  C11 ZIN A   1      19.249   0.121  15.720  0.00  0.00     0.007 A 
ENDBRANCH  22  23
ENDBRANCH  21  22
ENDBRANCH  15  21
ENDBRANCH  13  15
ENDBRANCH   1  13
BRANCH  10  29
ATOM     29  C28 ZIN A   1      19.875   0.375   8.937  0.00  0.00     0.245 C 
BRANCH  29  30
ATOM     30  C29 ZIN A   1      18.739   0.751   8.021  0.00  0.00     0.192 C 
ATOM     31  O30 ZIN A   1      17.646   0.227   8.159  0.00  0.00    -0.647 OA
ATOM     32  O31 ZIN A   1      18.912   1.579   7.142  0.00  0.00    -0.647 OA
ENDBRANCH  29  30
ENDBRANCH  10  29
TORSDOF 10
ENDMDL
MODEL 7
REMARK VINA RESULT:      -7.6      2.680      4.658
REMARK  10 active torsions:
REMARK  status: ('A' for Active; 'I' for Inactive)
REMARK    1  A    between atoms: C2_2  and  O3_3 
REMARK    2  A    between atoms: O3_3  and  C4_4 
REMARK    3  A    between atoms: C4_4  and  C6_6 
REMARK    4  A    between atoms: C6_6  and  C8_7 
REMARK    5  A    between atoms: C6_6  and  N16_15 
REMARK    6  A    between atoms: C8_7  and  C9_8 
REMARK    7  A    between atoms: C9_8  and  C10_9 
REMARK    8  A    between atoms: N16_15  and  C17_16 
REMARK    9  A    between atoms: N27_25  and  C28_26 
REMARK   10  A    between atoms: C28_26  and  C29_27 
ROOT
ATOM      1  C17 ZIN A   1      18.942  -3.625   7.673  0.00  0.00     0.313 C 
ATOM      2  C19 ZIN A   1      19.967  -4.754   7.554  0.00  0.00     0.050 C 
ATOM      3  C20 ZIN A   1      19.534  -5.933   8.427  0.00  0.00     0.043 C 
ATOM      4  C21 ZIN A   1      18.056  -6.178   8.277  0.00  0.00    -0.031 A 
ATOM      5  C22 ZIN A   1      17.600  -7.231   7.508  0.00  0.00     0.009 A 
ATOM      6  C23 ZIN A   1      16.241  -7.458   7.383  0.00  0.00     0.001 A 
ATOM      7  C24 ZIN A   1      15.336  -6.634   8.028  0.00  0.00     0.002 A 
ATOM      8  C25 ZIN A   1      15.786  -5.577   8.795  0.00  0.00     0.030 A 
ATOM      9  C26 ZIN A   1      17.149  -5.346   8.915  0.00  0.00     0.044 A 
ATOM     10  N27 ZIN A   1      17.622  -4.258   9.663  0.00  0.00    -0.306 N 
ATOM     11  C32 ZIN A   1      18.531  -3.436   9.106  0.00  0.00     0.258 C 
ATOM     12  O33 ZIN A   1      19.018  -2.540   9.762  0.00  0.00    -0.271 OA
ENDROOT
BRANCH   1  13
ATOM     13  N16 ZIN A   1      19.534  -2.379   7.170  0.00  0.00     0.111 N 
ATOM     14  H48 ZIN A   1      20.422  -2.553   6.725  0.00  0.00     0.318 HD
BRANCH  13  15
ATOM     15  C6  ZIN A   1      18.613  -1.691   6.254  0.00  0.00     0.320 C 
BRANCH  15  16
ATOM     16  C4  ZIN A   1      19.179  -1.721   4.857  0.00  0.00     0.292 C 
ATOM     17  O5  ZIN A   1      19.993  -0.895   4.518  0.00  0.00    -0.263 OA
BRANCH  16  18
ATOM     18  O3  ZIN A   1      18.778  -2.665   3.991  0.00  0.00    -0.320 OA
BRANCH  18  19
ATOM     19  C2  ZIN A   1      17.508  -3.314   4.266  0.00  0.00     0.174 C 
ATOM     20  C1  ZIN A   1      17.736  -4.814   4.468  0.00  0.00     0.034 C 
ENDBRANCH  18  19
ENDBRANCH  16  18
ENDBRANCH  15  16
BRANCH  15  21
ATOM     21  C8  ZIN A   1      18.437  -0.239   6.703  0.00  0.00     0.051 C 
BRANCH  21  22
ATOM     22  C9  ZIN A   1      17.327  -0.160   7.752  0.00  0.00     0.041 C 
BRANCH  22  23
ATOM     23  C10 ZIN A   1      17.788   0.689   8.908  0.00  0.00    -0.058 A 
ATOM     24  C15 ZIN A   1      18.769   1.644   8.717  0.00  0.00     0.007 A 
ATOM     25  C14 ZIN A   1      19.189   2.425   9.777  0.00  0.00     0.001 A 
ATOM     26  C13 ZIN A   1      18.634   2.246  11.029  0.00  0.00     0.000 A 
ATOM     27  C12 ZIN A   1      17.657   1.287  11.223  0.00  0.00     0.001 A 
ATOM     28  C11 ZIN A   1      17.234   0.509  10.162  0.00  0.00     0.007 A 
ENDBRANCH  22  23
ENDBRANCH  21  22
ENDBRANCH  15  21
ENDBRANCH  13  15
ENDBRANCH   1  13
BRANCH  10  29
ATOM     29  C28 ZIN A   1      17.137  -4.023  11.025  0.00  0.00     0.245 C 
BRANCH  29  30
ATOM     30  C29 ZIN A   1      17.849  -4.948  11.979  0.00  0.00     0.192 C 
ATOM     31  O30 ZIN A   1      17.206  -5.685  12.707  0.00  0.00    -0.647 OA
ATOM     32  O31 ZIN A   1      19.068  -4.958  12.023  0.00  0.00    -0.647 OA
ENDBRANCH  29  30
ENDBRANCH  10  29
TORSDOF 10
ENDMDL
MODEL 8
REMARK VINA RESULT:      -7.3      2.571      5.985
REMARK  10 active torsions:
REMARK  status: ('A' for Active; 'I' for Inactive)
REMARK    1  A    between atoms: C2_2  and  O3_3 
REMARK    2  A    between atoms: O3_3  and  C4_4 
REMARK    3  A    between atoms: C4_4  and  C6_6 
REMARK    4  A    between atoms: C6_6  and  C8_7 
REMARK    5  A    between atoms: C6_6  and  N16_15 
REMARK    6  A    between atoms: C8_7  and  C9_8 
REMARK    7  A    between atoms: C9_8  and  C10_9 
REMARK    8  A    between atoms: N16_15  and  C17_16 
REMARK    9  A    between atoms: N27_25  and  C28_26 
REMARK   10  A    between atoms: C28_26  and  C29_27 
ROOT
ATOM      1  C17 ZIN A   1      19.514  -0.992   9.507  0.00  0.00     0.313 C 
ATOM      2  C19 ZIN A   1      18.559  -1.696  10.471  0.00  0.00     0.050 C 
ATOM      3  C20 ZIN A   1      17.779  -2.778   9.720  0.00  0.00     0.043 C 
ATOM      4  C21 ZIN A   1      18.698  -3.544   8.806  0.00  0.00    -0.031 A 
ATOM      5  C22 ZIN A   1      19.131  -4.808   9.155  0.00  0.00     0.009 A 
ATOM      6  C23 ZIN A   1      19.966  -5.511   8.305  0.00  0.00     0.001 A 
ATOM      7  C24 ZIN A   1      20.368  -4.953   7.105  0.00  0.00     0.002 A 
ATOM      8  C25 ZIN A   1      19.940  -3.687   6.753  0.00  0.00     0.030 A 
ATOM      9  C26 ZIN A   1      19.108  -2.979   7.608  0.00  0.00     0.044 A 
ATOM     10  N27 ZIN A   1      18.692  -1.681   7.281  0.00  0.00    -0.306 N 
ATOM     11  C32 ZIN A   1      18.829  -0.706   8.200  0.00  0.00     0.258 C 
ATOM     12  O33 ZIN A   1      18.398   0.404   7.972  0.00  0.00    -0.271 OA
ENDROOT
BRANCH   1  13
ATOM     13  N16 ZIN A   1      19.962   0.272  10.105  0.00  0.00     0.111 N 
ATOM     14  H48 ZIN A   1      19.954   1.017   9.425  0.00  0.00     0.318 HD
BRANCH  13  15
ATOM     15  C6  ZIN A   1      19.143   0.619  11.274  0.00  0.00     0.320 C 
BRANCH  15  16
ATOM     16  C4  ZIN A   1      18.315   1.840  10.963  0.00  0.00     0.292 C 
ATOM     17  O5  ZIN A   1      17.109   1.768  10.960  0.00  0.00    -0.263 OA
BRANCH  16  18
ATOM     18  O3  ZIN A   1      18.919   3.008  10.691  0.00  0.00    -0.320 OA
BRANCH  18  19
ATOM     19  C2  ZIN A   1      18.096   4.204  10.747  0.00  0.00     0.174 C 
ATOM     20  C1  ZIN A   1      18.216   4.839  12.134  0.00  0.00     0.034 C 
ENDBRANCH  18  19
ENDBRANCH  16  18
ENDBRANCH  15  16
BRANCH  15  21
ATOM     21  C8  ZIN A   1      20.055   0.913  12.467  0.00  0.00     0.051 C 
BRANCH  21  22
ATOM     22  C9  ZIN A   1      19.235   1.542  13.595  0.00  0.00     0.041 C 
BRANCH  22  23
ATOM     23  C10 ZIN A   1      18.814   0.471  14.568  0.00  0.00    -0.058 A 
ATOM     24  C15 ZIN A   1      19.523  -0.715  14.639  0.00  0.00     0.007 A 
ATOM     25  C14 ZIN A   1      19.140  -1.695  15.535  0.00  0.00     0.001 A 
ATOM     26  C13 ZIN A   1      18.045  -1.493  16.354  0.00  0.00     0.000 A 
ATOM     27  C12 ZIN A   1      17.334  -0.310  16.280  0.00  0.00     0.001 A 
ATOM     28  C11 ZIN A   1      17.719   0.672  15.387  0.00  0.00     0.007 A 
ENDBRANCH  22  23
ENDBRANCH  21  22
ENDBRANCH  15  21
ENDBRANCH  13  15
ENDBRANCH   1  13
BRANCH  10  29
ATOM     29  C28 ZIN A   1      18.118  -1.391   5.964  0.00  0.00     0.245 C 
BRANCH  29  30
ATOM     30  C29 ZIN A   1      19.178  -0.793   5.075  0.00  0.00     0.192 C 
ATOM     31  O30 ZIN A   1      19.917  -1.521   4.433  0.00  0.00    -0.647 OA
ATOM     32  O31 ZIN A   1      19.298   0.418   5.000  0.00  0.00    -0.647 OA
ENDBRANCH  29  30
ENDBRANCH  10  29
TORSDOF 10
ENDMDL
MODEL 9
REMARK VINA RESULT:      -7.3      3.178      6.262
REMARK  10 active torsions:
REMARK  status: ('A' for Active; 'I' for Inactive)
REMARK    1  A    between atoms: C2_2  and  O3_3 
REMARK    2  A    between atoms: O3_3  and  C4_4 
REMARK    3  A    between atoms: C4_4  and  C6_6 
REMARK    4  A    between atoms: C6_6  and  C8_7 
REMARK    5  A    between atoms: C6_6  and  N16_15 
REMARK    6  A    between atoms: C8_7  and  C9_8 
REMARK    7  A    between atoms: C9_8  and  C10_9 
REMARK    8  A    between atoms: N16_15  and  C17_16 
REMARK    9  A    between atoms: N27_25  and  C28_26 
REMARK   10  A    between atoms: C28_26  and  C29_27 
ROOT
ATOM      1  C17 ZIN A   1      18.354   0.927  13.199  0.00  0.00     0.313 C 
ATOM      2  C19 ZIN A   1      19.841   1.221  12.998  0.00  0.00     0.050 C 
ATOM      3  C20 ZIN A   1      20.382   0.365  11.851  0.00  0.00     0.043 C 
ATOM      4  C21 ZIN A   1      19.408   0.355  10.703  0.00  0.00    -0.031 A 
ATOM      5  C22 ZIN A   1      19.651   1.119   9.578  0.00  0.00     0.009 A 
ATOM      6  C23 ZIN A   1      18.758   1.097   8.522  0.00  0.00     0.001 A 
ATOM      7  C24 ZIN A   1      17.622   0.310   8.588  0.00  0.00     0.002 A 
ATOM      8  C25 ZIN A   1      17.372  -0.453   9.712  0.00  0.00     0.030 A 
ATOM      9  C26 ZIN A   1      18.264  -0.426  10.774  0.00  0.00     0.044 A 
ATOM     10  N27 ZIN A   1      18.010  -1.168  11.936  0.00  0.00    -0.306 N 
ATOM     11  C32 ZIN A   1      18.096  -0.552  13.130  0.00  0.00     0.258 C 
ATOM     12  O33 ZIN A   1      17.964  -1.192  14.151  0.00  0.00    -0.271 OA
ENDROOT
BRANCH   1  13
ATOM     13  N16 ZIN A   1      17.934   1.431  14.513  0.00  0.00     0.111 N 
ATOM     14  H48 ZIN A   1      17.831   0.676  15.174  0.00  0.00     0.318 HD
BRANCH  13  15
ATOM     15  C6  ZIN A   1      18.874   2.443  15.013  0.00  0.00     0.320 C 
BRANCH  15  16
ATOM     16  C4  ZIN A   1      19.376   2.033  16.374  0.00  0.00     0.292 C 
ATOM     17  O5  ZIN A   1      19.919   2.844  17.087  0.00  0.00    -0.263 OA
BRANCH  16  18
ATOM     18  O3  ZIN A   1      19.220   0.767  16.793  0.00  0.00    -0.320 OA
BRANCH  18  19
ATOM     19  C2  ZIN A   1      19.398   0.517  18.213  0.00  0.00     0.174 C 
ATOM     20  C1  ZIN A   1      18.128  -0.119  18.781  0.00  0.00     0.034 C 
ENDBRANCH  18  19
ENDBRANCH  16  18
ENDBRANCH  15  16
BRANCH  15  21
ATOM     21  C8  ZIN A   1      18.161   3.793  15.118  0.00  0.00     0.051 C 
BRANCH  21  22
ATOM     22  C9  ZIN A   1      18.843   4.803  14.193  0.00  0.00     0.041 C 
BRANCH  22  23
ATOM     23  C10 ZIN A   1      18.184   4.768  12.838  0.00  0.00    -0.058 A 
ATOM     24  C15 ZIN A   1      16.861   5.149  12.703  0.00  0.00     0.007 A 
ATOM     25  C14 ZIN A   1      16.258   5.120  11.460  0.00  0.00     0.001 A 
ATOM     26  C13 ZIN A   1      16.974   4.703  10.354  0.00  0.00     0.000 A 
ATOM     27  C12 ZIN A   1      18.294   4.318  10.489  0.00  0.00     0.001 A 
ATOM     28  C11 ZIN A   1      18.899   4.350  11.732  0.00  0.00     0.007 A 
ENDBRANCH  22  23
ENDBRANCH  21  22
ENDBRANCH  15  21
ENDBRANCH  13  15
ENDBRANCH   1  13
BRANCH  10  29
ATOM     29  C28 ZIN A   1      17.657  -2.588  11.851  0.00  0.00     0.245 C 
BRANCH  29  30
ATOM     30  C29 ZIN A   1      18.916  -3.417  11.825  0.00  0.00     0.192 C 
ATOM     31  O30 ZIN A   1      20.004  -2.877  11.933  0.00  0.00    -0.647 OA
ATOM     32  O31 ZIN A   1      18.846  -4.627  11.695  0.00  0.00    -0.647 OA
ENDBRANCH  29  30
ENDBRANCH  10  29
TORSDOF 10
ENDMDL
