MODEL 1
REMARK VINA RESULT:      -5.1      0.000      0.000
REMARK  0 active torsions:
REMARK  status: ('A' for Active; 'I' for Inactive)
ROOT
ATOM      1  C1  ZIN A   1      19.845  -0.086  14.714  0.00  0.00     0.016 C 
ATOM      2  C2  ZIN A   1      18.452  -0.159  15.345  0.00  0.00    -0.029 C 
ATOM      3  C3  ZIN A   1      17.350   0.095  14.315  0.00  0.00     0.016 C 
ATOM      4  C4  ZIN A   1      18.230  -1.499  16.131  0.00  0.00     0.001 C 
ATOM      5  C6  ZIN A   1      16.867  -1.201  16.829  0.00  0.00     0.007 C 
ATOM      6  C7  ZIN A   1      16.917   0.314  17.140  0.00  0.00     0.018 C 
ATOM      7  C8  ZIN A   1      18.320   0.780  16.595  0.00  0.00     0.024 C 
ATOM      8  C9  ZIN A   1      18.467   2.280  16.328  0.00  0.00     0.024 C 
ATOM      9  C10 ZIN A   1      19.337   0.156  17.563  0.00  0.00     0.136 C 
ATOM     10  O11 ZIN A   1      20.022   0.729  18.374  0.00  0.00    -0.297 OA
ATOM     11  C12 ZIN A   1      19.303  -1.343  17.253  0.00  0.00     0.084 C 
ENDROOT
TORSDOF 0
ENDMDL
MODEL 2
REMARK VINA RESULT:      -5.1      4.689      6.289
REMARK  0 active torsions:
REMARK  status: ('A' for Active; 'I' for Inactive)
ROOT
ATOM      1  C1  ZIN A   1      20.192   1.093  11.780  0.00  0.00     0.016 C 
ATOM      2  C2  ZIN A   1      19.462   2.385  11.403  0.00  0.00    -0.029 C 
ATOM      3  C3  ZIN A   1      20.265   3.625  11.800  0.00  0.00     0.016 C 
ATOM      4  C4  ZIN A   1      19.048   2.408   9.889  0.00  0.00     0.001 C 
ATOM      5  C6  ZIN A   1      18.157   3.688   9.854  0.00  0.00     0.007 C 
ATOM      6  C7  ZIN A   1      17.457   3.708  11.233  0.00  0.00     0.018 C 
ATOM      7  C8  ZIN A   1      17.998   2.422  11.966  0.00  0.00     0.024 C 
ATOM      8  C9  ZIN A   1      17.865   2.419  13.491  0.00  0.00     0.024 C 
ATOM      9  C10 ZIN A   1      17.347   1.248  11.221  0.00  0.00     0.136 C 
ATOM     10  O11 ZIN A   1      16.487   0.507  11.631  0.00  0.00    -0.297 OA
ATOM     11  C12 ZIN A   1      18.045   1.214   9.858  0.00  0.00     0.084 C 
ENDROOT
TORSDOF 0
ENDMDL
MODEL 3
REMARK VINA RESULT:      -5.0      5.839      7.440
REMARK  0 active torsions:
REMARK  status: ('A' for Active; 'I' for Inactive)
ROOT
ATOM      1  C1  ZIN A   1      20.193  -0.498   9.958  0.00  0.00     0.016 C 
ATOM      2  C2  ZIN A   1      19.458   0.787  10.346  0.00  0.00    -0.029 C 
ATOM      3  C3  ZIN A   1      19.862   1.272  11.740  0.00  0.00     0.016 C 
ATOM      4  C4  ZIN A   1      19.616   1.908   9.260  0.00  0.00     0.001 C 
ATOM      5  C6  ZIN A   1      18.611   2.974   9.797  0.00  0.00     0.007 C 
ATOM      6  C7  ZIN A   1      17.468   2.142  10.426  0.00  0.00     0.018 C 
ATOM      7  C8  ZIN A   1      17.902   0.644  10.199  0.00  0.00     0.024 C 
ATOM      8  C9  ZIN A   1      17.232  -0.389  11.108  0.00  0.00     0.024 C 
ATOM      9  C10 ZIN A   1      17.751   0.423   8.687  0.00  0.00     0.136 C 
ATOM     10  O11 ZIN A   1      16.927  -0.256   8.124  0.00  0.00    -0.297 OA
ATOM     11  C12 ZIN A   1      18.888   1.233   8.057  0.00  0.00     0.084 C 
ENDROOT
TORSDOF 0
ENDMDL
MODEL 4
REMARK VINA RESULT:      -4.9      6.470      7.643
REMARK  0 active torsions:
REMARK  status: ('A' for Active; 'I' for Inactive)
ROOT
ATOM      1  C1  ZIN A   1      20.100  -4.345  11.396  0.00  0.00     0.016 C 
ATOM      2  C2  ZIN A   1      19.056  -4.831  10.389  0.00  0.00    -0.029 C 
ATOM      3  C3  ZIN A   1      19.700  -5.590   9.226  0.00  0.00     0.016 C 
ATOM      4  C4  ZIN A   1      17.914  -5.660  11.076  0.00  0.00     0.001 C 
ATOM      5  C6  ZIN A   1      16.916  -5.817   9.887  0.00  0.00     0.007 C 
ATOM      6  C7  ZIN A   1      17.053  -4.497   9.092  0.00  0.00     0.018 C 
ATOM      7  C8  ZIN A   1      18.128  -3.667   9.892  0.00  0.00     0.024 C 
ATOM      8  C9  ZIN A   1      18.816  -2.543   9.115  0.00  0.00     0.024 C 
ATOM      9  C10 ZIN A   1      17.415  -3.262  11.190  0.00  0.00     0.136 C 
ATOM     10  O11 ZIN A   1      17.053  -2.157  11.513  0.00  0.00    -0.297 OA
ATOM     11  C12 ZIN A   1      17.286  -4.562  11.989  0.00  0.00     0.084 C 
ENDROOT
TORSDOF 0
ENDMDL
MODEL 5
REMARK VINA RESULT:      -4.8      5.412      6.899
REMARK  0 active torsions:
REMARK  status: ('A' for Active; 'I' for Inactive)
ROOT
ATOM      1  C1  ZIN A   1      16.892   0.194  11.118  0.00  0.00     0.016 C 
ATOM      2  C2  ZIN A   1      17.772   0.477   9.899  0.00  0.00    -0.029 C 
ATOM      3  C3  ZIN A   1      17.197  -0.149   8.627  0.00  0.00     0.016 C 
ATOM      4  C4  ZIN A   1      18.065   2.009   9.725  0.00  0.00     0.001 C 
ATOM      5  C6  ZIN A   1      19.130   1.971   8.586  0.00  0.00     0.007 C 
ATOM      6  C7  ZIN A   1      19.932   0.676   8.851  0.00  0.00     0.018 C 
ATOM      7  C8  ZIN A   1      19.266   0.058  10.139  0.00  0.00     0.024 C 
ATOM      8  C9  ZIN A   1      19.517  -1.433  10.370  0.00  0.00     0.024 C 
ATOM      9  C10 ZIN A   1      19.675   1.004  11.278  0.00  0.00     0.136 C 
ATOM     10  O11 ZIN A   1      20.446   0.776  12.178  0.00  0.00    -0.297 OA
ATOM     11  C12 ZIN A   1      18.875   2.286  11.029  0.00  0.00     0.084 C 
ENDROOT
TORSDOF 0
ENDMDL
MODEL 6
REMARK VINA RESULT:      -4.8      4.919      6.157
REMARK  0 active torsions:
REMARK  status: ('A' for Active; 'I' for Inactive)
ROOT
ATOM      1  C1  ZIN A   1      20.257   1.353  11.876  0.00  0.00     0.016 C 
ATOM      2  C2  ZIN A   1      19.361   0.477  10.998  0.00  0.00    -0.029 C 
ATOM      3  C3  ZIN A   1      20.176  -0.522  10.174  0.00  0.00     0.016 C 
ATOM      4  C4  ZIN A   1      18.228  -0.225  11.827  0.00  0.00     0.001 C 
ATOM      5  C6  ZIN A   1      17.369  -0.840  10.679  0.00  0.00     0.007 C 
ATOM      6  C7  ZIN A   1      17.476   0.186   9.526  0.00  0.00     0.018 C 
ATOM      7  C8  ZIN A   1      18.394   1.330  10.103  0.00  0.00     0.024 C 
ATOM      8  C9  ZIN A   1      19.062   2.235   9.066  0.00  0.00     0.024 C 
ATOM      9  C10 ZIN A   1      17.526   2.028  11.160  0.00  0.00     0.136 C 
ATOM     10  O11 ZIN A   1      17.045   3.133  11.099  0.00  0.00    -0.297 OA
ATOM     11  C12 ZIN A   1      17.426   1.022  12.311  0.00  0.00     0.084 C 
ENDROOT
TORSDOF 0
ENDMDL
MODEL 7
REMARK VINA RESULT:      -4.8      5.460      6.887
REMARK  0 active torsions:
REMARK  status: ('A' for Active; 'I' for Inactive)
ROOT
ATOM      1  C1  ZIN A   1      17.537   2.988  10.625  0.00  0.00     0.016 C 
ATOM      2  C2  ZIN A   1      18.614   1.945  10.928  0.00  0.00    -0.029 C 
ATOM      3  C3  ZIN A   1      19.882   2.589  11.494  0.00  0.00     0.016 C 
ATOM      4  C4  ZIN A   1      18.077   0.791  11.846  0.00  0.00     0.001 C 
ATOM      5  C6  ZIN A   1      19.280  -0.201  11.796  0.00  0.00     0.007 C 
ATOM      6  C7  ZIN A   1      19.848  -0.045  10.365  0.00  0.00     0.018 C 
ATOM      7  C8  ZIN A   1      18.918   1.032   9.689  0.00  0.00     0.024 C 
ATOM      8  C9  ZIN A   1      19.499   1.737   8.461  0.00  0.00     0.024 C 
ATOM      9  C10 ZIN A   1      17.575   0.315   9.493  0.00  0.00     0.136 C 
ATOM     10  O11 ZIN A   1      17.077  -0.037   8.451  0.00  0.00    -0.297 OA
ATOM     11  C12 ZIN A   1      16.999   0.169  10.904  0.00  0.00     0.084 C 
ENDROOT
TORSDOF 0
ENDMDL
MODEL 8
REMARK VINA RESULT:      -4.7      5.359      6.916
REMARK  0 active torsions:
REMARK  status: ('A' for Active; 'I' for Inactive)
ROOT
ATOM      1  C1  ZIN A   1      19.673   1.557  11.697  0.00  0.00     0.016 C 
ATOM      2  C2  ZIN A   1      18.777   1.477  10.460  0.00  0.00    -0.029 C 
ATOM      3  C3  ZIN A   1      17.845   2.686  10.356  0.00  0.00     0.016 C 
ATOM      4  C4  ZIN A   1      19.604   1.253   9.145  0.00  0.00     0.001 C 
ATOM      5  C6  ZIN A   1      18.455   0.991   8.123  0.00  0.00     0.007 C 
ATOM      6  C7  ZIN A   1      17.377   0.240   8.939  0.00  0.00     0.018 C 
ATOM      7  C8  ZIN A   1      17.992   0.119  10.385  0.00  0.00     0.024 C 
ATOM      8  C9  ZIN A   1      16.994  -0.143  11.514  0.00  0.00     0.024 C 
ATOM      9  C10 ZIN A   1      19.136  -0.894  10.235  0.00  0.00     0.136 C 
ATOM     10  O11 ZIN A   1      19.179  -2.019  10.668  0.00  0.00    -0.297 OA
ATOM     11  C12 ZIN A   1      20.214  -0.153   9.438  0.00  0.00     0.084 C 
ENDROOT
TORSDOF 0
ENDMDL
MODEL 9
REMARK VINA RESULT:      -4.7      6.759      8.419
REMARK  0 active torsions:
REMARK  status: ('A' for Active; 'I' for Inactive)
ROOT
ATOM      1  C1  ZIN A   1      20.287  -0.146   9.560  0.00  0.00     0.016 C 
ATOM      2  C2  ZIN A   1      19.187   0.211   8.558  0.00  0.00    -0.029 C 
ATOM      3  C3  ZIN A   1      19.032   1.725   8.402  0.00  0.00     0.016 C 
ATOM      4  C4  ZIN A   1      19.391  -0.509   7.178  0.00  0.00     0.001 C 
ATOM      5  C6  ZIN A   1      18.049  -0.153   6.467  0.00  0.00     0.007 C 
ATOM      6  C7  ZIN A   1      17.002  -0.135   7.605  0.00  0.00     0.018 C 
ATOM      7  C8  ZIN A   1      17.826  -0.490   8.901  0.00  0.00     0.024 C 
ATOM      8  C9  ZIN A   1      17.181  -0.092  10.231  0.00  0.00     0.024 C 
ATOM      9  C10 ZIN A   1      18.188  -1.973   8.735  0.00  0.00     0.136 C 
ATOM     10  O11 ZIN A   1      17.754  -2.908   9.362  0.00  0.00    -0.297 OA
ATOM     11  C12 ZIN A   1      19.234  -1.998   7.617  0.00  0.00     0.084 C 
ENDROOT
TORSDOF 0
ENDMDL
