MODEL 1
REMARK VINA RESULT:      -4.2      0.000      0.000
REMARK  5 active torsions:
REMARK  status: ('A' for Active; 'I' for Inactive)
REMARK    1  A    between atoms: C2_2  and  C3_3 
REMARK    2  A    between atoms: C3_3  and  N5_4 
REMARK    3  A    between atoms: C3_3  and  C9_8 
REMARK    4  A    between atoms: C9_8  and  C10_9 
REMARK    5  A    between atoms: C10_9  and  C11_10 
ROOT
ATOM      1  C3  <0> d   1      18.605   0.271   8.279  0.00  0.00     0.206 C 
ENDROOT
BRANCH   1   2
ATOM      2  C2  <0> d   1      19.311   1.594   8.431  0.00  0.00    -0.005 C 
ATOM      3  C1  <0> d   1      18.892   2.461   9.318  0.00  0.00     0.009 C 
ENDBRANCH   1   2
BRANCH   1   4
ATOM      4  N5  <0> d   1      19.571  -0.822   8.446  0.00  0.00    -0.072 N 
ATOM      5  H6  <0> d   1      19.872  -0.862   9.408  0.00  0.00     0.275 HD
ATOM      6  H7  <0> d   1      19.137  -1.697   8.193  0.00  0.00     0.275 HD
ATOM      7  H8  <0> d   1      20.371  -0.659   7.851  0.00  0.00     0.275 HD
ENDBRANCH   1   4
BRANCH   1   8
ATOM      8  C9  <0> d   1      17.975   0.186   6.887  0.00  0.00     0.047 C 
BRANCH   8   9
ATOM      9  C10 <0> d   1      18.983   0.665   5.841  0.00  0.00     0.115 C 
BRANCH   9  10
ATOM     10  C11 <0> d   1      19.050  -0.332   4.714  0.00  0.00     0.172 C 
ATOM     11  O12 <0> d   1      18.133  -0.411   3.913  0.00  0.00    -0.648 OA
ATOM     12  O13 <0> d   1      20.021  -1.062   4.602  0.00  0.00    -0.648 OA
ENDBRANCH   9  10
ENDBRANCH   8   9
ENDBRANCH   1   8
TORSDOF 5
ENDMDL
MODEL 2
REMARK VINA RESULT:      -4.0      3.897      5.054
REMARK  5 active torsions:
REMARK  status: ('A' for Active; 'I' for Inactive)
REMARK    1  A    between atoms: C2_2  and  C3_3 
REMARK    2  A    between atoms: C3_3  and  N5_4 
REMARK    3  A    between atoms: C3_3  and  C9_8 
REMARK    4  A    between atoms: C9_8  and  C10_9 
REMARK    5  A    between atoms: C10_9  and  C11_10 
ROOT
ATOM      1  C3  <0> d   1      19.545   1.337   8.249  0.00  0.00     0.206 C 
ENDROOT
BRANCH   1   2
ATOM      2  C2  <0> d   1      18.660   0.510   7.352  0.00  0.00    -0.005 C 
ATOM      3  C1  <0> d   1      17.516   0.055   7.800  0.00  0.00     0.009 C 
ENDBRANCH   1   2
BRANCH   1   4
ATOM      4  N5  <0> d   1      19.910   0.552   9.435  0.00  0.00    -0.072 N 
ATOM      5  H6  <0> d   1      20.247  -0.354   9.149  0.00  0.00     0.275 HD
ATOM      6  H7  <0> d   1      20.635   1.033   9.948  0.00  0.00     0.275 HD
ATOM      7  H8  <0> d   1      19.100   0.438  10.027  0.00  0.00     0.275 HD
ENDBRANCH   1   4
BRANCH   1   8
ATOM      8  C9  <0> d   1      18.794   2.598   8.684  0.00  0.00     0.047 C 
BRANCH   8   9
ATOM      9  C10 <0> d   1      18.947   2.787  10.194  0.00  0.00     0.115 C 
BRANCH   9  10
ATOM     10  C11 <0> d   1      17.603   2.631  10.858  0.00  0.00     0.172 C 
ATOM     11  O12 <0> d   1      17.144   1.518  11.053  0.00  0.00    -0.648 OA
ATOM     12  O13 <0> d   1      16.973   3.618  11.199  0.00  0.00    -0.648 OA
ENDBRANCH   9  10
ENDBRANCH   8   9
ENDBRANCH   1   8
TORSDOF 5
ENDMDL
MODEL 3
REMARK VINA RESULT:      -4.0      5.167      5.942
REMARK  5 active torsions:
REMARK  status: ('A' for Active; 'I' for Inactive)
REMARK    1  A    between atoms: C2_2  and  C3_3 
REMARK    2  A    between atoms: C3_3  and  N5_4 
REMARK    3  A    between atoms: C3_3  and  C9_8 
REMARK    4  A    between atoms: C9_8  and  C10_9 
REMARK    5  A    between atoms: C10_9  and  C11_10 
ROOT
ATOM      1  C3  <0> d   1      20.103   0.901  11.779  0.00  0.00     0.206 C 
ENDROOT
BRANCH   1   2
ATOM      2  C2  <0> d   1      19.196   0.465  12.901  0.00  0.00    -0.005 C 
ATOM      3  C1  <0> d   1      19.703  -0.070  13.984  0.00  0.00     0.009 C 
ENDBRANCH   1   2
BRANCH   1   4
ATOM      4  N5  <0> d   1      21.501   0.663  12.161  0.00  0.00    -0.072 N 
ATOM      5  H6  <0> d   1      22.086   1.382  11.763  0.00  0.00     0.275 HD
ATOM      6  H7  <0> d   1      21.584   0.681  13.167  0.00  0.00     0.275 HD
ATOM      7  H8  <0> d   1      21.796  -0.239  11.816  0.00  0.00     0.275 HD
ENDBRANCH   1   4
BRANCH   1   8
ATOM      8  C9  <0> d   1      19.897   2.392  11.506  0.00  0.00     0.047 C 
BRANCH   8   9
ATOM      9  C10 <0> d   1      19.095   2.568  10.215  0.00  0.00     0.115 C 
BRANCH   9  10
ATOM     10  C11 <0> d   1      17.895   3.439  10.484  0.00  0.00     0.172 C 
ATOM     11  O12 <0> d   1      16.996   3.036  11.202  0.00  0.00    -0.648 OA
ATOM     12  O13 <0> d   1      17.823   4.549   9.982  0.00  0.00    -0.648 OA
ENDBRANCH   9  10
ENDBRANCH   8   9
ENDBRANCH   1   8
TORSDOF 5
ENDMDL
MODEL 4
REMARK VINA RESULT:      -3.9      2.876      3.710
REMARK  5 active torsions:
REMARK  status: ('A' for Active; 'I' for Inactive)
REMARK    1  A    between atoms: C2_2  and  C3_3 
REMARK    2  A    between atoms: C3_3  and  N5_4 
REMARK    3  A    between atoms: C3_3  and  C9_8 
REMARK    4  A    between atoms: C9_8  and  C10_9 
REMARK    5  A    between atoms: C10_9  and  C11_10 
ROOT
ATOM      1  C3  <0> d   1      18.707   2.632  10.115  0.00  0.00     0.206 C 
ENDROOT
BRANCH   1   2
ATOM      2  C2  <0> d   1      18.140   4.025  10.008  0.00  0.00    -0.005 C 
ATOM      3  C1  <0> d   1      17.188   4.408  10.823  0.00  0.00     0.009 C 
ENDBRANCH   1   2
BRANCH   1   4
ATOM      4  N5  <0> d   1      19.954   2.670  10.890  0.00  0.00    -0.072 N 
ATOM      5  H6  <0> d   1      20.453   3.523  10.684  0.00  0.00     0.275 HD
ATOM      6  H7  <0> d   1      19.739   2.636  11.876  0.00  0.00     0.275 HD
ATOM      7  H8  <0> d   1      20.528   1.877  10.644  0.00  0.00     0.275 HD
ENDBRANCH   1   4
BRANCH   1   8
ATOM      8  C9  <0> d   1      18.995   2.090   8.713  0.00  0.00     0.047 C 
BRANCH   8   9
ATOM      9  C10 <0> d   1      18.379   0.697   8.569  0.00  0.00     0.115 C 
BRANCH   9  10
ATOM     10  C11 <0> d   1      19.469  -0.342   8.627  0.00  0.00     0.172 C 
ATOM     11  O12 <0> d   1      20.327  -0.278   9.491  0.00  0.00    -0.648 OA
ATOM     12  O13 <0> d   1      19.493  -1.247   7.810  0.00  0.00    -0.648 OA
ENDBRANCH   9  10
ENDBRANCH   8   9
ENDBRANCH   1   8
TORSDOF 5
ENDMDL
MODEL 5
REMARK VINA RESULT:      -3.9      9.255     10.559
REMARK  5 active torsions:
REMARK  status: ('A' for Active; 'I' for Inactive)
REMARK    1  A    between atoms: C2_2  and  C3_3 
REMARK    2  A    between atoms: C3_3  and  N5_4 
REMARK    3  A    between atoms: C3_3  and  C9_8 
REMARK    4  A    between atoms: C9_8  and  C10_9 
REMARK    5  A    between atoms: C10_9  and  C11_10 
ROOT
ATOM      1  C3  <0> d   1      17.963  -0.755  15.673  0.00  0.00     0.206 C 
ENDROOT
BRANCH   1   2
ATOM      2  C2  <0> d   1      19.017  -0.752  14.596  0.00  0.00    -0.005 C 
ATOM      3  C1  <0> d   1      19.012  -1.681  13.672  0.00  0.00     0.009 C 
ENDBRANCH   1   2
BRANCH   1   4
ATOM      4  N5  <0> d   1      17.106   0.428  15.522  0.00  0.00    -0.072 N 
ATOM      5  H6  <0> d   1      16.340   0.213  14.901  0.00  0.00     0.275 HD
ATOM      6  H7  <0> d   1      16.742   0.698  16.424  0.00  0.00     0.275 HD
ATOM      7  H8  <0> d   1      17.646   1.189  15.136  0.00  0.00     0.275 HD
ENDBRANCH   1   4
BRANCH   1   8
ATOM      8  C9  <0> d   1      18.636  -0.724  17.046  0.00  0.00     0.047 C 
BRANCH   8   9
ATOM      9  C10 <0> d   1      18.162   0.507  17.820  0.00  0.00     0.115 C 
BRANCH   9  10
ATOM     10  C11 <0> d   1      19.250   1.549  17.822  0.00  0.00     0.172 C 
ATOM     11  O12 <0> d   1      19.569   2.101  16.782  0.00  0.00    -0.648 OA
ATOM     12  O13 <0> d   1      19.814   1.840  18.864  0.00  0.00    -0.648 OA
ENDBRANCH   9  10
ENDBRANCH   8   9
ENDBRANCH   1   8
TORSDOF 5
ENDMDL
MODEL 6
REMARK VINA RESULT:      -3.9      6.847      7.720
REMARK  5 active torsions:
REMARK  status: ('A' for Active; 'I' for Inactive)
REMARK    1  A    between atoms: C2_2  and  C3_3 
REMARK    2  A    between atoms: C3_3  and  N5_4 
REMARK    3  A    between atoms: C3_3  and  C9_8 
REMARK    4  A    between atoms: C9_8  and  C10_9 
REMARK    5  A    between atoms: C10_9  and  C11_10 
ROOT
ATOM      1  C3  <0> d   1      18.505   0.092  15.270  0.00  0.00     0.206 C 
ENDROOT
BRANCH   1   2
ATOM      2  C2  <0> d   1      18.263  -0.736  16.506  0.00  0.00    -0.005 C 
ATOM      3  C1  <0> d   1      17.038  -0.982  16.900  0.00  0.00     0.009 C 
ENDBRANCH   1   2
BRANCH   1   4
ATOM      4  N5  <0> d   1      17.591   1.242  15.265  0.00  0.00    -0.072 N 
ATOM      5  H6  <0> d   1      17.548   1.641  16.191  0.00  0.00     0.275 HD
ATOM      6  H7  <0> d   1      17.928   1.937  14.615  0.00  0.00     0.275 HD
ATOM      7  H8  <0> d   1      16.669   0.940  14.986  0.00  0.00     0.275 HD
ENDBRANCH   1   4
BRANCH   1   8
ATOM      8  C9  <0> d   1      18.253  -0.763  14.026  0.00  0.00     0.047 C 
BRANCH   8   9
ATOM      9  C10 <0> d   1      17.935   0.146  12.838  0.00  0.00     0.115 C 
BRANCH   9  10
ATOM     10  C11 <0> d   1      16.909  -0.519  11.957  0.00  0.00     0.172 C 
ATOM     11  O12 <0> d   1      17.001  -1.708  11.704  0.00  0.00    -0.648 OA
ATOM     12  O13 <0> d   1      15.987   0.133  11.496  0.00  0.00    -0.648 OA
ENDBRANCH   9  10
ENDBRANCH   8   9
ENDBRANCH   1   8
TORSDOF 5
ENDMDL
MODEL 7
REMARK VINA RESULT:      -3.8      5.363      5.984
REMARK  5 active torsions:
REMARK  status: ('A' for Active; 'I' for Inactive)
REMARK    1  A    between atoms: C2_2  and  C3_3 
REMARK    2  A    between atoms: C3_3  and  N5_4 
REMARK    3  A    between atoms: C3_3  and  C9_8 
REMARK    4  A    between atoms: C9_8  and  C10_9 
REMARK    5  A    between atoms: C10_9  and  C11_10 
ROOT
ATOM      1  C3  <0> d   1      19.223   2.506  11.718  0.00  0.00     0.206 C 
ENDROOT
BRANCH   1   2
ATOM      2  C2  <0> d   1      18.570   2.877  10.412  0.00  0.00    -0.005 C 
ATOM      3  C1  <0> d   1      17.901   3.999  10.310  0.00  0.00     0.009 C 
ENDBRANCH   1   2
BRANCH   1   4
ATOM      4  N5  <0> d   1      20.660   2.802  11.648  0.00  0.00    -0.072 N 
ATOM      5  H6  <0> d   1      20.910   3.034  10.699  0.00  0.00     0.275 HD
ATOM      6  H7  <0> d   1      20.873   3.582  12.252  0.00  0.00     0.275 HD
ATOM      7  H8  <0> d   1      21.186   1.993  11.945  0.00  0.00     0.275 HD
ENDBRANCH   1   4
BRANCH   1   8
ATOM      8  C9  <0> d   1      19.023   1.013  11.983  0.00  0.00     0.047 C 
BRANCH   8   9
ATOM      9  C10 <0> d   1      17.729   0.803  12.772  0.00  0.00     0.115 C 
BRANCH   9  10
ATOM     10  C11 <0> d   1      16.855  -0.188  12.048  0.00  0.00     0.172 C 
ATOM     11  O12 <0> d   1      17.113  -1.380  12.096  0.00  0.00    -0.648 OA
ATOM     12  O13 <0> d   1      15.889   0.200  11.413  0.00  0.00    -0.648 OA
ENDBRANCH   9  10
ENDBRANCH   8   9
ENDBRANCH   1   8
TORSDOF 5
ENDMDL
MODEL 8
REMARK VINA RESULT:      -3.8      4.601      4.981
REMARK  5 active torsions:
REMARK  status: ('A' for Active; 'I' for Inactive)
REMARK    1  A    between atoms: C2_2  and  C3_3 
REMARK    2  A    between atoms: C3_3  and  N5_4 
REMARK    3  A    between atoms: C3_3  and  C9_8 
REMARK    4  A    between atoms: C9_8  and  C10_9 
REMARK    5  A    between atoms: C10_9  and  C11_10 
ROOT
ATOM      1  C3  <0> d   1      19.160   1.601   9.854  0.00  0.00     0.206 C 
ENDROOT
BRANCH   1   2
ATOM      2  C2  <0> d   1      19.027   2.955  10.503  0.00  0.00    -0.005 C 
ATOM      3  C1  <0> d   1      17.964   3.687  10.278  0.00  0.00     0.009 C 
ENDBRANCH   1   2
BRANCH   1   4
ATOM      4  N5  <0> d   1      19.875   1.739   8.578  0.00  0.00    -0.072 N 
ATOM      5  H6  <0> d   1      20.093   0.824   8.214  0.00  0.00     0.275 HD
ATOM      6  H7  <0> d   1      19.293   2.233   7.918  0.00  0.00     0.275 HD
ATOM      7  H8  <0> d   1      20.730   2.256   8.724  0.00  0.00     0.275 HD
ENDBRANCH   1   4
BRANCH   1   8
ATOM      8  C9  <0> d   1      17.769   1.019   9.599  0.00  0.00     0.047 C 
BRANCH   8   9
ATOM      9  C10 <0> d   1      17.746  -0.451  10.023  0.00  0.00     0.115 C 
BRANCH   9  10
ATOM     10  C11 <0> d   1      16.913  -0.601  11.269  0.00  0.00     0.172 C 
ATOM     11  O12 <0> d   1      16.064   0.232  11.540  0.00  0.00    -0.648 OA
ATOM     12  O13 <0> d   1      17.088  -1.555  12.008  0.00  0.00    -0.648 OA
ENDBRANCH   9  10
ENDBRANCH   8   9
ENDBRANCH   1   8
TORSDOF 5
ENDMDL
MODEL 9
REMARK VINA RESULT:      -3.8      7.617      8.581
REMARK  5 active torsions:
REMARK  status: ('A' for Active; 'I' for Inactive)
REMARK    1  A    between atoms: C2_2  and  C3_3 
REMARK    2  A    between atoms: C3_3  and  N5_4 
REMARK    3  A    between atoms: C3_3  and  C9_8 
REMARK    4  A    between atoms: C9_8  and  C10_9 
REMARK    5  A    between atoms: C10_9  and  C11_10 
ROOT
ATOM      1  C3  <0> d   1      18.406   0.152  16.014  0.00  0.00     0.206 C 
ENDROOT
BRANCH   1   2
ATOM      2  C2  <0> d   1      18.249   0.169  17.513  0.00  0.00    -0.005 C 
ATOM      3  C1  <0> d   1      19.304   0.277  18.281  0.00  0.00     0.009 C 
ENDBRANCH   1   2
BRANCH   1   4
ATOM      4  N5  <0> d   1      17.244   0.800  15.392  0.00  0.00    -0.072 N 
ATOM      5  H6  <0> d   1      16.396   0.385  15.749  0.00  0.00     0.275 HD
ATOM      6  H7  <0> d   1      17.252   1.786  15.609  0.00  0.00     0.275 HD
ATOM      7  H8  <0> d   1      17.283   0.676  14.391  0.00  0.00     0.275 HD
ENDBRANCH   1   4
BRANCH   1   8
ATOM      8  C9  <0> d   1      18.502  -1.295  15.527  0.00  0.00     0.047 C 
BRANCH   8   9
ATOM      9  C10 <0> d   1      19.363  -1.353  14.264  0.00  0.00     0.115 C 
BRANCH   9  10
ATOM     10  C11 <0> d   1      18.498  -1.707  13.083  0.00  0.00     0.172 C 
ATOM     11  O12 <0> d   1      18.737  -2.709  12.429  0.00  0.00    -0.648 OA
ATOM     12  O13 <0> d   1      17.558  -0.991  12.779  0.00  0.00    -0.648 OA
ENDBRANCH   9  10
ENDBRANCH   8   9
ENDBRANCH   1   8
TORSDOF 5
ENDMDL
