MODEL 1
REMARK VINA RESULT:      -7.5      0.000      0.000
REMARK  3 active torsions:
REMARK  status: ('A' for Active; 'I' for Inactive)
REMARK    1  A    between atoms: N2_2  and  C5_5 
REMARK    2  A    between atoms: C5_5  and  C6_6 
REMARK    3  A    between atoms: C6_6  and  C7_7 
ROOT
ATOM      1  C7  ZIN A   1      17.656   3.101  12.078  0.00  0.00    -0.012 C 
ATOM      2  C8  ZIN A   1      18.134   1.924  11.658  0.00  0.00    -0.018 C 
ATOM      3  C9  ZIN A   1      18.284   1.613  10.209  0.00  0.00    -0.019 A 
ATOM      4  C10 ZIN A   1      19.038   2.490   9.428  0.00  0.00     0.013 A 
ATOM      5  C11 ZIN A   1      19.230   2.242   8.086  0.00  0.00     0.001 A 
ATOM      6  C12 ZIN A   1      18.666   1.111   7.523  0.00  0.00     0.001 A 
ATOM      7  C13 ZIN A   1      17.914   0.250   8.290  0.00  0.00     0.008 A 
ATOM      8  C14 ZIN A   1      17.693   0.485   9.648  0.00  0.00    -0.047 A 
ATOM      9  C15 ZIN A   1      16.794  -0.527  10.320  0.00  0.00     0.044 C 
ATOM     10  C16 ZIN A   1      16.516  -0.220  11.777  0.00  0.00     0.044 C 
ATOM     11  C17 ZIN A   1      17.762  -0.271  12.620  0.00  0.00    -0.047 A 
ATOM     12  C18 ZIN A   1      18.119  -1.367  13.370  0.00  0.00     0.008 A 
ATOM     13  C19 ZIN A   1      19.266  -1.297  14.149  0.00  0.00     0.001 A 
ATOM     14  C20 ZIN A   1      20.033  -0.146  14.175  0.00  0.00     0.001 A 
ATOM     15  C21 ZIN A   1      19.679   0.950  13.406  0.00  0.00     0.013 A 
ATOM     16  C22 ZIN A   1      18.550   0.862  12.615  0.00  0.00    -0.019 A 
ENDROOT
BRANCH   1  17
ATOM     17  C6  ZIN A   1      17.246   4.149  11.076  0.00  0.00     0.055 C 
BRANCH  17  18
ATOM     18  C5  ZIN A   1      16.866   5.435  11.812  0.00  0.00     0.237 C 
BRANCH  18  19
ATOM     19  N2  ZIN A   1      16.885   5.194  13.262  0.00  0.00    -0.079 N 
ATOM     20  C1  ZIN A   1      18.042   5.877  13.856  0.00  0.00     0.269 C 
ATOM     21  H3  ZIN A   1      16.954   4.202  13.437  0.00  0.00     0.278 HD
ATOM     22  C4  ZIN A   1      15.649   5.713  13.861  0.00  0.00     0.269 C 
ENDBRANCH  18  19
ENDBRANCH  17  18
ENDBRANCH   1  17
TORSDOF 3
ENDMDL
MODEL 2
REMARK VINA RESULT:      -7.4      2.692      5.384
REMARK  3 active torsions:
REMARK  status: ('A' for Active; 'I' for Inactive)
REMARK    1  A    between atoms: N2_2  and  C5_5 
REMARK    2  A    between atoms: C5_5  and  C6_6 
REMARK    3  A    between atoms: C6_6  and  C7_7 
ROOT
ATOM      1  C7  ZIN A   1      19.078   0.254   8.503  0.00  0.00    -0.012 C 
ATOM      2  C8  ZIN A   1      18.861   0.312   9.822  0.00  0.00    -0.018 C 
ATOM      3  C9  ZIN A   1      18.802   1.611  10.549  0.00  0.00    -0.019 A 
ATOM      4  C10 ZIN A   1      17.893   2.569  10.098  0.00  0.00     0.013 A 
ATOM      5  C11 ZIN A   1      17.778   3.781  10.744  0.00  0.00     0.001 A 
ATOM      6  C12 ZIN A   1      18.573   4.034  11.849  0.00  0.00     0.001 A 
ATOM      7  C13 ZIN A   1      19.476   3.093  12.288  0.00  0.00     0.008 A 
ATOM      8  C14 ZIN A   1      19.623   1.864  11.643  0.00  0.00    -0.047 A 
ATOM      9  C15 ZIN A   1      20.703   0.978  12.222  0.00  0.00     0.044 C 
ATOM     10  C16 ZIN A   1      20.889  -0.323  11.471  0.00  0.00     0.044 C 
ATOM     11  C17 ZIN A   1      19.668  -1.202  11.538  0.00  0.00    -0.047 A 
ATOM     12  C18 ZIN A   1      19.536  -2.240  12.429  0.00  0.00     0.008 A 
ATOM     13  C19 ZIN A   1      18.388  -3.020  12.380  0.00  0.00     0.001 A 
ATOM     14  C20 ZIN A   1      17.397  -2.760  11.450  0.00  0.00     0.001 A 
ATOM     15  C21 ZIN A   1      17.527  -1.703  10.563  0.00  0.00     0.013 A 
ATOM     16  C22 ZIN A   1      18.662  -0.919  10.636  0.00  0.00    -0.019 A 
ENDROOT
BRANCH   1  17
ATOM     17  C6  ZIN A   1      19.276   1.524   7.716  0.00  0.00     0.055 C 
BRANCH  17  18
ATOM     18  C5  ZIN A   1      18.916   1.274   6.249  0.00  0.00     0.237 C 
BRANCH  18  19
ATOM     19  N2  ZIN A   1      18.625  -0.153   6.053  0.00  0.00    -0.079 N 
ATOM     20  C1  ZIN A   1      17.192  -0.328   5.780  0.00  0.00     0.269 C 
ATOM     21  H3  ZIN A   1      18.874  -0.665   6.886  0.00  0.00     0.278 HD
ATOM     22  C4  ZIN A   1      19.405  -0.659   4.916  0.00  0.00     0.269 C 
ENDBRANCH  18  19
ENDBRANCH  17  18
ENDBRANCH   1  17
TORSDOF 3
ENDMDL
MODEL 3
REMARK VINA RESULT:      -7.4      3.555      6.494
REMARK  3 active torsions:
REMARK  status: ('A' for Active; 'I' for Inactive)
REMARK    1  A    between atoms: N2_2  and  C5_5 
REMARK    2  A    between atoms: C5_5  and  C6_6 
REMARK    3  A    between atoms: C6_6  and  C7_7 
ROOT
ATOM      1  C7  ZIN A   1      19.599  -0.883   9.751  0.00  0.00    -0.012 C 
ATOM      2  C8  ZIN A   1      18.779  -1.671   9.045  0.00  0.00    -0.018 C 
ATOM      3  C9  ZIN A   1      18.262  -2.955   9.595  0.00  0.00    -0.019 A 
ATOM      4  C10 ZIN A   1      17.590  -2.917  10.817  0.00  0.00     0.013 A 
ATOM      5  C11 ZIN A   1      17.069  -4.070  11.364  0.00  0.00     0.001 A 
ATOM      6  C12 ZIN A   1      17.220  -5.266  10.683  0.00  0.00     0.001 A 
ATOM      7  C13 ZIN A   1      17.891  -5.306   9.482  0.00  0.00     0.008 A 
ATOM      8  C14 ZIN A   1      18.440  -4.155   8.913  0.00  0.00    -0.047 A 
ATOM      9  C15 ZIN A   1      19.194  -4.391   7.625  0.00  0.00     0.044 C 
ATOM     10  C16 ZIN A   1      19.834  -3.142   7.057  0.00  0.00     0.044 C 
ATOM     11  C17 ZIN A   1      18.816  -2.108   6.659  0.00  0.00    -0.047 A 
ATOM     12  C18 ZIN A   1      18.375  -1.944   5.367  0.00  0.00     0.008 A 
ATOM     13  C19 ZIN A   1      17.465  -0.930   5.096  0.00  0.00     0.001 A 
ATOM     14  C20 ZIN A   1      17.013  -0.099   6.106  0.00  0.00     0.001 A 
ATOM     15  C21 ZIN A   1      17.448  -0.277   7.409  0.00  0.00     0.013 A 
ATOM     16  C22 ZIN A   1      18.334  -1.303   7.672  0.00  0.00    -0.019 A 
ENDROOT
BRANCH   1  17
ATOM     17  C6  ZIN A   1      20.026  -1.291  11.138  0.00  0.00     0.055 C 
BRANCH  17  18
ATOM     18  C5  ZIN A   1      20.277  -0.040  11.982  0.00  0.00     0.237 C 
BRANCH  18  19
ATOM     19  N2  ZIN A   1      20.211  -0.391  13.408  0.00  0.00    -0.079 N 
ATOM     20  C1  ZIN A   1      19.637   0.731  14.162  0.00  0.00     0.269 C 
ATOM     21  H3  ZIN A   1      21.141  -0.585  13.750  0.00  0.00     0.278 HD
ATOM     22  C4  ZIN A   1      19.367  -1.580  13.581  0.00  0.00     0.269 C 
ENDBRANCH  18  19
ENDBRANCH  17  18
ENDBRANCH   1  17
TORSDOF 3
ENDMDL
MODEL 4
REMARK VINA RESULT:      -7.4      2.831      5.382
REMARK  3 active torsions:
REMARK  status: ('A' for Active; 'I' for Inactive)
REMARK    1  A    between atoms: N2_2  and  C5_5 
REMARK    2  A    between atoms: C5_5  and  C6_6 
REMARK    3  A    between atoms: C6_6  and  C7_7 
ROOT
ATOM      1  C7  ZIN A   1      20.091   0.341  13.445  0.00  0.00    -0.012 C 
ATOM      2  C8  ZIN A   1      19.070   1.017  13.984  0.00  0.00    -0.018 C 
ATOM      3  C9  ZIN A   1      18.453   2.183  13.292  0.00  0.00    -0.019 A 
ATOM      4  C10 ZIN A   1      17.979   1.995  11.993  0.00  0.00     0.013 A 
ATOM      5  C11 ZIN A   1      17.379   3.032  11.312  0.00  0.00     0.001 A 
ATOM      6  C12 ZIN A   1      17.248   4.261  11.934  0.00  0.00     0.001 A 
ATOM      7  C13 ZIN A   1      17.723   4.450  13.212  0.00  0.00     0.008 A 
ATOM      8  C14 ZIN A   1      18.348   3.421  13.919  0.00  0.00    -0.047 A 
ATOM      9  C15 ZIN A   1      18.863   3.820  15.283  0.00  0.00     0.044 C 
ATOM     10  C16 ZIN A   1      19.592   2.708  16.007  0.00  0.00     0.044 C 
ATOM     11  C17 ZIN A   1      18.692   1.544  16.321  0.00  0.00    -0.047 A 
ATOM     12  C18 ZIN A   1      18.097   1.361  17.547  0.00  0.00     0.008 A 
ATOM     13  C19 ZIN A   1      17.318   0.229  17.749  0.00  0.00     0.001 A 
ATOM     14  C20 ZIN A   1      17.148  -0.700  16.738  0.00  0.00     0.001 A 
ATOM     15  C21 ZIN A   1      17.736  -0.505  15.499  0.00  0.00     0.013 A 
ATOM     16  C22 ZIN A   1      18.489   0.636  15.301  0.00  0.00    -0.019 A 
ENDROOT
BRANCH   1  17
ATOM     17  C6  ZIN A   1      20.651   0.758  12.109  0.00  0.00     0.055 C 
BRANCH  17  18
ATOM     18  C5  ZIN A   1      20.819  -0.476  11.220  0.00  0.00     0.237 C 
BRANCH  18  19
ATOM     19  N2  ZIN A   1      19.583  -0.701  10.457  0.00  0.00    -0.079 N 
ATOM     20  C1  ZIN A   1      19.775  -0.253   9.071  0.00  0.00     0.269 C 
ATOM     21  H3  ZIN A   1      18.828  -0.179  10.877  0.00  0.00     0.278 HD
ATOM     22  C4  ZIN A   1      19.255  -2.132  10.468  0.00  0.00     0.269 C 
ENDBRANCH  18  19
ENDBRANCH  17  18
ENDBRANCH   1  17
TORSDOF 3
ENDMDL
MODEL 5
REMARK VINA RESULT:      -7.3      2.696      4.161
REMARK  3 active torsions:
REMARK  status: ('A' for Active; 'I' for Inactive)
REMARK    1  A    between atoms: N2_2  and  C5_5 
REMARK    2  A    between atoms: C5_5  and  C6_6 
REMARK    3  A    between atoms: C6_6  and  C7_7 
ROOT
ATOM      1  C7  ZIN A   1      19.379  -0.343  14.139  0.00  0.00    -0.012 C 
ATOM      2  C8  ZIN A   1      19.184  -0.453  12.820  0.00  0.00    -0.018 C 
ATOM      3  C9  ZIN A   1      19.048   0.746  11.947  0.00  0.00    -0.019 A 
ATOM      4  C10 ZIN A   1      20.073   1.694  11.976  0.00  0.00     0.013 A 
ATOM      5  C11 ZIN A   1      20.013   2.812  11.173  0.00  0.00     0.001 A 
ATOM      6  C12 ZIN A   1      18.924   2.983  10.335  0.00  0.00     0.001 A 
ATOM      7  C13 ZIN A   1      17.909   2.053  10.313  0.00  0.00     0.008 A 
ATOM      8  C14 ZIN A   1      17.938   0.919  11.126  0.00  0.00    -0.047 A 
ATOM      9  C15 ZIN A   1      16.714   0.039  11.018  0.00  0.00     0.044 C 
ATOM     10  C16 ZIN A   1      16.737  -1.152  11.953  0.00  0.00     0.044 C 
ATOM     11  C17 ZIN A   1      17.858  -2.105  11.638  0.00  0.00    -0.047 A 
ATOM     12  C18 ZIN A   1      17.689  -3.246  10.891  0.00  0.00     0.008 A 
ATOM     13  C19 ZIN A   1      18.779  -4.083  10.693  0.00  0.00     0.001 A 
ATOM     14  C20 ZIN A   1      20.012  -3.777  11.242  0.00  0.00     0.001 A 
ATOM     15  C21 ZIN A   1      20.183  -2.618  11.981  0.00  0.00     0.013 A 
ATOM     16  C22 ZIN A   1      19.098  -1.780  12.151  0.00  0.00    -0.019 A 
ENDROOT
BRANCH   1  17
ATOM     17  C6  ZIN A   1      19.460   1.020  14.778  0.00  0.00     0.055 C 
BRANCH  17  18
ATOM     18  C5  ZIN A   1      18.442   1.110  15.917  0.00  0.00     0.237 C 
BRANCH  18  19
ATOM     19  N2  ZIN A   1      18.471  -0.134  16.698  0.00  0.00    -0.079 N 
ATOM     20  C1  ZIN A   1      19.182   0.098  17.963  0.00  0.00     0.269 C 
ATOM     21  H3  ZIN A   1      18.948  -0.852  16.172  0.00  0.00     0.278 HD
ATOM     22  C4  ZIN A   1      17.096  -0.566  16.982  0.00  0.00     0.269 C 
ENDBRANCH  18  19
ENDBRANCH  17  18
ENDBRANCH   1  17
TORSDOF 3
ENDMDL
MODEL 6
REMARK VINA RESULT:      -7.2      3.486      6.208
REMARK  3 active torsions:
REMARK  status: ('A' for Active; 'I' for Inactive)
REMARK    1  A    between atoms: N2_2  and  C5_5 
REMARK    2  A    between atoms: C5_5  and  C6_6 
REMARK    3  A    between atoms: C6_6  and  C7_7 
ROOT
ATOM      1  C7  ZIN A   1      19.259  -1.446   8.567  0.00  0.00    -0.012 C 
ATOM      2  C8  ZIN A   1      18.592  -2.005   9.584  0.00  0.00    -0.018 C 
ATOM      3  C9  ZIN A   1      18.158  -1.209  10.766  0.00  0.00    -0.019 A 
ATOM      4  C10 ZIN A   1      17.374  -0.077  10.537  0.00  0.00     0.013 A 
ATOM      5  C11 ZIN A   1      16.923   0.685  11.593  0.00  0.00     0.001 A 
ATOM      6  C12 ZIN A   1      17.256   0.312  12.884  0.00  0.00     0.001 A 
ATOM      7  C13 ZIN A   1      18.037  -0.799  13.110  0.00  0.00     0.008 A 
ATOM      8  C14 ZIN A   1      18.518  -1.580  12.057  0.00  0.00    -0.047 A 
ATOM      9  C15 ZIN A   1      19.410  -2.723  12.483  0.00  0.00     0.044 C 
ATOM     10  C16 ZIN A   1      19.971  -3.521  11.325  0.00  0.00     0.044 C 
ATOM     11  C17 ZIN A   1      18.896  -4.216  10.534  0.00  0.00    -0.047 A 
ATOM     12  C18 ZIN A   1      18.563  -5.538  10.716  0.00  0.00     0.008 A 
ATOM     13  C19 ZIN A   1      17.585  -6.097   9.904  0.00  0.00     0.001 A 
ATOM     14  C20 ZIN A   1      16.960  -5.342   8.929  0.00  0.00     0.001 A 
ATOM     15  C21 ZIN A   1      17.286  -4.006   8.759  0.00  0.00     0.013 A 
ATOM     16  C22 ZIN A   1      18.243  -3.452   9.588  0.00  0.00    -0.019 A 
ENDROOT
BRANCH   1  17
ATOM     17  C6  ZIN A   1      19.593   0.023   8.602  0.00  0.00     0.055 C 
BRANCH  17  18
ATOM     18  C5  ZIN A   1      18.956   0.719   7.398  0.00  0.00     0.237 C 
BRANCH  18  19
ATOM     19  N2  ZIN A   1      18.581  -0.286   6.394  0.00  0.00    -0.079 N 
ATOM     20  C1  ZIN A   1      17.154  -0.146   6.070  0.00  0.00     0.269 C 
ATOM     21  H3  ZIN A   1      18.752  -1.210   6.762  0.00  0.00     0.278 HD
ATOM     22  C4  ZIN A   1      19.380  -0.087   5.178  0.00  0.00     0.269 C 
ENDBRANCH  18  19
ENDBRANCH  17  18
ENDBRANCH   1  17
TORSDOF 3
ENDMDL
MODEL 7
REMARK VINA RESULT:      -6.9      3.689      6.085
REMARK  3 active torsions:
REMARK  status: ('A' for Active; 'I' for Inactive)
REMARK    1  A    between atoms: N2_2  and  C5_5 
REMARK    2  A    between atoms: C5_5  and  C6_6 
REMARK    3  A    between atoms: C6_6  and  C7_7 
ROOT
ATOM      1  C7  ZIN A   1      17.876  -2.847  10.348  0.00  0.00    -0.012 C 
ATOM      2  C8  ZIN A   1      18.127  -1.534  10.391  0.00  0.00    -0.018 C 
ATOM      3  C9  ZIN A   1      18.258  -0.722   9.148  0.00  0.00    -0.019 A 
ATOM      4  C10 ZIN A   1      17.202  -0.751   8.236  0.00  0.00     0.013 A 
ATOM      5  C11 ZIN A   1      17.257  -0.003   7.080  0.00  0.00     0.001 A 
ATOM      6  C12 ZIN A   1      18.372   0.780   6.837  0.00  0.00     0.001 A 
ATOM      7  C13 ZIN A   1      19.417   0.803   7.732  0.00  0.00     0.008 A 
ATOM      8  C14 ZIN A   1      19.393   0.043   8.903  0.00  0.00    -0.047 A 
ATOM      9  C15 ZIN A   1      20.650   0.140   9.738  0.00  0.00     0.044 C 
ATOM     10  C16 ZIN A   1      20.629  -0.738  10.971  0.00  0.00     0.044 C 
ATOM     11  C17 ZIN A   1      19.554  -0.334  11.943  0.00  0.00    -0.047 A 
ATOM     12  C18 ZIN A   1      19.791   0.456  13.043  0.00  0.00     0.008 A 
ATOM     13  C19 ZIN A   1      18.737   0.736  13.903  0.00  0.00     0.001 A 
ATOM     14  C20 ZIN A   1      17.474   0.226  13.662  0.00  0.00     0.001 A 
ATOM     15  C21 ZIN A   1      17.235  -0.557  12.545  0.00  0.00     0.013 A 
ATOM     16  C22 ZIN A   1      18.284  -0.810  11.682  0.00  0.00    -0.019 A 
ENDROOT
BRANCH   1  17
ATOM     17  C6  ZIN A   1      17.724  -3.543   9.020  0.00  0.00     0.055 C 
BRANCH  17  18
ATOM     18  C5  ZIN A   1      18.845  -4.572   8.853  0.00  0.00     0.237 C 
BRANCH  18  19
ATOM     19  N2  ZIN A   1      19.797  -4.098   7.839  0.00  0.00    -0.079 N 
ATOM     20  C1  ZIN A   1      20.531  -5.243   7.283  0.00  0.00     0.269 C 
ATOM     21  H3  ZIN A   1      20.449  -3.455   8.263  0.00  0.00     0.278 HD
ATOM     22  C4  ZIN A   1      19.067  -3.416   6.762  0.00  0.00     0.269 C 
ENDBRANCH  18  19
ENDBRANCH  17  18
ENDBRANCH   1  17
TORSDOF 3
ENDMDL
MODEL 8
REMARK VINA RESULT:      -6.9      3.483      6.112
REMARK  3 active torsions:
REMARK  status: ('A' for Active; 'I' for Inactive)
REMARK    1  A    between atoms: N2_2  and  C5_5 
REMARK    2  A    between atoms: C5_5  and  C6_6 
REMARK    3  A    between atoms: C6_6  and  C7_7 
ROOT
ATOM      1  C7  ZIN A   1      19.630  -2.597  12.464  0.00  0.00    -0.012 C 
ATOM      2  C8  ZIN A   1      19.044  -1.396  12.527  0.00  0.00    -0.018 C 
ATOM      3  C9  ZIN A   1      18.627  -0.664  11.299  0.00  0.00    -0.019 A 
ATOM      4  C10 ZIN A   1      17.775  -1.317  10.408  0.00  0.00     0.013 A 
ATOM      5  C11 ZIN A   1      17.338  -0.682   9.266  0.00  0.00     0.001 A 
ATOM      6  C12 ZIN A   1      17.752   0.615   9.016  0.00  0.00     0.001 A 
ATOM      7  C13 ZIN A   1      18.599   1.258   9.890  0.00  0.00     0.008 A 
ATOM      8  C14 ZIN A   1      19.068   0.632  11.046  0.00  0.00    -0.047 A 
ATOM      9  C15 ZIN A   1      20.037   1.460  11.858  0.00  0.00     0.044 C 
ATOM     10  C16 ZIN A   1      20.582   0.741  13.074  0.00  0.00     0.044 C 
ATOM     11  C17 ZIN A   1      19.507   0.414  14.075  0.00  0.00    -0.047 A 
ATOM     12  C18 ZIN A   1      19.252   1.184  15.185  0.00  0.00     0.008 A 
ATOM     13  C19 ZIN A   1      18.266   0.772  16.071  0.00  0.00     0.001 A 
ATOM     14  C20 ZIN A   1      17.556  -0.394  15.845  0.00  0.00     0.001 A 
ATOM     15  C21 ZIN A   1      17.804  -1.159  14.718  0.00  0.00     0.013 A 
ATOM     16  C22 ZIN A   1      18.770  -0.728  13.829  0.00  0.00    -0.019 A 
ENDROOT
BRANCH   1  17
ATOM     17  C6  ZIN A   1      19.890  -3.239  11.126  0.00  0.00     0.055 C 
BRANCH  17  18
ATOM     18  C5  ZIN A   1      19.282  -4.643  11.109  0.00  0.00     0.237 C 
BRANCH  18  19
ATOM     19  N2  ZIN A   1      18.825  -4.962   9.749  0.00  0.00    -0.079 N 
ATOM     20  C1  ZIN A   1      19.935  -5.546   8.984  0.00  0.00     0.269 C 
ATOM     21  H3  ZIN A   1      18.510  -4.119   9.293  0.00  0.00     0.278 HD
ATOM     22  C4  ZIN A   1      17.719  -5.925   9.818  0.00  0.00     0.269 C 
ENDBRANCH  18  19
ENDBRANCH  17  18
ENDBRANCH   1  17
TORSDOF 3
ENDMDL
MODEL 9
REMARK VINA RESULT:      -6.8      2.647      5.603
REMARK  3 active torsions:
REMARK  status: ('A' for Active; 'I' for Inactive)
REMARK    1  A    between atoms: N2_2  and  C5_5 
REMARK    2  A    between atoms: C5_5  and  C6_6 
REMARK    3  A    between atoms: C6_6  and  C7_7 
ROOT
ATOM      1  C7  ZIN A   1      19.250   2.315  12.993  0.00  0.00    -0.012 C 
ATOM      2  C8  ZIN A   1      18.518   2.677  14.053  0.00  0.00    -0.018 C 
ATOM      3  C9  ZIN A   1      17.863   4.013  14.130  0.00  0.00    -0.019 A 
ATOM      4  C10 ZIN A   1      17.008   4.381  13.090  0.00  0.00     0.013 A 
ATOM      5  C11 ZIN A   1      16.356   5.595  13.118  0.00  0.00     0.001 A 
ATOM      6  C12 ZIN A   1      16.558   6.443  14.193  0.00  0.00     0.001 A 
ATOM      7  C13 ZIN A   1      17.408   6.085  15.215  0.00  0.00     0.008 A 
ATOM      8  C14 ZIN A   1      18.091   4.868  15.204  0.00  0.00    -0.047 A 
ATOM      9  C15 ZIN A   1      19.029   4.665  16.372  0.00  0.00     0.044 C 
ATOM     10  C16 ZIN A   1      19.807   3.368  16.310  0.00  0.00     0.044 C 
ATOM     11  C17 ZIN A   1      18.912   2.160  16.390  0.00  0.00    -0.047 A 
ATOM     12  C18 ZIN A   1      18.689   1.464  17.554  0.00  0.00     0.008 A 
ATOM     13  C19 ZIN A   1      17.880   0.336  17.513  0.00  0.00     0.001 A 
ATOM     14  C20 ZIN A   1      17.313  -0.083  16.323  0.00  0.00     0.001 A 
ATOM     15  C21 ZIN A   1      17.527   0.630  15.155  0.00  0.00     0.013 A 
ATOM     16  C22 ZIN A   1      18.313   1.764  15.210  0.00  0.00    -0.019 A 
ENDROOT
BRANCH   1  17
ATOM     17  C6  ZIN A   1      19.433   3.269  11.841  0.00  0.00     0.055 C 
BRANCH  17  18
ATOM     18  C5  ZIN A   1      18.671   2.747  10.621  0.00  0.00     0.237 C 
BRANCH  18  19
ATOM     19  N2  ZIN A   1      19.568   1.921   9.801  0.00  0.00    -0.079 N 
ATOM     20  C1  ZIN A   1      19.388   0.506  10.151  0.00  0.00     0.269 C 
ATOM     21  H3  ZIN A   1      20.526   2.190   9.973  0.00  0.00     0.278 HD
ATOM     22  C4  ZIN A   1      19.251   2.118   8.380  0.00  0.00     0.269 C 
ENDBRANCH  18  19
ENDBRANCH  17  18
ENDBRANCH   1  17
TORSDOF 3
ENDMDL
