MODEL 1
REMARK VINA RESULT:      -7.6      0.000      0.000
REMARK  6 active torsions:
REMARK  status: ('A' for Active; 'I' for Inactive)
REMARK    1  A    between atoms: O2_2  and  C3_3 
REMARK    2  A    between atoms: C3_3  and  C5_5 
REMARK    3  A    between atoms: C11_11  and  C12_12 
REMARK    4  A    between atoms: C12_12  and  O14_14 
REMARK    5  A    between atoms: O14_14  and  C15_15 
REMARK    6  A    between atoms: C18_18  and  C20_19 
ROOT
ATOM      1  C5  ZIN A   1      18.157   1.225  15.735  0.00  0.00     0.052 C 
ATOM      2  C6  ZIN A   1      19.046   1.782  16.576  0.00  0.00     0.018 C 
ATOM      3  C7  ZIN A   1      19.364   1.099  17.882  0.00  0.00     0.069 C 
ATOM      4  N8  ZIN A   1      19.666   2.960  16.262  0.00  0.00    -0.362 N 
ATOM      5  C9  ZIN A   1      19.152   3.772  15.288  0.00  0.00     0.018 C 
ATOM      6  C10 ZIN A   1      19.582   5.215  15.218  0.00  0.00     0.069 C 
ATOM      7  C11 ZIN A   1      18.267   3.299  14.393  0.00  0.00     0.052 C 
ATOM      8  C18 ZIN A   1      17.821   1.863  14.417  0.00  0.00     0.103 C 
ATOM      9  H35 ZIN A   1      20.474   3.221  16.731  0.00  0.00     0.165 HD
ENDROOT
BRANCH   8  10
ATOM     10  C20 ZIN A   1      18.505   1.112  13.304  0.00  0.00    -0.011 A 
ATOM     11  C28 ZIN A   1      17.745   0.426  12.336  0.00  0.00     0.124 A 
ATOM     12  C24 ZIN A   1      18.456  -0.297  11.253  0.00  0.00     0.118 A 
ATOM     13  N27 ZIN A   1      16.485   0.213  12.048  0.00  0.00    -0.102 NA
ATOM     14  C23 ZIN A   1      19.865  -0.279  11.241  0.00  0.00     0.036 A 
ATOM     15  N25 ZIN A   1      17.474  -0.800  10.547  0.00  0.00    -0.103 NA
ATOM     16  C22 ZIN A   1      20.530   0.397  12.209  0.00  0.00     0.003 A 
ATOM     17  C21 ZIN A   1      19.859   1.084  13.228  0.00  0.00     0.011 A 
ATOM     18  O26 ZIN A   1      16.417  -0.474  11.049  0.00  0.00    -0.106 OA
ENDBRANCH   8  10
BRANCH   1  19
ATOM     19  C3  ZIN A   1      17.530   0.011  16.096  0.00  0.00     0.291 C 
ATOM     20  O4  ZIN A   1      16.666   0.003  16.954  0.00  0.00    -0.260 OA
BRANCH  19  21
ATOM     21  O2  ZIN A   1      17.889  -1.141  15.491  0.00  0.00    -0.323 OA
ATOM     22  C1  ZIN A   1      19.214  -1.618  15.737  0.00  0.00     0.213 C 
ENDBRANCH  19  21
ENDBRANCH   1  19
BRANCH   7  23
ATOM     23  C12 ZIN A   1      17.752   4.168  13.404  0.00  0.00     0.292 C 
ATOM     24  O13 ZIN A   1      16.731   4.794  13.616  0.00  0.00    -0.259 OA
BRANCH  23  25
ATOM     25  O14 ZIN A   1      18.393   4.302  12.224  0.00  0.00    -0.313 OA
BRANCH  25  26
ATOM     26  C15 ZIN A   1      17.659   3.964  11.045  0.00  0.00     0.124 C 
ATOM     27  C16 ZIN A   1      17.188   5.245  10.353  0.00  0.00     0.040 C 
ATOM     28  C17 ZIN A   1      18.558   3.172  10.095  0.00  0.00     0.040 C 
ENDBRANCH  25  26
ENDBRANCH  23  25
ENDBRANCH   7  23
TORSDOF 6
ENDMDL
MODEL 2
REMARK VINA RESULT:      -7.2      3.956      8.298
REMARK  6 active torsions:
REMARK  status: ('A' for Active; 'I' for Inactive)
REMARK    1  A    between atoms: O2_2  and  C3_3 
REMARK    2  A    between atoms: C3_3  and  C5_5 
REMARK    3  A    between atoms: C11_11  and  C12_12 
REMARK    4  A    between atoms: C12_12  and  O14_14 
REMARK    5  A    between atoms: O14_14  and  C15_15 
REMARK    6  A    between atoms: C18_18  and  C20_19 
ROOT
ATOM      1  C5  ZIN A   1      18.293  -1.129   6.940  0.00  0.00     0.052 C 
ATOM      2  C6  ZIN A   1      19.183  -1.703   6.111  0.00  0.00     0.018 C 
ATOM      3  C7  ZIN A   1      19.561  -1.008   4.828  0.00  0.00     0.069 C 
ATOM      4  N8  ZIN A   1      19.748  -2.911   6.417  0.00  0.00    -0.362 N 
ATOM      5  C9  ZIN A   1      19.178  -3.721   7.360  0.00  0.00     0.018 C 
ATOM      6  C10 ZIN A   1      19.550  -5.180   7.412  0.00  0.00     0.069 C 
ATOM      7  C11 ZIN A   1      18.288  -3.231   8.241  0.00  0.00     0.052 C 
ATOM      8  C18 ZIN A   1      17.898  -1.779   8.235  0.00  0.00     0.103 C 
ATOM      9  H35 ZIN A   1      20.558  -3.193   5.963  0.00  0.00     0.165 HD
ENDROOT
BRANCH   8  10
ATOM     10  C20 ZIN A   1      18.579  -1.077   9.381  0.00  0.00    -0.011 A 
ATOM     11  C28 ZIN A   1      17.829  -0.307  10.291  0.00  0.00     0.124 A 
ATOM     12  C24 ZIN A   1      18.537   0.364  11.409  0.00  0.00     0.118 A 
ATOM     13  N27 ZIN A   1      16.579   0.028  10.496  0.00  0.00    -0.102 NA
ATOM     14  C23 ZIN A   1      19.935   0.215  11.510  0.00  0.00     0.036 A 
ATOM     15  N25 ZIN A   1      17.565   0.969  12.047  0.00  0.00    -0.103 NA
ATOM     16  C22 ZIN A   1      20.591  -0.537  10.594  0.00  0.00     0.003 A 
ATOM     17  C21 ZIN A   1      19.923  -1.175   9.542  0.00  0.00     0.011 A 
ATOM     18  O26 ZIN A   1      16.515   0.736  11.482  0.00  0.00    -0.106 OA
ENDBRANCH   8  10
BRANCH   1  19
ATOM     19  C3  ZIN A   1      17.722   0.115   6.588  0.00  0.00     0.291 C 
ATOM     20  O4  ZIN A   1      16.520   0.209   6.424  0.00  0.00    -0.260 OA
BRANCH  19  21
ATOM     21  O2  ZIN A   1      18.511   1.200   6.432  0.00  0.00    -0.323 OA
ATOM     22  C1  ZIN A   1      19.031   1.801   7.620  0.00  0.00     0.213 C 
ENDBRANCH  19  21
ENDBRANCH   1  19
BRANCH   7  23
ATOM     23  C12 ZIN A   1      17.713  -4.100   9.198  0.00  0.00     0.292 C 
ATOM     24  O13 ZIN A   1      16.636  -4.621   8.978  0.00  0.00    -0.259 OA
BRANCH  23  25
ATOM     25  O14 ZIN A   1      18.359  -4.348  10.356  0.00  0.00    -0.313 OA
BRANCH  25  26
ATOM     26  C15 ZIN A   1      17.633  -4.122  11.566  0.00  0.00     0.124 C 
ATOM     27  C16 ZIN A   1      17.433  -5.451  12.298  0.00  0.00     0.040 C 
ATOM     28  C17 ZIN A   1      18.418  -3.161  12.460  0.00  0.00     0.040 C 
ENDBRANCH  25  26
ENDBRANCH  23  25
ENDBRANCH   7  23
TORSDOF 6
ENDMDL
MODEL 3
REMARK VINA RESULT:      -7.2      5.053      8.503
REMARK  6 active torsions:
REMARK  status: ('A' for Active; 'I' for Inactive)
REMARK    1  A    between atoms: O2_2  and  C3_3 
REMARK    2  A    between atoms: C3_3  and  C5_5 
REMARK    3  A    between atoms: C11_11  and  C12_12 
REMARK    4  A    between atoms: C12_12  and  O14_14 
REMARK    5  A    between atoms: O14_14  and  C15_15 
REMARK    6  A    between atoms: C18_18  and  C20_19 
ROOT
ATOM      1  C5  ZIN A   1      18.584  -1.871   6.549  0.00  0.00     0.052 C 
ATOM      2  C6  ZIN A   1      17.599  -0.970   6.377  0.00  0.00     0.018 C 
ATOM      3  C7  ZIN A   1      17.030  -0.745   5.000  0.00  0.00     0.069 C 
ATOM      4  N8  ZIN A   1      17.110  -0.256   7.436  0.00  0.00    -0.362 N 
ATOM      5  C9  ZIN A   1      17.825  -0.168   8.599  0.00  0.00     0.018 C 
ATOM      6  C10 ZIN A   1      17.497   0.915   9.594  0.00  0.00     0.069 C 
ATOM      7  C11 ZIN A   1      18.819  -1.035   8.864  0.00  0.00     0.052 C 
ATOM      8  C18 ZIN A   1      19.171  -2.138   7.905  0.00  0.00     0.103 C 
ATOM      9  H35 ZIN A   1      16.251   0.189   7.362  0.00  0.00     0.165 HD
ENDROOT
BRANCH   8  10
ATOM     10  C20 ZIN A   1      18.640  -3.445   8.437  0.00  0.00    -0.011 A 
ATOM     11  C28 ZIN A   1      19.444  -4.602   8.413  0.00  0.00     0.124 A 
ATOM     12  C24 ZIN A   1      18.887  -5.868   8.951  0.00  0.00     0.118 A 
ATOM     13  N27 ZIN A   1      20.653  -4.950   8.045  0.00  0.00    -0.102 NA
ATOM     14  C23 ZIN A   1      17.571  -5.867   9.453  0.00  0.00     0.036 A 
ATOM     15  N25 ZIN A   1      19.875  -6.712   8.785  0.00  0.00    -0.103 NA
ATOM     16  C22 ZIN A   1      16.854  -4.717   9.437  0.00  0.00     0.003 A 
ATOM     17  C21 ZIN A   1      17.381  -3.521   8.936  0.00  0.00     0.011 A 
ATOM     18  O26 ZIN A   1      20.814  -6.130   8.280  0.00  0.00    -0.106 OA
ENDBRANCH   8  10
BRANCH   1  19
ATOM     19  C3  ZIN A   1      19.070  -2.585   5.431  0.00  0.00     0.291 C 
ATOM     20  O4  ZIN A   1      19.824  -2.044   4.644  0.00  0.00    -0.260 OA
BRANCH  19  21
ATOM     21  O2  ZIN A   1      18.698  -3.868   5.235  0.00  0.00    -0.323 OA
ATOM     22  C1  ZIN A   1      17.971  -4.158   4.039  0.00  0.00     0.213 C 
ENDBRANCH  19  21
ENDBRANCH   1  19
BRANCH   7  23
ATOM     23  C12 ZIN A   1      19.541  -0.909  10.073  0.00  0.00     0.292 C 
ATOM     24  O13 ZIN A   1      20.676  -0.469  10.061  0.00  0.00    -0.259 OA
BRANCH  23  25
ATOM     25  O14 ZIN A   1      18.973  -1.279  11.239  0.00  0.00    -0.313 OA
BRANCH  25  26
ATOM     26  C15 ZIN A   1      19.807  -1.955  12.182  0.00  0.00     0.124 C 
ATOM     27  C16 ZIN A   1      19.281  -1.707  13.598  0.00  0.00     0.040 C 
ATOM     28  C17 ZIN A   1      19.796  -3.456  11.890  0.00  0.00     0.040 C 
ENDBRANCH  25  26
ENDBRANCH  23  25
ENDBRANCH   7  23
TORSDOF 6
ENDMDL
MODEL 4
REMARK VINA RESULT:      -7.1      4.623      7.792
REMARK  6 active torsions:
REMARK  status: ('A' for Active; 'I' for Inactive)
REMARK    1  A    between atoms: O2_2  and  C3_3 
REMARK    2  A    between atoms: C3_3  and  C5_5 
REMARK    3  A    between atoms: C11_11  and  C12_12 
REMARK    4  A    between atoms: C12_12  and  O14_14 
REMARK    5  A    between atoms: O14_14  and  C15_15 
REMARK    6  A    between atoms: C18_18  and  C20_19 
ROOT
ATOM      1  C5  ZIN A   1      19.045  -1.160  10.803  0.00  0.00     0.052 C 
ATOM      2  C6  ZIN A   1      18.091  -1.273  11.744  0.00  0.00     0.018 C 
ATOM      3  C7  ZIN A   1      17.974  -0.218  12.816  0.00  0.00     0.069 C 
ATOM      4  N8  ZIN A   1      17.226  -2.332  11.741  0.00  0.00    -0.362 N 
ATOM      5  C9  ZIN A   1      17.519  -3.462  11.028  0.00  0.00     0.018 C 
ATOM      6  C10 ZIN A   1      16.793  -4.746  11.336  0.00  0.00     0.069 C 
ATOM      7  C11 ZIN A   1      18.449  -3.440  10.057  0.00  0.00     0.052 C 
ATOM      8  C18 ZIN A   1      19.188  -2.178   9.708  0.00  0.00     0.103 C 
ATOM      9  H35 ZIN A   1      16.399  -2.282  12.248  0.00  0.00     0.165 HD
ENDROOT
BRANCH   8  10
ATOM     10  C20 ZIN A   1      18.635  -1.619   8.422  0.00  0.00    -0.011 A 
ATOM     11  C28 ZIN A   1      19.112  -2.084   7.181  0.00  0.00     0.124 A 
ATOM     12  C24 ZIN A   1      18.538  -1.512   5.938  0.00  0.00     0.118 A 
ATOM     13  N27 ZIN A   1      19.976  -2.958   6.726  0.00  0.00    -0.102 NA
ATOM     14  C23 ZIN A   1      17.547  -0.517   6.047  0.00  0.00     0.036 A 
ATOM     15  N25 ZIN A   1      19.184  -2.157   4.997  0.00  0.00    -0.103 NA
ATOM     16  C22 ZIN A   1      17.141  -0.115   7.276  0.00  0.00     0.003 A 
ATOM     17  C21 ZIN A   1      17.679  -0.658   8.449  0.00  0.00     0.011 A 
ATOM     18  O26 ZIN A   1      19.960  -2.937   5.512  0.00  0.00    -0.106 OA
ENDBRANCH   8  10
BRANCH   1  19
ATOM     19  C3  ZIN A   1      19.926  -0.055  10.840  0.00  0.00     0.291 C 
ATOM     20  O4  ZIN A   1      21.009  -0.159  11.387  0.00  0.00    -0.260 OA
BRANCH  19  21
ATOM     21  O2  ZIN A   1      19.568   1.115  10.271  0.00  0.00    -0.323 OA
ATOM     22  C1  ZIN A   1      19.624   2.282  11.094  0.00  0.00     0.213 C 
ENDBRANCH  19  21
ENDBRANCH   1  19
BRANCH   7  23
ATOM     23  C12 ZIN A   1      18.732  -4.629   9.345  0.00  0.00     0.292 C 
ATOM     24  O13 ZIN A   1      19.731  -5.272   9.606  0.00  0.00    -0.259 OA
BRANCH  23  25
ATOM     25  O14 ZIN A   1      17.894  -5.048   8.374  0.00  0.00    -0.313 OA
BRANCH  25  26
ATOM     26  C15 ZIN A   1      17.968  -6.427   8.004  0.00  0.00     0.124 C 
ATOM     27  C16 ZIN A   1      16.668  -7.132   8.398  0.00  0.00     0.040 C 
ATOM     28  C17 ZIN A   1      18.171  -6.539   6.492  0.00  0.00     0.040 C 
ENDBRANCH  25  26
ENDBRANCH  23  25
ENDBRANCH   7  23
TORSDOF 6
ENDMDL
MODEL 5
REMARK VINA RESULT:      -6.9      2.512      5.607
REMARK  6 active torsions:
REMARK  status: ('A' for Active; 'I' for Inactive)
REMARK    1  A    between atoms: O2_2  and  C3_3 
REMARK    2  A    between atoms: C3_3  and  C5_5 
REMARK    3  A    between atoms: C11_11  and  C12_12 
REMARK    4  A    between atoms: C12_12  and  O14_14 
REMARK    5  A    between atoms: O14_14  and  C15_15 
REMARK    6  A    between atoms: C18_18  and  C20_19 
ROOT
ATOM      1  C5  ZIN A   1      18.747   3.693  12.708  0.00  0.00     0.052 C 
ATOM      2  C6  ZIN A   1      17.687   4.112  11.994  0.00  0.00     0.018 C 
ATOM      3  C7  ZIN A   1      17.637   3.845  10.511  0.00  0.00     0.069 C 
ATOM      4  N8  ZIN A   1      16.655   4.777  12.597  0.00  0.00    -0.362 N 
ATOM      5  C9  ZIN A   1      16.824   5.342  13.831  0.00  0.00     0.018 C 
ATOM      6  C10 ZIN A   1      15.853   6.390  14.309  0.00  0.00     0.069 C 
ATOM      7  C11 ZIN A   1      17.848   4.974  14.622  0.00  0.00     0.052 C 
ATOM      8  C18 ZIN A   1      18.832   3.923  14.190  0.00  0.00     0.103 C 
ATOM      9  H35 ZIN A   1      15.798   4.848  12.147  0.00  0.00     0.165 HD
ENDROOT
BRANCH   8  10
ATOM     10  C20 ZIN A   1      18.537   2.638  14.919  0.00  0.00    -0.011 A 
ATOM     11  C28 ZIN A   1      19.064   2.412  16.206  0.00  0.00     0.124 A 
ATOM     12  C24 ZIN A   1      18.745   1.136  16.892  0.00  0.00     0.118 A 
ATOM     13  N27 ZIN A   1      19.807   3.037  17.085  0.00  0.00    -0.102 NA
ATOM     14  C23 ZIN A   1      17.938   0.193  16.225  0.00  0.00     0.036 A 
ATOM     15  N25 ZIN A   1      19.371   1.258  18.037  0.00  0.00    -0.103 NA
ATOM     16  C22 ZIN A   1      17.472   0.477  14.985  0.00  0.00     0.003 A 
ATOM     17  C21 ZIN A   1      17.767   1.683  14.339  0.00  0.00     0.011 A 
ATOM     18  O26 ZIN A   1      19.934   2.335  18.068  0.00  0.00    -0.106 OA
ENDBRANCH   8  10
BRANCH   1  19
ATOM     19  C3  ZIN A   1      19.799   3.015  12.051  0.00  0.00     0.291 C 
ATOM     20  O4  ZIN A   1      20.827   3.607  11.777  0.00  0.00    -0.260 OA
BRANCH  19  21
ATOM     21  O2  ZIN A   1      19.665   1.712  11.727  0.00  0.00    -0.323 OA
ATOM     22  C1  ZIN A   1      20.641   0.808  12.249  0.00  0.00     0.213 C 
ENDBRANCH  19  21
ENDBRANCH   1  19
BRANCH   7  23
ATOM     23  C12 ZIN A   1      17.996   5.585  15.889  0.00  0.00     0.292 C 
ATOM     24  O13 ZIN A   1      18.871   6.412  16.067  0.00  0.00    -0.259 OA
BRANCH  23  25
ATOM     25  O14 ZIN A   1      17.169   5.249  16.899  0.00  0.00    -0.313 OA
BRANCH  25  26
ATOM     26  C15 ZIN A   1      17.473   5.779  18.191  0.00  0.00     0.124 C 
ATOM     27  C16 ZIN A   1      16.427   6.831  18.570  0.00  0.00     0.040 C 
ATOM     28  C17 ZIN A   1      17.458   4.651  19.223  0.00  0.00     0.040 C 
ENDBRANCH  25  26
ENDBRANCH  23  25
ENDBRANCH   7  23
TORSDOF 6
ENDMDL
MODEL 6
REMARK VINA RESULT:      -6.7      3.131      5.666
REMARK  6 active torsions:
REMARK  status: ('A' for Active; 'I' for Inactive)
REMARK    1  A    between atoms: O2_2  and  C3_3 
REMARK    2  A    between atoms: C3_3  and  C5_5 
REMARK    3  A    between atoms: C11_11  and  C12_12 
REMARK    4  A    between atoms: C12_12  and  O14_14 
REMARK    5  A    between atoms: O14_14  and  C15_15 
REMARK    6  A    between atoms: C18_18  and  C20_19 
ROOT
ATOM      1  C5  ZIN A   1      18.495  -2.708  10.239  0.00  0.00     0.052 C 
ATOM      2  C6  ZIN A   1      19.343  -3.087  11.212  0.00  0.00     0.018 C 
ATOM      3  C7  ZIN A   1      20.064  -4.406  11.099  0.00  0.00     0.069 C 
ATOM      4  N8  ZIN A   1      19.558  -2.290  12.303  0.00  0.00    -0.362 N 
ATOM      5  C9  ZIN A   1      18.678  -1.290  12.612  0.00  0.00     0.018 C 
ATOM      6  C10 ZIN A   1      18.688  -0.691  13.995  0.00  0.00     0.069 C 
ATOM      7  C11 ZIN A   1      17.802  -0.836  11.698  0.00  0.00     0.052 C 
ATOM      8  C18 ZIN A   1      17.767  -1.396  10.303  0.00  0.00     0.103 C 
ATOM      9  H35 ZIN A   1      20.340  -2.436  12.860  0.00  0.00     0.165 HD
ENDROOT
BRANCH   8  10
ATOM     10  C20 ZIN A   1      18.410  -0.414   9.358  0.00  0.00    -0.011 A 
ATOM     11  C28 ZIN A   1      17.867  -0.200   8.076  0.00  0.00     0.124 A 
ATOM     12  C24 ZIN A   1      18.527   0.779   7.177  0.00  0.00     0.118 A 
ATOM     13  N27 ZIN A   1      16.855  -0.619   7.356  0.00  0.00    -0.102 NA
ATOM     14  C23 ZIN A   1      19.679   1.447   7.636  0.00  0.00     0.036 A 
ATOM     15  N25 ZIN A   1      17.778   0.736   6.102  0.00  0.00    -0.103 NA
ATOM     16  C22 ZIN A   1      20.148   1.186   8.880  0.00  0.00     0.003 A 
ATOM     17  C21 ZIN A   1      19.523   0.266   9.730  0.00  0.00     0.011 A 
ATOM     18  O26 ZIN A   1      16.876  -0.059   6.278  0.00  0.00    -0.106 OA
ENDBRANCH   8  10
BRANCH   1  19
ATOM     19  C3  ZIN A   1      18.291  -3.559   9.129  0.00  0.00     0.291 C 
ATOM     20  O4  ZIN A   1      17.323  -4.297   9.098  0.00  0.00    -0.260 OA
BRANCH  19  21
ATOM     21  O2  ZIN A   1      19.169  -3.556   8.105  0.00  0.00    -0.323 OA
ATOM     22  C1  ZIN A   1      18.643  -3.789   6.796  0.00  0.00     0.213 C 
ENDBRANCH  19  21
ENDBRANCH   1  19
BRANCH   7  23
ATOM     23  C12 ZIN A   1      16.902   0.194  12.055  0.00  0.00     0.292 C 
ATOM     24  O13 ZIN A   1      15.721   0.092  11.783  0.00  0.00    -0.259 OA
BRANCH  23  25
ATOM     25  O14 ZIN A   1      17.355   1.292  12.695  0.00  0.00    -0.313 OA
BRANCH  25  26
ATOM     26  C15 ZIN A   1      18.224   2.159  11.962  0.00  0.00     0.124 C 
ATOM     27  C16 ZIN A   1      17.397   3.020  11.005  0.00  0.00     0.040 C 
ATOM     28  C17 ZIN A   1      18.983   3.062  12.935  0.00  0.00     0.040 C 
ENDBRANCH  25  26
ENDBRANCH  23  25
ENDBRANCH   7  23
TORSDOF 6
ENDMDL
MODEL 7
REMARK VINA RESULT:      -6.7      2.082      4.888
REMARK  6 active torsions:
REMARK  status: ('A' for Active; 'I' for Inactive)
REMARK    1  A    between atoms: O2_2  and  C3_3 
REMARK    2  A    between atoms: C3_3  and  C5_5 
REMARK    3  A    between atoms: C11_11  and  C12_12 
REMARK    4  A    between atoms: C12_12  and  O14_14 
REMARK    5  A    between atoms: O14_14  and  C15_15 
REMARK    6  A    between atoms: C18_18  and  C20_19 
ROOT
ATOM      1  C5  ZIN A   1      18.425   2.848  13.158  0.00  0.00     0.052 C 
ATOM      2  C6  ZIN A   1      19.286   3.375  12.269  0.00  0.00     0.018 C 
ATOM      3  C7  ZIN A   1      19.959   4.689  12.573  0.00  0.00     0.069 C 
ATOM      4  N8  ZIN A   1      19.557   2.733  11.091  0.00  0.00    -0.362 N 
ATOM      5  C9  ZIN A   1      18.718   1.756  10.628  0.00  0.00     0.018 C 
ATOM      6  C10 ZIN A   1      18.786   1.342   9.181  0.00  0.00     0.069 C 
ATOM      7  C11 ZIN A   1      17.834   1.162  11.449  0.00  0.00     0.052 C 
ATOM      8  C18 ZIN A   1      17.743   1.535  12.903  0.00  0.00     0.103 C 
ATOM      9  H35 ZIN A   1      20.348   2.972  10.582  0.00  0.00     0.165 HD
ENDROOT
BRANCH   8  10
ATOM     10  C20 ZIN A   1      18.392   0.458  13.733  0.00  0.00    -0.011 A 
ATOM     11  C28 ZIN A   1      17.827   0.070  14.964  0.00  0.00     0.124 A 
ATOM     12  C24 ZIN A   1      18.494  -0.998  15.749  0.00  0.00     0.118 A 
ATOM     13  N27 ZIN A   1      16.788   0.370  15.705  0.00  0.00    -0.102 NA
ATOM     14  C23 ZIN A   1      19.674  -1.574  15.239  0.00  0.00     0.036 A 
ATOM     15  N25 ZIN A   1      17.721  -1.110  16.801  0.00  0.00    -0.103 NA
ATOM     16  C22 ZIN A   1      20.163  -1.145  14.050  0.00  0.00     0.003 A 
ATOM     17  C21 ZIN A   1      19.531  -0.142  13.306  0.00  0.00     0.011 A 
ATOM     18  O26 ZIN A   1      16.801  -0.322  16.704  0.00  0.00    -0.106 OA
ENDBRANCH   8  10
BRANCH   1  19
ATOM     19  C3  ZIN A   1      18.163   3.542  14.361  0.00  0.00     0.291 C 
ATOM     20  O4  ZIN A   1      17.248   4.344  14.415  0.00  0.00    -0.260 OA
BRANCH  19  21
ATOM     21  O2  ZIN A   1      18.927   3.318  15.451  0.00  0.00    -0.323 OA
ATOM     22  C1  ZIN A   1      19.344   4.462  16.199  0.00  0.00     0.213 C 
ENDBRANCH  19  21
ENDBRANCH   1  19
BRANCH   7  23
ATOM     23  C12 ZIN A   1      16.978   0.161  10.935  0.00  0.00     0.292 C 
ATOM     24  O13 ZIN A   1      15.805   0.139  11.255  0.00  0.00    -0.259 OA
BRANCH  23  25
ATOM     25  O14 ZIN A   1      17.465  -0.772  10.089  0.00  0.00    -0.313 OA
BRANCH  25  26
ATOM     26  C15 ZIN A   1      18.281  -1.799  10.656  0.00  0.00     0.124 C 
ATOM     27  C16 ZIN A   1      17.424  -2.695  11.553  0.00  0.00     0.040 C 
ATOM     28  C17 ZIN A   1      18.896  -2.638   9.535  0.00  0.00     0.040 C 
ENDBRANCH  25  26
ENDBRANCH  23  25
ENDBRANCH   7  23
TORSDOF 6
ENDMDL
MODEL 8
REMARK VINA RESULT:      -6.5      2.115      5.083
REMARK  6 active torsions:
REMARK  status: ('A' for Active; 'I' for Inactive)
REMARK    1  A    between atoms: O2_2  and  C3_3 
REMARK    2  A    between atoms: C3_3  and  C5_5 
REMARK    3  A    between atoms: C11_11  and  C12_12 
REMARK    4  A    between atoms: C12_12  and  O14_14 
REMARK    5  A    between atoms: O14_14  and  C15_15 
REMARK    6  A    between atoms: C18_18  and  C20_19 
ROOT
ATOM      1  C5  ZIN A   1      19.147   1.519  12.308  0.00  0.00     0.052 C 
ATOM      2  C6  ZIN A   1      18.216   1.694  11.353  0.00  0.00     0.018 C 
ATOM      3  C7  ZIN A   1      18.134   0.719  10.206  0.00  0.00     0.069 C 
ATOM      4  N8  ZIN A   1      17.344   2.746  11.409  0.00  0.00    -0.362 N 
ATOM      5  C9  ZIN A   1      17.612   3.823  12.208  0.00  0.00     0.018 C 
ATOM      6  C10 ZIN A   1      16.885   5.123  11.975  0.00  0.00     0.069 C 
ATOM      7  C11 ZIN A   1      18.517   3.737  13.199  0.00  0.00     0.052 C 
ATOM      8  C18 ZIN A   1      19.255   2.457  13.476  0.00  0.00     0.103 C 
ATOM      9  H35 ZIN A   1      16.531   2.728  10.879  0.00  0.00     0.165 HD
ENDROOT
BRANCH   8  10
ATOM     10  C20 ZIN A   1      18.674   1.805  14.704  0.00  0.00    -0.011 A 
ATOM     11  C28 ZIN A   1      19.136   2.161  15.986  0.00  0.00     0.124 A 
ATOM     12  C24 ZIN A   1      18.534   1.500  17.170  0.00  0.00     0.118 A 
ATOM     13  N27 ZIN A   1      20.004   2.984  16.523  0.00  0.00    -0.102 NA
ATOM     14  C23 ZIN A   1      17.532   0.531  16.965  0.00  0.00     0.036 A 
ATOM     15  N25 ZIN A   1      19.173   2.057  18.169  0.00  0.00    -0.103 NA
ATOM     16  C22 ZIN A   1      17.142   0.234  15.702  0.00  0.00     0.003 A 
ATOM     17  C21 ZIN A   1      17.705   0.862  14.585  0.00  0.00     0.011 A 
ATOM     18  O26 ZIN A   1      19.967   2.865  17.731  0.00  0.00    -0.106 OA
ENDBRANCH   8  10
BRANCH   1  19
ATOM     19  C3  ZIN A   1      20.037   0.425  12.215  0.00  0.00     0.291 C 
ATOM     20  O4  ZIN A   1      21.239   0.615  12.233  0.00  0.00    -0.260 OA
BRANCH  19  21
ATOM     21  O2  ZIN A   1      19.554  -0.831  12.103  0.00  0.00    -0.323 OA
ATOM     22  C1  ZIN A   1      19.627  -1.660  13.264  0.00  0.00     0.213 C 
ENDBRANCH  19  21
ENDBRANCH   1  19
BRANCH   7  23
ATOM     23  C12 ZIN A   1      18.773   4.873  14.002  0.00  0.00     0.292 C 
ATOM     24  O13 ZIN A   1      19.806   5.499  13.859  0.00  0.00    -0.259 OA
BRANCH  23  25
ATOM     25  O14 ZIN A   1      17.872   5.261  14.928  0.00  0.00    -0.313 OA
BRANCH  25  26
ATOM     26  C15 ZIN A   1      18.298   6.240  15.878  0.00  0.00     0.124 C 
ATOM     27  C16 ZIN A   1      17.629   7.581  15.564  0.00  0.00     0.040 C 
ATOM     28  C17 ZIN A   1      17.903   5.791  17.286  0.00  0.00     0.040 C 
ENDBRANCH  25  26
ENDBRANCH  23  25
ENDBRANCH   7  23
TORSDOF 6
ENDMDL
MODEL 9
REMARK VINA RESULT:      -6.5      2.217      4.720
REMARK  6 active torsions:
REMARK  status: ('A' for Active; 'I' for Inactive)
REMARK    1  A    between atoms: O2_2  and  C3_3 
REMARK    2  A    between atoms: C3_3  and  C5_5 
REMARK    3  A    between atoms: C11_11  and  C12_12 
REMARK    4  A    between atoms: C12_12  and  O14_14 
REMARK    5  A    between atoms: O14_14  and  C15_15 
REMARK    6  A    between atoms: C18_18  and  C20_19 
ROOT
ATOM      1  C5  ZIN A   1      19.273   3.324  16.021  0.00  0.00     0.052 C 
ATOM      2  C6  ZIN A   1      18.524   2.954  17.075  0.00  0.00     0.018 C 
ATOM      3  C7  ZIN A   1      18.557   3.777  18.337  0.00  0.00     0.069 C 
ATOM      4  N8  ZIN A   1      17.733   1.839  17.015  0.00  0.00    -0.362 N 
ATOM      5  C9  ZIN A   1      17.946   0.892  16.052  0.00  0.00     0.018 C 
ATOM      6  C10 ZIN A   1      17.363  -0.487  16.222  0.00  0.00     0.069 C 
ATOM      7  C11 ZIN A   1      18.671   1.176  14.956  0.00  0.00     0.052 C 
ATOM      8  C18 ZIN A   1      19.260   2.542  14.739  0.00  0.00     0.103 C 
ATOM      9  H35 ZIN A   1      17.017   1.721  17.660  0.00  0.00     0.165 HD
ENDROOT
BRANCH   8  10
ATOM     10  C20 ZIN A   1      18.442   3.277  13.708  0.00  0.00    -0.011 A 
ATOM     11  C28 ZIN A   1      18.769   3.181  12.341  0.00  0.00     0.124 A 
ATOM     12  C24 ZIN A   1      17.936   3.915  11.356  0.00  0.00     0.118 A 
ATOM     13  N27 ZIN A   1      19.651   2.579  11.582  0.00  0.00    -0.102 NA
ATOM     14  C23 ZIN A   1      16.858   4.690  11.828  0.00  0.00     0.036 A 
ATOM     15  N25 ZIN A   1      18.498   3.607  10.214  0.00  0.00    -0.103 NA
ATOM     16  C22 ZIN A   1      16.608   4.740  13.159  0.00  0.00     0.003 A 
ATOM     17  C21 ZIN A   1      17.390   4.043  14.088  0.00  0.00     0.011 A 
ATOM     18  O26 ZIN A   1      19.438   2.866  10.421  0.00  0.00    -0.106 OA
ENDBRANCH   8  10
BRANCH   1  19
ATOM     19  C3  ZIN A   1      20.084   4.478  16.120  0.00  0.00     0.291 C 
ATOM     20  O4  ZIN A   1      21.273   4.367  16.357  0.00  0.00    -0.260 OA
BRANCH  19  21
ATOM     21  O2  ZIN A   1      19.541   5.702  15.955  0.00  0.00    -0.323 OA
ATOM     22  C1  ZIN A   1      19.999   6.470  14.840  0.00  0.00     0.213 C 
ENDBRANCH  19  21
ENDBRANCH   1  19
BRANCH   7  23
ATOM     23  C12 ZIN A   1      18.877   0.170  13.983  0.00  0.00     0.292 C 
ATOM     24  O13 ZIN A   1      20.004  -0.217  13.737  0.00  0.00    -0.259 OA
BRANCH  23  25
ATOM     25  O14 ZIN A   1      17.823  -0.359  13.328  0.00  0.00    -0.313 OA
BRANCH  25  26
ATOM     26  C15 ZIN A   1      17.987  -0.608  11.930  0.00  0.00     0.124 C 
ATOM     27  C16 ZIN A   1      17.756  -2.094  11.646  0.00  0.00     0.040 C 
ATOM     28  C17 ZIN A   1      16.976   0.225  11.141  0.00  0.00     0.040 C 
ENDBRANCH  25  26
ENDBRANCH  23  25
ENDBRANCH   7  23
TORSDOF 6
ENDMDL
