MODEL 1
REMARK VINA RESULT:      -7.2      0.000      0.000
REMARK  2 active torsions:
REMARK  status: ('A' for Active; 'I' for Inactive)
REMARK    1  A    between atoms: C8_8  and  N9_9 
REMARK       I    between atoms: N9_9  and  C10_10 
REMARK    2  A    between atoms: C10_10  and  C12_12 
ROOT
ATOM      1  N9  <0> d   1      18.052   0.531  12.100  0.00  0.00    -0.324 N 
ATOM      2  C10 <0> d   1      18.932   0.512  13.121  0.00  0.00     0.253 C 
ATOM      3  O11 <0> d   1      20.100   0.767  12.921  0.00  0.00    -0.271 OA
ATOM      4  H30 <0> d   1      17.135   0.250  12.244  0.00  0.00     0.169 HD
ENDROOT
BRANCH   1   5
ATOM      5  C8  <0> d   1      18.463   0.956  10.832  0.00  0.00     0.046 A 
ATOM      6  C2  <0> d   1      18.316   2.287  10.463  0.00  0.00    -0.035 A 
ATOM      7  C1  <0> d   1      17.720   3.277  11.431  0.00  0.00     0.050 C 
ATOM      8  C3  <0> d   1      18.722   2.704   9.211  0.00  0.00     0.009 A 
ATOM      9  C4  <0> d   1      19.270   1.797   8.323  0.00  0.00     0.001 A 
ATOM     10  C5  <0> d   1      19.412   0.470   8.684  0.00  0.00     0.009 A 
ATOM     11  C6  <0> d   1      19.008   0.047   9.936  0.00  0.00    -0.035 A 
ATOM     12  C7  <0> d   1      19.164  -1.400  10.329  0.00  0.00     0.050 C 
ENDBRANCH   1   5
BRANCH   2  13
ATOM     13  C12 <0> d   1      18.461   0.173  14.513  0.00  0.00     0.279 C 
ATOM     14  N18 <0> d   1      18.953   1.188  15.455  0.00  0.00    -0.062 N 
ATOM     15  C17 <0> d   1      18.437   0.910  16.800  0.00  0.00     0.235 C 
ATOM     16  H19 <0> d   1      19.961   1.169  15.472  0.00  0.00     0.280 HD
ATOM     17  C20 <0> d   1      18.497   2.515  15.021  0.00  0.00     0.270 C 
ATOM     18  C16 <0> d   1      18.975  -0.437  17.287  0.00  0.00     0.028 C 
ATOM     19  C15 <0> d   1      18.520  -1.541  16.327  0.00  0.00     0.004 C 
ATOM     20  C14 <0> d   1      19.000  -1.201  14.912  0.00  0.00     0.043 C 
ENDBRANCH   2  13
TORSDOF 2
ENDMDL
MODEL 2
REMARK VINA RESULT:      -7.2      3.327      5.604
REMARK  2 active torsions:
REMARK  status: ('A' for Active; 'I' for Inactive)
REMARK    1  A    between atoms: C8_8  and  N9_9 
REMARK       I    between atoms: N9_9  and  C10_10 
REMARK    2  A    between atoms: C10_10  and  C12_12 
ROOT
ATOM      1  N9  <0> d   1      17.640  -0.929   9.529  0.00  0.00    -0.324 N 
ATOM      2  C10 <0> d   1      18.547  -1.851   9.910  0.00  0.00     0.253 C 
ATOM      3  O11 <0> d   1      19.643  -1.503  10.294  0.00  0.00    -0.271 OA
ATOM      4  H30 <0> d   1      16.794  -1.208   9.147  0.00  0.00     0.169 HD
ENDROOT
BRANCH   1   5
ATOM      5  C8  <0> d   1      17.922   0.434   9.685  0.00  0.00     0.046 A 
ATOM      6  C2  <0> d   1      18.550   1.136   8.665  0.00  0.00    -0.035 A 
ATOM      7  C1  <0> d   1      18.923   0.434   7.385  0.00  0.00     0.050 C 
ATOM      8  C3  <0> d   1      18.826   2.480   8.822  0.00  0.00     0.009 A 
ATOM      9  C4  <0> d   1      18.483   3.124   9.996  0.00  0.00     0.001 A 
ATOM     10  C5  <0> d   1      17.863   2.427  11.017  0.00  0.00     0.009 A 
ATOM     11  C6  <0> d   1      17.584   1.083  10.865  0.00  0.00    -0.035 A 
ATOM     12  C7  <0> d   1      16.908   0.323  11.977  0.00  0.00     0.050 C 
ENDBRANCH   1   5
BRANCH   2  13
ATOM     13  C12 <0> d   1      18.196  -3.316   9.858  0.00  0.00     0.279 C 
ATOM     14  N18 <0> d   1      17.566  -3.622   8.567  0.00  0.00    -0.062 N 
ATOM     15  C17 <0> d   1      17.291  -5.061   8.477  0.00  0.00     0.235 C 
ATOM     16  H19 <0> d   1      16.702  -3.109   8.486  0.00  0.00     0.280 HD
ATOM     17  C20 <0> d   1      18.472  -3.229   7.479  0.00  0.00     0.270 C 
ATOM     18  C16 <0> d   1      16.286  -5.460   9.559  0.00  0.00     0.028 C 
ATOM     19  C15 <0> d   1      16.873  -5.137  10.937  0.00  0.00     0.004 C 
ATOM     20  C14 <0> d   1      17.226  -3.648  10.994  0.00  0.00     0.043 C 
ENDBRANCH   2  13
TORSDOF 2
ENDMDL
MODEL 3
REMARK VINA RESULT:      -7.2      3.307      5.470
REMARK  2 active torsions:
REMARK  status: ('A' for Active; 'I' for Inactive)
REMARK    1  A    between atoms: C8_8  and  N9_9 
REMARK       I    between atoms: N9_9  and  C10_10 
REMARK    2  A    between atoms: C10_10  and  C12_12 
ROOT
ATOM      1  N9  <0> d   1      17.660  -0.875   9.547  0.00  0.00    -0.324 N 
ATOM      2  C10 <0> d   1      18.565  -1.801   9.920  0.00  0.00     0.253 C 
ATOM      3  O11 <0> d   1      19.665  -1.457  10.299  0.00  0.00    -0.271 OA
ATOM      4  H30 <0> d   1      16.811  -1.151   9.169  0.00  0.00     0.169 HD
ENDROOT
BRANCH   1   5
ATOM      5  C8  <0> d   1      17.946   0.486   9.706  0.00  0.00     0.046 A 
ATOM      6  C2  <0> d   1      17.605   1.136  10.885  0.00  0.00    -0.035 A 
ATOM      7  C1  <0> d   1      16.932   0.375  11.998  0.00  0.00     0.050 C 
ATOM      8  C3  <0> d   1      17.889   2.478  11.039  0.00  0.00     0.009 A 
ATOM      9  C4  <0> d   1      18.507   3.177  10.018  0.00  0.00     0.001 A 
ATOM     10  C5  <0> d   1      18.843   2.535   8.840  0.00  0.00     0.009 A 
ATOM     11  C6  <0> d   1      18.561   1.192   8.680  0.00  0.00    -0.035 A 
ATOM     12  C7  <0> d   1      18.928   0.493   7.397  0.00  0.00     0.050 C 
ENDBRANCH   1   5
BRANCH   2  13
ATOM     13  C12 <0> d   1      18.210  -3.265   9.866  0.00  0.00     0.279 C 
ATOM     14  N18 <0> d   1      17.575  -3.566   8.576  0.00  0.00    -0.062 N 
ATOM     15  C17 <0> d   1      17.295  -5.004   8.483  0.00  0.00     0.235 C 
ATOM     16  H19 <0> d   1      16.712  -3.050   8.499  0.00  0.00     0.280 HD
ATOM     17  C20 <0> d   1      18.478  -3.172   7.486  0.00  0.00     0.270 C 
ATOM     18  C16 <0> d   1      16.293  -5.402   9.568  0.00  0.00     0.028 C 
ATOM     19  C15 <0> d   1      16.885  -5.085  10.944  0.00  0.00     0.004 C 
ATOM     20  C14 <0> d   1      17.244  -3.597  11.004  0.00  0.00     0.043 C 
ENDBRANCH   2  13
TORSDOF 2
ENDMDL
MODEL 4
REMARK VINA RESULT:      -7.1      0.012      2.019
REMARK  2 active torsions:
REMARK  status: ('A' for Active; 'I' for Inactive)
REMARK    1  A    between atoms: C8_8  and  N9_9 
REMARK       I    between atoms: N9_9  and  C10_10 
REMARK    2  A    between atoms: C10_10  and  C12_12 
ROOT
ATOM      1  N9  <0> d   1      18.052   0.537  12.098  0.00  0.00    -0.324 N 
ATOM      2  C10 <0> d   1      18.933   0.522  13.119  0.00  0.00     0.253 C 
ATOM      3  O11 <0> d   1      20.100   0.781  12.918  0.00  0.00    -0.271 OA
ATOM      4  H30 <0> d   1      17.137   0.252  12.243  0.00  0.00     0.169 HD
ENDROOT
BRANCH   1   5
ATOM      5  C8  <0> d   1      18.461   0.964  10.830  0.00  0.00     0.046 A 
ATOM      6  C2  <0> d   1      19.020   0.058   9.937  0.00  0.00    -0.035 A 
ATOM      7  C1  <0> d   1      19.181  -1.388  10.331  0.00  0.00     0.050 C 
ATOM      8  C3  <0> d   1      19.421   0.483   8.686  0.00  0.00     0.009 A 
ATOM      9  C4  <0> d   1      19.273   1.809   8.324  0.00  0.00     0.001 A 
ATOM     10  C5  <0> d   1      18.723   2.715   9.212  0.00  0.00     0.009 A 
ATOM     11  C6  <0> d   1      18.319   2.296  10.465  0.00  0.00    -0.035 A 
ATOM     12  C7  <0> d   1      17.719   3.283  11.432  0.00  0.00     0.050 C 
ENDBRANCH   1   5
BRANCH   2  13
ATOM     13  C12 <0> d   1      18.465   0.182  14.511  0.00  0.00     0.279 C 
ATOM     14  N18 <0> d   1      18.962   1.193  15.454  0.00  0.00    -0.062 N 
ATOM     15  C17 <0> d   1      18.448   0.913  16.800  0.00  0.00     0.235 C 
ATOM     16  H19 <0> d   1      19.971   1.171  15.468  0.00  0.00     0.280 HD
ATOM     17  C20 <0> d   1      18.509   2.523  15.024  0.00  0.00     0.270 C 
ATOM     18  C16 <0> d   1      18.983  -0.436  17.283  0.00  0.00     0.028 C 
ATOM     19  C15 <0> d   1      18.523  -1.536  16.321  0.00  0.00     0.004 C 
ATOM     20  C14 <0> d   1      19.001  -1.196  14.906  0.00  0.00     0.043 C 
ENDBRANCH   2  13
TORSDOF 2
ENDMDL
MODEL 5
REMARK VINA RESULT:      -6.9      1.636      2.550
REMARK  2 active torsions:
REMARK  status: ('A' for Active; 'I' for Inactive)
REMARK    1  A    between atoms: C8_8  and  N9_9 
REMARK       I    between atoms: N9_9  and  C10_10 
REMARK    2  A    between atoms: C10_10  and  C12_12 
ROOT
ATOM      1  N9  <0> d   1      18.100   1.869  13.964  0.00  0.00    -0.324 N 
ATOM      2  C10 <0> d   1      19.112   1.212  14.565  0.00  0.00     0.253 C 
ATOM      3  O11 <0> d   1      20.014   0.748  13.900  0.00  0.00    -0.271 OA
ATOM      4  H30 <0> d   1      17.340   2.169  14.485  0.00  0.00     0.169 HD
ENDROOT
BRANCH   1   5
ATOM      5  C8  <0> d   1      18.147   2.117  12.587  0.00  0.00     0.046 A 
ATOM      6  C2  <0> d   1      18.710   3.294  12.111  0.00  0.00    -0.035 A 
ATOM      7  C1  <0> d   1      19.276   4.304  13.076  0.00  0.00     0.050 C 
ATOM      8  C3  <0> d   1      18.755   3.535  10.752  0.00  0.00     0.009 A 
ATOM      9  C4  <0> d   1      18.236   2.609   9.867  0.00  0.00     0.001 A 
ATOM     10  C5  <0> d   1      17.670   1.439  10.337  0.00  0.00     0.009 A 
ATOM     11  C6  <0> d   1      17.622   1.191  11.696  0.00  0.00    -0.035 A 
ATOM     12  C7  <0> d   1      17.005  -0.085  12.208  0.00  0.00     0.050 C 
ENDBRANCH   1   5
BRANCH   2  13
ATOM     13  C12 <0> d   1      19.122   1.054  16.064  0.00  0.00     0.279 C 
ATOM     14  N18 <0> d   1      18.043   0.142  16.466  0.00  0.00    -0.062 N 
ATOM     15  C17 <0> d   1      18.093  -0.079  17.916  0.00  0.00     0.235 C 
ATOM     16  H19 <0> d   1      17.153   0.545  16.218  0.00  0.00     0.280 HD
ATOM     17  C20 <0> d   1      18.208  -1.142  15.770  0.00  0.00     0.270 C 
ATOM     18  C16 <0> d   1      17.842   1.243  18.644  0.00  0.00     0.028 C 
ATOM     19  C15 <0> d   1      18.922   2.254  18.244  0.00  0.00     0.004 C 
ATOM     20  C14 <0> d   1      18.911   2.419  16.721  0.00  0.00     0.043 C 
ENDBRANCH   2  13
TORSDOF 2
ENDMDL
MODEL 6
REMARK VINA RESULT:      -6.9      1.617      2.062
REMARK  2 active torsions:
REMARK  status: ('A' for Active; 'I' for Inactive)
REMARK    1  A    between atoms: C8_8  and  N9_9 
REMARK       I    between atoms: N9_9  and  C10_10 
REMARK    2  A    between atoms: C10_10  and  C12_12 
ROOT
ATOM      1  N9  <0> d   1      18.859   0.293  10.889  0.00  0.00    -0.324 N 
ATOM      2  C10 <0> d   1      17.678   0.357  11.537  0.00  0.00     0.253 C 
ATOM      3  O11 <0> d   1      16.644   0.436  10.908  0.00  0.00    -0.271 OA
ATOM      4  H30 <0> d   1      19.689   0.311  11.390  0.00  0.00     0.169 HD
ENDROOT
BRANCH   1   5
ATOM      5  C8  <0> d   1      18.885   0.199   9.493  0.00  0.00     0.046 A 
ATOM      6  C2  <0> d   1      18.867   1.352   8.718  0.00  0.00    -0.035 A 
ATOM      7  C1  <0> d   1      18.827   2.705   9.380  0.00  0.00     0.050 C 
ATOM      8  C3  <0> d   1      18.894   1.256   7.341  0.00  0.00     0.009 A 
ATOM      9  C4  <0> d   1      18.933   0.014   6.733  0.00  0.00     0.001 A 
ATOM     10  C5  <0> d   1      18.944  -1.135   7.501  0.00  0.00     0.009 A 
ATOM     11  C6  <0> d   1      18.918  -1.046   8.880  0.00  0.00    -0.035 A 
ATOM     12  C7  <0> d   1      18.931  -2.299   9.716  0.00  0.00     0.050 C 
ENDBRANCH   1   5
BRANCH   2  13
ATOM     13  C12 <0> d   1      17.644   0.332  13.044  0.00  0.00     0.279 C 
ATOM     14  N18 <0> d   1      18.403   1.475  13.568  0.00  0.00    -0.062 N 
ATOM     15  C17 <0> d   1      18.312   1.503  15.033  0.00  0.00     0.235 C 
ATOM     16  H19 <0> d   1      19.370   1.390  13.294  0.00  0.00     0.280 HD
ATOM     17  C20 <0> d   1      17.848   2.720  13.020  0.00  0.00     0.270 C 
ATOM     18  C16 <0> d   1      18.962   0.244  15.611  0.00  0.00     0.028 C 
ATOM     19  C15 <0> d   1      18.232  -0.993  15.076  0.00  0.00     0.004 C 
ATOM     20  C14 <0> d   1      18.268  -0.972  13.545  0.00  0.00     0.043 C 
ENDBRANCH   2  13
TORSDOF 2
ENDMDL
MODEL 7
REMARK VINA RESULT:      -6.9      1.866      2.985
REMARK  2 active torsions:
REMARK  status: ('A' for Active; 'I' for Inactive)
REMARK    1  A    between atoms: C8_8  and  N9_9 
REMARK       I    between atoms: N9_9  and  C10_10 
REMARK    2  A    between atoms: C10_10  and  C12_12 
ROOT
ATOM      1  N9  <0> d   1      18.564  -0.100  10.215  0.00  0.00    -0.324 N 
ATOM      2  C10 <0> d   1      19.693  -0.324  10.917  0.00  0.00     0.253 C 
ATOM      3  O11 <0> d   1      20.741  -0.513  10.338  0.00  0.00    -0.271 OA
ATOM      4  H30 <0> d   1      17.713  -0.029  10.674  0.00  0.00     0.169 HD
ENDROOT
BRANCH   1   5
ATOM      5  C8  <0> d   1      18.622   0.030   8.822  0.00  0.00     0.046 A 
ATOM      6  C2  <0> d   1      18.839   1.276   8.249  0.00  0.00    -0.035 A 
ATOM      7  C1  <0> d   1      19.020   2.489   9.125  0.00  0.00     0.050 C 
ATOM      8  C3  <0> d   1      18.897   1.401   6.875  0.00  0.00     0.009 A 
ATOM      9  C4  <0> d   1      18.732   0.289   6.071  0.00  0.00     0.001 A 
ATOM     10  C5  <0> d   1      18.510  -0.953   6.638  0.00  0.00     0.009 A 
ATOM     11  C6  <0> d   1      18.452  -1.084   8.012  0.00  0.00    -0.035 A 
ATOM     12  C7  <0> d   1      18.210  -2.437   8.630  0.00  0.00     0.050 C 
ENDBRANCH   1   5
BRANCH   2  13
ATOM     13  C12 <0> d   1      19.650  -0.341  12.424  0.00  0.00     0.279 C 
ATOM     14  N18 <0> d   1      18.655  -1.323  12.874  0.00  0.00    -0.062 N 
ATOM     15  C17 <0> d   1      18.661  -1.402  14.340  0.00  0.00     0.235 C 
ATOM     16  H19 <0> d   1      17.740  -1.043  12.556  0.00  0.00     0.280 HD
ATOM     17  C20 <0> d   1      18.985  -2.641  12.313  0.00  0.00     0.270 C 
ATOM     18  C16 <0> d   1      18.240  -0.053  14.927  0.00  0.00     0.028 C 
ATOM     19  C15 <0> d   1      19.225   1.027  14.469  0.00  0.00     0.004 C 
ATOM     20  C14 <0> d   1      19.268   1.049  12.938  0.00  0.00     0.043 C 
ENDBRANCH   2  13
TORSDOF 2
ENDMDL
MODEL 8
REMARK VINA RESULT:      -6.9      1.493      2.929
REMARK  2 active torsions:
REMARK  status: ('A' for Active; 'I' for Inactive)
REMARK    1  A    between atoms: C8_8  and  N9_9 
REMARK       I    between atoms: N9_9  and  C10_10 
REMARK    2  A    between atoms: C10_10  and  C12_12 
ROOT
ATOM      1  N9  <0> d   1      18.146   1.648  13.752  0.00  0.00    -0.324 N 
ATOM      2  C10 <0> d   1      19.178   1.044  14.375  0.00  0.00     0.253 C 
ATOM      3  O11 <0> d   1      20.101   0.598  13.728  0.00  0.00    -0.271 OA
ATOM      4  H30 <0> d   1      17.371   1.933  14.261  0.00  0.00     0.169 HD
ENDROOT
BRANCH   1   5
ATOM      5  C8  <0> d   1      18.194   1.863  12.370  0.00  0.00     0.046 A 
ATOM      6  C2  <0> d   1      17.702   0.900  11.499  0.00  0.00    -0.035 A 
ATOM      7  C1  <0> d   1      17.109  -0.376  12.040  0.00  0.00     0.050 C 
ATOM      8  C3  <0> d   1      17.750   1.115  10.135  0.00  0.00     0.009 A 
ATOM      9  C4  <0> d   1      18.294   2.285   9.638  0.00  0.00     0.001 A 
ATOM     10  C5  <0> d   1      18.790   3.244  10.502  0.00  0.00     0.009 A 
ATOM     11  C6  <0> d   1      18.744   3.034  11.867  0.00  0.00    -0.035 A 
ATOM     12  C7  <0> d   1      19.284   4.079  12.809  0.00  0.00     0.050 C 
ENDBRANCH   1   5
BRANCH   2  13
ATOM     13  C12 <0> d   1      19.183   0.924  15.878  0.00  0.00     0.279 C 
ATOM     14  N18 <0> d   1      18.077   0.055  16.302  0.00  0.00    -0.062 N 
ATOM     15  C17 <0> d   1      18.120  -0.130  17.758  0.00  0.00     0.235 C 
ATOM     16  H19 <0> d   1      17.199   0.479  16.043  0.00  0.00     0.280 HD
ATOM     17  C20 <0> d   1      18.203  -1.250  15.640  0.00  0.00     0.270 C 
ATOM     18  C16 <0> d   1      17.909   1.217  18.452  0.00  0.00     0.028 C 
ATOM     19  C15 <0> d   1      19.018   2.184  18.027  0.00  0.00     0.004 C 
ATOM     20  C14 <0> d   1      19.013   2.311  16.500  0.00  0.00     0.043 C 
ENDBRANCH   2  13
TORSDOF 2
ENDMDL
MODEL 9
REMARK VINA RESULT:      -6.8      3.376      6.098
REMARK  2 active torsions:
REMARK  status: ('A' for Active; 'I' for Inactive)
REMARK    1  A    between atoms: C8_8  and  N9_9 
REMARK       I    between atoms: N9_9  and  C10_10 
REMARK    2  A    between atoms: C10_10  and  C12_12 
ROOT
ATOM      1  N9  <0> d   1      17.885  -0.315   9.046  0.00  0.00    -0.324 N 
ATOM      2  C10 <0> d   1      18.955  -1.131   8.973  0.00  0.00     0.253 C 
ATOM      3  O11 <0> d   1      20.007  -0.799   9.479  0.00  0.00    -0.271 OA
ATOM      4  H30 <0> d   1      17.069  -0.542   8.575  0.00  0.00     0.169 HD
ENDROOT
BRANCH   1   5
ATOM      5  C8  <0> d   1      17.952   0.861   9.803  0.00  0.00     0.046 A 
ATOM      6  C2  <0> d   1      18.446   2.027   9.233  0.00  0.00    -0.035 A 
ATOM      7  C1  <0> d   1      18.904   2.031   7.797  0.00  0.00     0.050 C 
ATOM      8  C3  <0> d   1      18.511   3.186   9.982  0.00  0.00     0.009 A 
ATOM      9  C4  <0> d   1      18.091   3.183  11.300  0.00  0.00     0.001 A 
ATOM     10  C5  <0> d   1      17.604   2.022  11.872  0.00  0.00     0.009 A 
ATOM     11  C6  <0> d   1      17.536   0.860  11.127  0.00  0.00    -0.035 A 
ATOM     12  C7  <0> d   1      17.006  -0.405  11.751  0.00  0.00     0.050 C 
ENDBRANCH   1   5
BRANCH   2  13
ATOM     13  C12 <0> d   1      18.844  -2.456   8.263  0.00  0.00     0.279 C 
ATOM     14  N18 <0> d   1      19.395  -3.515   9.118  0.00  0.00    -0.062 N 
ATOM     15  C17 <0> d   1      19.222  -4.820   8.467  0.00  0.00     0.235 C 
ATOM     16  H19 <0> d   1      20.378  -3.345   9.272  0.00  0.00     0.280 HD
ATOM     17  C20 <0> d   1      18.692  -3.515  10.408  0.00  0.00     0.270 C 
ATOM     18  C16 <0> d   1      20.020  -4.851   7.162  0.00  0.00     0.028 C 
ATOM     19  C15 <0> d   1      19.512  -3.745   6.232  0.00  0.00     0.004 C 
ATOM     20  C14 <0> d   1      19.627  -2.396   6.950  0.00  0.00     0.043 C 
ENDBRANCH   2  13
TORSDOF 2
ENDMDL
