MODEL 1
REMARK VINA RESULT:      -9.6      0.000      0.000
REMARK  6 active torsions:
REMARK  status: ('A' for Active; 'I' for Inactive)
REMARK    1  A    between atoms: C3_3  and  C4_4 
REMARK       I    between atoms: C4_4  and  N6_6 
REMARK    2  A    between atoms: N6_6  and  C7_7 
REMARK    3  A    between atoms: C10_10  and  N11_11 
REMARK    4  A    between atoms: C26_24  and  C27_25 
REMARK    5  A    between atoms: C30_28  and  O31_29 
REMARK    6  A    between atoms: O31_29  and  C32_30 
ROOT
ATOM      1  C1  ZIN A   1      18.161  -1.879   8.472  0.00  0.00     0.050 C 
ATOM      2  C2  ZIN A   1      18.575  -1.180   7.202  0.00  0.00    -0.035 A 
ATOM      3  C3  ZIN A   1      18.692   0.208   7.175  0.00  0.00     0.039 A 
ATOM      4  C23 ZIN A   1      19.077   0.850   5.996  0.00  0.00     0.017 A 
ATOM      5  C24 ZIN A   1      19.341   0.110   4.860  0.00  0.00     0.002 A 
ATOM      6  C25 ZIN A   1      19.226  -1.266   4.882  0.00  0.00     0.013 A 
ATOM      7  C26 ZIN A   1      18.849  -1.919   6.055  0.00  0.00    -0.019 A 
ENDROOT
BRANCH   3   8
ATOM      8  C4  ZIN A   1      18.411   1.000   8.391  0.00  0.00     0.256 C 
ATOM      9  O5  ZIN A   1      17.440   0.739   9.076  0.00  0.00    -0.267 OA
ATOM     10  N6  ZIN A   1      19.230   2.012   8.741  0.00  0.00    -0.322 N 
ATOM     11  H41 ZIN A   1      19.962   2.266   8.159  0.00  0.00     0.169 HD
BRANCH  10  12
ATOM     12  C7  ZIN A   1      19.022   2.698   9.945  0.00  0.00     0.052 A 
ATOM     13  C22 ZIN A   1      19.664   2.292  11.105  0.00  0.00     0.148 A 
ATOM     14  N21 ZIN A   1      19.476   2.936  12.241  0.00  0.00    -0.247 NA
ATOM     15  C10 ZIN A   1      18.666   3.979  12.324  0.00  0.00     0.105 A 
ATOM     16  C9  ZIN A   1      17.983   4.440  11.202  0.00  0.00     0.047 A 
ATOM     17  C8  ZIN A   1      18.160   3.793   9.992  0.00  0.00     0.034 A 
BRANCH  15  18
ATOM     18  N11 ZIN A   1      18.495   4.623  13.546  0.00  0.00    -0.263 NA
ATOM     19  C20 ZIN A   1      18.958   3.778  14.656  0.00  0.00     0.128 C 
ATOM     20  C17 ZIN A   1      18.808   4.545  15.972  0.00  0.00     0.131 C 
ATOM     21  O16 ZIN A   1      17.445   4.948  16.130  0.00  0.00    -0.379 OA
ATOM     22  C19 ZIN A   1      19.213   3.643  17.139  0.00  0.00     0.040 C 
ATOM     23  C13 ZIN A   1      16.960   5.773  15.067  0.00  0.00     0.131 C 
ATOM     24  C12 ZIN A   1      17.093   5.017  13.742  0.00  0.00     0.128 C 
ATOM     25  C15 ZIN A   1      15.491   6.117  15.315  0.00  0.00     0.040 C 
ENDBRANCH  15  18
ENDBRANCH  10  12
ENDBRANCH   3   8
BRANCH   7  26
ATOM     26  C27 ZIN A   1      18.726  -3.397   6.076  0.00  0.00    -0.025 A 
ATOM     27  C37 ZIN A   1      19.706  -4.170   6.694  0.00  0.00     0.015 A 
ATOM     28  C36 ZIN A   1      19.587  -5.544   6.716  0.00  0.00     0.038 A 
ATOM     29  C30 ZIN A   1      18.496  -6.157   6.115  0.00  0.00     0.078 A 
ATOM     30  C29 ZIN A   1      17.520  -5.390   5.494  0.00  0.00     0.038 A 
ATOM     31  C28 ZIN A   1      17.632  -4.015   5.472  0.00  0.00     0.015 A 
BRANCH  29  32
ATOM     32  O31 ZIN A   1      18.383  -7.511   6.133  0.00  0.00    -0.255 OA
BRANCH  32  33
ATOM     33  C32 ZIN A   1      17.420  -8.069   7.028  0.00  0.00     0.530 C 
ATOM     34  F33 ZIN A   1      17.379  -7.311   8.202  0.00  0.00    -0.144 F 
ATOM     35  F34 ZIN A   1      16.158  -8.058   6.422  0.00  0.00    -0.144 F 
ATOM     36  F35 ZIN A   1      17.777  -9.387   7.336  0.00  0.00    -0.144 F 
ENDBRANCH  32  33
ENDBRANCH  29  32
ENDBRANCH   7  26
TORSDOF 6
ENDMDL
MODEL 2
REMARK VINA RESULT:      -9.3      5.222     11.266
REMARK  6 active torsions:
REMARK  status: ('A' for Active; 'I' for Inactive)
REMARK    1  A    between atoms: C3_3  and  C4_4 
REMARK       I    between atoms: C4_4  and  N6_6 
REMARK    2  A    between atoms: N6_6  and  C7_7 
REMARK    3  A    between atoms: C10_10  and  N11_11 
REMARK    4  A    between atoms: C26_24  and  C27_25 
REMARK    5  A    between atoms: C30_28  and  O31_29 
REMARK    6  A    between atoms: O31_29  and  C32_30 
ROOT
ATOM      1  C1  ZIN A   1      17.870  -1.356  11.051  0.00  0.00     0.050 C 
ATOM      2  C2  ZIN A   1      18.365   0.035  10.746  0.00  0.00    -0.035 A 
ATOM      3  C3  ZIN A   1      18.480   0.462   9.425  0.00  0.00     0.039 A 
ATOM      4  C23 ZIN A   1      18.938   1.753   9.150  0.00  0.00     0.017 A 
ATOM      5  C24 ZIN A   1      19.277   2.602  10.184  0.00  0.00     0.002 A 
ATOM      6  C25 ZIN A   1      19.165   2.182  11.495  0.00  0.00     0.013 A 
ATOM      7  C26 ZIN A   1      18.702   0.899  11.783  0.00  0.00    -0.019 A 
ENDROOT
BRANCH   3   8
ATOM      8  C4  ZIN A   1      18.116  -0.447   8.317  0.00  0.00     0.256 C 
ATOM      9  O5  ZIN A   1      16.983  -0.443   7.876  0.00  0.00    -0.267 OA
ATOM     10  N6  ZIN A   1      19.040  -1.279   7.797  0.00  0.00    -0.322 N 
ATOM     11  H41 ZIN A   1      19.922  -1.333   8.194  0.00  0.00     0.169 HD
BRANCH  10  12
ATOM     12  C7  ZIN A   1      18.724  -2.067   6.682  0.00  0.00     0.052 A 
ATOM     13  C22 ZIN A   1      18.439  -3.416   6.833  0.00  0.00     0.148 A 
ATOM     14  N21 ZIN A   1      18.138  -4.163   5.788  0.00  0.00    -0.247 NA
ATOM     15  C10 ZIN A   1      18.104  -3.664   4.563  0.00  0.00     0.105 A 
ATOM     16  C9  ZIN A   1      18.384  -2.320   4.334  0.00  0.00     0.047 A 
ATOM     17  C8  ZIN A   1      18.699  -1.505   5.406  0.00  0.00     0.034 A 
BRANCH  15  18
ATOM     18  N11 ZIN A   1      17.785  -4.492   3.491  0.00  0.00    -0.263 NA
ATOM     19  C20 ZIN A   1      16.548  -4.049   2.832  0.00  0.00     0.128 C 
ATOM     20  C17 ZIN A   1      16.266  -4.949   1.626  0.00  0.00     0.131 C 
ATOM     21  O16 ZIN A   1      16.191  -6.309   2.060  0.00  0.00    -0.379 OA
ATOM     22  C19 ZIN A   1      14.939  -4.543   0.983  0.00  0.00     0.040 C 
ATOM     23  C13 ZIN A   1      17.379  -6.775   2.706  0.00  0.00     0.131 C 
ATOM     24  C12 ZIN A   1      17.671  -5.893   3.923  0.00  0.00     0.128 C 
ATOM     25  C15 ZIN A   1      17.181  -8.223   3.159  0.00  0.00     0.040 C 
ENDBRANCH  15  18
ENDBRANCH  10  12
ENDBRANCH   3   8
BRANCH   7  26
ATOM     26  C27 ZIN A   1      18.583   0.451  13.192  0.00  0.00    -0.025 A 
ATOM     27  C37 ZIN A   1      17.549   0.932  13.993  0.00  0.00     0.015 A 
ATOM     28  C36 ZIN A   1      17.439   0.510  15.302  0.00  0.00     0.038 A 
ATOM     29  C30 ZIN A   1      18.362  -0.386  15.824  0.00  0.00     0.078 A 
ATOM     30  C29 ZIN A   1      19.396  -0.863  15.030  0.00  0.00     0.038 A 
ATOM     31  C28 ZIN A   1      19.509  -0.448  13.720  0.00  0.00     0.015 A 
BRANCH  29  32
ATOM     32  O31 ZIN A   1      18.254  -0.796  17.115  0.00  0.00    -0.255 OA
BRANCH  32  33
ATOM     33  C32 ZIN A   1      18.700   0.114  18.122  0.00  0.00     0.530 C 
ATOM     34  F33 ZIN A   1      17.622   0.888  18.563  0.00  0.00    -0.144 F 
ATOM     35  F34 ZIN A   1      19.228  -0.607  19.201  0.00  0.00    -0.144 F 
ATOM     36  F35 ZIN A   1      19.689   0.949  17.592  0.00  0.00    -0.144 F 
ENDBRANCH  32  33
ENDBRANCH  29  32
ENDBRANCH   7  26
TORSDOF 6
ENDMDL
MODEL 3
REMARK VINA RESULT:      -9.0      5.826     12.290
REMARK  6 active torsions:
REMARK  status: ('A' for Active; 'I' for Inactive)
REMARK    1  A    between atoms: C3_3  and  C4_4 
REMARK       I    between atoms: C4_4  and  N6_6 
REMARK    2  A    between atoms: N6_6  and  C7_7 
REMARK    3  A    between atoms: C10_10  and  N11_11 
REMARK    4  A    between atoms: C26_24  and  C27_25 
REMARK    5  A    between atoms: C30_28  and  O31_29 
REMARK    6  A    between atoms: O31_29  and  C32_30 
ROOT
ATOM      1  C1  ZIN A   1      18.488   2.164  14.111  0.00  0.00     0.050 C 
ATOM      2  C2  ZIN A   1      18.773   1.512  15.440  0.00  0.00    -0.035 A 
ATOM      3  C3  ZIN A   1      18.889   0.127  15.528  0.00  0.00     0.039 A 
ATOM      4  C23 ZIN A   1      19.153  -0.471  16.763  0.00  0.00     0.017 A 
ATOM      5  C24 ZIN A   1      19.299   0.310  17.892  0.00  0.00     0.002 A 
ATOM      6  C25 ZIN A   1      19.184   1.684  17.809  0.00  0.00     0.013 A 
ATOM      7  C26 ZIN A   1      18.927   2.293  16.582  0.00  0.00    -0.019 A 
ENDROOT
BRANCH   3   8
ATOM      8  C4  ZIN A   1      18.734  -0.709  14.319  0.00  0.00     0.256 C 
ATOM      9  O5  ZIN A   1      17.647  -1.179  14.040  0.00  0.00    -0.267 OA
ATOM     10  N6  ZIN A   1      19.797  -0.953  13.527  0.00  0.00    -0.322 N 
ATOM     11  H41 ZIN A   1      20.677  -0.639  13.786  0.00  0.00     0.169 HD
BRANCH  10  12
ATOM     12  C7  ZIN A   1      19.631  -1.661  12.329  0.00  0.00     0.052 A 
ATOM     13  C22 ZIN A   1      19.411  -0.985  11.139  0.00  0.00     0.148 A 
ATOM     14  N21 ZIN A   1      19.258  -1.645  10.006  0.00  0.00    -0.247 NA
ATOM     15  C10 ZIN A   1      19.297  -2.967   9.961  0.00  0.00     0.105 A 
ATOM     16  C9  ZIN A   1      19.508  -3.713  11.117  0.00  0.00     0.047 A 
ATOM     17  C8  ZIN A   1      19.679  -3.054  12.322  0.00  0.00     0.034 A 
BRANCH  15  18
ATOM     18  N11 ZIN A   1      19.126  -3.620   8.744  0.00  0.00    -0.263 NA
ATOM     19  C20 ZIN A   1      19.170  -2.668   7.625  0.00  0.00     0.128 C 
ATOM     20  C17 ZIN A   1      19.036  -3.432   6.305  0.00  0.00     0.131 C 
ATOM     21  O16 ZIN A   1      17.826  -4.193   6.321  0.00  0.00    -0.379 OA
ATOM     22  C19 ZIN A   1      19.001  -2.440   5.141  0.00  0.00     0.040 C 
ATOM     23  C13 ZIN A   1      17.748  -5.131   7.398  0.00  0.00     0.131 C 
ATOM     24  C12 ZIN A   1      17.869  -4.383   8.729  0.00  0.00     0.128 C 
ATOM     25  C15 ZIN A   1      16.407  -5.865   7.343  0.00  0.00     0.040 C 
ENDBRANCH  15  18
ENDBRANCH  10  12
ENDBRANCH   3   8
BRANCH   7  26
ATOM     26  C27 ZIN A   1      18.804   3.768  16.495  0.00  0.00    -0.025 A 
ATOM     27  C37 ZIN A   1      19.893   4.537  16.090  0.00  0.00     0.015 A 
ATOM     28  C36 ZIN A   1      19.774   5.909  16.007  0.00  0.00     0.038 A 
ATOM     29  C30 ZIN A   1      18.574   6.524  16.334  0.00  0.00     0.078 A 
ATOM     30  C29 ZIN A   1      17.488   5.762  16.744  0.00  0.00     0.038 A 
ATOM     31  C28 ZIN A   1      17.600   4.389  16.826  0.00  0.00     0.015 A 
BRANCH  29  32
ATOM     32  O31 ZIN A   1      18.461   7.876  16.257  0.00  0.00    -0.255 OA
BRANCH  32  33
ATOM     33  C32 ZIN A   1      17.646   8.399  15.206  0.00  0.00     0.530 C 
ATOM     34  F33 ZIN A   1      16.347   8.608  15.681  0.00  0.00    -0.144 F 
ATOM     35  F34 ZIN A   1      18.181   9.614  14.762  0.00  0.00    -0.144 F 
ATOM     36  F35 ZIN A   1      17.613   7.489  14.144  0.00  0.00    -0.144 F 
ENDBRANCH  32  33
ENDBRANCH  29  32
ENDBRANCH   7  26
TORSDOF 6
ENDMDL
MODEL 4
REMARK VINA RESULT:      -8.9      3.277      4.671
REMARK  6 active torsions:
REMARK  status: ('A' for Active; 'I' for Inactive)
REMARK    1  A    between atoms: C3_3  and  C4_4 
REMARK       I    between atoms: C4_4  and  N6_6 
REMARK    2  A    between atoms: N6_6  and  C7_7 
REMARK    3  A    between atoms: C10_10  and  N11_11 
REMARK    4  A    between atoms: C26_24  and  C27_25 
REMARK    5  A    between atoms: C30_28  and  O31_29 
REMARK    6  A    between atoms: O31_29  and  C32_30 
ROOT
ATOM      1  C1  ZIN A   1      17.752  -2.604   9.014  0.00  0.00     0.050 C 
ATOM      2  C2  ZIN A   1      17.620  -3.890   9.790  0.00  0.00    -0.035 A 
ATOM      3  C3  ZIN A   1      17.644  -3.870  11.183  0.00  0.00     0.039 A 
ATOM      4  C23 ZIN A   1      17.521  -5.065  11.897  0.00  0.00     0.017 A 
ATOM      5  C24 ZIN A   1      17.376  -6.261  11.223  0.00  0.00     0.002 A 
ATOM      6  C25 ZIN A   1      17.352  -6.285   9.843  0.00  0.00     0.013 A 
ATOM      7  C26 ZIN A   1      17.468  -5.099   9.119  0.00  0.00    -0.019 A 
ENDROOT
BRANCH   3   8
ATOM      8  C4  ZIN A   1      17.798  -2.589  11.905  0.00  0.00     0.256 C 
ATOM      9  O5  ZIN A   1      16.905  -1.764  11.875  0.00  0.00    -0.267 OA
ATOM     10  N6  ZIN A   1      18.927  -2.335  12.596  0.00  0.00    -0.322 N 
ATOM     11  H41 ZIN A   1      19.667  -2.961  12.562  0.00  0.00     0.169 HD
BRANCH  10  12
ATOM     12  C7  ZIN A   1      19.033  -1.167  13.361  0.00  0.00     0.052 A 
ATOM     13  C22 ZIN A   1      19.479   0.013  12.786  0.00  0.00     0.148 A 
ATOM     14  N21 ZIN A   1      19.577   1.118  13.500  0.00  0.00    -0.247 NA
ATOM     15  C10 ZIN A   1      19.266   1.145  14.786  0.00  0.00     0.105 A 
ATOM     16  C9  ZIN A   1      18.816  -0.003  15.433  0.00  0.00     0.047 A 
ATOM     17  C8  ZIN A   1      18.695  -1.178  14.715  0.00  0.00     0.034 A 
BRANCH  15  18
ATOM     18  N11 ZIN A   1      19.390   2.333  15.500  0.00  0.00    -0.263 NA
ATOM     19  C20 ZIN A   1      18.700   2.244  16.795  0.00  0.00     0.128 C 
ATOM     20  C17 ZIN A   1      18.911   3.547  17.570  0.00  0.00     0.131 C 
ATOM     21  O16 ZIN A   1      18.445   4.646  16.783  0.00  0.00    -0.379 OA
ATOM     22  C19 ZIN A   1      18.130   3.492  18.884  0.00  0.00     0.040 C 
ATOM     23  C13 ZIN A   1      19.096   4.763  15.514  0.00  0.00     0.131 C 
ATOM     24  C12 ZIN A   1      18.886   3.472  14.718  0.00  0.00     0.128 C 
ATOM     25  C15 ZIN A   1      18.503   5.943  14.742  0.00  0.00     0.040 C 
ENDBRANCH  15  18
ENDBRANCH  10  12
ENDBRANCH   3   8
BRANCH   7  26
ATOM     26  C27 ZIN A   1      17.442  -5.127   7.636  0.00  0.00    -0.025 A 
ATOM     27  C37 ZIN A   1      16.373  -5.720   6.967  0.00  0.00     0.015 A 
ATOM     28  C36 ZIN A   1      16.351  -5.741   5.588  0.00  0.00     0.038 A 
ATOM     29  C30 ZIN A   1      17.395  -5.180   4.867  0.00  0.00     0.078 A 
ATOM     30  C29 ZIN A   1      18.464  -4.593   5.530  0.00  0.00     0.038 A 
ATOM     31  C28 ZIN A   1      18.491  -4.566   6.909  0.00  0.00     0.015 A 
BRANCH  29  32
ATOM     32  O31 ZIN A   1      17.373  -5.207   3.509  0.00  0.00    -0.255 OA
BRANCH  32  33
ATOM     33  C32 ZIN A   1      16.455  -4.326   2.858  0.00  0.00     0.530 C 
ATOM     34  F33 ZIN A   1      16.870  -4.109   1.540  0.00  0.00    -0.144 F 
ATOM     35  F34 ZIN A   1      15.179  -4.901   2.856  0.00  0.00    -0.144 F 
ATOM     36  F35 ZIN A   1      16.415  -3.106   3.542  0.00  0.00    -0.144 F 
ENDBRANCH  32  33
ENDBRANCH  29  32
ENDBRANCH   7  26
TORSDOF 6
ENDMDL
MODEL 5
REMARK VINA RESULT:      -8.7      2.734      3.924
REMARK  6 active torsions:
REMARK  status: ('A' for Active; 'I' for Inactive)
REMARK    1  A    between atoms: C3_3  and  C4_4 
REMARK       I    between atoms: C4_4  and  N6_6 
REMARK    2  A    between atoms: N6_6  and  C7_7 
REMARK    3  A    between atoms: C10_10  and  N11_11 
REMARK    4  A    between atoms: C26_24  and  C27_25 
REMARK    5  A    between atoms: C30_28  and  O31_29 
REMARK    6  A    between atoms: O31_29  and  C32_30 
ROOT
ATOM      1  C1  ZIN A   1      18.026  -1.555   9.104  0.00  0.00     0.050 C 
ATOM      2  C2  ZIN A   1      18.756  -2.655   9.831  0.00  0.00    -0.035 A 
ATOM      3  C3  ZIN A   1      19.091  -2.503  11.175  0.00  0.00     0.039 A 
ATOM      4  C23 ZIN A   1      19.767  -3.527  11.843  0.00  0.00     0.017 A 
ATOM      5  C24 ZIN A   1      20.101  -4.686  11.173  0.00  0.00     0.002 A 
ATOM      6  C25 ZIN A   1      19.772  -4.841   9.840  0.00  0.00     0.013 A 
ATOM      7  C26 ZIN A   1      19.091  -3.829   9.164  0.00  0.00    -0.019 A 
ENDROOT
BRANCH   3   8
ATOM      8  C4  ZIN A   1      18.731  -1.262  11.893  0.00  0.00     0.256 C 
ATOM      9  O5  ZIN A   1      17.587  -1.086  12.266  0.00  0.00    -0.267 OA
ATOM     10  N6  ZIN A   1      19.670  -0.325  12.134  0.00  0.00    -0.322 N 
ATOM     11  H41 ZIN A   1      20.564  -0.432  11.775  0.00  0.00     0.169 HD
BRANCH  10  12
ATOM     12  C7  ZIN A   1      19.354   0.804  12.901  0.00  0.00     0.052 A 
ATOM     13  C22 ZIN A   1      19.041   2.006  12.286  0.00  0.00     0.148 A 
ATOM     14  N21 ZIN A   1      18.738   3.072  13.003  0.00  0.00    -0.247 NA
ATOM     15  C10 ZIN A   1      18.731   3.041  14.326  0.00  0.00     0.105 A 
ATOM     16  C9  ZIN A   1      19.041   1.871  15.012  0.00  0.00     0.047 A 
ATOM     17  C8  ZIN A   1      19.358   0.732  14.294  0.00  0.00     0.034 A 
BRANCH  15  18
ATOM     18  N11 ZIN A   1      18.410   4.192  15.039  0.00  0.00    -0.263 NA
ATOM     19  C20 ZIN A   1      18.234   3.895  16.468  0.00  0.00     0.128 C 
ATOM     20  C17 ZIN A   1      17.942   5.194  17.222  0.00  0.00     0.131 C 
ATOM     21  O16 ZIN A   1      16.789   5.821  16.654  0.00  0.00    -0.379 OA
ATOM     22  C19 ZIN A   1      17.679   4.882  18.697  0.00  0.00     0.040 C 
ATOM     23  C13 ZIN A   1      16.925   6.126  15.263  0.00  0.00     0.131 C 
ATOM     24  C12 ZIN A   1      17.208   4.835  14.489  0.00  0.00     0.128 C 
ATOM     25  C15 ZIN A   1      15.631   6.758  14.748  0.00  0.00     0.040 C 
ENDBRANCH  15  18
ENDBRANCH  10  12
ENDBRANCH   3   8
BRANCH   7  26
ATOM     26  C27 ZIN A   1      18.738  -3.999   7.734  0.00  0.00    -0.025 A 
ATOM     27  C37 ZIN A   1      19.417  -3.274   6.756  0.00  0.00     0.015 A 
ATOM     28  C36 ZIN A   1      19.089  -3.437   5.426  0.00  0.00     0.038 A 
ATOM     29  C30 ZIN A   1      18.079  -4.316   5.062  0.00  0.00     0.078 A 
ATOM     30  C29 ZIN A   1      17.397  -5.036   6.033  0.00  0.00     0.038 A 
ATOM     31  C28 ZIN A   1      17.723  -4.879   7.365  0.00  0.00     0.015 A 
BRANCH  29  32
ATOM     32  O31 ZIN A   1      17.754  -4.470   3.752  0.00  0.00    -0.255 OA
BRANCH  32  33
ATOM     33  C32 ZIN A   1      16.534  -3.871   3.312  0.00  0.00     0.530 C 
ATOM     34  F33 ZIN A   1      16.573  -3.695   1.925  0.00  0.00    -0.144 F 
ATOM     35  F34 ZIN A   1      15.459  -4.704   3.645  0.00  0.00    -0.144 F 
ATOM     36  F35 ZIN A   1      16.372  -2.630   3.936  0.00  0.00    -0.144 F 
ENDBRANCH  32  33
ENDBRANCH  29  32
ENDBRANCH   7  26
TORSDOF 6
ENDMDL
MODEL 6
REMARK VINA RESULT:      -8.6      5.862     12.423
REMARK  6 active torsions:
REMARK  status: ('A' for Active; 'I' for Inactive)
REMARK    1  A    between atoms: C3_3  and  C4_4 
REMARK       I    between atoms: C4_4  and  N6_6 
REMARK    2  A    between atoms: N6_6  and  C7_7 
REMARK    3  A    between atoms: C10_10  and  N11_11 
REMARK    4  A    between atoms: C26_24  and  C27_25 
REMARK    5  A    between atoms: C30_28  and  O31_29 
REMARK    6  A    between atoms: O31_29  and  C32_30 
ROOT
ATOM      1  C1  ZIN A   1      18.278   2.311  14.448  0.00  0.00     0.050 C 
ATOM      2  C2  ZIN A   1      18.673   1.714  15.775  0.00  0.00    -0.035 A 
ATOM      3  C3  ZIN A   1      18.804   0.333  15.908  0.00  0.00     0.039 A 
ATOM      4  C23 ZIN A   1      19.171  -0.214  17.141  0.00  0.00     0.017 A 
ATOM      5  C24 ZIN A   1      19.403   0.612  18.222  0.00  0.00     0.002 A 
ATOM      6  C25 ZIN A   1      19.273   1.981  18.094  0.00  0.00     0.013 A 
ATOM      7  C26 ZIN A   1      18.914   2.540  16.868  0.00  0.00    -0.019 A 
ENDROOT
BRANCH   3   8
ATOM      8  C4  ZIN A   1      18.557  -0.551  14.750  0.00  0.00     0.256 C 
ATOM      9  O5  ZIN A   1      17.713  -1.423  14.821  0.00  0.00    -0.267 OA
ATOM     10  N6  ZIN A   1      19.269  -0.392  13.616  0.00  0.00    -0.322 N 
ATOM     11  H41 ZIN A   1      19.990   0.255  13.583  0.00  0.00     0.169 HD
BRANCH  10  12
ATOM     12  C7  ZIN A   1      18.967  -1.162  12.485  0.00  0.00     0.052 A 
ATOM     13  C22 ZIN A   1      18.074  -0.694  11.534  0.00  0.00     0.148 A 
ATOM     14  N21 ZIN A   1      17.788  -1.413  10.465  0.00  0.00    -0.247 NA
ATOM     15  C10 ZIN A   1      18.329  -2.603  10.262  0.00  0.00     0.105 A 
ATOM     16  C9  ZIN A   1      19.230  -3.140  11.177  0.00  0.00     0.047 A 
ATOM     17  C8  ZIN A   1      19.558  -2.413  12.307  0.00  0.00     0.034 A 
BRANCH  15  18
ATOM     18  N11 ZIN A   1      17.994  -3.327   9.122  0.00  0.00    -0.263 NA
ATOM     19  C20 ZIN A   1      18.177  -4.769   9.339  0.00  0.00     0.128 C 
ATOM     20  C17 ZIN A   1      17.742  -5.529   8.084  0.00  0.00     0.131 C 
ATOM     21  O16 ZIN A   1      18.487  -5.053   6.961  0.00  0.00    -0.379 OA
ATOM     22  C19 ZIN A   1      18.004  -7.024   8.275  0.00  0.00     0.040 C 
ATOM     23  C13 ZIN A   1      18.332  -3.651   6.719  0.00  0.00     0.131 C 
ATOM     24  C12 ZIN A   1      18.774  -2.872   7.961  0.00  0.00     0.128 C 
ATOM     25  C15 ZIN A   1      19.194  -3.240   5.524  0.00  0.00     0.040 C 
ENDBRANCH  15  18
ENDBRANCH  10  12
ENDBRANCH   3   8
BRANCH   7  26
ATOM     26  C27 ZIN A   1      18.776   4.010  16.734  0.00  0.00    -0.025 A 
ATOM     27  C37 ZIN A   1      19.749   4.745  16.059  0.00  0.00     0.015 A 
ATOM     28  C36 ZIN A   1      19.615   6.112  15.932  0.00  0.00     0.038 A 
ATOM     29  C30 ZIN A   1      18.516   6.757  16.483  0.00  0.00     0.078 A 
ATOM     30  C29 ZIN A   1      17.547   6.029  17.161  0.00  0.00     0.038 A 
ATOM     31  C28 ZIN A   1      17.674   4.661  17.288  0.00  0.00     0.015 A 
BRANCH  29  32
ATOM     32  O31 ZIN A   1      18.389   8.104  16.362  0.00  0.00    -0.255 OA
BRANCH  32  33
ATOM     33  C32 ZIN A   1      17.543   8.584  15.315  0.00  0.00     0.530 C 
ATOM     34  F33 ZIN A   1      18.189   9.615  14.626  0.00  0.00    -0.144 F 
ATOM     35  F34 ZIN A   1      17.259   7.537  14.429  0.00  0.00    -0.144 F 
ATOM     36  F35 ZIN A   1      16.349   9.065  15.864  0.00  0.00    -0.144 F 
ENDBRANCH  32  33
ENDBRANCH  29  32
ENDBRANCH   7  26
TORSDOF 6
ENDMDL
MODEL 7
REMARK VINA RESULT:      -8.5      5.808     11.956
REMARK  6 active torsions:
REMARK  status: ('A' for Active; 'I' for Inactive)
REMARK    1  A    between atoms: C3_3  and  C4_4 
REMARK       I    between atoms: C4_4  and  N6_6 
REMARK    2  A    between atoms: N6_6  and  C7_7 
REMARK    3  A    between atoms: C10_10  and  N11_11 
REMARK    4  A    between atoms: C26_24  and  C27_25 
REMARK    5  A    between atoms: C30_28  and  O31_29 
REMARK    6  A    between atoms: O31_29  and  C32_30 
ROOT
ATOM      1  C1  ZIN A   1      18.132   2.774  13.998  0.00  0.00     0.050 C 
ATOM      2  C2  ZIN A   1      17.713   3.728  12.909  0.00  0.00    -0.035 A 
ATOM      3  C3  ZIN A   1      17.661   3.296  11.585  0.00  0.00     0.039 A 
ATOM      4  C23 ZIN A   1      17.272   4.185  10.580  0.00  0.00     0.017 A 
ATOM      5  C24 ZIN A   1      16.939   5.487  10.898  0.00  0.00     0.002 A 
ATOM      6  C25 ZIN A   1      16.990   5.918  12.209  0.00  0.00     0.013 A 
ATOM      7  C26 ZIN A   1      17.371   5.039  13.222  0.00  0.00    -0.019 A 
ENDROOT
BRANCH   3   8
ATOM      8  C4  ZIN A   1      18.016   1.903  11.244  0.00  0.00     0.256 C 
ATOM      9  O5  ZIN A   1      19.183   1.587  11.116  0.00  0.00    -0.267 OA
ATOM     10  N6  ZIN A   1      17.046   0.982  11.073  0.00  0.00    -0.322 N 
ATOM     11  H41 ZIN A   1      16.114   1.249  11.104  0.00  0.00     0.169 HD
BRANCH  10  12
ATOM     12  C7  ZIN A   1      17.383  -0.359  10.849  0.00  0.00     0.052 A 
ATOM     13  C22 ZIN A   1      17.682  -0.804   9.570  0.00  0.00     0.148 A 
ATOM     14  N21 ZIN A   1      18.004  -2.065   9.353  0.00  0.00    -0.247 NA
ATOM     15  C10 ZIN A   1      18.047  -2.952  10.335  0.00  0.00     0.105 A 
ATOM     16  C9  ZIN A   1      17.754  -2.578  11.644  0.00  0.00     0.047 A 
ATOM     17  C8  ZIN A   1      17.417  -1.263  11.910  0.00  0.00     0.034 A 
BRANCH  15  18
ATOM     18  N11 ZIN A   1      18.388  -4.272  10.057  0.00  0.00    -0.263 NA
ATOM     19  C20 ZIN A   1      19.604  -4.340   9.233  0.00  0.00     0.128 C 
ATOM     20  C17 ZIN A   1      19.976  -5.806   9.001  0.00  0.00     0.131 C 
ATOM     21  O16 ZIN A   1      18.872  -6.482   8.393  0.00  0.00    -0.379 OA
ATOM     22  C19 ZIN A   1      21.194  -5.885   8.079  0.00  0.00     0.040 C 
ATOM     23  C13 ZIN A   1      17.671  -6.437   9.167  0.00  0.00     0.131 C 
ATOM     24  C12 ZIN A   1      17.276  -4.976   9.402  0.00  0.00     0.128 C 
ATOM     25  C15 ZIN A   1      16.549  -7.156   8.415  0.00  0.00     0.040 C 
ENDBRANCH  15  18
ENDBRANCH  10  12
ENDBRANCH   3   8
BRANCH   7  26
ATOM     26  C27 ZIN A   1      17.425   5.505  14.629  0.00  0.00    -0.025 A 
ATOM     27  C37 ZIN A   1      16.248   5.653  15.361  0.00  0.00     0.015 A 
ATOM     28  C36 ZIN A   1      16.302   6.083  16.671  0.00  0.00     0.038 A 
ATOM     29  C30 ZIN A   1      17.526   6.376  17.257  0.00  0.00     0.078 A 
ATOM     30  C29 ZIN A   1      18.700   6.235  16.529  0.00  0.00     0.038 A 
ATOM     31  C28 ZIN A   1      18.652   5.802  15.220  0.00  0.00     0.015 A 
BRANCH  29  32
ATOM     32  O31 ZIN A   1      17.576   6.804  18.546  0.00  0.00    -0.255 OA
BRANCH  32  33
ATOM     33  C32 ZIN A   1      17.373   5.822  19.563  0.00  0.00     0.530 C 
ATOM     34  F33 ZIN A   1      16.005   5.698  19.827  0.00  0.00    -0.144 F 
ATOM     35  F34 ZIN A   1      17.876   4.590  19.129  0.00  0.00    -0.144 F 
ATOM     36  F35 ZIN A   1      18.040   6.212  20.729  0.00  0.00    -0.144 F 
ENDBRANCH  32  33
ENDBRANCH  29  32
ENDBRANCH   7  26
TORSDOF 6
ENDMDL
MODEL 8
REMARK VINA RESULT:      -8.5      2.965      4.102
REMARK  6 active torsions:
REMARK  status: ('A' for Active; 'I' for Inactive)
REMARK    1  A    between atoms: C3_3  and  C4_4 
REMARK       I    between atoms: C4_4  and  N6_6 
REMARK    2  A    between atoms: N6_6  and  C7_7 
REMARK    3  A    between atoms: C10_10  and  N11_11 
REMARK    4  A    between atoms: C26_24  and  C27_25 
REMARK    5  A    between atoms: C30_28  and  O31_29 
REMARK    6  A    between atoms: O31_29  and  C32_30 
ROOT
ATOM      1  C1  ZIN A   1      17.865  -2.547   8.865  0.00  0.00     0.050 C 
ATOM      2  C2  ZIN A   1      17.738  -3.630   9.905  0.00  0.00    -0.035 A 
ATOM      3  C3  ZIN A   1      17.869  -3.319  11.257  0.00  0.00     0.039 A 
ATOM      4  C23 ZIN A   1      17.750  -4.328  12.217  0.00  0.00     0.017 A 
ATOM      5  C24 ZIN A   1      17.502  -5.628  11.826  0.00  0.00     0.002 A 
ATOM      6  C25 ZIN A   1      17.372  -5.941  10.487  0.00  0.00     0.013 A 
ATOM      7  C26 ZIN A   1      17.483  -4.942   9.520  0.00  0.00    -0.019 A 
ENDROOT
BRANCH   3   8
ATOM      8  C4  ZIN A   1      18.133  -1.926  11.676  0.00  0.00     0.256 C 
ATOM      9  O5  ZIN A   1      19.260  -1.587  11.981  0.00  0.00    -0.267 OA
ATOM     10  N6  ZIN A   1      17.124  -1.033  11.721  0.00  0.00    -0.322 N 
ATOM     11  H41 ZIN A   1      16.215  -1.320  11.547  0.00  0.00     0.169 HD
BRANCH  10  12
ATOM     12  C7  ZIN A   1      17.390   0.310  12.020  0.00  0.00     0.052 A 
ATOM     13  C22 ZIN A   1      17.531   0.721  13.336  0.00  0.00     0.148 A 
ATOM     14  N21 ZIN A   1      17.786   1.984  13.625  0.00  0.00    -0.247 NA
ATOM     15  C10 ZIN A   1      17.905   2.903  12.680  0.00  0.00     0.105 A 
ATOM     16  C9  ZIN A   1      17.770   2.564  11.337  0.00  0.00     0.047 A 
ATOM     17  C8  ZIN A   1      17.508   1.249  10.997  0.00  0.00     0.034 A 
BRANCH  15  18
ATOM     18  N11 ZIN A   1      18.169   4.223  13.034  0.00  0.00    -0.263 NA
ATOM     19  C20 ZIN A   1      19.315   4.304  13.950  0.00  0.00     0.128 C 
ATOM     20  C17 ZIN A   1      19.607   5.773  14.266  0.00  0.00     0.131 C 
ATOM     21  O16 ZIN A   1      18.434   6.381  14.812  0.00  0.00    -0.379 OA
ATOM     22  C19 ZIN A   1      20.748   5.862  15.281  0.00  0.00     0.040 C 
ATOM     23  C13 ZIN A   1      17.297   6.321  13.946  0.00  0.00     0.131 C 
ATOM     24  C12 ZIN A   1      16.982   4.856  13.627  0.00  0.00     0.128 C 
ATOM     25  C15 ZIN A   1      16.093   6.964  14.636  0.00  0.00     0.040 C 
ENDBRANCH  15  18
ENDBRANCH  10  12
ENDBRANCH   3   8
BRANCH   7  26
ATOM     26  C27 ZIN A   1      17.343  -5.281   8.083  0.00  0.00    -0.025 A 
ATOM     27  C37 ZIN A   1      16.131  -5.767   7.595  0.00  0.00     0.015 A 
ATOM     28  C36 ZIN A   1      16.003  -6.077   6.257  0.00  0.00     0.038 A 
ATOM     29  C30 ZIN A   1      17.081  -5.913   5.398  0.00  0.00     0.078 A 
ATOM     30  C29 ZIN A   1      18.291  -5.434   5.882  0.00  0.00     0.038 A 
ATOM     31  C28 ZIN A   1      18.424  -5.119   7.219  0.00  0.00     0.015 A 
BRANCH  29  32
ATOM     32  O31 ZIN A   1      16.954  -6.225   4.082  0.00  0.00    -0.255 OA
BRANCH  32  33
ATOM     33  C32 ZIN A   1      16.742  -5.139   3.177  0.00  0.00     0.530 C 
ATOM     34  F33 ZIN A   1      17.976  -4.666   2.718  0.00  0.00    -0.144 F 
ATOM     35  F34 ZIN A   1      15.979  -5.581   2.089  0.00  0.00    -0.144 F 
ATOM     36  F35 ZIN A   1      16.063  -4.109   3.835  0.00  0.00    -0.144 F 
ENDBRANCH  32  33
ENDBRANCH  29  32
ENDBRANCH   7  26
TORSDOF 6
ENDMDL
MODEL 9
REMARK VINA RESULT:      -8.4      6.006     12.319
REMARK  6 active torsions:
REMARK  status: ('A' for Active; 'I' for Inactive)
REMARK    1  A    between atoms: C3_3  and  C4_4 
REMARK       I    between atoms: C4_4  and  N6_6 
REMARK    2  A    between atoms: N6_6  and  C7_7 
REMARK    3  A    between atoms: C10_10  and  N11_11 
REMARK    4  A    between atoms: C26_24  and  C27_25 
REMARK    5  A    between atoms: C30_28  and  O31_29 
REMARK    6  A    between atoms: O31_29  and  C32_30 
ROOT
ATOM      1  C1  ZIN A   1      18.984   0.938  12.956  0.00  0.00     0.050 C 
ATOM      2  C2  ZIN A   1      18.791   0.336  14.325  0.00  0.00    -0.035 A 
ATOM      3  C3  ZIN A   1      18.722  -1.047  14.476  0.00  0.00     0.039 A 
ATOM      4  C23 ZIN A   1      18.544  -1.599  15.748  0.00  0.00     0.017 A 
ATOM      5  C24 ZIN A   1      18.438  -0.775  16.850  0.00  0.00     0.002 A 
ATOM      6  C25 ZIN A   1      18.506   0.597  16.705  0.00  0.00     0.013 A 
ATOM      7  C26 ZIN A   1      18.689   1.159  15.442  0.00  0.00    -0.019 A 
ENDROOT
BRANCH   3   8
ATOM      8  C4  ZIN A   1      18.837  -1.930  13.296  0.00  0.00     0.256 C 
ATOM      9  O5  ZIN A   1      19.920  -2.385  12.982  0.00  0.00    -0.267 OA
ATOM     10  N6  ZIN A   1      17.743  -2.229  12.568  0.00  0.00    -0.322 N 
ATOM     11  H41 ZIN A   1      16.893  -1.810  12.776  0.00  0.00     0.169 HD
BRANCH  10  12
ATOM     12  C7  ZIN A   1      17.832  -3.144  11.511  0.00  0.00     0.052 A 
ATOM     13  C22 ZIN A   1      18.099  -2.706  10.223  0.00  0.00     0.148 A 
ATOM     14  N21 ZIN A   1      18.189  -3.563   9.224  0.00  0.00    -0.247 NA
ATOM     15  C10 ZIN A   1      18.021  -4.863   9.405  0.00  0.00     0.105 A 
ATOM     16  C9  ZIN A   1      17.744  -5.375  10.669  0.00  0.00     0.047 A 
ATOM     17  C8  ZIN A   1      17.648  -4.507  11.742  0.00  0.00     0.034 A 
BRANCH  15  18
ATOM     18  N11 ZIN A   1      18.120  -5.728   8.319  0.00  0.00    -0.263 NA
ATOM     19  C20 ZIN A   1      17.879  -5.017   7.055  0.00  0.00     0.128 C 
ATOM     20  C17 ZIN A   1      18.056  -5.990   5.886  0.00  0.00     0.131 C 
ATOM     21  O16 ZIN A   1      17.173  -7.101   6.059  0.00  0.00    -0.379 OA
ATOM     22  C19 ZIN A   1      17.729  -5.276   4.573  0.00  0.00     0.040 C 
ATOM     23  C13 ZIN A   1      17.379  -7.817   7.280  0.00  0.00     0.131 C 
ATOM     24  C12 ZIN A   1      17.196  -6.862   8.463  0.00  0.00     0.128 C 
ATOM     25  C15 ZIN A   1      16.366  -8.959   7.382  0.00  0.00     0.040 C 
ENDBRANCH  15  18
ENDBRANCH  10  12
ENDBRANCH   3   8
BRANCH   7  26
ATOM     26  C27 ZIN A   1      18.762   2.633  15.288  0.00  0.00    -0.025 A 
ATOM     27  C37 ZIN A   1      19.561   3.386  16.147  0.00  0.00     0.015 A 
ATOM     28  C36 ZIN A   1      19.629   4.756  15.998  0.00  0.00     0.038 A 
ATOM     29  C30 ZIN A   1      18.897   5.385  15.000  0.00  0.00     0.078 A 
ATOM     30  C29 ZIN A   1      18.096   4.638  14.147  0.00  0.00     0.038 A 
ATOM     31  C28 ZIN A   1      18.027   3.267  14.288  0.00  0.00     0.015 A 
BRANCH  29  32
ATOM     32  O31 ZIN A   1      18.962   6.734  14.860  0.00  0.00    -0.255 OA
BRANCH  32  33
ATOM     33  C32 ZIN A   1      17.778   7.475  15.162  0.00  0.00     0.530 C 
ATOM     34  F33 ZIN A   1      16.972   7.555  14.022  0.00  0.00    -0.144 F 
ATOM     35  F34 ZIN A   1      17.073   6.830  16.186  0.00  0.00    -0.144 F 
ATOM     36  F35 ZIN A   1      18.127   8.764  15.579  0.00  0.00    -0.144 F 
ENDBRANCH  32  33
ENDBRANCH  29  32
ENDBRANCH   7  26
TORSDOF 6
ENDMDL
