MODEL 1
REMARK VINA RESULT:      -3.9      0.000      0.000
REMARK  3 active torsions:
REMARK  status: ('A' for Active; 'I' for Inactive)
REMARK    1  A    between atoms: P2_2  and  O5_5 
REMARK    2  A    between atoms: O5_5  and  P6_6 
REMARK    3  A    between atoms: P6_6  and  O9_9 
ROOT
ATOM      1  O5  ZIN A   1      19.055   1.178  16.415  0.00  0.00    -0.173 OA
ENDROOT
BRANCH   1   2
ATOM      2  P2  ZIN A   1      18.827   0.243  15.125  0.00  0.00     0.431 P 
ATOM      3  O1  ZIN A   1      19.953   0.520  14.072  0.00  0.00    -0.616 OA
ATOM      4  O3  ZIN A   1      17.429   0.558  14.490  0.00  0.00    -0.616 OA
ATOM      5  O4  ZIN A   1      18.876  -1.263  15.556  0.00  0.00    -0.616 OA
ENDBRANCH   1   2
BRANCH   1   6
ATOM      6  P6  ZIN A   1      18.998   0.925  18.004  0.00  0.00     0.416 P 
ATOM      7  O7  ZIN A   1      19.793   2.034  18.730  0.00  0.00    -0.624 OA
ATOM      8  O8  ZIN A   1      17.528   0.953  18.478  0.00  0.00    -0.624 OA
BRANCH   6   9
ATOM      9  O9  ZIN A   1      19.645  -0.509  18.344  0.00  0.00    -0.300 OA
ATOM     10  H10 ZIN A   1      20.018  -0.965  17.576  0.00  0.00     0.223 HD
ENDBRANCH   6   9
ENDBRANCH   1   6
TORSDOF 3
ENDMDL
MODEL 2
REMARK VINA RESULT:      -3.9      1.454      2.338
REMARK  3 active torsions:
REMARK  status: ('A' for Active; 'I' for Inactive)
REMARK    1  A    between atoms: P2_2  and  O5_5 
REMARK    2  A    between atoms: O5_5  and  P6_6 
REMARK    3  A    between atoms: P6_6  and  O9_9 
ROOT
ATOM      1  O5  ZIN A   1      18.999   0.895  16.213  0.00  0.00    -0.173 OA
ENDROOT
BRANCH   1   2
ATOM      2  P2  ZIN A   1      18.218  -0.499  16.012  0.00  0.00     0.431 P 
ATOM      3  O1  ZIN A   1      19.112  -1.678  16.525  0.00  0.00    -0.616 OA
ATOM      4  O3  ZIN A   1      17.899  -0.706  14.492  0.00  0.00    -0.616 OA
ATOM      5  O4  ZIN A   1      16.878  -0.468  16.826  0.00  0.00    -0.616 OA
ENDBRANCH   1   2
BRANCH   1   6
ATOM      6  P6  ZIN A   1      19.091   1.963  17.413  0.00  0.00     0.416 P 
ATOM      7  O7  ZIN A   1      19.824   1.324  18.615  0.00  0.00    -0.624 OA
ATOM      8  O8  ZIN A   1      19.874   3.207  16.937  0.00  0.00    -0.624 OA
BRANCH   6   9
ATOM      9  O9  ZIN A   1      17.608   2.399  17.860  0.00  0.00    -0.300 OA
ATOM     10  H10 ZIN A   1      17.498   3.352  17.983  0.00  0.00     0.223 HD
ENDBRANCH   6   9
ENDBRANCH   1   6
TORSDOF 3
ENDMDL
MODEL 3
REMARK VINA RESULT:      -3.9      4.106      5.850
REMARK  3 active torsions:
REMARK  status: ('A' for Active; 'I' for Inactive)
REMARK    1  A    between atoms: P2_2  and  O5_5 
REMARK    2  A    between atoms: O5_5  and  P6_6 
REMARK    3  A    between atoms: P6_6  and  O9_9 
ROOT
ATOM      1  O5  ZIN A   1      19.651   1.876  11.169  0.00  0.00    -0.173 OA
ENDROOT
BRANCH   1   2
ATOM      2  P2  ZIN A   1      18.299   2.167  10.345  0.00  0.00     0.431 P 
ATOM      3  O1  ZIN A   1      18.205   1.182   9.131  0.00  0.00    -0.616 OA
ATOM      4  O3  ZIN A   1      18.313   3.643   9.820  0.00  0.00    -0.616 OA
ATOM      5  O4  ZIN A   1      17.061   1.958  11.283  0.00  0.00    -0.616 OA
ENDBRANCH   1   2
BRANCH   1   6
ATOM      6  P6  ZIN A   1      20.134   0.691  12.145  0.00  0.00     0.416 P 
ATOM      7  O7  ZIN A   1      19.631   0.968  13.579  0.00  0.00    -0.624 OA
ATOM      8  O8  ZIN A   1      19.557  -0.653  11.648  0.00  0.00    -0.624 OA
BRANCH   6   9
ATOM      9  O9  ZIN A   1      21.742   0.617  12.145  0.00  0.00    -0.300 OA
ATOM     10  H10 ZIN A   1      22.106  -0.041  12.754  0.00  0.00     0.223 HD
ENDBRANCH   6   9
ENDBRANCH   1   6
TORSDOF 3
ENDMDL
MODEL 4
REMARK VINA RESULT:      -3.9      8.039     10.710
REMARK  3 active torsions:
REMARK  status: ('A' for Active; 'I' for Inactive)
REMARK    1  A    between atoms: P2_2  and  O5_5 
REMARK    2  A    between atoms: O5_5  and  P6_6 
REMARK    3  A    between atoms: P6_6  and  O9_9 
ROOT
ATOM      1  O5  ZIN A   1      19.241  -0.967   6.813  0.00  0.00    -0.173 OA
ENDROOT
BRANCH   1   2
ATOM      2  P2  ZIN A   1      19.029  -0.021   8.098  0.00  0.00     0.431 P 
ATOM      3  O1  ZIN A   1      17.549  -0.139   8.596  0.00  0.00    -0.616 OA
ATOM      4  O3  ZIN A   1      19.333   1.467   7.709  0.00  0.00    -0.616 OA
ATOM      5  O4  ZIN A   1      20.002  -0.469   9.242  0.00  0.00    -0.616 OA
ENDBRANCH   1   2
BRANCH   1   6
ATOM      6  P6  ZIN A   1      19.033  -0.766   5.229  0.00  0.00     0.416 P 
ATOM      7  O7  ZIN A   1      19.748  -1.905   4.468  0.00  0.00    -0.624 OA
ATOM      8  O8  ZIN A   1      17.524  -0.795   4.899  0.00  0.00    -0.624 OA
BRANCH   6   9
ATOM      9  O9  ZIN A   1      19.654   0.650   4.781  0.00  0.00    -0.300 OA
ATOM     10  H10 ZIN A   1      19.010   1.256   4.390  0.00  0.00     0.223 HD
ENDBRANCH   6   9
ENDBRANCH   1   6
TORSDOF 3
ENDMDL
MODEL 5
REMARK VINA RESULT:      -3.8      1.720      2.516
REMARK  3 active torsions:
REMARK  status: ('A' for Active; 'I' for Inactive)
REMARK    1  A    between atoms: P2_2  and  O5_5 
REMARK    2  A    between atoms: O5_5  and  P6_6 
REMARK    3  A    between atoms: P6_6  and  O9_9 
ROOT
ATOM      1  O5  ZIN A   1      18.237   1.578  16.906  0.00  0.00    -0.173 OA
ENDROOT
BRANCH   1   2
ATOM      2  P2  ZIN A   1      18.483  -0.012  16.828  0.00  0.00     0.431 P 
ATOM      3  O1  ZIN A   1      19.400  -0.458  18.016  0.00  0.00    -0.616 OA
ATOM      4  O3  ZIN A   1      19.176  -0.367  15.468  0.00  0.00    -0.616 OA
ATOM      5  O4  ZIN A   1      17.107  -0.757  16.922  0.00  0.00    -0.616 OA
ENDBRANCH   1   2
BRANCH   1   6
ATOM      6  P6  ZIN A   1      18.948   2.782  17.703  0.00  0.00     0.416 P 
ATOM      7  O7  ZIN A   1      20.059   3.397  16.823  0.00  0.00    -0.624 OA
ATOM      8  O8  ZIN A   1      17.901   3.866  18.041  0.00  0.00    -0.624 OA
BRANCH   6   9
ATOM      9  O9  ZIN A   1      19.594   2.217  19.065  0.00  0.00    -0.300 OA
ATOM     10  H10 ZIN A   1      19.108   1.477  19.454  0.00  0.00     0.223 HD
ENDBRANCH   6   9
ENDBRANCH   1   6
TORSDOF 3
ENDMDL
MODEL 6
REMARK VINA RESULT:      -3.8      4.457      6.122
REMARK  3 active torsions:
REMARK  status: ('A' for Active; 'I' for Inactive)
REMARK    1  A    between atoms: P2_2  and  O5_5 
REMARK    2  A    between atoms: O5_5  and  P6_6 
REMARK    3  A    between atoms: P6_6  and  O9_9 
ROOT
ATOM      1  O5  ZIN A   1      18.558  -0.172  11.070  0.00  0.00    -0.173 OA
ENDROOT
BRANCH   1   2
ATOM      2  P2  ZIN A   1      17.353  -0.785  11.946  0.00  0.00     0.431 P 
ATOM      3  O1  ZIN A   1      17.158  -2.296  11.583  0.00  0.00    -0.616 OA
ATOM      4  O3  ZIN A   1      16.032   0.002  11.640  0.00  0.00    -0.616 OA
ATOM      5  O4  ZIN A   1      17.697  -0.654  13.470  0.00  0.00    -0.616 OA
ENDBRANCH   1   2
BRANCH   1   6
ATOM      6  P6  ZIN A   1      20.118  -0.533  10.906  0.00  0.00     0.416 P 
ATOM      7  O7  ZIN A   1      20.550  -0.297   9.442  0.00  0.00    -0.624 OA
ATOM      8  O8  ZIN A   1      20.956   0.367  11.841  0.00  0.00    -0.624 OA
BRANCH   6   9
ATOM      9  O9  ZIN A   1      20.355  -2.078  11.293  0.00  0.00    -0.300 OA
ATOM     10  H10 ZIN A   1      20.036  -2.704  10.628  0.00  0.00     0.223 HD
ENDBRANCH   6   9
ENDBRANCH   1   6
TORSDOF 3
ENDMDL
MODEL 7
REMARK VINA RESULT:      -3.7      5.690      6.598
REMARK  3 active torsions:
REMARK  status: ('A' for Active; 'I' for Inactive)
REMARK    1  A    between atoms: P2_2  and  O5_5 
REMARK    2  A    between atoms: O5_5  and  P6_6 
REMARK    3  A    between atoms: P6_6  and  O9_9 
ROOT
ATOM      1  O5  ZIN A   1      18.972   0.750  11.150  0.00  0.00    -0.173 OA
ENDROOT
BRANCH   1   2
ATOM      2  P2  ZIN A   1      18.750   2.300  10.774  0.00  0.00     0.431 P 
ATOM      3  O1  ZIN A   1      18.902   2.490   9.227  0.00  0.00    -0.616 OA
ATOM      4  O3  ZIN A   1      19.817   3.176  11.516  0.00  0.00    -0.616 OA
ATOM      5  O4  ZIN A   1      17.313   2.743  11.216  0.00  0.00    -0.616 OA
ENDBRANCH   1   2
BRANCH   1   6
ATOM      6  P6  ZIN A   1      20.214  -0.265  11.021  0.00  0.00     0.416 P 
ATOM      7  O7  ZIN A   1      19.835  -1.625  11.650  0.00  0.00    -0.624 OA
ATOM      8  O8  ZIN A   1      20.562  -0.468   9.530  0.00  0.00    -0.624 OA
BRANCH   6   9
ATOM      9  O9  ZIN A   1      21.489   0.344  11.792  0.00  0.00    -0.300 OA
ATOM     10  H10 ZIN A   1      21.694   1.259  11.552  0.00  0.00     0.223 HD
ENDBRANCH   6   9
ENDBRANCH   1   6
TORSDOF 3
ENDMDL
MODEL 8
REMARK VINA RESULT:      -3.7      8.450     10.445
REMARK  3 active torsions:
REMARK  status: ('A' for Active; 'I' for Inactive)
REMARK    1  A    between atoms: P2_2  and  O5_5 
REMARK    2  A    between atoms: O5_5  and  P6_6 
REMARK    3  A    between atoms: P6_6  and  O9_9 
ROOT
ATOM      1  O5  ZIN A   1      18.662  -1.339   6.751  0.00  0.00    -0.173 OA
ENDROOT
BRANCH   1   2
ATOM      2  P2  ZIN A   1      18.914  -1.664   5.194  0.00  0.00     0.431 P 
ATOM      3  O1  ZIN A   1      19.972  -0.664   4.616  0.00  0.00    -0.616 OA
ATOM      4  O3  ZIN A   1      17.569  -1.517   4.405  0.00  0.00    -0.616 OA
ATOM      5  O4  ZIN A   1      19.448  -3.130   5.047  0.00  0.00    -0.616 OA
ENDBRANCH   1   2
BRANCH   1   6
ATOM      6  P6  ZIN A   1      18.654   0.013   7.625  0.00  0.00     0.416 P 
ATOM      7  O7  ZIN A   1      17.276   0.178   8.305  0.00  0.00    -0.624 OA
ATOM      8  O8  ZIN A   1      19.755  -0.066   8.706  0.00  0.00    -0.624 OA
BRANCH   6   9
ATOM      9  O9  ZIN A   1      18.934   1.275   6.666  0.00  0.00    -0.300 OA
ATOM     10  H10 ZIN A   1      19.329   2.033   7.118  0.00  0.00     0.223 HD
ENDBRANCH   6   9
ENDBRANCH   1   6
TORSDOF 3
ENDMDL
MODEL 9
REMARK VINA RESULT:      -3.7      5.401      6.724
REMARK  3 active torsions:
REMARK  status: ('A' for Active; 'I' for Inactive)
REMARK    1  A    between atoms: P2_2  and  O5_5 
REMARK    2  A    between atoms: O5_5  and  P6_6 
REMARK    3  A    between atoms: P6_6  and  O9_9 
ROOT
ATOM      1  O5  ZIN A   1      17.328   2.274  11.739  0.00  0.00    -0.173 OA
ENDROOT
BRANCH   1   2
ATOM      2  P2  ZIN A   1      17.686   3.710  11.104  0.00  0.00     0.431 P 
ATOM      3  O1  ZIN A   1      18.352   3.510   9.700  0.00  0.00    -0.616 OA
ATOM      4  O3  ZIN A   1      18.679   4.467  12.051  0.00  0.00    -0.616 OA
ATOM      5  O4  ZIN A   1      16.373   4.551  10.944  0.00  0.00    -0.616 OA
ENDBRANCH   1   2
BRANCH   1   6
ATOM      6  P6  ZIN A   1      17.360   0.765  11.181  0.00  0.00     0.416 P 
ATOM      7  O7  ZIN A   1      18.525  -0.004  11.844  0.00  0.00    -0.624 OA
ATOM      8  O8  ZIN A   1      16.025   0.063  11.515  0.00  0.00    -0.624 OA
BRANCH   6   9
ATOM      9  O9  ZIN A   1      17.571   0.786   9.585  0.00  0.00    -0.300 OA
ATOM     10  H10 ZIN A   1      17.469  -0.078   9.163  0.00  0.00     0.223 HD
ENDBRANCH   6   9
ENDBRANCH   1   6
TORSDOF 3
ENDMDL
