MODEL 1
REMARK VINA RESULT:      -7.4      0.000      0.000
REMARK  4 active torsions:
REMARK  status: ('A' for Active; 'I' for Inactive)
REMARK    1  A    between atoms: C2_2  and  C3_3 
REMARK    2  A    between atoms: C11_11  and  C12_12 
REMARK    3  A    between atoms: C11_11  and  C14_14 
REMARK    4  A    between atoms: C14_14  and  C15_15 
ROOT
ATOM      1  C3  ZIN A   1      19.169  -1.881   6.274  0.00  0.00    -0.031 A 
ATOM      2  C4  ZIN A   1      19.078  -0.951   7.303  0.00  0.00     0.049 A 
ATOM      3  N5  ZIN A   1      19.018  -1.061   8.677  0.00  0.00    -0.355 N 
ATOM      4  C6  ZIN A   1      18.935   0.177   9.239  0.00  0.00     0.052 A 
ATOM      5  C7  ZIN A   1      18.936   1.115   8.269  0.00  0.00    -0.018 A 
ATOM      6  C8  ZIN A   1      18.855   2.595   8.544  0.00  0.00     0.068 C 
ATOM      7  C9  ZIN A   1      18.386   2.776   9.996  0.00  0.00     0.174 C 
ATOM      8  O10 ZIN A   1      19.146   1.920  10.853  0.00  0.00    -0.373 OA
ATOM      9  C11 ZIN A   1      18.852   0.525  10.708  0.00  0.00     0.112 C 
ATOM     10  C18 ZIN A   1      19.028   0.423   6.992  0.00  0.00    -0.001 A 
ATOM     11  C19 ZIN A   1      19.073   0.832   5.657  0.00  0.00     0.014 A 
ATOM     12  C20 ZIN A   1      19.164  -0.100   4.662  0.00  0.00     0.002 A 
ATOM     13  C21 ZIN A   1      19.217  -1.453   4.965  0.00  0.00     0.009 A 
ATOM     14  H27 ZIN A   1      19.033  -1.898   9.169  0.00  0.00     0.166 HD
ENDROOT
BRANCH   9  15
ATOM     15  C12 ZIN A   1      19.872  -0.303  11.492  0.00  0.00     0.040 C 
ATOM     16  C13 ZIN A   1      20.749   0.629  12.331  0.00  0.00     0.008 C 
ENDBRANCH   9  15
BRANCH   9  17
ATOM     17  C14 ZIN A   1      17.442   0.238  11.229  0.00  0.00     0.157 C 
BRANCH  17  18
ATOM     18  C15 ZIN A   1      17.422  -1.104  11.912  0.00  0.00     0.175 C 
ATOM     19  O16 ZIN A   1      17.625  -1.180  13.113  0.00  0.00    -0.648 OA
ATOM     20  O17 ZIN A   1      17.202  -2.115  11.267  0.00  0.00    -0.648 OA
ENDBRANCH  17  18
ENDBRANCH   9  17
BRANCH   1  21
ATOM     21  C2  ZIN A   1      19.224  -3.353   6.591  0.00  0.00     0.036 C 
ATOM     22  C1  ZIN A   1      18.563  -4.143   5.459  0.00  0.00     0.010 C 
ENDBRANCH   1  21
TORSDOF 4
ENDMDL
MODEL 2
REMARK VINA RESULT:      -7.2      1.377      1.814
REMARK  4 active torsions:
REMARK  status: ('A' for Active; 'I' for Inactive)
REMARK    1  A    between atoms: C2_2  and  C3_3 
REMARK    2  A    between atoms: C11_11  and  C12_12 
REMARK    3  A    between atoms: C11_11  and  C14_14 
REMARK    4  A    between atoms: C14_14  and  C15_15 
ROOT
ATOM      1  C3  ZIN A   1      18.935  -1.018   7.650  0.00  0.00    -0.031 A 
ATOM      2  C4  ZIN A   1      18.940  -0.205   8.778  0.00  0.00     0.049 A 
ATOM      3  N5  ZIN A   1      18.942  -0.465  10.132  0.00  0.00    -0.355 N 
ATOM      4  C6  ZIN A   1      18.946   0.705  10.830  0.00  0.00     0.052 A 
ATOM      5  C7  ZIN A   1      18.946   1.745   9.969  0.00  0.00    -0.018 A 
ATOM      6  C8  ZIN A   1      18.951   3.187  10.408  0.00  0.00     0.068 C 
ATOM      7  C9  ZIN A   1      18.562   3.225  11.893  0.00  0.00     0.174 C 
ATOM      8  O10 ZIN A   1      19.321   2.247  12.610  0.00  0.00    -0.373 OA
ATOM      9  C11 ZIN A   1      18.953   0.891  12.330  0.00  0.00     0.112 C 
ATOM     10  C18 ZIN A   1      18.942   1.195   8.621  0.00  0.00    -0.001 A 
ATOM     11  C19 ZIN A   1      18.941   1.748   7.338  0.00  0.00     0.014 A 
ATOM     12  C20 ZIN A   1      18.938   0.930   6.243  0.00  0.00     0.002 A 
ATOM     13  C21 ZIN A   1      18.940  -0.450   6.395  0.00  0.00     0.009 A 
ATOM     14  H27 ZIN A   1      18.940  -1.351  10.529  0.00  0.00     0.166 HD
ENDROOT
BRANCH   9  15
ATOM     15  C12 ZIN A   1      19.968  -0.063  12.963  0.00  0.00     0.040 C 
ATOM     16  C13 ZIN A   1      19.506  -0.436  14.374  0.00  0.00     0.008 C 
ENDBRANCH   9  15
BRANCH   9  17
ATOM     17  C14 ZIN A   1      17.557   0.609  12.892  0.00  0.00     0.157 C 
BRANCH  17  18
ATOM     18  C15 ZIN A   1      16.822  -0.324  11.966  0.00  0.00     0.175 C 
ATOM     19  O16 ZIN A   1      16.028   0.123  11.154  0.00  0.00    -0.648 OA
ATOM     20  O17 ZIN A   1      17.019  -1.525  12.026  0.00  0.00    -0.648 OA
ENDBRANCH  17  18
ENDBRANCH   9  17
BRANCH   1  21
ATOM     21  C2  ZIN A   1      18.934  -2.517   7.801  0.00  0.00     0.036 C 
ATOM     22  C1  ZIN A   1      19.647  -3.151   6.605  0.00  0.00     0.010 C 
ENDBRANCH   1  21
TORSDOF 4
ENDMDL
MODEL 3
REMARK VINA RESULT:      -7.2      2.428      5.099
REMARK  4 active torsions:
REMARK  status: ('A' for Active; 'I' for Inactive)
REMARK    1  A    between atoms: C2_2  and  C3_3 
REMARK    2  A    between atoms: C11_11  and  C12_12 
REMARK    3  A    between atoms: C11_11  and  C14_14 
REMARK    4  A    between atoms: C14_14  and  C15_15 
ROOT
ATOM      1  C3  ZIN A   1      18.561   0.431   7.826  0.00  0.00    -0.031 A 
ATOM      2  C4  ZIN A   1      18.588  -0.956   7.751  0.00  0.00     0.049 A 
ATOM      3  N5  ZIN A   1      18.349  -1.959   8.668  0.00  0.00    -0.355 N 
ATOM      4  C6  ZIN A   1      18.513  -3.177   8.078  0.00  0.00     0.052 A 
ATOM      5  C7  ZIN A   1      18.859  -3.010   6.784  0.00  0.00    -0.018 A 
ATOM      6  C8  ZIN A   1      19.118  -4.154   5.839  0.00  0.00     0.068 C 
ATOM      7  C9  ZIN A   1      19.305  -5.424   6.682  0.00  0.00     0.174 C 
ATOM      8  O10 ZIN A   1      18.259  -5.509   7.655  0.00  0.00    -0.373 OA
ATOM      9  C11 ZIN A   1      18.350  -4.541   8.707  0.00  0.00     0.112 C 
ATOM     10  C18 ZIN A   1      18.919  -1.577   6.530  0.00  0.00    -0.001 A 
ATOM     11  C19 ZIN A   1      19.213  -0.793   5.412  0.00  0.00     0.014 A 
ATOM     12  C20 ZIN A   1      19.178   0.570   5.508  0.00  0.00     0.002 A 
ATOM     13  C21 ZIN A   1      18.849   1.184   6.708  0.00  0.00     0.009 A 
ATOM     14  H27 ZIN A   1      18.102  -1.818   9.595  0.00  0.00     0.166 HD
ENDROOT
BRANCH   9  15
ATOM     15  C12 ZIN A   1      17.074  -4.572   9.550  0.00  0.00     0.040 C 
ATOM     16  C13 ZIN A   1      16.038  -5.473   8.874  0.00  0.00     0.008 C 
ENDBRANCH   9  15
BRANCH   9  17
ATOM     17  C14 ZIN A   1      19.561  -4.852   9.590  0.00  0.00     0.157 C 
BRANCH  17  18
ATOM     18  C15 ZIN A   1      19.370  -4.220  10.944  0.00  0.00     0.175 C 
ATOM     19  O16 ZIN A   1      18.829  -4.847  11.839  0.00  0.00    -0.648 OA
ATOM     20  O17 ZIN A   1      19.757  -3.081  11.147  0.00  0.00    -0.648 OA
ENDBRANCH  17  18
ENDBRANCH   9  17
BRANCH   1  21
ATOM     21  C2  ZIN A   1      18.209   1.110   9.124  0.00  0.00     0.036 C 
ATOM     22  C1  ZIN A   1      18.951   2.445   9.220  0.00  0.00     0.010 C 
ENDBRANCH   1  21
TORSDOF 4
ENDMDL
MODEL 4
REMARK VINA RESULT:      -7.2      5.257      8.067
REMARK  4 active torsions:
REMARK  status: ('A' for Active; 'I' for Inactive)
REMARK    1  A    between atoms: C2_2  and  C3_3 
REMARK    2  A    between atoms: C11_11  and  C12_12 
REMARK    3  A    between atoms: C11_11  and  C14_14 
REMARK    4  A    between atoms: C14_14  and  C15_15 
ROOT
ATOM      1  C3  ZIN A   1      18.617   0.108  16.096  0.00  0.00    -0.031 A 
ATOM      2  C4  ZIN A   1      18.705   1.399  15.589  0.00  0.00     0.049 A 
ATOM      3  N5  ZIN A   1      18.506   1.941  14.336  0.00  0.00    -0.355 N 
ATOM      4  C6  ZIN A   1      18.726   3.285  14.371  0.00  0.00     0.052 A 
ATOM      5  C7  ZIN A   1      19.070   3.655  15.622  0.00  0.00    -0.018 A 
ATOM      6  C8  ZIN A   1      19.384   5.077  16.011  0.00  0.00     0.068 C 
ATOM      7  C9  ZIN A   1      19.622   5.874  14.720  0.00  0.00     0.174 C 
ATOM      8  O10 ZIN A   1      18.576   5.591  13.786  0.00  0.00    -0.373 OA
ATOM      9  C11 ZIN A   1      18.619   4.271  13.230  0.00  0.00     0.112 C 
ATOM     10  C18 ZIN A   1      19.069   2.456  16.448  0.00  0.00    -0.001 A 
ATOM     11  C19 ZIN A   1      19.334   2.194  17.794  0.00  0.00     0.014 A 
ATOM     12  C20 ZIN A   1      19.240   0.917  18.271  0.00  0.00     0.002 A 
ATOM     13  C21 ZIN A   1      18.878  -0.125  17.429  0.00  0.00     0.009 A 
ATOM     14  H27 ZIN A   1      18.248   1.438  13.548  0.00  0.00     0.166 HD
ENDROOT
BRANCH   9  15
ATOM     15  C12 ZIN A   1      17.341   4.003  12.434  0.00  0.00     0.040 C 
ATOM     16  C13 ZIN A   1      16.630   5.328  12.148  0.00  0.00     0.008 C 
ENDBRANCH   9  15
BRANCH   9  17
ATOM     17  C14 ZIN A   1      19.838   4.137  12.314  0.00  0.00     0.157 C 
BRANCH  17  18
ATOM     18  C15 ZIN A   1      19.641   2.968  11.385  0.00  0.00     0.175 C 
ATOM     19  O16 ZIN A   1      19.168   3.145  10.275  0.00  0.00    -0.648 OA
ATOM     20  O17 ZIN A   1      19.955   1.845  11.741  0.00  0.00    -0.648 OA
ENDBRANCH  17  18
ENDBRANCH   9  17
BRANCH   1  21
ATOM     21  C2  ZIN A   1      18.229  -1.033  15.191  0.00  0.00     0.036 C 
ATOM     22  C1  ZIN A   1      19.443  -1.463  14.365  0.00  0.00     0.010 C 
ENDBRANCH   1  21
TORSDOF 4
ENDMDL
MODEL 5
REMARK VINA RESULT:      -7.2      2.681      4.528
REMARK  4 active torsions:
REMARK  status: ('A' for Active; 'I' for Inactive)
REMARK    1  A    between atoms: C2_2  and  C3_3 
REMARK    2  A    between atoms: C11_11  and  C12_12 
REMARK    3  A    between atoms: C11_11  and  C14_14 
REMARK    4  A    between atoms: C14_14  and  C15_15 
ROOT
ATOM      1  C3  ZIN A   1      18.370   0.147   6.784  0.00  0.00    -0.031 A 
ATOM      2  C4  ZIN A   1      18.553  -0.837   7.748  0.00  0.00     0.049 A 
ATOM      3  N5  ZIN A   1      18.278  -2.189   7.786  0.00  0.00    -0.355 N 
ATOM      4  C6  ZIN A   1      18.658  -2.706   8.987  0.00  0.00     0.052 A 
ATOM      5  C7  ZIN A   1      19.181  -1.729   9.756  0.00  0.00    -0.018 A 
ATOM      6  C8  ZIN A   1      19.701  -1.958  11.152  0.00  0.00     0.068 C 
ATOM      7  C9  ZIN A   1      19.174  -3.318  11.631  0.00  0.00     0.174 C 
ATOM      8  O10 ZIN A   1      19.382  -4.297  10.609  0.00  0.00    -0.373 OA
ATOM      9  C11 ZIN A   1      18.545  -4.139   9.457  0.00  0.00     0.112 C 
ATOM     10  C18 ZIN A   1      19.131  -0.494   8.986  0.00  0.00    -0.001 A 
ATOM     11  C19 ZIN A   1      19.514   0.828   9.228  0.00  0.00     0.014 A 
ATOM     12  C20 ZIN A   1      19.326   1.779   8.265  0.00  0.00     0.002 A 
ATOM     13  C21 ZIN A   1      18.761   1.443   7.044  0.00  0.00     0.009 A 
ATOM     14  H27 ZIN A   1      17.874  -2.695   7.063  0.00  0.00     0.166 HD
ENDROOT
BRANCH   9  15
ATOM     15  C12 ZIN A   1      19.008  -5.084   8.347  0.00  0.00     0.040 C 
ATOM     16  C13 ZIN A   1      20.333  -5.735   8.750  0.00  0.00     0.008 C 
ENDBRANCH   9  15
BRANCH   9  17
ATOM     17  C14 ZIN A   1      17.093  -4.448   9.829  0.00  0.00     0.157 C 
BRANCH  17  18
ATOM     18  C15 ZIN A   1      16.933  -5.932  10.037  0.00  0.00     0.175 C 
ATOM     19  O16 ZIN A   1      17.263  -6.438  11.096  0.00  0.00    -0.648 OA
ATOM     20  O17 ZIN A   1      16.473  -6.627   9.147  0.00  0.00    -0.648 OA
ENDBRANCH  17  18
ENDBRANCH   9  17
BRANCH   1  21
ATOM     21  C2  ZIN A   1      17.754  -0.204   5.454  0.00  0.00     0.036 C 
ATOM     22  C1  ZIN A   1      18.836  -0.200   4.373  0.00  0.00     0.010 C 
ENDBRANCH   1  21
TORSDOF 4
ENDMDL
MODEL 6
REMARK VINA RESULT:      -6.8      5.505      7.840
REMARK  4 active torsions:
REMARK  status: ('A' for Active; 'I' for Inactive)
REMARK    1  A    between atoms: C2_2  and  C3_3 
REMARK    2  A    between atoms: C11_11  and  C12_12 
REMARK    3  A    between atoms: C11_11  and  C14_14 
REMARK    4  A    between atoms: C14_14  and  C15_15 
ROOT
ATOM      1  C3  ZIN A   1      18.106   0.084  16.138  0.00  0.00    -0.031 A 
ATOM      2  C4  ZIN A   1      18.364   1.079  15.203  0.00  0.00     0.049 A 
ATOM      3  N5  ZIN A   1      18.101   2.433  15.165  0.00  0.00    -0.355 N 
ATOM      4  C6  ZIN A   1      18.569   2.964  14.000  0.00  0.00     0.052 A 
ATOM      5  C7  ZIN A   1      19.139   1.993  13.257  0.00  0.00    -0.018 A 
ATOM      6  C8  ZIN A   1      19.759   2.237  11.905  0.00  0.00     0.068 C 
ATOM      7  C9  ZIN A   1      19.276   3.607  11.409  0.00  0.00     0.174 C 
ATOM      8  O10 ZIN A   1      19.418   4.571  12.457  0.00  0.00    -0.373 OA
ATOM      9  C11 ZIN A   1      18.499   4.403  13.543  0.00  0.00     0.112 C 
ATOM     10  C18 ZIN A   1      19.027   0.748  14.004  0.00  0.00    -0.001 A 
ATOM     11  C19 ZIN A   1      19.417  -0.573  13.772  0.00  0.00     0.014 A 
ATOM     12  C20 ZIN A   1      19.155  -1.535  14.705  0.00  0.00     0.002 A 
ATOM     13  C21 ZIN A   1      18.506  -1.211  15.888  0.00  0.00     0.009 A 
ATOM     14  H27 ZIN A   1      17.649   2.932  15.864  0.00  0.00     0.166 HD
ENDROOT
BRANCH   9  15
ATOM     15  C12 ZIN A   1      18.888   5.330  14.697  0.00  0.00     0.040 C 
ATOM     16  C13 ZIN A   1      20.241   5.979  14.397  0.00  0.00     0.008 C 
ENDBRANCH   9  15
BRANCH   9  17
ATOM     17  C14 ZIN A   1      17.080   4.729  13.074  0.00  0.00     0.157 C 
BRANCH  17  18
ATOM     18  C15 ZIN A   1      16.509   5.833  13.925  0.00  0.00     0.175 C 
ATOM     19  O16 ZIN A   1      15.813   5.561  14.890  0.00  0.00    -0.648 OA
ATOM     20  O17 ZIN A   1      16.743   6.998  13.652  0.00  0.00    -0.648 OA
ENDBRANCH  17  18
ENDBRANCH   9  17
BRANCH   1  21
ATOM     21  C2  ZIN A   1      17.399   0.422  17.425  0.00  0.00     0.036 C 
ATOM     22  C1  ZIN A   1      18.397   0.373  18.583  0.00  0.00     0.010 C 
ENDBRANCH   1  21
TORSDOF 4
ENDMDL
MODEL 7
REMARK VINA RESULT:      -6.5      2.470      5.238
REMARK  4 active torsions:
REMARK  status: ('A' for Active; 'I' for Inactive)
REMARK    1  A    between atoms: C2_2  and  C3_3 
REMARK    2  A    between atoms: C11_11  and  C12_12 
REMARK    3  A    between atoms: C11_11  and  C14_14 
REMARK    4  A    between atoms: C14_14  and  C15_15 
ROOT
ATOM      1  C3  ZIN A   1      18.025   0.533  10.049  0.00  0.00    -0.031 A 
ATOM      2  C4  ZIN A   1      18.269  -0.691   9.438  0.00  0.00     0.049 A 
ATOM      3  N5  ZIN A   1      18.026  -1.998   9.807  0.00  0.00    -0.355 N 
ATOM      4  C6  ZIN A   1      18.467  -2.845   8.835  0.00  0.00     0.052 A 
ATOM      5  C7  ZIN A   1      19.002  -2.131   7.822  0.00  0.00    -0.018 A 
ATOM      6  C8  ZIN A   1      19.586  -2.758   6.582  0.00  0.00     0.068 C 
ATOM      7  C9  ZIN A   1      19.810  -4.249   6.872  0.00  0.00     0.174 C 
ATOM      8  O10 ZIN A   1      18.636  -4.798   7.478  0.00  0.00    -0.373 OA
ATOM      9  C11 ZIN A   1      18.400  -4.355   8.820  0.00  0.00     0.112 C 
ATOM     10  C18 ZIN A   1      18.894  -0.723   8.175  0.00  0.00    -0.001 A 
ATOM     11  C19 ZIN A   1      19.257   0.474   7.553  0.00  0.00     0.014 A 
ATOM     12  C20 ZIN A   1      19.006   1.667   8.171  0.00  0.00     0.002 A 
ATOM     13  C21 ZIN A   1      18.388   1.701   9.413  0.00  0.00     0.009 A 
ATOM     14  H27 ZIN A   1      17.603  -2.273  10.636  0.00  0.00     0.166 HD
ENDROOT
BRANCH   9  15
ATOM     15  C12 ZIN A   1      17.016  -4.815   9.281  0.00  0.00     0.040 C 
ATOM     16  C13 ZIN A   1      16.651  -6.122   8.574  0.00  0.00     0.008 C 
ENDBRANCH   9  15
BRANCH   9  17
ATOM     17  C14 ZIN A   1      19.472  -4.929   9.749  0.00  0.00     0.157 C 
BRANCH  17  18
ATOM     18  C15 ZIN A   1      19.362  -4.282  11.104  0.00  0.00     0.175 C 
ATOM     19  O16 ZIN A   1      18.402  -4.520  11.817  0.00  0.00    -0.648 OA
ATOM     20  O17 ZIN A   1      20.232  -3.519  11.489  0.00  0.00    -0.648 OA
ENDBRANCH  17  18
ENDBRANCH   9  17
BRANCH   1  21
ATOM     21  C2  ZIN A   1      17.358   0.584  11.399  0.00  0.00     0.036 C 
ATOM     22  C1  ZIN A   1      18.420   0.487  12.496  0.00  0.00     0.010 C 
ENDBRANCH   1  21
TORSDOF 4
ENDMDL
MODEL 8
REMARK VINA RESULT:      -6.5      4.044      7.805
REMARK  4 active torsions:
REMARK  status: ('A' for Active; 'I' for Inactive)
REMARK    1  A    between atoms: C2_2  and  C3_3 
REMARK    2  A    between atoms: C11_11  and  C12_12 
REMARK    3  A    between atoms: C11_11  and  C14_14 
REMARK    4  A    between atoms: C14_14  and  C15_15 
ROOT
ATOM      1  C3  ZIN A   1      19.117   2.387  17.042  0.00  0.00    -0.031 A 
ATOM      2  C4  ZIN A   1      19.050   2.279  15.658  0.00  0.00     0.049 A 
ATOM      3  N5  ZIN A   1      19.096   1.210  14.788  0.00  0.00    -0.355 N 
ATOM      4  C6  ZIN A   1      18.987   1.650  13.503  0.00  0.00     0.052 A 
ATOM      5  C7  ZIN A   1      18.872   2.995  13.494  0.00  0.00    -0.018 A 
ATOM      6  C8  ZIN A   1      18.733   3.809  12.234  0.00  0.00     0.068 C 
ATOM      7  C9  ZIN A   1      19.139   2.915  11.053  0.00  0.00     0.174 C 
ATOM      8  O10 ZIN A   1      18.492   1.645  11.171  0.00  0.00    -0.373 OA
ATOM      9  C11 ZIN A   1      18.987   0.825  12.237  0.00  0.00     0.112 C 
ATOM     10  C18 ZIN A   1      18.908   3.445  14.878  0.00  0.00    -0.001 A 
ATOM     11  C19 ZIN A   1      18.834   4.692  15.505  0.00  0.00     0.014 A 
ATOM     12  C20 ZIN A   1      18.900   4.774  16.868  0.00  0.00     0.002 A 
ATOM     13  C21 ZIN A   1      19.036   3.628  17.637  0.00  0.00     0.009 A 
ATOM     14  H27 ZIN A   1      19.191   0.281  15.053  0.00  0.00     0.166 HD
ENDROOT
BRANCH   9  15
ATOM     15  C12 ZIN A   1      18.081  -0.394  12.416  0.00  0.00     0.040 C 
ATOM     16  C13 ZIN A   1      16.726  -0.124  11.758  0.00  0.00     0.008 C 
ENDBRANCH   9  15
BRANCH   9  17
ATOM     17  C14 ZIN A   1      20.412   0.369  11.917  0.00  0.00     0.157 C 
BRANCH  17  18
ATOM     18  C15 ZIN A   1      20.375  -0.663  10.820  0.00  0.00     0.175 C 
ATOM     19  O16 ZIN A   1      20.358  -1.850  11.101  0.00  0.00    -0.648 OA
ATOM     20  O17 ZIN A   1      20.362  -0.314   9.653  0.00  0.00    -0.648 OA
ENDBRANCH  17  18
ENDBRANCH   9  17
BRANCH   1  21
ATOM     21  C2  ZIN A   1      19.268   1.151  17.889  0.00  0.00     0.036 C 
ATOM     22  C1  ZIN A   1      17.900   0.733  18.431  0.00  0.00     0.010 C 
ENDBRANCH   1  21
TORSDOF 4
ENDMDL
MODEL 9
REMARK VINA RESULT:      -6.5      2.562      5.894
REMARK  4 active torsions:
REMARK  status: ('A' for Active; 'I' for Inactive)
REMARK    1  A    between atoms: C2_2  and  C3_3 
REMARK    2  A    between atoms: C11_11  and  C12_12 
REMARK    3  A    between atoms: C11_11  and  C14_14 
REMARK    4  A    between atoms: C14_14  and  C15_15 
ROOT
ATOM      1  C3  ZIN A   1      17.535   4.011  12.607  0.00  0.00    -0.031 A 
ATOM      2  C4  ZIN A   1      17.815   2.880  11.850  0.00  0.00     0.049 A 
ATOM      3  N5  ZIN A   1      18.031   1.556  12.169  0.00  0.00    -0.355 N 
ATOM      4  C6  ZIN A   1      18.270   0.837  11.036  0.00  0.00     0.052 A 
ATOM      5  C7  ZIN A   1      18.220   1.655   9.964  0.00  0.00    -0.018 A 
ATOM      6  C8  ZIN A   1      18.440   1.184   8.549  0.00  0.00     0.068 C 
ATOM      7  C9  ZIN A   1      19.092  -0.206   8.614  0.00  0.00     0.174 C 
ATOM      8  O10 ZIN A   1      18.380  -1.022   9.549  0.00  0.00    -0.373 OA
ATOM      9  C11 ZIN A   1      18.553  -0.643  10.919  0.00  0.00     0.112 C 
ATOM     10  C18 ZIN A   1      17.926   2.995  10.449  0.00  0.00    -0.001 A 
ATOM     11  C19 ZIN A   1      17.752   4.241   9.842  0.00  0.00     0.014 A 
ATOM     12  C20 ZIN A   1      17.475   5.339  10.606  0.00  0.00     0.002 A 
ATOM     13  C21 ZIN A   1      17.362   5.228  11.985  0.00  0.00     0.009 A 
ATOM     14  H27 ZIN A   1      18.015   1.190  13.068  0.00  0.00     0.166 HD
ENDROOT
BRANCH   9  15
ATOM     15  C12 ZIN A   1      17.578  -1.426  11.800  0.00  0.00     0.040 C 
ATOM     16  C13 ZIN A   1      18.007  -2.893  11.858  0.00  0.00     0.008 C 
ENDBRANCH   9  15
BRANCH   9  17
ATOM     17  C14 ZIN A   1      19.991  -0.931  11.357  0.00  0.00     0.157 C 
BRANCH  17  18
ATOM     18  C15 ZIN A   1      20.375   0.008  12.470  0.00  0.00     0.175 C 
ATOM     19  O16 ZIN A   1      21.071   0.982  12.233  0.00  0.00    -0.648 OA
ATOM     20  O17 ZIN A   1      19.992  -0.204  13.607  0.00  0.00    -0.648 OA
ENDBRANCH  17  18
ENDBRANCH   9  17
BRANCH   1  21
ATOM     21  C2  ZIN A   1      17.412   3.904  14.105  0.00  0.00     0.036 C 
ATOM     22  C1  ZIN A   1      18.791   4.086  14.744  0.00  0.00     0.010 C 
ENDBRANCH   1  21
TORSDOF 4
ENDMDL
