MODEL 1
REMARK VINA RESULT:      -7.9      0.000      0.000
REMARK  3 active torsions:
REMARK  status: ('A' for Active; 'I' for Inactive)
REMARK    1  A    between atoms: O2_2  and  C3_3 
REMARK    2  A    between atoms: C6_6  and  C7_7 
REMARK    3  A    between atoms: C21_21  and  O22_22 
ROOT
ATOM      1  C7  <0> d   1      18.604   0.886   8.740  0.00  0.00     0.090 A 
ATOM      2  C8  <0> d   1      18.866   1.361   7.494  0.00  0.00     0.094 A 
ATOM      3  C9  <0> d   1      19.140   0.453   6.444  0.00  0.00     0.190 A 
ATOM      4  O10 <0> d   1      19.381   0.843   5.314  0.00  0.00    -0.287 OA
ATOM      5  C11 <0> d   1      19.124  -0.984   6.770  0.00  0.00     0.085 A 
ATOM      6  C12 <0> d   1      19.384  -1.953   5.794  0.00  0.00     0.127 A 
ATOM      7  O13 <0> d   1      19.658  -1.582   4.517  0.00  0.00    -0.191 OA
ATOM      8  C14 <0> d   1      19.359  -3.292   6.141  0.00  0.00     0.081 A 
ATOM      9  C15 <0> d   1      19.079  -3.670   7.449  0.00  0.00     0.112 A 
ATOM     10  O16 <0> d   1      19.058  -4.986   7.779  0.00  0.00    -0.192 OA
ATOM     11  C17 <0> d   1      18.820  -2.715   8.420  0.00  0.00     0.078 A 
ATOM     12  C18 <0> d   1      18.841  -1.368   8.092  0.00  0.00     0.096 A 
ATOM     13  O19 <0> d   1      18.597  -0.425   9.026  0.00  0.00    -0.309 OA
ENDROOT
BRANCH   1  14
ATOM     14  C6  <0> d   1      18.322   1.850   9.821  0.00  0.00     0.001 A 
ATOM     15  C5  <0> d   1      18.312   3.221   9.553  0.00  0.00     0.017 A 
ATOM     16  C4  <0> d   1      18.049   4.119  10.565  0.00  0.00     0.040 A 
ATOM     17  C3  <0> d   1      17.791   3.666  11.850  0.00  0.00     0.101 A 
ATOM     18  C21 <0> d   1      17.804   2.299  12.127  0.00  0.00     0.099 A 
ATOM     19  C20 <0> d   1      18.063   1.393  11.117  0.00  0.00     0.053 A 
BRANCH  17  20
ATOM     20  O2  <0> d   1      17.531   4.555  12.844  0.00  0.00    -0.353 OA
ATOM     21  C1  <0> d   1      16.664   5.647  12.527  0.00  0.00     0.210 C 
ENDBRANCH  17  20
BRANCH  18  22
ATOM     22  O22 <0> d   1      17.553   1.858  13.388  0.00  0.00    -0.358 OA
ATOM     23  H32 <0> d   1      16.667   1.489  13.507  0.00  0.00     0.217 HD
ENDBRANCH  18  22
ENDBRANCH   1  14
TORSDOF 3
ENDMDL
MODEL 2
REMARK VINA RESULT:      -7.8      2.545      7.134
REMARK  3 active torsions:
REMARK  status: ('A' for Active; 'I' for Inactive)
REMARK    1  A    between atoms: O2_2  and  C3_3 
REMARK    2  A    between atoms: C6_6  and  C7_7 
REMARK    3  A    between atoms: C21_21  and  O22_22 
ROOT
ATOM      1  C7  <0> d   1      18.737   1.397  11.271  0.00  0.00     0.090 A 
ATOM      2  C8  <0> d   1      18.853   2.670  11.735  0.00  0.00     0.094 A 
ATOM      3  C9  <0> d   1      18.957   2.898  13.128  0.00  0.00     0.190 A 
ATOM      4  O10 <0> d   1      19.062   4.027  13.579  0.00  0.00    -0.287 OA
ATOM      5  C11 <0> d   1      18.932   1.720  14.011  0.00  0.00     0.085 A 
ATOM      6  C12 <0> d   1      19.029   1.852  15.401  0.00  0.00     0.127 A 
ATOM      7  O13 <0> d   1      19.148   3.081  15.965  0.00  0.00    -0.191 OA
ATOM      8  C14 <0> d   1      19.003   0.720  16.197  0.00  0.00     0.081 A 
ATOM      9  C15 <0> d   1      18.880  -0.538  15.618  0.00  0.00     0.112 A 
ATOM     10  O16 <0> d   1      18.854  -1.642  16.406  0.00  0.00    -0.192 OA
ATOM     11  C17 <0> d   1      18.784  -0.675  14.241  0.00  0.00     0.078 A 
ATOM     12  C18 <0> d   1      18.809   0.447  13.428  0.00  0.00     0.096 A 
ATOM     13  O19 <0> d   1      18.711   0.331  12.086  0.00  0.00    -0.309 OA
ENDROOT
BRANCH   1  14
ATOM     14  C6  <0> d   1      18.629   1.180   9.816  0.00  0.00     0.001 A 
ATOM     15  C5  <0> d   1      19.263   2.053   8.928  0.00  0.00     0.017 A 
ATOM     16  C4  <0> d   1      19.161   1.848   7.569  0.00  0.00     0.040 A 
ATOM     17  C3  <0> d   1      18.431   0.776   7.078  0.00  0.00     0.101 A 
ATOM     18  C21 <0> d   1      17.790  -0.096   7.957  0.00  0.00     0.099 A 
ATOM     19  C20 <0> d   1      17.892   0.099   9.321  0.00  0.00     0.053 A 
BRANCH  17  20
ATOM     20  O2  <0> d   1      18.334   0.578   5.738  0.00  0.00    -0.353 OA
ATOM     21  C1  <0> d   1      19.428  -0.083   5.099  0.00  0.00     0.210 C 
ENDBRANCH  17  20
BRANCH  18  22
ATOM     22  O22 <0> d   1      17.074  -1.146   7.474  0.00  0.00    -0.358 OA
ATOM     23  H32 <0> d   1      17.451  -1.548   6.679  0.00  0.00     0.217 HD
ENDBRANCH  18  22
ENDBRANCH   1  14
TORSDOF 3
ENDMDL
MODEL 3
REMARK VINA RESULT:      -7.7      1.407      2.828
REMARK  3 active torsions:
REMARK  status: ('A' for Active; 'I' for Inactive)
REMARK    1  A    between atoms: O2_2  and  C3_3 
REMARK    2  A    between atoms: C6_6  and  C7_7 
REMARK    3  A    between atoms: C21_21  and  O22_22 
ROOT
ATOM      1  C7  <0> d   1      18.716   1.363   9.854  0.00  0.00     0.090 A 
ATOM      2  C8  <0> d   1      18.852   0.117  10.382  0.00  0.00     0.094 A 
ATOM      3  C9  <0> d   1      19.036  -0.990   9.521  0.00  0.00     0.190 A 
ATOM      4  O10 <0> d   1      19.160  -2.122   9.960  0.00  0.00    -0.287 OA
ATOM      5  C11 <0> d   1      19.069  -0.724   8.073  0.00  0.00     0.085 A 
ATOM      6  C12 <0> d   1      19.246  -1.758   7.147  0.00  0.00     0.127 A 
ATOM      7  O13 <0> d   1      19.391  -3.039   7.572  0.00  0.00    -0.191 OA
ATOM      8  C14 <0> d   1      19.273  -1.466   5.795  0.00  0.00     0.081 A 
ATOM      9  C15 <0> d   1      19.123  -0.154   5.361  0.00  0.00     0.112 A 
ATOM     10  O16 <0> d   1      19.150   0.122   4.033  0.00  0.00    -0.192 OA
ATOM     11  C17 <0> d   1      18.949   0.876   6.273  0.00  0.00     0.078 A 
ATOM     12  C18 <0> d   1      18.920   0.603   7.631  0.00  0.00     0.096 A 
ATOM     13  O19 <0> d   1      18.744   1.593   8.532  0.00  0.00    -0.309 OA
ENDROOT
BRANCH   1  14
ATOM     14  C6  <0> d   1      18.526   2.504  10.769  0.00  0.00     0.001 A 
ATOM     15  C5  <0> d   1      17.810   3.628  10.347  0.00  0.00     0.017 A 
ATOM     16  C4  <0> d   1      17.634   4.693  11.203  0.00  0.00     0.040 A 
ATOM     17  C3  <0> d   1      18.164   4.654  12.485  0.00  0.00     0.101 A 
ATOM     18  C21 <0> d   1      18.884   3.539  12.910  0.00  0.00     0.099 A 
ATOM     19  C20 <0> d   1      19.061   2.465  12.060  0.00  0.00     0.053 A 
BRANCH  17  20
ATOM     20  O2  <0> d   1      17.986   5.707  13.325  0.00  0.00    -0.353 OA
ATOM     21  C1  <0> d   1      16.639   6.085  13.615  0.00  0.00     0.210 C 
ENDBRANCH  17  20
BRANCH  18  22
ATOM     22  O22 <0> d   1      19.403   3.503  14.167  0.00  0.00    -0.358 OA
ATOM     23  H32 <0> d   1      18.765   3.710  14.863  0.00  0.00     0.217 HD
ENDBRANCH  18  22
ENDBRANCH   1  14
TORSDOF 3
ENDMDL
MODEL 4
REMARK VINA RESULT:      -7.7      3.035      4.765
REMARK  3 active torsions:
REMARK  status: ('A' for Active; 'I' for Inactive)
REMARK    1  A    between atoms: O2_2  and  C3_3 
REMARK    2  A    between atoms: C6_6  and  C7_7 
REMARK    3  A    between atoms: C21_21  and  O22_22 
ROOT
ATOM      1  C7  <0> d   1      19.042  -0.848  11.919  0.00  0.00     0.090 A 
ATOM      2  C8  <0> d   1      19.151  -2.175  11.643  0.00  0.00     0.094 A 
ATOM      3  C9  <0> d   1      19.189  -2.606  10.296  0.00  0.00     0.190 A 
ATOM      4  O10 <0> d   1      19.286  -3.789  10.011  0.00  0.00    -0.287 OA
ATOM      5  C11 <0> d   1      19.108  -1.572   9.250  0.00  0.00     0.085 A 
ATOM      6  C12 <0> d   1      19.139  -1.907   7.892  0.00  0.00     0.127 A 
ATOM      7  O13 <0> d   1      19.246  -3.206   7.510  0.00  0.00    -0.191 OA
ATOM      8  C14 <0> d   1      19.061  -0.906   6.941  0.00  0.00     0.081 A 
ATOM      9  C15 <0> d   1      18.951   0.423   7.333  0.00  0.00     0.112 A 
ATOM     10  O16 <0> d   1      18.873   1.398   6.392  0.00  0.00    -0.192 OA
ATOM     11  C17 <0> d   1      18.920   0.762   8.677  0.00  0.00     0.078 A 
ATOM     12  C18 <0> d   1      18.998  -0.227   9.645  0.00  0.00     0.096 A 
ATOM     13  O19 <0> d   1      18.964   0.085  10.958  0.00  0.00    -0.309 OA
ENDROOT
BRANCH   1  14
ATOM     14  C6  <0> d   1      19.002  -0.418  13.330  0.00  0.00     0.001 A 
ATOM     15  C5  <0> d   1      18.647  -1.327  14.329  0.00  0.00     0.017 A 
ATOM     16  C4  <0> d   1      18.610  -0.924  15.646  0.00  0.00     0.040 A 
ATOM     17  C3  <0> d   1      18.926   0.384  15.984  0.00  0.00     0.101 A 
ATOM     18  C21 <0> d   1      19.276   1.299  14.992  0.00  0.00     0.099 A 
ATOM     19  C20 <0> d   1      19.320   0.900  13.670  0.00  0.00     0.053 A 
BRANCH  17  20
ATOM     20  O2  <0> d   1      18.889   0.777  17.284  0.00  0.00    -0.353 OA
ATOM     21  C1  <0> d   1      19.269  -0.191  18.265  0.00  0.00     0.210 C 
ENDBRANCH  17  20
BRANCH  18  22
ATOM     22  O22 <0> d   1      19.585   2.580  15.325  0.00  0.00    -0.358 OA
ATOM     23  H32 <0> d   1      19.460   2.784  16.262  0.00  0.00     0.217 HD
ENDBRANCH  18  22
ENDBRANCH   1  14
TORSDOF 3
ENDMDL
MODEL 5
REMARK VINA RESULT:      -7.6      1.538      7.626
REMARK  3 active torsions:
REMARK  status: ('A' for Active; 'I' for Inactive)
REMARK    1  A    between atoms: O2_2  and  C3_3 
REMARK    2  A    between atoms: C6_6  and  C7_7 
REMARK    3  A    between atoms: C21_21  and  O22_22 
ROOT
ATOM      1  C7  <0> d   1      18.954   0.706   9.341  0.00  0.00     0.090 A 
ATOM      2  C8  <0> d   1      19.505   0.141  10.448  0.00  0.00     0.094 A 
ATOM      3  C9  <0> d   1      19.389   0.795  11.698  0.00  0.00     0.190 A 
ATOM      4  O10 <0> d   1      19.871   0.317  12.711  0.00  0.00    -0.287 OA
ATOM      5  C11 <0> d   1      18.663   2.077  11.726  0.00  0.00     0.085 A 
ATOM      6  C12 <0> d   1      18.500   2.793  12.917  0.00  0.00     0.127 A 
ATOM      7  O13 <0> d   1      19.013   2.314  14.079  0.00  0.00    -0.191 OA
ATOM      8  C14 <0> d   1      17.811   3.993  12.902  0.00  0.00     0.081 A 
ATOM      9  C15 <0> d   1      17.288   4.483  11.711  0.00  0.00     0.112 A 
ATOM     10  O16 <0> d   1      16.615   5.661  11.706  0.00  0.00    -0.192 OA
ATOM     11  C17 <0> d   1      17.445   3.777  10.527  0.00  0.00     0.078 A 
ATOM     12  C18 <0> d   1      18.132   2.573  10.523  0.00  0.00     0.096 A 
ATOM     13  O19 <0> d   1      18.299   1.877   9.378  0.00  0.00    -0.309 OA
ENDROOT
BRANCH   1  14
ATOM     14  C6  <0> d   1      19.087   0.008   8.048  0.00  0.00     0.001 A 
ATOM     15  C5  <0> d   1      19.136  -1.388   8.007  0.00  0.00     0.017 A 
ATOM     16  C4  <0> d   1      19.260  -2.037   6.798  0.00  0.00     0.040 A 
ATOM     17  C3  <0> d   1      19.335  -1.309   5.619  0.00  0.00     0.101 A 
ATOM     18  C21 <0> d   1      19.292   0.084   5.653  0.00  0.00     0.099 A 
ATOM     19  C20 <0> d   1      19.163   0.742   6.860  0.00  0.00     0.053 A 
BRANCH  17  20
ATOM     20  O2  <0> d   1      19.457  -1.955   4.430  0.00  0.00    -0.353 OA
ATOM     21  C1  <0> d   1      18.752  -3.190   4.287  0.00  0.00     0.210 C 
ENDBRANCH  17  20
BRANCH  18  22
ATOM     22  O22 <0> d   1      19.367   0.795   4.496  0.00  0.00    -0.358 OA
ATOM     23  H32 <0> d   1      19.890   1.605   4.565  0.00  0.00     0.217 HD
ENDBRANCH  18  22
ENDBRANCH   1  14
TORSDOF 3
ENDMDL
MODEL 6
REMARK VINA RESULT:      -7.6      1.714      7.326
REMARK  3 active torsions:
REMARK  status: ('A' for Active; 'I' for Inactive)
REMARK    1  A    between atoms: O2_2  and  C3_3 
REMARK    2  A    between atoms: C6_6  and  C7_7 
REMARK    3  A    between atoms: C21_21  and  O22_22 
ROOT
ATOM      1  C7  <0> d   1      18.693   1.873  10.185  0.00  0.00     0.090 A 
ATOM      2  C8  <0> d   1      18.232   3.141  10.013  0.00  0.00     0.094 A 
ATOM      3  C9  <0> d   1      18.025   3.968  11.142  0.00  0.00     0.190 A 
ATOM      4  O10 <0> d   1      17.613   5.110  11.026  0.00  0.00    -0.287 OA
ATOM      5  C11 <0> d   1      18.327   3.395  12.466  0.00  0.00     0.085 A 
ATOM      6  C12 <0> d   1      18.152   4.140  13.637  0.00  0.00     0.127 A 
ATOM      7  O13 <0> d   1      17.696   5.417  13.574  0.00  0.00    -0.191 OA
ATOM      8  C14 <0> d   1      18.447   3.565  14.861  0.00  0.00     0.081 A 
ATOM      9  C15 <0> d   1      18.913   2.257  14.924  0.00  0.00     0.112 A 
ATOM     10  O16 <0> d   1      19.199   1.702  16.129  0.00  0.00    -0.192 OA
ATOM     11  C17 <0> d   1      19.089   1.514  13.767  0.00  0.00     0.078 A 
ATOM     12  C18 <0> d   1      18.799   2.072  12.532  0.00  0.00     0.096 A 
ATOM     13  O19 <0> d   1      18.960   1.361  11.396  0.00  0.00    -0.309 OA
ENDROOT
BRANCH   1  14
ATOM     14  C6  <0> d   1      18.901   1.027   8.994  0.00  0.00     0.001 A 
ATOM     15  C5  <0> d   1      18.841   1.589   7.716  0.00  0.00     0.017 A 
ATOM     16  C4  <0> d   1      19.035   0.796   6.606  0.00  0.00     0.040 A 
ATOM     17  C3  <0> d   1      19.293  -0.559   6.752  0.00  0.00     0.101 A 
ATOM     18  C21 <0> d   1      19.350  -1.128   8.024  0.00  0.00     0.099 A 
ATOM     19  C20 <0> d   1      19.160  -0.339   9.142  0.00  0.00     0.053 A 
BRANCH  17  20
ATOM     20  O2  <0> d   1      19.485  -1.336   5.654  0.00  0.00    -0.353 OA
ATOM     21  C1  <0> d   1      18.909  -0.880   4.429  0.00  0.00     0.210 C 
ENDBRANCH  17  20
BRANCH  18  22
ATOM     22  O22 <0> d   1      19.601  -2.456   8.165  0.00  0.00    -0.358 OA
ATOM     23  H32 <0> d   1      20.060  -2.686   8.985  0.00  0.00     0.217 HD
ENDBRANCH  18  22
ENDBRANCH   1  14
TORSDOF 3
ENDMDL
MODEL 7
REMARK VINA RESULT:      -7.5      2.513      3.558
REMARK  3 active torsions:
REMARK  status: ('A' for Active; 'I' for Inactive)
REMARK    1  A    between atoms: O2_2  and  C3_3 
REMARK    2  A    between atoms: C6_6  and  C7_7 
REMARK    3  A    between atoms: C21_21  and  O22_22 
ROOT
ATOM      1  C7  <0> d   1      19.106  -0.295  10.496  0.00  0.00     0.090 A 
ATOM      2  C8  <0> d   1      19.098   0.920   9.887  0.00  0.00     0.094 A 
ATOM      3  C9  <0> d   1      19.121   0.993   8.474  0.00  0.00     0.190 A 
ATOM      4  O10 <0> d   1      19.116   2.067   7.894  0.00  0.00    -0.287 OA
ATOM      5  C11 <0> d   1      19.152  -0.278   7.730  0.00  0.00     0.085 A 
ATOM      6  C12 <0> d   1      19.175  -0.301   6.331  0.00  0.00     0.127 A 
ATOM      7  O13 <0> d   1      19.171   0.860   5.628  0.00  0.00    -0.191 OA
ATOM      8  C14 <0> d   1      19.203  -1.516   5.670  0.00  0.00     0.081 A 
ATOM      9  C15 <0> d   1      19.209  -2.704   6.392  0.00  0.00     0.112 A 
ATOM     10  O16 <0> d   1      19.237  -3.891   5.734  0.00  0.00    -0.192 OA
ATOM     11  C17 <0> d   1      19.184  -2.688   7.778  0.00  0.00     0.078 A 
ATOM     12  C18 <0> d   1      19.156  -1.481   8.458  0.00  0.00     0.096 A 
ATOM     13  O19 <0> d   1      19.138  -1.447   9.808  0.00  0.00    -0.309 OA
ENDROOT
BRANCH   1  14
ATOM     14  C6  <0> d   1      19.083  -0.350  11.970  0.00  0.00     0.001 A 
ATOM     15  C5  <0> d   1      18.749  -1.540  12.621  0.00  0.00     0.017 A 
ATOM     16  C4  <0> d   1      18.727  -1.589  13.998  0.00  0.00     0.040 A 
ATOM     17  C3  <0> d   1      19.037  -0.460  14.742  0.00  0.00     0.101 A 
ATOM     18  C21 <0> d   1      19.366   0.733  14.099  0.00  0.00     0.099 A 
ATOM     19  C20 <0> d   1      19.394   0.789  12.719  0.00  0.00     0.053 A 
BRANCH  17  20
ATOM     20  O2  <0> d   1      19.015  -0.514  16.099  0.00  0.00    -0.353 OA
ATOM     21  C1  <0> d   1      17.732  -0.536  16.727  0.00  0.00     0.210 C 
ENDBRANCH  17  20
BRANCH  18  22
ATOM     22  O22 <0> d   1      19.668   1.839  14.830  0.00  0.00    -0.358 OA
ATOM     23  H32 <0> d   1      20.143   1.651  15.651  0.00  0.00     0.217 HD
ENDBRANCH  18  22
ENDBRANCH   1  14
TORSDOF 3
ENDMDL
MODEL 8
REMARK VINA RESULT:      -7.4      4.165      9.147
REMARK  3 active torsions:
REMARK  status: ('A' for Active; 'I' for Inactive)
REMARK    1  A    between atoms: O2_2  and  C3_3 
REMARK    2  A    between atoms: C6_6  and  C7_7 
REMARK    3  A    between atoms: C21_21  and  O22_22 
ROOT
ATOM      1  C7  <0> d   1      18.821  -0.716  14.054  0.00  0.00     0.090 A 
ATOM      2  C8  <0> d   1      19.029  -1.286  15.271  0.00  0.00     0.094 A 
ATOM      3  C9  <0> d   1      19.182  -0.462  16.411  0.00  0.00     0.190 A 
ATOM      4  O10 <0> d   1      19.370  -0.938  17.518  0.00  0.00    -0.287 OA
ATOM      5  C11 <0> d   1      19.106   0.996  16.208  0.00  0.00     0.085 A 
ATOM      6  C12 <0> d   1      19.246   1.887  17.278  0.00  0.00     0.127 A 
ATOM      7  O13 <0> d   1      19.457   1.419  18.535  0.00  0.00    -0.191 OA
ATOM      8  C14 <0> d   1      19.168   3.248  17.046  0.00  0.00     0.081 A 
ATOM      9  C15 <0> d   1      18.953   3.726  15.759  0.00  0.00     0.112 A 
ATOM     10  O16 <0> d   1      18.879   5.063  15.541  0.00  0.00    -0.192 OA
ATOM     11  C17 <0> d   1      18.813   2.849  14.694  0.00  0.00     0.078 A 
ATOM     12  C18 <0> d   1      18.888   1.481  14.907  0.00  0.00     0.096 A 
ATOM     13  O19 <0> d   1      18.759   0.613  13.881  0.00  0.00    -0.309 OA
ENDROOT
BRANCH   1  14
ATOM     14  C6  <0> d   1      18.665  -1.593  12.878  0.00  0.00     0.001 A 
ATOM     15  C5  <0> d   1      17.522  -1.498  12.081  0.00  0.00     0.017 A 
ATOM     16  C4  <0> d   1      17.377  -2.318  10.983  0.00  0.00     0.040 A 
ATOM     17  C3  <0> d   1      18.365  -3.239  10.665  0.00  0.00     0.101 A 
ATOM     18  C21 <0> d   1      19.506  -3.344  11.459  0.00  0.00     0.099 A 
ATOM     19  C20 <0> d   1      19.660  -2.522  12.559  0.00  0.00     0.053 A 
BRANCH  17  20
ATOM     20  O2  <0> d   1      18.218  -4.045   9.581  0.00  0.00    -0.353 OA
ATOM     21  C1  <0> d   1      16.924  -4.614   9.366  0.00  0.00     0.210 C 
ENDBRANCH  17  20
BRANCH  18  22
ATOM     22  O22 <0> d   1      20.472  -4.248  11.147  0.00  0.00    -0.358 OA
ATOM     23  H32 <0> d   1      20.968  -4.575  11.910  0.00  0.00     0.217 HD
ENDBRANCH  18  22
ENDBRANCH   1  14
TORSDOF 3
ENDMDL
MODEL 9
REMARK VINA RESULT:      -7.4      3.481      8.435
REMARK  3 active torsions:
REMARK  status: ('A' for Active; 'I' for Inactive)
REMARK    1  A    between atoms: O2_2  and  C3_3 
REMARK    2  A    between atoms: C6_6  and  C7_7 
REMARK    3  A    between atoms: C21_21  and  O22_22 
ROOT
ATOM      1  C7  <0> d   1      19.077  -1.037  12.653  0.00  0.00     0.090 A 
ATOM      2  C8  <0> d   1      19.130   0.268  12.275  0.00  0.00     0.094 A 
ATOM      3  C9  <0> d   1      19.140   1.281  13.262  0.00  0.00     0.190 A 
ATOM      4  O10 <0> d   1      19.187   2.462  12.959  0.00  0.00    -0.287 OA
ATOM      5  C11 <0> d   1      19.093   0.855  14.671  0.00  0.00     0.085 A 
ATOM      6  C12 <0> d   1      19.099   1.788  15.714  0.00  0.00     0.127 A 
ATOM      7  O13 <0> d   1      19.150   3.117  15.442  0.00  0.00    -0.191 OA
ATOM      8  C14 <0> d   1      19.054   1.347  17.024  0.00  0.00     0.081 A 
ATOM      9  C15 <0> d   1      19.001  -0.014  17.301  0.00  0.00     0.112 A 
ATOM     10  O16 <0> d   1      18.956  -0.437  18.590  0.00  0.00    -0.192 OA
ATOM     11  C17 <0> d   1      18.995  -0.944  16.273  0.00  0.00     0.078 A 
ATOM     12  C18 <0> d   1      19.040  -0.521  14.954  0.00  0.00     0.096 A 
ATOM     13  O19 <0> d   1      19.029  -1.413  13.941  0.00  0.00    -0.309 OA
ENDROOT
BRANCH   1  14
ATOM     14  C6  <0> d   1      19.066  -2.079  11.609  0.00  0.00     0.001 A 
ATOM     15  C5  <0> d   1      19.763  -3.274  11.804  0.00  0.00     0.017 A 
ATOM     16  C4  <0> d   1      19.752  -4.245  10.827  0.00  0.00     0.040 A 
ATOM     17  C3  <0> d   1      19.049  -4.042   9.648  0.00  0.00     0.101 A 
ATOM     18  C21 <0> d   1      18.356  -2.849   9.444  0.00  0.00     0.099 A 
ATOM     19  C20 <0> d   1      18.358  -1.873  10.420  0.00  0.00     0.053 A 
BRANCH  17  20
ATOM     20  O2  <0> d   1      19.041  -5.003   8.689  0.00  0.00    -0.353 OA
ATOM     21  C1  <0> d   1      18.524  -6.284   9.057  0.00  0.00     0.210 C 
ENDBRANCH  17  20
BRANCH  18  22
ATOM     22  O22 <0> d   1      17.669  -2.651   8.287  0.00  0.00    -0.358 OA
ATOM     23  H32 <0> d   1      17.795  -3.350   7.630  0.00  0.00     0.217 HD
ENDBRANCH  18  22
ENDBRANCH   1  14
TORSDOF 3
ENDMDL
