MODEL 1
REMARK VINA RESULT:      -9.7      0.000      0.000
REMARK  1 active torsions:
REMARK  status: ('A' for Active; 'I' for Inactive)
REMARK    1  A    between atoms: C19_18  and  C21_19 
ROOT
ATOM      1  C1  ZIN A   1      18.111   4.022   9.372  0.00  0.00     0.153 C 
ATOM      2  N2  ZIN A   1      18.495   2.861  10.179  0.00  0.00    -0.346 N 
ATOM      3  C3  ZIN A   1      18.187   1.538   9.663  0.00  0.00     0.228 A 
ATOM      4  C4  ZIN A   1      18.701   0.454  10.555  0.00  0.00     0.239 A 
ATOM      5  O5  ZIN A   1      18.523  -0.695  10.209  0.00  0.00    -0.271 OA
ATOM      6  N6  ZIN A   1      19.344   0.666  11.705  0.00  0.00    -0.323 N 
ATOM      7  C7  ZIN A   1      19.552   1.997  12.272  0.00  0.00     0.185 A 
ATOM      8  C9  ZIN A   1      18.782   2.107  13.595  0.00  0.00     0.076 C 
ATOM      9  C10 ZIN A   1      19.030   0.862  14.407  0.00  0.00    -0.018 A 
ATOM     10  C11 ZIN A   1      19.511  -0.298  13.908  0.00  0.00     0.045 A 
ATOM     11  N12 ZIN A   1      19.614  -1.228  14.909  0.00  0.00    -0.356 N 
ATOM     12  C13 ZIN A   1      19.199  -0.685  16.090  0.00  0.00     0.043 A 
ATOM     13  C14 ZIN A   1      19.110  -1.207  17.378  0.00  0.00     0.030 A 
ATOM     14  C15 ZIN A   1      18.633  -0.360  18.365  0.00  0.00     0.002 A 
ATOM     15  C16 ZIN A   1      18.259   0.946  18.101  0.00  0.00     0.001 A 
ATOM     16  C17 ZIN A   1      18.336   1.487  16.842  0.00  0.00     0.014 A 
ATOM     17  C18 ZIN A   1      18.813   0.655  15.825  0.00  0.00    -0.001 A 
ATOM     18  C19 ZIN A   1      19.874  -0.493  12.454  0.00  0.00     0.172 C 
ATOM     19  C30 ZIN A   1      19.111   3.079  11.339  0.00  0.00     0.243 A 
ATOM     20  O31 ZIN A   1      19.319   4.229  11.664  0.00  0.00    -0.271 OA
ATOM     21  H39 ZIN A   1      19.935  -2.137  14.794  0.00  0.00     0.166 HD
ENDROOT
BRANCH  18  22
ATOM     22  C21 ZIN A   1      19.254  -1.766  11.938  0.00  0.00    -0.027 A 
ATOM     23  C29 ZIN A   1      20.019  -2.665  11.217  0.00  0.00     0.049 A 
ATOM     24  C28 ZIN A   1      19.452  -3.837  10.748  0.00  0.00     0.105 A 
ATOM     25  C24 ZIN A   1      18.107  -4.104  10.993  0.00  0.00     0.105 A 
ATOM     26  O27 ZIN A   1      19.978  -4.872  10.030  0.00  0.00    -0.323 OA
ATOM     27  C23 ZIN A   1      17.345  -3.197  11.710  0.00  0.00     0.040 A 
ATOM     28  O25 ZIN A   1      17.791  -5.306  10.429  0.00  0.00    -0.323 OA
ATOM     29  C22 ZIN A   1      17.919  -2.030  12.181  0.00  0.00     0.012 A 
ATOM     30  C26 ZIN A   1      18.846  -5.579   9.489  0.00  0.00     0.352 C 
ENDBRANCH  18  22
TORSDOF 1
ENDMDL
MODEL 2
REMARK VINA RESULT:      -9.5      2.694      8.000
REMARK  1 active torsions:
REMARK  status: ('A' for Active; 'I' for Inactive)
REMARK    1  A    between atoms: C19_18  and  C21_19 
ROOT
ATOM      1  C1  ZIN A   1      18.328  -1.574  16.591  0.00  0.00     0.153 C 
ATOM      2  N2  ZIN A   1      18.604  -0.528  15.602  0.00  0.00    -0.346 N 
ATOM      3  C3  ZIN A   1      18.103   0.810  15.865  0.00  0.00     0.228 A 
ATOM      4  C4  ZIN A   1      18.521   1.784  14.811  0.00  0.00     0.239 A 
ATOM      5  O5  ZIN A   1      18.181   2.940  14.941  0.00  0.00    -0.271 OA
ATOM      6  N6  ZIN A   1      19.247   1.466  13.737  0.00  0.00    -0.323 N 
ATOM      7  C7  ZIN A   1      19.653   0.097  13.422  0.00  0.00     0.185 A 
ATOM      8  C9  ZIN A   1      18.976  -0.342  12.116  0.00  0.00     0.076 C 
ATOM      9  C10 ZIN A   1      19.107   0.767  11.104  0.00  0.00    -0.018 A 
ATOM     10  C11 ZIN A   1      19.408   2.049  11.404  0.00  0.00     0.045 A 
ATOM     11  N12 ZIN A   1      19.446   2.799  10.257  0.00  0.00    -0.356 N 
ATOM     12  C13 ZIN A   1      19.167   2.010   9.179  0.00  0.00     0.043 A 
ATOM     13  C14 ZIN A   1      19.082   2.285   7.817  0.00  0.00     0.030 A 
ATOM     14  C15 ZIN A   1      18.771   1.225   6.982  0.00  0.00     0.002 A 
ATOM     15  C16 ZIN A   1      18.553  -0.055   7.462  0.00  0.00     0.001 A 
ATOM     16  C17 ZIN A   1      18.630  -0.355   8.800  0.00  0.00     0.014 A 
ATOM     17  C18 ZIN A   1      18.942   0.696   9.666  0.00  0.00    -0.001 A 
ATOM     18  C19 ZIN A   1      19.665   2.540  12.810  0.00  0.00     0.172 C 
ATOM     19  C30 ZIN A   1      19.304  -0.857  14.519  0.00  0.00     0.243 A 
ATOM     20  O31 ZIN A   1      19.675  -2.007  14.410  0.00  0.00    -0.271 OA
ATOM     21  H39 ZIN A   1      19.642   3.749  10.218  0.00  0.00     0.166 HD
ENDROOT
BRANCH  18  22
ATOM     22  C21 ZIN A   1      18.861   3.787  13.073  0.00  0.00    -0.027 A 
ATOM     23  C29 ZIN A   1      19.403   4.814  13.823  0.00  0.00     0.049 A 
ATOM     24  C28 ZIN A   1      18.668   5.963  14.060  0.00  0.00     0.105 A 
ATOM     25  C24 ZIN A   1      17.377   6.077  13.550  0.00  0.00     0.105 A 
ATOM     26  O27 ZIN A   1      18.966   7.101  14.751  0.00  0.00    -0.323 OA
ATOM     27  C23 ZIN A   1      16.837   5.042  12.804  0.00  0.00     0.040 A 
ATOM     28  O25 ZIN A   1      16.867   7.287  13.922  0.00  0.00    -0.323 OA
ATOM     29  C22 ZIN A   1      17.579   3.899  12.566  0.00  0.00     0.012 A 
ATOM     30  C26 ZIN A   1      17.701   7.740  15.004  0.00  0.00     0.352 C 
ENDBRANCH  18  22
TORSDOF 1
ENDMDL
MODEL 3
REMARK VINA RESULT:      -9.2      2.119      2.890
REMARK  1 active torsions:
REMARK  status: ('A' for Active; 'I' for Inactive)
REMARK    1  A    between atoms: C19_18  and  C21_19 
ROOT
ATOM      1  C1  ZIN A   1      18.601   1.548   6.209  0.00  0.00     0.153 C 
ATOM      2  N2  ZIN A   1      18.756   0.579   7.297  0.00  0.00    -0.346 N 
ATOM      3  C3  ZIN A   1      18.289  -0.779   7.076  0.00  0.00     0.228 A 
ATOM      4  C4  ZIN A   1      18.580  -1.670   8.240  0.00  0.00     0.239 A 
ATOM      5  O5  ZIN A   1      18.256  -2.835   8.156  0.00  0.00    -0.271 OA
ATOM      6  N6  ZIN A   1      19.173  -1.269   9.367  0.00  0.00    -0.323 N 
ATOM      7  C7  ZIN A   1      19.540   0.123   9.626  0.00  0.00     0.185 A 
ATOM      8  C9  ZIN A   1      18.713   0.650  10.806  0.00  0.00     0.076 C 
ATOM      9  C10 ZIN A   1      18.723  -0.381  11.906  0.00  0.00    -0.018 A 
ATOM     10  C11 ZIN A   1      19.057  -1.679  11.739  0.00  0.00     0.045 A 
ATOM     11  N12 ZIN A   1      18.958  -2.343  12.933  0.00  0.00    -0.356 N 
ATOM     12  C13 ZIN A   1      18.554  -1.479  13.910  0.00  0.00     0.043 A 
ATOM     13  C14 ZIN A   1      18.308  -1.655  15.269  0.00  0.00     0.030 A 
ATOM     14  C15 ZIN A   1      17.902  -0.540  15.982  0.00  0.00     0.002 A 
ATOM     15  C16 ZIN A   1      17.743   0.700  15.386  0.00  0.00     0.001 A 
ATOM     16  C17 ZIN A   1      17.978   0.903  14.049  0.00  0.00     0.014 A 
ATOM     17  C18 ZIN A   1      18.389  -0.206  13.305  0.00  0.00    -0.001 A 
ATOM     18  C19 ZIN A   1      19.478  -2.268  10.412  0.00  0.00     0.172 C 
ATOM     19  C30 ZIN A   1      19.324   0.992   8.428  0.00  0.00     0.243 A 
ATOM     20  O31 ZIN A   1      19.680   2.149   8.495  0.00  0.00    -0.271 OA
ATOM     21  H39 ZIN A   1      19.147  -3.286  13.065  0.00  0.00     0.166 HD
ENDROOT
BRANCH  18  22
ATOM     22  C21 ZIN A   1      18.710  -3.538  10.149  0.00  0.00    -0.027 A 
ATOM     23  C29 ZIN A   1      19.290  -4.558   9.417  0.00  0.00     0.049 A 
ATOM     24  C28 ZIN A   1      18.587  -5.727   9.179  0.00  0.00     0.105 A 
ATOM     25  C24 ZIN A   1      17.291  -5.869   9.669  0.00  0.00     0.105 A 
ATOM     26  O27 ZIN A   1      18.925  -6.864   8.504  0.00  0.00    -0.323 OA
ATOM     27  C23 ZIN A   1      16.713  -4.841  10.397  0.00  0.00     0.040 A 
ATOM     28  O25 ZIN A   1      16.818  -7.094   9.301  0.00  0.00    -0.323 OA
ATOM     29  C22 ZIN A   1      17.423  -3.678  10.635  0.00  0.00     0.012 A 
ATOM     30  C26 ZIN A   1      17.680  -7.537   8.237  0.00  0.00     0.352 C 
ENDBRANCH  18  22
TORSDOF 1
ENDMDL
MODEL 4
REMARK VINA RESULT:      -9.2      2.763      6.705
REMARK  1 active torsions:
REMARK  status: ('A' for Active; 'I' for Inactive)
REMARK    1  A    between atoms: C19_18  and  C21_19 
ROOT
ATOM      1  C1  ZIN A   1      19.058   1.573   8.182  0.00  0.00     0.153 C 
ATOM      2  N2  ZIN A   1      18.677   1.896   9.559  0.00  0.00    -0.346 N 
ATOM      3  C3  ZIN A   1      18.840   3.268  10.010  0.00  0.00     0.228 A 
ATOM      4  C4  ZIN A   1      18.343   3.463  11.406  0.00  0.00     0.239 A 
ATOM      5  O5  ZIN A   1      18.406   4.578  11.879  0.00  0.00    -0.271 OA
ATOM      6  N6  ZIN A   1      17.833   2.492  12.168  0.00  0.00    -0.323 N 
ATOM      7  C7  ZIN A   1      17.774   1.093  11.747  0.00  0.00     0.185 A 
ATOM      8  C9  ZIN A   1      18.677   0.254  12.662  0.00  0.00     0.076 C 
ATOM      9  C10 ZIN A   1      18.425   0.654  14.093  0.00  0.00    -0.018 A 
ATOM     10  C11 ZIN A   1      17.818   1.798  14.475  0.00  0.00     0.045 A 
ATOM     11  N12 ZIN A   1      17.750   1.855  15.843  0.00  0.00    -0.356 N 
ATOM     12  C13 ZIN A   1      18.316   0.735  16.381  0.00  0.00     0.043 A 
ATOM     13  C14 ZIN A   1      18.496   0.320  17.698  0.00  0.00     0.030 A 
ATOM     14  C15 ZIN A   1      19.124  -0.899  17.890  0.00  0.00     0.002 A 
ATOM     15  C16 ZIN A   1      19.560  -1.681  16.833  0.00  0.00     0.001 A 
ATOM     16  C17 ZIN A   1      19.397  -1.296  15.526  0.00  0.00     0.014 A 
ATOM     17  C18 ZIN A   1      18.765  -0.070  15.302  0.00  0.00    -0.001 A 
ATOM     18  C19 ZIN A   1      17.300   2.834  13.504  0.00  0.00     0.172 C 
ATOM     19  C30 ZIN A   1      18.195   0.918  10.323  0.00  0.00     0.243 A 
ATOM     20  O31 ZIN A   1      18.099  -0.188   9.835  0.00  0.00    -0.271 OA
ATOM     21  H39 ZIN A   1      17.357   2.582  16.352  0.00  0.00     0.166 HD
ENDROOT
BRANCH  18  22
ATOM     22  C21 ZIN A   1      17.777   4.204  13.913  0.00  0.00    -0.027 A 
ATOM     23  C29 ZIN A   1      16.881   5.254  13.985  0.00  0.00     0.049 A 
ATOM     24  C28 ZIN A   1      17.316   6.512  14.366  0.00  0.00     0.105 A 
ATOM     25  C24 ZIN A   1      18.661   6.719  14.665  0.00  0.00     0.105 A 
ATOM     26  O27 ZIN A   1      16.649   7.692  14.519  0.00  0.00    -0.323 OA
ATOM     27  C23 ZIN A   1      19.555   5.664  14.585  0.00  0.00     0.040 A 
ATOM     28  O25 ZIN A   1      18.835   8.029  15.005  0.00  0.00    -0.323 OA
ATOM     29  C22 ZIN A   1      19.112   4.408  14.209  0.00  0.00     0.012 A 
ATOM     30  C26 ZIN A   1      17.666   8.712  14.517  0.00  0.00     0.352 C 
ENDBRANCH  18  22
TORSDOF 1
ENDMDL
MODEL 5
REMARK VINA RESULT:      -9.1      2.958      3.794
REMARK  1 active torsions:
REMARK  status: ('A' for Active; 'I' for Inactive)
REMARK    1  A    between atoms: C19_18  and  C21_19 
ROOT
ATOM      1  C1  ZIN A   1      16.624   7.280  13.361  0.00  0.00     0.153 C 
ATOM      2  N2  ZIN A   1      17.243   5.976  13.108  0.00  0.00    -0.346 N 
ATOM      3  C3  ZIN A   1      16.944   5.310  11.852  0.00  0.00     0.228 A 
ATOM      4  C4  ZIN A   1      17.700   4.029  11.702  0.00  0.00     0.239 A 
ATOM      5  O5  ZIN A   1      17.548   3.398  10.677  0.00  0.00    -0.271 OA
ATOM      6  N6  ZIN A   1      18.533   3.534  12.620  0.00  0.00    -0.323 N 
ATOM      7  C7  ZIN A   1      18.744   4.154  13.927  0.00  0.00     0.185 A 
ATOM      8  C9  ZIN A   1      18.235   3.206  15.022  0.00  0.00     0.076 C 
ATOM      9  C10 ZIN A   1      18.729   1.813  14.726  0.00  0.00    -0.018 A 
ATOM     10  C11 ZIN A   1      19.192   1.400  13.526  0.00  0.00     0.045 A 
ATOM     11  N12 ZIN A   1      19.556   0.081  13.596  0.00  0.00    -0.356 N 
ATOM     12  C13 ZIN A   1      19.334  -0.394  14.856  0.00  0.00     0.043 A 
ATOM     13  C14 ZIN A   1      19.533  -1.646  15.431  0.00  0.00     0.030 A 
ATOM     14  C15 ZIN A   1      19.191  -1.784  16.766  0.00  0.00     0.002 A 
ATOM     15  C16 ZIN A   1      18.675  -0.736  17.509  0.00  0.00     0.001 A 
ATOM     16  C17 ZIN A   1      18.468   0.508  16.969  0.00  0.00     0.014 A 
ATOM     17  C18 ZIN A   1      18.804   0.676  15.623  0.00  0.00    -0.001 A 
ATOM     18  C19 ZIN A   1      19.284   2.298  12.314  0.00  0.00     0.172 C 
ATOM     19  C30 ZIN A   1      18.051   5.474  14.039  0.00  0.00     0.243 A 
ATOM     20  O31 ZIN A   1      18.229   6.125  15.047  0.00  0.00    -0.271 OA
ATOM     21  H39 ZIN A   1      19.917  -0.438  12.859  0.00  0.00     0.166 HD
ENDROOT
BRANCH  18  22
ATOM     22  C21 ZIN A   1      18.676   1.609  11.119  0.00  0.00    -0.027 A 
ATOM     23  C29 ZIN A   1      19.281   1.711   9.880  0.00  0.00     0.049 A 
ATOM     24  C28 ZIN A   1      18.726   1.074   8.783  0.00  0.00     0.105 A 
ATOM     25  C24 ZIN A   1      17.552   0.340   8.928  0.00  0.00     0.105 A 
ATOM     26  O27 ZIN A   1      19.120   1.013   7.478  0.00  0.00    -0.323 OA
ATOM     27  C23 ZIN A   1      16.947   0.246  10.171  0.00  0.00     0.040 A 
ATOM     28  O25 ZIN A   1      17.209  -0.180   7.714  0.00  0.00    -0.323 OA
ATOM     29  C22 ZIN A   1      17.509   0.881  11.264  0.00  0.00     0.012 A 
ATOM     30  C26 ZIN A   1      17.959   0.576   6.746  0.00  0.00     0.352 C 
ENDBRANCH  18  22
TORSDOF 1
ENDMDL
MODEL 6
REMARK VINA RESULT:      -9.0      1.074      1.493
REMARK  1 active torsions:
REMARK  status: ('A' for Active; 'I' for Inactive)
REMARK    1  A    between atoms: C19_18  and  C21_19 
ROOT
ATOM      1  C1  ZIN A   1      17.591   5.038  10.214  0.00  0.00     0.153 C 
ATOM      2  N2  ZIN A   1      18.101   3.777  10.759  0.00  0.00    -0.346 N 
ATOM      3  C3  ZIN A   1      17.854   2.558  10.009  0.00  0.00     0.228 A 
ATOM      4  C4  ZIN A   1      18.494   1.367  10.645  0.00  0.00     0.239 A 
ATOM      5  O5  ZIN A   1      18.375   0.295  10.090  0.00  0.00    -0.271 OA
ATOM      6  N6  ZIN A   1      19.190   1.403  11.784  0.00  0.00    -0.323 N 
ATOM      7  C7  ZIN A   1      19.340   2.613  12.591  0.00  0.00     0.185 A 
ATOM      8  C9  ZIN A   1      18.646   2.405  13.944  0.00  0.00     0.076 C 
ATOM      9  C10 ZIN A   1      19.028   1.051  14.484  0.00  0.00    -0.018 A 
ATOM     10  C11 ZIN A   1      19.556   0.051  13.745  0.00  0.00     0.045 A 
ATOM     11  N12 ZIN A   1      19.783  -1.044  14.538  0.00  0.00    -0.356 N 
ATOM     12  C13 ZIN A   1      19.404  -0.772  15.820  0.00  0.00     0.043 A 
ATOM     13  C14 ZIN A   1      19.429  -1.537  16.984  0.00  0.00     0.030 A 
ATOM     14  C15 ZIN A   1      18.957  -0.937  18.139  0.00  0.00     0.002 A 
ATOM     15  C16 ZIN A   1      18.479   0.363  18.154  0.00  0.00     0.001 A 
ATOM     16  C17 ZIN A   1      18.442   1.139  17.023  0.00  0.00     0.014 A 
ATOM     17  C18 ZIN A   1      18.912   0.559  15.842  0.00  0.00    -0.001 A 
ATOM     18  C19 ZIN A   1      19.842   0.168  12.266  0.00  0.00     0.172 C 
ATOM     19  C30 ZIN A   1      18.770   3.816  11.910  0.00  0.00     0.243 A 
ATOM     20  O31 ZIN A   1      18.919   4.894  12.444  0.00  0.00    -0.271 OA
ATOM     21  H39 ZIN A   1      20.158  -1.886  14.232  0.00  0.00     0.166 HD
ENDROOT
BRANCH  18  22
ATOM     22  C21 ZIN A   1      19.281  -1.027  11.539  0.00  0.00    -0.027 A 
ATOM     23  C29 ZIN A   1      18.165  -1.677  12.035  0.00  0.00     0.049 A 
ATOM     24  C28 ZIN A   1      17.645  -2.771  11.365  0.00  0.00     0.105 A 
ATOM     25  C24 ZIN A   1      18.254  -3.223  10.197  0.00  0.00     0.105 A 
ATOM     26  O27 ZIN A   1      16.572  -3.570  11.635  0.00  0.00    -0.323 OA
ATOM     27  C23 ZIN A   1      19.375  -2.572   9.709  0.00  0.00     0.040 A 
ATOM     28  O25 ZIN A   1      17.563  -4.305   9.736  0.00  0.00    -0.323 OA
ATOM     29  C22 ZIN A   1      19.886  -1.476  10.380  0.00  0.00     0.012 A 
ATOM     30  C26 ZIN A   1      16.772  -4.760  10.849  0.00  0.00     0.352 C 
ENDBRANCH  18  22
TORSDOF 1
ENDMDL
MODEL 7
REMARK VINA RESULT:      -8.5      1.978      5.161
REMARK  1 active torsions:
REMARK  status: ('A' for Active; 'I' for Inactive)
REMARK    1  A    between atoms: C19_18  and  C21_19 
ROOT
ATOM      1  C1  ZIN A   1      19.242  -0.495  18.473  0.00  0.00     0.153 C 
ATOM      2  N2  ZIN A   1      18.820  -0.425  17.071  0.00  0.00    -0.346 N 
ATOM      3  C3  ZIN A   1      19.226  -1.500  16.181  0.00  0.00     0.228 A 
ATOM      4  C4  ZIN A   1      18.663  -1.333  14.806  0.00  0.00     0.239 A 
ATOM      5  O5  ZIN A   1      18.916  -2.187  13.984  0.00  0.00    -0.271 OA
ATOM      6  N6  ZIN A   1      17.899  -0.308  14.424  0.00  0.00    -0.323 N 
ATOM      7  C7  ZIN A   1      17.586   0.825  15.294  0.00  0.00     0.185 A 
ATOM      8  C9  ZIN A   1      18.213   2.098  14.707  0.00  0.00     0.076 C 
ATOM      9  C10 ZIN A   1      17.928   2.143  13.228  0.00  0.00    -0.018 A 
ATOM     10  C11 ZIN A   1      17.542   1.081  12.487  0.00  0.00     0.045 A 
ATOM     11  N12 ZIN A   1      17.371   1.462  11.182  0.00  0.00    -0.356 N 
ATOM     12  C13 ZIN A   1      17.644   2.793  11.049  0.00  0.00     0.043 A 
ATOM     13  C14 ZIN A   1      17.620   3.646   9.948  0.00  0.00     0.030 A 
ATOM     14  C15 ZIN A   1      17.962   4.969  10.173  0.00  0.00     0.002 A 
ATOM     15  C16 ZIN A   1      18.314   5.438  11.428  0.00  0.00     0.001 A 
ATOM     16  C17 ZIN A   1      18.347   4.620  12.530  0.00  0.00     0.014 A 
ATOM     17  C18 ZIN A   1      18.006   3.279  12.331  0.00  0.00    -0.001 A 
ATOM     18  C19 ZIN A   1      17.337  -0.303  13.056  0.00  0.00     0.172 C 
ATOM     19  C30 ZIN A   1      18.081   0.614  16.688  0.00  0.00     0.243 A 
ATOM     20  O31 ZIN A   1      17.799   1.448  17.523  0.00  0.00    -0.271 OA
ATOM     21  H39 ZIN A   1      17.096   0.873  10.460  0.00  0.00     0.166 HD
ENDROOT
BRANCH  18  22
ATOM     22  C21 ZIN A   1      18.052  -1.320  12.203  0.00  0.00    -0.027 A 
ATOM     23  C29 ZIN A   1      17.391  -2.462  11.789  0.00  0.00     0.049 A 
ATOM     24  C28 ZIN A   1      18.045  -3.393  11.001  0.00  0.00     0.105 A 
ATOM     25  C24 ZIN A   1      19.372  -3.182  10.635  0.00  0.00     0.105 A 
ATOM     26  O27 ZIN A   1      17.628  -4.577  10.465  0.00  0.00    -0.323 OA
ATOM     27  C23 ZIN A   1      20.031  -2.039  11.058  0.00  0.00     0.040 A 
ATOM     28  O25 ZIN A   1      19.786  -4.234   9.871  0.00  0.00    -0.323 OA
ATOM     29  C22 ZIN A   1      19.369  -1.110  11.841  0.00  0.00     0.012 A 
ATOM     30  C26 ZIN A   1      18.831  -5.284  10.111  0.00  0.00     0.352 C 
ENDBRANCH  18  22
TORSDOF 1
ENDMDL
MODEL 8
REMARK VINA RESULT:      -8.4      3.391      5.276
REMARK  1 active torsions:
REMARK  status: ('A' for Active; 'I' for Inactive)
REMARK    1  A    between atoms: C19_18  and  C21_19 
ROOT
ATOM      1  C1  ZIN A   1      15.930   8.594  15.185  0.00  0.00     0.153 C 
ATOM      2  N2  ZIN A   1      16.722   7.379  14.976  0.00  0.00    -0.346 N 
ATOM      3  C3  ZIN A   1      16.728   6.786  13.649  0.00  0.00     0.228 A 
ATOM      4  C4  ZIN A   1      17.634   5.600  13.568  0.00  0.00     0.239 A 
ATOM      5  O5  ZIN A   1      17.737   5.039  12.498  0.00  0.00    -0.271 OA
ATOM      6  N6  ZIN A   1      18.339   5.118  14.594  0.00  0.00    -0.323 N 
ATOM      7  C7  ZIN A   1      18.243   5.653  15.952  0.00  0.00     0.185 A 
ATOM      8  C9  ZIN A   1      17.654   4.578  16.876  0.00  0.00     0.076 C 
ATOM      9  C10 ZIN A   1      18.341   3.266  16.596  0.00  0.00    -0.018 A 
ATOM     10  C11 ZIN A   1      19.054   2.995  15.482  0.00  0.00     0.045 A 
ATOM     11  N12 ZIN A   1      19.541   1.715  15.540  0.00  0.00    -0.356 N 
ATOM     12  C13 ZIN A   1      19.151   1.125  16.708  0.00  0.00     0.043 A 
ATOM     13  C14 ZIN A   1      19.380  -0.143  17.236  0.00  0.00     0.030 A 
ATOM     14  C15 ZIN A   1      18.823  -0.416  18.474  0.00  0.00     0.002 A 
ATOM     15  C16 ZIN A   1      18.070   0.517  19.168  0.00  0.00     0.001 A 
ATOM     16  C17 ZIN A   1      17.828   1.774  18.672  0.00  0.00     0.014 A 
ATOM     17  C18 ZIN A   1      18.379   2.077  17.424  0.00  0.00    -0.001 A 
ATOM     18  C19 ZIN A   1      19.263   3.988  14.361  0.00  0.00     0.172 C 
ATOM     19  C30 ZIN A   1      17.401   6.887  16.010  0.00  0.00     0.243 A 
ATOM     20  O31 ZIN A   1      17.325   7.472  17.069  0.00  0.00    -0.271 OA
ATOM     21  H39 ZIN A   1      20.083   1.293  14.855  0.00  0.00     0.166 HD
ENDROOT
BRANCH  18  22
ATOM     22  C21 ZIN A   1      18.957   3.338  13.037  0.00  0.00    -0.027 A 
ATOM     23  C29 ZIN A   1      17.907   2.444  12.931  0.00  0.00     0.049 A 
ATOM     24  C28 ZIN A   1      17.621   1.851  11.714  0.00  0.00     0.105 A 
ATOM     25  C24 ZIN A   1      18.400   2.147  10.598  0.00  0.00     0.105 A 
ATOM     26  O27 ZIN A   1      16.657   0.957  11.347  0.00  0.00    -0.323 OA
ATOM     27  C23 ZIN A   1      19.455   3.039  10.711  0.00  0.00     0.040 A 
ATOM     28  O25 ZIN A   1      17.925   1.439   9.533  0.00  0.00    -0.323 OA
ATOM     29  C22 ZIN A   1      19.731   3.633  11.930  0.00  0.00     0.012 A 
ATOM     30  C26 ZIN A   1      17.106   0.399  10.097  0.00  0.00     0.352 C 
ENDBRANCH  18  22
TORSDOF 1
ENDMDL
MODEL 9
REMARK VINA RESULT:      -8.2      3.327      6.136
REMARK  1 active torsions:
REMARK  status: ('A' for Active; 'I' for Inactive)
REMARK    1  A    between atoms: C19_18  and  C21_19 
ROOT
ATOM      1  C1  ZIN A   1      17.999   7.053  14.105  0.00  0.00     0.153 C 
ATOM      2  N2  ZIN A   1      17.857   5.647  13.719  0.00  0.00    -0.346 N 
ATOM      3  C3  ZIN A   1      18.285   4.631  14.665  0.00  0.00     0.228 A 
ATOM      4  C4  ZIN A   1      18.013   3.248  14.167  0.00  0.00     0.239 A 
ATOM      5  O5  ZIN A   1      18.307   2.319  14.888  0.00  0.00    -0.271 OA
ATOM      6  N6  ZIN A   1      17.466   2.968  12.982  0.00  0.00    -0.323 N 
ATOM      7  C7  ZIN A   1      17.141   3.991  11.989  0.00  0.00     0.185 A 
ATOM      8  C9  ZIN A   1      18.018   3.785  10.747  0.00  0.00     0.076 C 
ATOM      9  C10 ZIN A   1      18.022   2.320  10.392  0.00  0.00    -0.018 A 
ATOM     10  C11 ZIN A   1      17.652   1.326  11.228  0.00  0.00     0.045 A 
ATOM     11  N12 ZIN A   1      17.775   0.116  10.596  0.00  0.00    -0.356 N 
ATOM     12  C13 ZIN A   1      18.231   0.303   9.324  0.00  0.00     0.043 A 
ATOM     13  C14 ZIN A   1      18.518  -0.588   8.293  0.00  0.00     0.030 A 
ATOM     14  C15 ZIN A   1      18.974  -0.046   7.104  0.00  0.00     0.002 A 
ATOM     15  C16 ZIN A   1      19.142   1.318   6.930  0.00  0.00     0.001 A 
ATOM     16  C17 ZIN A   1      18.867   2.220   7.927  0.00  0.00     0.014 A 
ATOM     17  C18 ZIN A   1      18.405   1.699   9.139  0.00  0.00    -0.001 A 
ATOM     18  C19 ZIN A   1      17.174   1.560  12.643  0.00  0.00     0.172 C 
ATOM     19  C30 ZIN A   1      17.337   5.373  12.524  0.00  0.00     0.243 A 
ATOM     20  O31 ZIN A   1      17.011   6.306  11.820  0.00  0.00    -0.271 OA
ATOM     21  H39 ZIN A   1      17.569  -0.745  10.995  0.00  0.00     0.166 HD
ENDROOT
BRANCH  18  22
ATOM     22  C21 ZIN A   1      17.904   0.640  13.589  0.00  0.00    -0.027 A 
ATOM     23  C29 ZIN A   1      17.271   0.178  14.728  0.00  0.00     0.049 A 
ATOM     24  C28 ZIN A   1      17.939  -0.671  15.595  0.00  0.00     0.105 A 
ATOM     25  C24 ZIN A   1      19.251  -1.049  15.322  0.00  0.00     0.105 A 
ATOM     26  O27 ZIN A   1      17.548  -1.261  16.762  0.00  0.00    -0.323 OA
ATOM     27  C23 ZIN A   1      19.881  -0.577  14.182  0.00  0.00     0.040 A 
ATOM     28  O25 ZIN A   1      19.683  -1.875  16.318  0.00  0.00    -0.323 OA
ATOM     29  C22 ZIN A   1      19.206   0.266  13.317  0.00  0.00     0.012 A 
ATOM     30  C26 ZIN A   1      18.766  -1.674  17.410  0.00  0.00     0.352 C 
ENDBRANCH  18  22
TORSDOF 1
ENDMDL
