MODEL 1
REMARK VINA RESULT:      -5.9      0.000      0.000
REMARK  6 active torsions:
REMARK  status: ('A' for Active; 'I' for Inactive)
REMARK    1  A    between atoms: N1_1  and  C2_2 
REMARK    2  A    between atoms: N6_6  and  C7_7 
REMARK    3  A    between atoms: C10_9  and  C12_10 
REMARK    4  A    between atoms: C12_10  and  O13_11 
REMARK    5  A    between atoms: C14_12  and  O16_13 
REMARK    6  A    between atoms: C17_14  and  O19_15 
ROOT
ATOM      1  C7  <0> d   1      18.777  -0.525  10.019  0.00  0.00     0.264 C 
ATOM      2  O9  <0> d   1      18.487   0.740  10.650  0.00  0.00    -0.353 OA
ATOM      3  C10 <0> d   1      18.907   0.632  12.020  0.00  0.00     0.179 C 
ATOM      4  C14 <0> d   1      20.033  -0.419  12.072  0.00  0.00     0.182 C 
ATOM      5  C17 <0> d   1      20.154  -0.922  10.611  0.00  0.00     0.198 C 
ENDROOT
BRANCH   1   6
ATOM      6  N6  <0> d   1      18.867  -0.368   8.565  0.00  0.00    -0.278 N 
ATOM      7  C4  <0> d   1      18.931  -1.455   7.776  0.00  0.00     0.352 A 
ATOM      8  N3  <0> d   1      19.014  -1.341   6.452  0.00  0.00    -0.177 NA
ATOM      9  O5  <0> d   1      18.915  -2.566   8.283  0.00  0.00    -0.244 OA
ATOM     10  C2  <0> d   1      19.035  -0.147   5.875  0.00  0.00     0.128 A 
ATOM     11  C21 <0> d   1      18.973   1.013   6.674  0.00  0.00     0.067 A 
ATOM     12  C20 <0> d   1      18.885   0.881   8.018  0.00  0.00     0.102 A 
BRANCH  10  13
ATOM     13  N1  <0> d   1      19.121  -0.041   4.507  0.00  0.00    -0.384 N 
ATOM     14  H22 <0> d   1      18.777  -0.752   3.943  0.00  0.00     0.157 HD
ATOM     15  H23 <0> d   1      19.520   0.746   4.105  0.00  0.00     0.157 HD
ENDBRANCH  10  13
ENDBRANCH   1   6
BRANCH   5  16
ATOM     16  O19 <0> d   1      21.213  -0.248   9.926  0.00  0.00    -0.388 OA
ATOM     17  H28 <0> d   1      21.581   0.502  10.413  0.00  0.00     0.210 HD
ENDBRANCH   5  16
BRANCH   4  18
ATOM     18  O16 <0> d   1      19.673  -1.496  12.942  0.00  0.00    -0.390 OA
ATOM     19  H27 <0> d   1      18.739  -1.501  13.194  0.00  0.00     0.210 HD
ENDBRANCH   4  18
BRANCH   3  20
ATOM     20  C12 <0> d   1      19.432   1.983  12.512  0.00  0.00     0.198 C 
BRANCH  20  21
ATOM     21  O13 <0> d   1      20.670   2.279  11.862  0.00  0.00    -0.398 OA
ATOM     22  H26 <0> d   1      20.577   2.820  11.066  0.00  0.00     0.209 HD
ENDBRANCH  20  21
ENDBRANCH   3  20
TORSDOF 6
ENDMDL
MODEL 2
REMARK VINA RESULT:      -5.9      1.777      2.013
REMARK  6 active torsions:
REMARK  status: ('A' for Active; 'I' for Inactive)
REMARK    1  A    between atoms: N1_1  and  C2_2 
REMARK    2  A    between atoms: N6_6  and  C7_7 
REMARK    3  A    between atoms: C10_9  and  C12_10 
REMARK    4  A    between atoms: C12_10  and  O13_11 
REMARK    5  A    between atoms: C14_12  and  O16_13 
REMARK    6  A    between atoms: C17_14  and  O19_15 
ROOT
ATOM      1  C7  <0> d   1      19.065  -0.633  10.944  0.00  0.00     0.264 C 
ATOM      2  O9  <0> d   1      18.647   0.745  10.849  0.00  0.00    -0.353 OA
ATOM      3  C10 <0> d   1      19.374   1.474  11.852  0.00  0.00     0.179 C 
ATOM      4  C14 <0> d   1      20.689   0.713  12.109  0.00  0.00     0.182 C 
ATOM      5  C17 <0> d   1      20.592  -0.535  11.195  0.00  0.00     0.198 C 
ENDROOT
BRANCH   1   6
ATOM      6  N6  <0> d   1      18.794  -1.342   9.691  0.00  0.00    -0.278 N 
ATOM      7  C4  <0> d   1      18.824  -2.686   9.661  0.00  0.00     0.352 A 
ATOM      8  N3  <0> d   1      18.581  -3.355   8.536  0.00  0.00    -0.177 NA
ATOM      9  O5  <0> d   1      19.079  -3.303  10.683  0.00  0.00    -0.244 OA
ATOM     10  C2  <0> d   1      18.302  -2.711   7.411  0.00  0.00     0.128 A 
ATOM     11  C21 <0> d   1      18.267  -1.301   7.407  0.00  0.00     0.067 A 
ATOM     12  C20 <0> d   1      18.511  -0.635   8.559  0.00  0.00     0.102 A 
BRANCH  10  13
ATOM     13  N1  <0> d   1      18.053  -3.413   6.255  0.00  0.00    -0.384 N 
ATOM     14  H22 <0> d   1      17.648  -4.294   6.300  0.00  0.00     0.157 HD
ATOM     15  H23 <0> d   1      18.277  -3.026   5.395  0.00  0.00     0.157 HD
ENDBRANCH  10  13
ENDBRANCH   1   6
BRANCH   5  16
ATOM     16  O19 <0> d   1      21.295  -0.325   9.969  0.00  0.00    -0.388 OA
ATOM     17  H28 <0> d   1      21.690   0.555   9.888  0.00  0.00     0.210 HD
ENDBRANCH   5  16
BRANCH   4  18
ATOM     18  O16 <0> d   1      20.780   0.320  13.481  0.00  0.00    -0.390 OA
ATOM     19  H27 <0> d   1      21.120   1.012  14.066  0.00  0.00     0.210 HD
ENDBRANCH   4  18
BRANCH   3  20
ATOM     20  C12 <0> d   1      19.679   2.888  11.350  0.00  0.00     0.198 C 
BRANCH  20  21
ATOM     21  O13 <0> d   1      21.037   3.217  11.652  0.00  0.00    -0.398 OA
ATOM     22  H26 <0> d   1      21.678   2.560  11.349  0.00  0.00     0.209 HD
ENDBRANCH  20  21
ENDBRANCH   3  20
TORSDOF 6
ENDMDL
MODEL 3
REMARK VINA RESULT:      -5.8      4.221      7.069
REMARK  6 active torsions:
REMARK  status: ('A' for Active; 'I' for Inactive)
REMARK    1  A    between atoms: N1_1  and  C2_2 
REMARK    2  A    between atoms: N6_6  and  C7_7 
REMARK    3  A    between atoms: C10_9  and  C12_10 
REMARK    4  A    between atoms: C12_10  and  O13_11 
REMARK    5  A    between atoms: C14_12  and  O16_13 
REMARK    6  A    between atoms: C17_14  and  O19_15 
ROOT
ATOM      1  C7  <0> d   1      18.678   0.474  13.039  0.00  0.00     0.264 C 
ATOM      2  O9  <0> d   1      18.429  -0.785  12.379  0.00  0.00    -0.353 OA
ATOM      3  C10 <0> d   1      18.882  -0.644  11.023  0.00  0.00     0.179 C 
ATOM      4  C14 <0> d   1      19.988   0.429  11.018  0.00  0.00     0.182 C 
ATOM      5  C17 <0> d   1      20.062   0.907  12.491  0.00  0.00     0.198 C 
ENDROOT
BRANCH   1   6
ATOM      6  N6  <0> d   1      18.734   0.291  14.492  0.00  0.00    -0.278 N 
ATOM      7  C4  <0> d   1      18.689   1.363  15.304  0.00  0.00     0.352 A 
ATOM      8  N3  <0> d   1      18.738   1.226  16.627  0.00  0.00    -0.177 NA
ATOM      9  O5  <0> d   1      18.602   2.480  14.819  0.00  0.00    -0.244 OA
ATOM     10  C2  <0> d   1      18.834   0.025  17.181  0.00  0.00     0.128 A 
ATOM     11  C21 <0> d   1      18.888  -1.118  16.358  0.00  0.00     0.067 A 
ATOM     12  C20 <0> d   1      18.831  -0.964  15.015  0.00  0.00     0.102 A 
BRANCH  10  13
ATOM     13  N1  <0> d   1      18.884  -0.103  18.550  0.00  0.00    -0.384 N 
ATOM     14  H22 <0> d   1      19.705  -0.393  18.980  0.00  0.00     0.157 HD
ATOM     15  H23 <0> d   1      18.102   0.101  19.086  0.00  0.00     0.157 HD
ENDBRANCH  10  13
ENDBRANCH   1   6
BRANCH   5  16
ATOM     16  O19 <0> d   1      21.116   0.242  13.190  0.00  0.00    -0.388 OA
ATOM     17  H28 <0> d   1      20.876  -0.635  13.521  0.00  0.00     0.210 HD
ENDBRANCH   5  16
BRANCH   4  18
ATOM     18  O16 <0> d   1      19.629   1.514  10.159  0.00  0.00    -0.390 OA
ATOM     19  H27 <0> d   1      19.204   1.239   9.335  0.00  0.00     0.210 HD
ENDBRANCH   4  18
BRANCH   3  20
ATOM     20  C12 <0> d   1      19.445  -1.976  10.520  0.00  0.00     0.198 C 
BRANCH  20  21
ATOM     21  O13 <0> d   1      20.703  -2.228  11.150  0.00  0.00    -0.398 OA
ATOM     22  H26 <0> d   1      21.464  -1.890  10.659  0.00  0.00     0.209 HD
ENDBRANCH  20  21
ENDBRANCH   3  20
TORSDOF 6
ENDMDL
MODEL 4
REMARK VINA RESULT:      -5.7      2.501      3.590
REMARK  6 active torsions:
REMARK  status: ('A' for Active; 'I' for Inactive)
REMARK    1  A    between atoms: N1_1  and  C2_2 
REMARK    2  A    between atoms: N6_6  and  C7_7 
REMARK    3  A    between atoms: C10_9  and  C12_10 
REMARK    4  A    between atoms: C12_10  and  O13_11 
REMARK    5  A    between atoms: C14_12  and  O16_13 
REMARK    6  A    between atoms: C17_14  and  O19_15 
ROOT
ATOM      1  C7  <0> d   1      17.650   2.367  12.166  0.00  0.00     0.264 C 
ATOM      2  O9  <0> d   1      17.885   3.788  12.251  0.00  0.00    -0.353 OA
ATOM      3  C10 <0> d   1      18.075   4.099  13.641  0.00  0.00     0.179 C 
ATOM      4  C14 <0> d   1      18.611   2.827  14.326  0.00  0.00     0.182 C 
ATOM      5  C17 <0> d   1      18.644   1.769  13.194  0.00  0.00     0.198 C 
ENDROOT
BRANCH   1   6
ATOM      6  N6  <0> d   1      17.945   1.875  10.817  0.00  0.00    -0.278 N 
ATOM      7  C4  <0> d   1      17.330   0.771  10.357  0.00  0.00     0.352 A 
ATOM      8  N3  <0> d   1      17.581   0.303   9.136  0.00  0.00    -0.177 NA
ATOM      9  O5  <0> d   1      16.530   0.188  11.071  0.00  0.00    -0.244 OA
ATOM     10  C2  <0> d   1      18.446   0.915   8.340  0.00  0.00     0.128 A 
ATOM     11  C21 <0> d   1      19.111   2.073   8.794  0.00  0.00     0.067 A 
ATOM     12  C20 <0> d   1      18.843   2.540  10.035  0.00  0.00     0.102 A 
BRANCH  10  13
ATOM     13  N1  <0> d   1      18.697   0.422   7.081  0.00  0.00    -0.384 N 
ATOM     14  H22 <0> d   1      18.984   1.021   6.373  0.00  0.00     0.157 HD
ATOM     15  H23 <0> d   1      18.592  -0.525   6.900  0.00  0.00     0.157 HD
ENDBRANCH  10  13
ENDBRANCH   1   6
BRANCH   5  16
ATOM     16  O19 <0> d   1      19.954   1.665  12.632  0.00  0.00    -0.388 OA
ATOM     17  H28 <0> d   1      20.071   0.904  12.046  0.00  0.00     0.210 HD
ENDBRANCH   5  16
BRANCH   4  18
ATOM     18  O16 <0> d   1      17.728   2.412  15.371  0.00  0.00    -0.390 OA
ATOM     19  H27 <0> d   1      16.798   2.371  15.108  0.00  0.00     0.210 HD
ENDBRANCH   4  18
BRANCH   3  20
ATOM     20  C12 <0> d   1      19.088   5.237  13.787  0.00  0.00     0.198 C 
BRANCH  20  21
ATOM     21  O13 <0> d   1      20.332   4.844  13.202  0.00  0.00    -0.398 OA
ATOM     22  H26 <0> d   1      20.300   4.741  12.241  0.00  0.00     0.209 HD
ENDBRANCH  20  21
ENDBRANCH   3  20
TORSDOF 6
ENDMDL
MODEL 5
REMARK VINA RESULT:      -5.7      3.638      5.261
REMARK  6 active torsions:
REMARK  status: ('A' for Active; 'I' for Inactive)
REMARK    1  A    between atoms: N1_1  and  C2_2 
REMARK    2  A    between atoms: N6_6  and  C7_7 
REMARK    3  A    between atoms: C10_9  and  C12_10 
REMARK    4  A    between atoms: C12_10  and  O13_11 
REMARK    5  A    between atoms: C14_12  and  O16_13 
REMARK    6  A    between atoms: C17_14  and  O19_15 
ROOT
ATOM      1  C7  <0> d   1      17.981   0.656  14.504  0.00  0.00     0.264 C 
ATOM      2  O9  <0> d   1      18.647   1.680  15.273  0.00  0.00    -0.353 OA
ATOM      3  C10 <0> d   1      18.176   1.562  16.625  0.00  0.00     0.179 C 
ATOM      4  C14 <0> d   1      17.749   0.096  16.835  0.00  0.00     0.182 C 
ATOM      5  C17 <0> d   1      17.975  -0.569  15.454  0.00  0.00     0.198 C 
ENDROOT
BRANCH   1   6
ATOM      6  N6  <0> d   1      18.733   0.358  13.282  0.00  0.00    -0.278 N 
ATOM      7  C4  <0> d   1      18.134  -0.293  12.268  0.00  0.00     0.352 A 
ATOM      8  N3  <0> d   1      18.794  -0.577  11.148  0.00  0.00    -0.177 NA
ATOM      9  O5  <0> d   1      16.965  -0.628  12.378  0.00  0.00    -0.244 OA
ATOM     10  C2  <0> d   1      20.064  -0.225  11.002  0.00  0.00     0.128 A 
ATOM     11  C21 <0> d   1      20.723   0.454  12.047  0.00  0.00     0.067 A 
ATOM     12  C20 <0> d   1      20.037   0.740  13.178  0.00  0.00     0.102 A 
BRANCH  10  13
ATOM     13  N1  <0> d   1      20.735  -0.524   9.839  0.00  0.00    -0.384 N 
ATOM     14  H22 <0> d   1      21.311   0.140   9.427  0.00  0.00     0.157 HD
ATOM     15  H23 <0> d   1      20.639  -1.400   9.435  0.00  0.00     0.157 HD
ENDBRANCH  10  13
ENDBRANCH   1   6
BRANCH   5  16
ATOM     16  O19 <0> d   1      19.233  -1.247  15.414  0.00  0.00    -0.388 OA
ATOM     17  H28 <0> d   1      19.168  -2.203  15.548  0.00  0.00     0.210 HD
ENDBRANCH   5  16
BRANCH   4  18
ATOM     18  O16 <0> d   1      16.369   0.025  17.203  0.00  0.00    -0.390 OA
ATOM     19  H27 <0> d   1      16.220  -0.060  18.155  0.00  0.00     0.210 HD
ENDBRANCH   4  18
BRANCH   3  20
ATOM     20  C12 <0> d   1      19.298   1.923  17.601  0.00  0.00     0.198 C 
BRANCH  20  21
ATOM     21  O13 <0> d   1      19.774   0.737  18.241  0.00  0.00    -0.398 OA
ATOM     22  H26 <0> d   1      20.614   0.850  18.706  0.00  0.00     0.209 HD
ENDBRANCH  20  21
ENDBRANCH   3  20
TORSDOF 6
ENDMDL
MODEL 6
REMARK VINA RESULT:      -5.7      3.552      6.390
REMARK  6 active torsions:
REMARK  status: ('A' for Active; 'I' for Inactive)
REMARK    1  A    between atoms: N1_1  and  C2_2 
REMARK    2  A    between atoms: N6_6  and  C7_7 
REMARK    3  A    between atoms: C10_9  and  C12_10 
REMARK    4  A    between atoms: C12_10  and  O13_11 
REMARK    5  A    between atoms: C14_12  and  O16_13 
REMARK    6  A    between atoms: C17_14  and  O19_15 
ROOT
ATOM      1  C7  <0> d   1      18.293   1.116  11.997  0.00  0.00     0.264 C 
ATOM      2  O9  <0> d   1      18.407   0.090  10.988  0.00  0.00    -0.353 OA
ATOM      3  C10 <0> d   1      18.678   0.754   9.743  0.00  0.00     0.179 C 
ATOM      4  C14 <0> d   1      19.377   2.087  10.077  0.00  0.00     0.182 C 
ATOM      5  C17 <0> d   1      19.414   2.121  11.625  0.00  0.00     0.198 C 
ENDROOT
BRANCH   1   6
ATOM      6  N6  <0> d   1      18.523   0.556  13.331  0.00  0.00    -0.278 N 
ATOM      7  C4  <0> d   1      18.213   1.277  14.423  0.00  0.00     0.352 A 
ATOM      8  N3  <0> d   1      18.412   0.793  15.647  0.00  0.00    -0.177 NA
ATOM      9  O5  <0> d   1      17.741   2.395  14.290  0.00  0.00    -0.244 OA
ATOM     10  C2  <0> d   1      18.925  -0.418  15.821  0.00  0.00     0.128 A 
ATOM     11  C21 <0> d   1      19.265  -1.198  14.697  0.00  0.00     0.067 A 
ATOM     12  C20 <0> d   1      19.052  -0.694  13.460  0.00  0.00     0.102 A 
BRANCH  10  13
ATOM     13  N1  <0> d   1      19.126  -0.907  17.090  0.00  0.00    -0.384 N 
ATOM     14  H22 <0> d   1      20.019  -1.160  17.377  0.00  0.00     0.157 HD
ATOM     15  H23 <0> d   1      18.379  -0.995  17.702  0.00  0.00     0.157 HD
ENDBRANCH  10  13
ENDBRANCH   1   6
BRANCH   5  16
ATOM     16  O19 <0> d   1      20.679   1.671  12.115  0.00  0.00    -0.388 OA
ATOM     17  H28 <0> d   1      21.411   2.273  11.923  0.00  0.00     0.210 HD
ENDBRANCH   5  16
BRANCH   4  18
ATOM     18  O16 <0> d   1      18.619   3.189   9.571  0.00  0.00    -0.390 OA
ATOM     19  H27 <0> d   1      18.288   3.059   8.672  0.00  0.00     0.210 HD
ENDBRANCH   4  18
BRANCH   3  20
ATOM     20  C12 <0> d   1      19.595  -0.114   8.878  0.00  0.00     0.198 C 
BRANCH  20  21
ATOM     21  O13 <0> d   1      20.809  -0.375   9.586  0.00  0.00    -0.398 OA
ATOM     22  H26 <0> d   1      20.706  -0.406  10.547  0.00  0.00     0.209 HD
ENDBRANCH  20  21
ENDBRANCH   3  20
TORSDOF 6
ENDMDL
MODEL 7
REMARK VINA RESULT:      -5.7      2.446      3.633
REMARK  6 active torsions:
REMARK  status: ('A' for Active; 'I' for Inactive)
REMARK    1  A    between atoms: N1_1  and  C2_2 
REMARK    2  A    between atoms: N6_6  and  C7_7 
REMARK    3  A    between atoms: C10_9  and  C12_10 
REMARK    4  A    between atoms: C12_10  and  O13_11 
REMARK    5  A    between atoms: C14_12  and  O16_13 
REMARK    6  A    between atoms: C17_14  and  O19_15 
ROOT
ATOM      1  C7  <0> d   1      18.182   1.603  11.511  0.00  0.00     0.264 C 
ATOM      2  O9  <0> d   1      17.129   2.556  11.256  0.00  0.00    -0.353 OA
ATOM      3  C10 <0> d   1      17.553   3.809  11.817  0.00  0.00     0.179 C 
ATOM      4  C14 <0> d   1      19.094   3.810  11.825  0.00  0.00     0.182 C 
ATOM      5  C17 <0> d   1      19.479   2.417  11.268  0.00  0.00     0.198 C 
ENDROOT
BRANCH   1   6
ATOM      6  N6  <0> d   1      18.097   0.478  10.576  0.00  0.00    -0.278 N 
ATOM      7  C4  <0> d   1      18.616  -0.716  10.914  0.00  0.00     0.352 A 
ATOM      8  N3  <0> d   1      18.552  -1.754  10.084  0.00  0.00    -0.177 NA
ATOM      9  O5  <0> d   1      19.155  -0.849  12.001  0.00  0.00    -0.244 OA
ATOM     10  C2  <0> d   1      17.973  -1.638   8.896  0.00  0.00     0.128 A 
ATOM     11  C21 <0> d   1      17.423  -0.399   8.509  0.00  0.00     0.067 A 
ATOM     12  C20 <0> d   1      17.491   0.646   9.366  0.00  0.00     0.102 A 
BRANCH  10  13
ATOM     13  N1  <0> d   1      17.914  -2.718   8.047  0.00  0.00    -0.384 N 
ATOM     14  H22 <0> d   1      18.077  -3.612   8.387  0.00  0.00     0.157 HD
ATOM     15  H23 <0> d   1      17.704  -2.587   7.109  0.00  0.00     0.157 HD
ENDBRANCH  10  13
ENDBRANCH   1   6
BRANCH   5  16
ATOM     16  O19 <0> d   1      19.777   2.491   9.872  0.00  0.00    -0.388 OA
ATOM     17  H28 <0> d   1      20.700   2.704   9.678  0.00  0.00     0.210 HD
ENDBRANCH   5  16
BRANCH   4  18
ATOM     18  O16 <0> d   1      19.587   3.969  13.158  0.00  0.00    -0.390 OA
ATOM     19  H27 <0> d   1      19.467   3.189  13.717  0.00  0.00     0.210 HD
ENDBRANCH   4  18
BRANCH   3  20
ATOM     20  C12 <0> d   1      17.034   4.967  10.960  0.00  0.00     0.198 C 
BRANCH  20  21
ATOM     21  O13 <0> d   1      17.642   4.911   9.668  0.00  0.00    -0.398 OA
ATOM     22  H26 <0> d   1      17.606   5.745   9.180  0.00  0.00     0.209 HD
ENDBRANCH  20  21
ENDBRANCH   3  20
TORSDOF 6
ENDMDL
MODEL 8
REMARK VINA RESULT:      -5.6      3.943      5.087
REMARK  6 active torsions:
REMARK  status: ('A' for Active; 'I' for Inactive)
REMARK    1  A    between atoms: N1_1  and  C2_2 
REMARK    2  A    between atoms: N6_6  and  C7_7 
REMARK    3  A    between atoms: C10_9  and  C12_10 
REMARK    4  A    between atoms: C12_10  and  O13_11 
REMARK    5  A    between atoms: C14_12  and  O16_13 
REMARK    6  A    between atoms: C17_14  and  O19_15 
ROOT
ATOM      1  C7  <0> d   1      17.707   0.484  14.327  0.00  0.00     0.264 C 
ATOM      2  O9  <0> d   1      17.994   1.317  15.470  0.00  0.00    -0.353 OA
ATOM      3  C10 <0> d   1      18.252   0.437  16.576  0.00  0.00     0.179 C 
ATOM      4  C14 <0> d   1      18.771  -0.891  15.994  0.00  0.00     0.182 C 
ATOM      5  C17 <0> d   1      18.721  -0.681  14.459  0.00  0.00     0.198 C 
ENDROOT
BRANCH   1   6
ATOM      6  N6  <0> d   1      17.930   1.223  13.081  0.00  0.00    -0.278 N 
ATOM      7  C4  <0> d   1      17.211   0.920  11.985  0.00  0.00     0.352 A 
ATOM      8  N3  <0> d   1      17.393   1.575  10.840  0.00  0.00    -0.177 NA
ATOM      9  O5  <0> d   1      16.378   0.029  12.041  0.00  0.00    -0.244 OA
ATOM     10  C2  <0> d   1      18.292   2.546  10.751  0.00  0.00     0.128 A 
ATOM     11  C21 <0> d   1      19.065   2.885  11.881  0.00  0.00     0.067 A 
ATOM     12  C20 <0> d   1      18.865   2.214  13.038  0.00  0.00     0.102 A 
BRANCH  10  13
ATOM     13  N1  <0> d   1      18.472   3.215   9.563  0.00  0.00    -0.384 N 
ATOM     14  H22 <0> d   1      19.369   3.416   9.250  0.00  0.00     0.157 HD
ATOM     15  H23 <0> d   1      17.703   3.481   9.035  0.00  0.00     0.157 HD
ENDBRANCH  10  13
ENDBRANCH   1   6
BRANCH   5  16
ATOM     16  O19 <0> d   1      20.002  -0.297  13.955  0.00  0.00    -0.388 OA
ATOM     17  H28 <0> d   1      20.703  -0.940  14.132  0.00  0.00     0.210 HD
ENDBRANCH   5  16
BRANCH   4  18
ATOM     18  O16 <0> d   1      17.918  -1.973  16.377  0.00  0.00    -0.390 OA
ATOM     19  H27 <0> d   1      16.975  -1.786  16.272  0.00  0.00     0.210 HD
ENDBRANCH   4  18
BRANCH   3  20
ATOM     20  C12 <0> d   1      19.309   1.053  17.496  0.00  0.00     0.198 C 
BRANCH  20  21
ATOM     21  O13 <0> d   1      19.825   0.045  18.369  0.00  0.00    -0.398 OA
ATOM     22  H26 <0> d   1      20.455  -0.555  17.948  0.00  0.00     0.209 HD
ENDBRANCH  20  21
ENDBRANCH   3  20
TORSDOF 6
ENDMDL
MODEL 9
REMARK VINA RESULT:      -5.6      1.664      2.059
REMARK  6 active torsions:
REMARK  status: ('A' for Active; 'I' for Inactive)
REMARK    1  A    between atoms: N1_1  and  C2_2 
REMARK    2  A    between atoms: N6_6  and  C7_7 
REMARK    3  A    between atoms: C10_9  and  C12_10 
REMARK    4  A    between atoms: C12_10  and  O13_11 
REMARK    5  A    between atoms: C14_12  and  O16_13 
REMARK    6  A    between atoms: C17_14  and  O19_15 
ROOT
ATOM      1  C7  <0> d   1      18.888   0.003  11.718  0.00  0.00     0.264 C 
ATOM      2  O9  <0> d   1      18.126   0.966  12.476  0.00  0.00    -0.353 OA
ATOM      3  C10 <0> d   1      18.511   0.815  13.853  0.00  0.00     0.179 C 
ATOM      4  C14 <0> d   1      19.945   0.251  13.868  0.00  0.00     0.182 C 
ATOM      5  C17 <0> d   1      20.293   0.052  12.371  0.00  0.00     0.198 C 
ENDROOT
BRANCH   1   6
ATOM      6  N6  <0> d   1      18.961   0.399  10.309  0.00  0.00    -0.278 N 
ATOM      7  C4  <0> d   1      19.192  -0.530   9.363  0.00  0.00     0.352 A 
ATOM      8  N3  <0> d   1      19.264  -0.199   8.076  0.00  0.00    -0.177 NA
ATOM      9  O5  <0> d   1      19.340  -1.696   9.691  0.00  0.00    -0.244 OA
ATOM     10  C2  <0> d   1      19.108   1.061   7.691  0.00  0.00     0.128 A 
ATOM     11  C21 <0> d   1      18.868   2.060   8.657  0.00  0.00     0.067 A 
ATOM     12  C20 <0> d   1      18.793   1.706   9.961  0.00  0.00     0.102 A 
BRANCH  10  13
ATOM     13  N1  <0> d   1      19.184   1.392   6.358  0.00  0.00    -0.384 N 
ATOM     14  H22 <0> d   1      18.942   0.739   5.682  0.00  0.00     0.157 HD
ATOM     15  H23 <0> d   1      19.474   2.278   6.094  0.00  0.00     0.157 HD
ENDBRANCH  10  13
ENDBRANCH   1   6
BRANCH   5  16
ATOM     16  O19 <0> d   1      21.046   1.159  11.871  0.00  0.00    -0.388 OA
ATOM     17  H28 <0> d   1      20.847   1.999  12.307  0.00  0.00     0.210 HD
ENDBRANCH   5  16
BRANCH   4  18
ATOM     18  O16 <0> d   1      19.984  -1.000  14.560  0.00  0.00    -0.390 OA
ATOM     19  H27 <0> d   1      20.261  -1.745  14.009  0.00  0.00     0.210 HD
ENDBRANCH   4  18
BRANCH   3  20
ATOM     20  C12 <0> d   1      18.477   2.174  14.556  0.00  0.00     0.198 C 
BRANCH  20  21
ATOM     21  O13 <0> d   1      19.415   3.055  13.935  0.00  0.00    -0.398 OA
ATOM     22  H26 <0> d   1      19.102   3.965  13.847  0.00  0.00     0.209 HD
ENDBRANCH  20  21
ENDBRANCH   3  20
TORSDOF 6
ENDMDL
