MODEL 1
REMARK VINA RESULT:      -6.7      0.000      0.000
REMARK  19 active torsions:
REMARK  status: ('A' for Active; 'I' for Inactive)
REMARK    1  A    between atoms: O1_1  and  C2_2 
REMARK    2  A    between atoms: C2_2  and  C3_3 
REMARK    3  A    between atoms: C5_5  and  C6_6 
REMARK    4  A    between atoms: C6_6  and  O8_7 
REMARK    5  A    between atoms: C6_6  and  C9_8 
REMARK    6  A    between atoms: C9_8  and  N10_9 
REMARK    7  A    between atoms: N10_9  and  C13_12 
REMARK    8  A    between atoms: C13_12  and  C14_13 
REMARK    9  A    between atoms: C14_13  and  C15_14 
REMARK   10  A    between atoms: C15_14  and  C16_15 
REMARK   11  A    between atoms: C16_15  and  C17_16 
REMARK   12  A    between atoms: C17_16  and  C18_17 
REMARK   13  A    between atoms: C18_17  and  O19_18 
REMARK   14  A    between atoms: O19_18  and  C20_19 
REMARK   15  A    between atoms: C20_19  and  C21_20 
REMARK   16  A    between atoms: C21_20  and  C22_21 
REMARK   17  A    between atoms: C22_21  and  C23_22 
REMARK   18  A    between atoms: C23_22  and  C24_23 
REMARK   19  A    between atoms: C32_31  and  O33_32 
ROOT
ATOM      1  N10 ZIN A   1      17.872  -0.267  17.282  0.00  0.00    -0.072 N 
ATOM      2  H11 ZIN A   1      16.943   0.039  17.033  0.00  0.00     0.277 HD
ATOM      3  H12 ZIN A   1      17.870  -1.265  17.428  0.00  0.00     0.277 HD
ENDROOT
BRANCH   1   4
ATOM      4  C9  ZIN A   1      18.806   0.068  16.198  0.00  0.00     0.268 C 
BRANCH   4   5
ATOM      5  C6  ZIN A   1      18.028   0.254  14.894  0.00  0.00     0.176 C 
BRANCH   5   6
ATOM      6  C5  ZIN A   1      18.948   0.023  13.724  0.00  0.00    -0.027 A 
ATOM      7  C4  ZIN A   1      18.865  -1.155  13.003  0.00  0.00     0.022 A 
ATOM      8  C3  ZIN A   1      19.707  -1.369  11.929  0.00  0.00    -0.001 A 
ATOM      9  C32 ZIN A   1      20.641  -0.405  11.577  0.00  0.00     0.074 A 
ATOM     10  C31 ZIN A   1      20.718   0.778  12.299  0.00  0.00     0.038 A 
ATOM     11  C30 ZIN A   1      19.873   0.988  13.371  0.00  0.00     0.012 A 
BRANCH   8  12
ATOM     12  C2  ZIN A   1      19.617  -2.652  11.144  0.00  0.00     0.205 C 
BRANCH  12  13
ATOM     13  O1  ZIN A   1      20.837  -3.383  11.282  0.00  0.00    -0.396 OA
ATOM     14  H34 ZIN A   1      21.619  -2.825  11.389  0.00  0.00     0.209 HD
ENDBRANCH  12  13
ENDBRANCH   8  12
BRANCH   9  15
ATOM     15  O33 ZIN A   1      21.471  -0.613  10.522  0.00  0.00    -0.360 OA
ATOM     16  H68 ZIN A   1      21.333  -1.458  10.073  0.00  0.00     0.217 HD
ENDBRANCH   9  15
ENDBRANCH   5   6
BRANCH   5  17
ATOM     17  O8  ZIN A   1      17.507   1.583  14.836  0.00  0.00    -0.389 OA
ATOM     18  H38 ZIN A   1      17.634   2.092  15.648  0.00  0.00     0.210 HD
ENDBRANCH   5  17
ENDBRANCH   4   5
ENDBRANCH   1   4
BRANCH   1  19
ATOM     19  C13 ZIN A   1      18.294   0.408  18.517  0.00  0.00     0.232 C 
BRANCH  19  20
ATOM     20  C14 ZIN A   1      17.877   1.879  18.462  0.00  0.00     0.027 C 
BRANCH  20  21
ATOM     21  C15 ZIN A   1      19.120   2.766  18.565  0.00  0.00     0.002 C 
BRANCH  21  22
ATOM     22  C16 ZIN A   1      19.361   3.463  17.225  0.00  0.00     0.002 C 
BRANCH  22  23
ATOM     23  C17 ZIN A   1      18.197   4.409  16.926  0.00  0.00     0.026 C 
BRANCH  23  24
ATOM     24  C18 ZIN A   1      18.443   5.113  15.590  0.00  0.00     0.167 C 
BRANCH  24  25
ATOM     25  O19 ZIN A   1      19.097   4.213  14.691  0.00  0.00    -0.391 OA
BRANCH  25  26
ATOM     26  C20 ZIN A   1      18.987   4.585  13.315  0.00  0.00     0.167 C 
BRANCH  26  27
ATOM     27  C21 ZIN A   1      17.511   4.745  12.948  0.00  0.00     0.027 C 
BRANCH  27  28
ATOM     28  C22 ZIN A   1      17.254   4.105  11.581  0.00  0.00     0.007 C 
BRANCH  28  29
ATOM     29  C23 ZIN A   1      18.586   3.687  10.956  0.00  0.00     0.038 C 
BRANCH  29  30
ATOM     30  C24 ZIN A   1      18.402   2.399  10.195  0.00  0.00    -0.058 A 
ATOM     31  C29 ZIN A   1      17.458   1.479  10.613  0.00  0.00     0.007 A 
ATOM     32  C28 ZIN A   1      17.286   0.299   9.913  0.00  0.00     0.001 A 
ATOM     33  C27 ZIN A   1      18.062   0.037   8.800  0.00  0.00     0.000 A 
ATOM     34  C26 ZIN A   1      19.009   0.954   8.385  0.00  0.00     0.001 A 
ATOM     35  C25 ZIN A   1      19.178   2.135   9.083  0.00  0.00     0.007 A 
ENDBRANCH  29  30
ENDBRANCH  28  29
ENDBRANCH  27  28
ENDBRANCH  26  27
ENDBRANCH  25  26
ENDBRANCH  24  25
ENDBRANCH  23  24
ENDBRANCH  22  23
ENDBRANCH  21  22
ENDBRANCH  20  21
ENDBRANCH  19  20
ENDBRANCH   1  19
TORSDOF 19
ENDMDL
MODEL 2
REMARK VINA RESULT:      -6.6      2.195      4.735
REMARK  19 active torsions:
REMARK  status: ('A' for Active; 'I' for Inactive)
REMARK    1  A    between atoms: O1_1  and  C2_2 
REMARK    2  A    between atoms: C2_2  and  C3_3 
REMARK    3  A    between atoms: C5_5  and  C6_6 
REMARK    4  A    between atoms: C6_6  and  O8_7 
REMARK    5  A    between atoms: C6_6  and  C9_8 
REMARK    6  A    between atoms: C9_8  and  N10_9 
REMARK    7  A    between atoms: N10_9  and  C13_12 
REMARK    8  A    between atoms: C13_12  and  C14_13 
REMARK    9  A    between atoms: C14_13  and  C15_14 
REMARK   10  A    between atoms: C15_14  and  C16_15 
REMARK   11  A    between atoms: C16_15  and  C17_16 
REMARK   12  A    between atoms: C17_16  and  C18_17 
REMARK   13  A    between atoms: C18_17  and  O19_18 
REMARK   14  A    between atoms: O19_18  and  C20_19 
REMARK   15  A    between atoms: C20_19  and  C21_20 
REMARK   16  A    between atoms: C21_20  and  C22_21 
REMARK   17  A    between atoms: C22_21  and  C23_22 
REMARK   18  A    between atoms: C23_22  and  C24_23 
REMARK   19  A    between atoms: C32_31  and  O33_32 
ROOT
ATOM      1  N10 ZIN A   1      19.492  -1.461  13.047  0.00  0.00    -0.072 N 
ATOM      2  H11 ZIN A   1      18.686  -1.971  13.376  0.00  0.00     0.277 HD
ATOM      3  H12 ZIN A   1      20.325  -1.834  13.478  0.00  0.00     0.277 HD
ENDROOT
BRANCH   1   4
ATOM      4  C9  ZIN A   1      19.595  -1.593  11.588  0.00  0.00     0.268 C 
BRANCH   4   5
ATOM      5  C6  ZIN A   1      20.319  -0.373  11.016  0.00  0.00     0.176 C 
BRANCH   5   6
ATOM      6  C5  ZIN A   1      19.780  -0.067   9.643  0.00  0.00    -0.027 A 
ATOM      7  C4  ZIN A   1      19.571  -1.092   8.739  0.00  0.00     0.022 A 
ATOM      8  C3  ZIN A   1      19.077  -0.814   7.479  0.00  0.00    -0.001 A 
ATOM      9  C32 ZIN A   1      18.795   0.496   7.119  0.00  0.00     0.074 A 
ATOM     10  C31 ZIN A   1      19.000   1.522   8.030  0.00  0.00     0.038 A 
ATOM     11  C30 ZIN A   1      19.494   1.239   9.289  0.00  0.00     0.012 A 
BRANCH   8  12
ATOM     12  C2  ZIN A   1      18.850  -1.932   6.494  0.00  0.00     0.205 C 
BRANCH  12  13
ATOM     13  O1  ZIN A   1      19.705  -1.753   5.364  0.00  0.00    -0.396 OA
ATOM     14  H34 ZIN A   1      19.885  -2.567   4.874  0.00  0.00     0.209 HD
ENDBRANCH  12  13
ENDBRANCH   8  12
BRANCH   9  15
ATOM     15  O33 ZIN A   1      18.309   0.773   5.881  0.00  0.00    -0.360 OA
ATOM     16  H68 ZIN A   1      18.774   1.490   5.427  0.00  0.00     0.217 HD
ENDBRANCH   9  15
ENDBRANCH   5   6
BRANCH   5  17
ATOM     17  O8  ZIN A   1      21.719  -0.647  10.928  0.00  0.00    -0.389 OA
ATOM     18  H38 ZIN A   1      22.274   0.143  10.906  0.00  0.00     0.210 HD
ENDBRANCH   5  17
ENDBRANCH   4   5
ENDBRANCH   1   4
BRANCH   1  19
ATOM     19  C13 ZIN A   1      19.350  -0.042  13.402  0.00  0.00     0.232 C 
BRANCH  19  20
ATOM     20  C14 ZIN A   1      18.147   0.134  14.331  0.00  0.00     0.027 C 
BRANCH  20  21
ATOM     21  C15 ZIN A   1      18.453  -0.502  15.688  0.00  0.00     0.002 C 
BRANCH  21  22
ATOM     22  C16 ZIN A   1      17.312  -0.201  16.662  0.00  0.00     0.002 C 
BRANCH  22  23
ATOM     23  C17 ZIN A   1      17.893   0.213  18.015  0.00  0.00     0.026 C 
BRANCH  23  24
ATOM     24  C18 ZIN A   1      19.383   0.526  17.856  0.00  0.00     0.167 C 
BRANCH  24  25
ATOM     25  O19 ZIN A   1      19.682   1.762  18.509  0.00  0.00    -0.391 OA
BRANCH  25  26
ATOM     26  C20 ZIN A   1      19.045   2.898  17.920  0.00  0.00     0.167 C 
BRANCH  26  27
ATOM     27  C21 ZIN A   1      19.622   3.139  16.524  0.00  0.00     0.027 C 
BRANCH  27  28
ATOM     28  C22 ZIN A   1      18.498   3.559  15.573  0.00  0.00     0.007 C 
BRANCH  28  29
ATOM     29  C23 ZIN A   1      18.953   4.764  14.748  0.00  0.00     0.038 C 
BRANCH  29  30
ATOM     30  C24 ZIN A   1      18.308   4.713  13.387  0.00  0.00    -0.058 A 
ATOM     31  C29 ZIN A   1      17.053   5.261  13.196  0.00  0.00     0.007 A 
ATOM     32  C28 ZIN A   1      16.463   5.218  11.947  0.00  0.00     0.001 A 
ATOM     33  C27 ZIN A   1      17.124   4.619  10.890  0.00  0.00     0.000 A 
ATOM     34  C26 ZIN A   1      18.376   4.066  11.083  0.00  0.00     0.001 A 
ATOM     35  C25 ZIN A   1      18.968   4.114  12.331  0.00  0.00     0.007 A 
ENDBRANCH  29  30
ENDBRANCH  28  29
ENDBRANCH  27  28
ENDBRANCH  26  27
ENDBRANCH  25  26
ENDBRANCH  24  25
ENDBRANCH  23  24
ENDBRANCH  22  23
ENDBRANCH  21  22
ENDBRANCH  20  21
ENDBRANCH  19  20
ENDBRANCH   1  19
TORSDOF 19
ENDMDL
MODEL 3
REMARK VINA RESULT:      -6.2      2.557      5.713
REMARK  19 active torsions:
REMARK  status: ('A' for Active; 'I' for Inactive)
REMARK    1  A    between atoms: O1_1  and  C2_2 
REMARK    2  A    between atoms: C2_2  and  C3_3 
REMARK    3  A    between atoms: C5_5  and  C6_6 
REMARK    4  A    between atoms: C6_6  and  O8_7 
REMARK    5  A    between atoms: C6_6  and  C9_8 
REMARK    6  A    between atoms: C9_8  and  N10_9 
REMARK    7  A    between atoms: N10_9  and  C13_12 
REMARK    8  A    between atoms: C13_12  and  C14_13 
REMARK    9  A    between atoms: C14_13  and  C15_14 
REMARK   10  A    between atoms: C15_14  and  C16_15 
REMARK   11  A    between atoms: C16_15  and  C17_16 
REMARK   12  A    between atoms: C17_16  and  C18_17 
REMARK   13  A    between atoms: C18_17  and  O19_18 
REMARK   14  A    between atoms: O19_18  and  C20_19 
REMARK   15  A    between atoms: C20_19  and  C21_20 
REMARK   16  A    between atoms: C21_20  and  C22_21 
REMARK   17  A    between atoms: C22_21  and  C23_22 
REMARK   18  A    between atoms: C23_22  and  C24_23 
REMARK   19  A    between atoms: C32_31  and  O33_32 
ROOT
ATOM      1  N10 ZIN A   1      18.080   4.333  10.971  0.00  0.00    -0.072 N 
ATOM      2  H11 ZIN A   1      19.041   4.584  10.796  0.00  0.00     0.277 HD
ATOM      3  H12 ZIN A   1      17.471   5.035  10.578  0.00  0.00     0.277 HD
ENDROOT
BRANCH   1   4
ATOM      4  C9  ZIN A   1      17.792   3.032  10.351  0.00  0.00     0.268 C 
BRANCH   4   5
ATOM      5  C6  ZIN A   1      19.010   2.569   9.551  0.00  0.00     0.176 C 
BRANCH   5   6
ATOM      6  C5  ZIN A   1      18.607   1.451   8.625  0.00  0.00    -0.027 A 
ATOM      7  C4  ZIN A   1      19.098   1.413   7.332  0.00  0.00     0.022 A 
ATOM      8  C3  ZIN A   1      18.729   0.389   6.482  0.00  0.00    -0.001 A 
ATOM      9  C32 ZIN A   1      17.862  -0.600   6.923  0.00  0.00     0.074 A 
ATOM     10  C31 ZIN A   1      17.375  -0.563   8.222  0.00  0.00     0.038 A 
ATOM     11  C30 ZIN A   1      17.747   0.463   9.069  0.00  0.00     0.012 A 
BRANCH   8  12
ATOM     12  C2  ZIN A   1      19.264   0.349   5.073  0.00  0.00     0.205 C 
BRANCH  12  13
ATOM     13  O1  ZIN A   1      19.902  -0.908   4.840  0.00  0.00    -0.396 OA
ATOM     14  H34 ZIN A   1      20.397  -1.245   5.600  0.00  0.00     0.209 HD
ENDBRANCH  12  13
ENDBRANCH   8  12
BRANCH   9  15
ATOM     15  O33 ZIN A   1      17.497  -1.608   6.088  0.00  0.00    -0.360 OA
ATOM     16  H68 ZIN A   1      17.565  -2.488   6.482  0.00  0.00     0.217 HD
ENDBRANCH   9  15
ENDBRANCH   5   6
BRANCH   5  17
ATOM     17  O8  ZIN A   1      20.021   2.104  10.448  0.00  0.00    -0.389 OA
ATOM     18  H38 ZIN A   1      20.065   1.141  10.526  0.00  0.00     0.210 HD
ENDBRANCH   5  17
ENDBRANCH   4   5
ENDBRANCH   1   4
BRANCH   1  19
ATOM     19  C13 ZIN A   1      17.854   4.244  12.421  0.00  0.00     0.232 C 
BRANCH  19  20
ATOM     20  C14 ZIN A   1      19.199   4.273  13.150  0.00  0.00     0.027 C 
BRANCH  20  21
ATOM     21  C15 ZIN A   1      19.019   4.914  14.527  0.00  0.00     0.002 C 
BRANCH  21  22
ATOM     22  C16 ZIN A   1      18.636   3.838  15.545  0.00  0.00     0.002 C 
BRANCH  22  23
ATOM     23  C17 ZIN A   1      18.478   4.477  16.926  0.00  0.00     0.026 C 
BRANCH  23  24
ATOM     24  C18 ZIN A   1      18.891   3.471  18.002  0.00  0.00     0.167 C 
BRANCH  24  25
ATOM     25  O19 ZIN A   1      19.001   2.169  17.421  0.00  0.00    -0.391 OA
BRANCH  25  26
ATOM     26  C20 ZIN A   1      19.540   1.183  18.304  0.00  0.00     0.167 C 
BRANCH  26  27
ATOM     27  C21 ZIN A   1      18.523   0.054  18.487  0.00  0.00     0.027 C 
BRANCH  27  28
ATOM     28  C22 ZIN A   1      17.277   0.350  17.648  0.00  0.00     0.007 C 
BRANCH  28  29
ATOM     29  C23 ZIN A   1      17.027  -0.809  16.681  0.00  0.00     0.038 C 
BRANCH  29  30
ATOM     30  C24 ZIN A   1      17.804  -0.579  15.410  0.00  0.00    -0.058 A 
ATOM     31  C29 ZIN A   1      17.451   0.454  14.562  0.00  0.00     0.007 A 
ATOM     32  C28 ZIN A   1      18.166   0.668  13.398  0.00  0.00     0.001 A 
ATOM     33  C27 ZIN A   1      19.229  -0.156  13.079  0.00  0.00     0.000 A 
ATOM     34  C26 ZIN A   1      19.578  -1.192  13.925  0.00  0.00     0.001 A 
ATOM     35  C25 ZIN A   1      18.866  -1.403  15.090  0.00  0.00     0.007 A 
ENDBRANCH  29  30
ENDBRANCH  28  29
ENDBRANCH  27  28
ENDBRANCH  26  27
ENDBRANCH  25  26
ENDBRANCH  24  25
ENDBRANCH  23  24
ENDBRANCH  22  23
ENDBRANCH  21  22
ENDBRANCH  20  21
ENDBRANCH  19  20
ENDBRANCH   1  19
TORSDOF 19
ENDMDL
MODEL 4
REMARK VINA RESULT:      -6.2      2.957      7.760
REMARK  19 active torsions:
REMARK  status: ('A' for Active; 'I' for Inactive)
REMARK    1  A    between atoms: O1_1  and  C2_2 
REMARK    2  A    between atoms: C2_2  and  C3_3 
REMARK    3  A    between atoms: C5_5  and  C6_6 
REMARK    4  A    between atoms: C6_6  and  O8_7 
REMARK    5  A    between atoms: C6_6  and  C9_8 
REMARK    6  A    between atoms: C9_8  and  N10_9 
REMARK    7  A    between atoms: N10_9  and  C13_12 
REMARK    8  A    between atoms: C13_12  and  C14_13 
REMARK    9  A    between atoms: C14_13  and  C15_14 
REMARK   10  A    between atoms: C15_14  and  C16_15 
REMARK   11  A    between atoms: C16_15  and  C17_16 
REMARK   12  A    between atoms: C17_16  and  C18_17 
REMARK   13  A    between atoms: C18_17  and  O19_18 
REMARK   14  A    between atoms: O19_18  and  C20_19 
REMARK   15  A    between atoms: C20_19  and  C21_20 
REMARK   16  A    between atoms: C21_20  and  C22_21 
REMARK   17  A    between atoms: C22_21  and  C23_22 
REMARK   18  A    between atoms: C23_22  and  C24_23 
REMARK   19  A    between atoms: C32_31  and  O33_32 
ROOT
ATOM      1  N10 ZIN A   1      19.503   1.812  11.214  0.00  0.00    -0.072 N 
ATOM      2  H11 ZIN A   1      19.626   2.812  11.156  0.00  0.00     0.277 HD
ATOM      3  H12 ZIN A   1      20.395   1.356  11.096  0.00  0.00     0.277 HD
ENDROOT
BRANCH   1   4
ATOM      4  C9  ZIN A   1      18.944   1.461  12.527  0.00  0.00     0.268 C 
BRANCH   4   5
ATOM      5  C6  ZIN A   1      19.703   0.263  13.099  0.00  0.00     0.176 C 
BRANCH   5   6
ATOM      6  C5  ZIN A   1      19.373   0.112  14.561  0.00  0.00    -0.027 A 
ATOM      7  C4  ZIN A   1      19.294   1.230  15.371  0.00  0.00     0.022 A 
ATOM      8  C3  ZIN A   1      18.992   1.094  16.711  0.00  0.00    -0.001 A 
ATOM      9  C32 ZIN A   1      18.772  -0.166  17.248  0.00  0.00     0.074 A 
ATOM     10  C31 ZIN A   1      18.847  -1.287  16.433  0.00  0.00     0.038 A 
ATOM     11  C30 ZIN A   1      19.149  -1.145  15.092  0.00  0.00     0.012 A 
BRANCH   8  12
ATOM     12  C2  ZIN A   1      18.906   2.314  17.593  0.00  0.00     0.205 C 
BRANCH  12  13
ATOM     13  O1  ZIN A   1      19.684   2.105  18.773  0.00  0.00    -0.396 OA
ATOM     14  H34 ZIN A   1      20.382   1.443  18.673  0.00  0.00     0.209 HD
ENDBRANCH  12  13
ENDBRANCH   8  12
BRANCH   9  15
ATOM     15  O33 ZIN A   1      18.475  -0.303  18.567  0.00  0.00    -0.360 OA
ATOM     16  H68 ZIN A   1      19.251  -0.369  19.140  0.00  0.00     0.217 HD
ENDBRANCH   9  15
ENDBRANCH   5   6
BRANCH   5  17
ATOM     17  O8  ZIN A   1      21.109   0.472  12.947  0.00  0.00    -0.389 OA
ATOM     18  H38 ZIN A   1      21.540  -0.163  12.360  0.00  0.00     0.210 HD
ENDBRANCH   5  17
ENDBRANCH   4   5
ENDBRANCH   1   4
BRANCH   1  19
ATOM     19  C13 ZIN A   1      18.583   1.370  10.156  0.00  0.00     0.232 C 
BRANCH  19  20
ATOM     20  C14 ZIN A   1      19.323   0.439   9.193  0.00  0.00     0.027 C 
BRANCH  20  21
ATOM     21  C15 ZIN A   1      18.871   0.725   7.759  0.00  0.00     0.002 C 
BRANCH  21  22
ATOM     22  C16 ZIN A   1      17.657  -0.142   7.425  0.00  0.00     0.002 C 
BRANCH  22  23
ATOM     23  C17 ZIN A   1      17.798  -0.690   6.003  0.00  0.00     0.026 C 
BRANCH  23  24
ATOM     24  C18 ZIN A   1      19.230  -0.468   5.512  0.00  0.00     0.167 C 
BRANCH  24  25
ATOM     25  O19 ZIN A   1      19.725  -1.674   4.926  0.00  0.00    -0.391 OA
BRANCH  25  26
ATOM     26  C20 ZIN A   1      19.088  -2.858   5.409  0.00  0.00     0.167 C 
BRANCH  26  27
ATOM     27  C21 ZIN A   1      20.016  -3.567   6.398  0.00  0.00     0.027 C 
BRANCH  27  28
ATOM     28  C22 ZIN A   1      19.225  -4.627   7.168  0.00  0.00     0.007 C 
BRANCH  28  29
ATOM     29  C23 ZIN A   1      18.057  -3.961   7.899  0.00  0.00     0.038 C 
BRANCH  29  30
ATOM     30  C24 ZIN A   1      18.435  -3.724   9.339  0.00  0.00    -0.058 A 
ATOM     31  C29 ZIN A   1      19.426  -4.487   9.927  0.00  0.00     0.007 A 
ATOM     32  C28 ZIN A   1      19.775  -4.268  11.246  0.00  0.00     0.001 A 
ATOM     33  C27 ZIN A   1      19.127  -3.290  11.979  0.00  0.00     0.000 A 
ATOM     34  C26 ZIN A   1      18.133  -2.532  11.392  0.00  0.00     0.001 A 
ATOM     35  C25 ZIN A   1      17.787  -2.749  10.071  0.00  0.00     0.007 A 
ENDBRANCH  29  30
ENDBRANCH  28  29
ENDBRANCH  27  28
ENDBRANCH  26  27
ENDBRANCH  25  26
ENDBRANCH  24  25
ENDBRANCH  23  24
ENDBRANCH  22  23
ENDBRANCH  21  22
ENDBRANCH  20  21
ENDBRANCH  19  20
ENDBRANCH   1  19
TORSDOF 19
ENDMDL
MODEL 5
REMARK VINA RESULT:      -6.1      2.855      5.776
REMARK  19 active torsions:
REMARK  status: ('A' for Active; 'I' for Inactive)
REMARK    1  A    between atoms: O1_1  and  C2_2 
REMARK    2  A    between atoms: C2_2  and  C3_3 
REMARK    3  A    between atoms: C5_5  and  C6_6 
REMARK    4  A    between atoms: C6_6  and  O8_7 
REMARK    5  A    between atoms: C6_6  and  C9_8 
REMARK    6  A    between atoms: C9_8  and  N10_9 
REMARK    7  A    between atoms: N10_9  and  C13_12 
REMARK    8  A    between atoms: C13_12  and  C14_13 
REMARK    9  A    between atoms: C14_13  and  C15_14 
REMARK   10  A    between atoms: C15_14  and  C16_15 
REMARK   11  A    between atoms: C16_15  and  C17_16 
REMARK   12  A    between atoms: C17_16  and  C18_17 
REMARK   13  A    between atoms: C18_17  and  O19_18 
REMARK   14  A    between atoms: O19_18  and  C20_19 
REMARK   15  A    between atoms: C20_19  and  C21_20 
REMARK   16  A    between atoms: C21_20  and  C22_21 
REMARK   17  A    between atoms: C22_21  and  C23_22 
REMARK   18  A    between atoms: C23_22  and  C24_23 
REMARK   19  A    between atoms: C32_31  and  O33_32 
ROOT
ATOM      1  N10 ZIN A   1      18.904   1.360  10.772  0.00  0.00    -0.072 N 
ATOM      2  H11 ZIN A   1      19.141   0.786  11.567  0.00  0.00     0.277 HD
ATOM      3  H12 ZIN A   1      19.683   1.961  10.547  0.00  0.00     0.277 HD
ENDROOT
BRANCH   1   4
ATOM      4  C9  ZIN A   1      18.599   0.501   9.620  0.00  0.00     0.268 C 
BRANCH   4   5
ATOM      5  C6  ZIN A   1      18.874   1.269   8.326  0.00  0.00     0.176 C 
BRANCH   5   6
ATOM      6  C5  ZIN A   1      19.029   0.295   7.187  0.00  0.00    -0.027 A 
ATOM      7  C4  ZIN A   1      19.132  -1.060   7.447  0.00  0.00     0.022 A 
ATOM      8  C3  ZIN A   1      19.275  -1.955   6.405  0.00  0.00    -0.001 A 
ATOM      9  C32 ZIN A   1      19.321  -1.495   5.097  0.00  0.00     0.074 A 
ATOM     10  C31 ZIN A   1      19.213  -0.136   4.839  0.00  0.00     0.038 A 
ATOM     11  C30 ZIN A   1      19.069   0.755   5.885  0.00  0.00     0.012 A 
BRANCH   8  12
ATOM     12  C2  ZIN A   1      19.386  -3.431   6.689  0.00  0.00     0.205 C 
BRANCH  12  13
ATOM     13  O1  ZIN A   1      20.742  -3.849   6.518  0.00  0.00    -0.396 OA
ATOM     14  H34 ZIN A   1      21.339  -3.142   6.235  0.00  0.00     0.209 HD
ENDBRANCH  12  13
ENDBRANCH   8  12
BRANCH   9  15
ATOM     15  O33 ZIN A   1      19.462  -2.373   4.070  0.00  0.00    -0.360 OA
ATOM     16  H68 ZIN A   1      18.921  -3.170   4.156  0.00  0.00     0.217 HD
ENDBRANCH   9  15
ENDBRANCH   5   6
BRANCH   5  17
ATOM     17  O8  ZIN A   1      20.074   2.031   8.469  0.00  0.00    -0.389 OA
ATOM     18  H38 ZIN A   1      20.649   2.010   7.691  0.00  0.00     0.210 HD
ENDBRANCH   5  17
ENDBRANCH   4   5
ENDBRANCH   1   4
BRANCH   1  19
ATOM     19  C13 ZIN A   1      17.729   2.181  11.095  0.00  0.00     0.232 C 
BRANCH  19  20
ATOM     20  C14 ZIN A   1      18.084   3.662  10.938  0.00  0.00     0.027 C 
BRANCH  20  21
ATOM     21  C15 ZIN A   1      19.085   4.064  12.023  0.00  0.00     0.002 C 
BRANCH  21  22
ATOM     22  C16 ZIN A   1      18.360   4.840  13.124  0.00  0.00     0.002 C 
BRANCH  22  23
ATOM     23  C17 ZIN A   1      18.942   4.458  14.486  0.00  0.00     0.026 C 
BRANCH  23  24
ATOM     24  C18 ZIN A   1      18.319   3.141  14.954  0.00  0.00     0.167 C 
BRANCH  24  25
ATOM     25  O19 ZIN A   1      19.352   2.254  15.392  0.00  0.00    -0.391 OA
BRANCH  25  26
ATOM     26  C20 ZIN A   1      19.410   1.025  14.665  0.00  0.00     0.167 C 
BRANCH  26  27
ATOM     27  C21 ZIN A   1      17.988   0.534  14.383  0.00  0.00     0.027 C 
BRANCH  27  28
ATOM     28  C22 ZIN A   1      18.017  -0.967  14.086  0.00  0.00     0.007 C 
BRANCH  28  29
ATOM     29  C23 ZIN A   1      17.490  -1.217  12.672  0.00  0.00     0.038 C 
BRANCH  29  30
ATOM     30  C24 ZIN A   1      18.180  -2.422  12.084  0.00  0.00    -0.058 A 
ATOM     31  C29 ZIN A   1      17.433  -3.483  11.610  0.00  0.00     0.007 A 
ATOM     32  C28 ZIN A   1      18.066  -4.586  11.068  0.00  0.00     0.001 A 
ATOM     33  C27 ZIN A   1      19.447  -4.629  11.006  0.00  0.00     0.000 A 
ATOM     34  C26 ZIN A   1      20.194  -3.570  11.484  0.00  0.00     0.001 A 
ATOM     35  C25 ZIN A   1      19.560  -2.465  12.023  0.00  0.00     0.007 A 
ENDBRANCH  29  30
ENDBRANCH  28  29
ENDBRANCH  27  28
ENDBRANCH  26  27
ENDBRANCH  25  26
ENDBRANCH  24  25
ENDBRANCH  23  24
ENDBRANCH  22  23
ENDBRANCH  21  22
ENDBRANCH  20  21
ENDBRANCH  19  20
ENDBRANCH   1  19
TORSDOF 19
ENDMDL
MODEL 6
REMARK VINA RESULT:      -6.1      2.770      7.591
REMARK  19 active torsions:
REMARK  status: ('A' for Active; 'I' for Inactive)
REMARK    1  A    between atoms: O1_1  and  C2_2 
REMARK    2  A    between atoms: C2_2  and  C3_3 
REMARK    3  A    between atoms: C5_5  and  C6_6 
REMARK    4  A    between atoms: C6_6  and  O8_7 
REMARK    5  A    between atoms: C6_6  and  C9_8 
REMARK    6  A    between atoms: C9_8  and  N10_9 
REMARK    7  A    between atoms: N10_9  and  C13_12 
REMARK    8  A    between atoms: C13_12  and  C14_13 
REMARK    9  A    between atoms: C14_13  and  C15_14 
REMARK   10  A    between atoms: C15_14  and  C16_15 
REMARK   11  A    between atoms: C16_15  and  C17_16 
REMARK   12  A    between atoms: C17_16  and  C18_17 
REMARK   13  A    between atoms: C18_17  and  O19_18 
REMARK   14  A    between atoms: O19_18  and  C20_19 
REMARK   15  A    between atoms: C20_19  and  C21_20 
REMARK   16  A    between atoms: C21_20  and  C22_21 
REMARK   17  A    between atoms: C22_21  and  C23_22 
REMARK   18  A    between atoms: C23_22  and  C24_23 
REMARK   19  A    between atoms: C32_31  and  O33_32 
ROOT
ATOM      1  N10 ZIN A   1      18.862   2.710  11.853  0.00  0.00    -0.072 N 
ATOM      2  H11 ZIN A   1      18.815   3.662  12.181  0.00  0.00     0.277 HD
ATOM      3  H12 ZIN A   1      19.828   2.437  11.747  0.00  0.00     0.277 HD
ENDROOT
BRANCH   1   4
ATOM      4  C9  ZIN A   1      18.207   1.823  12.825  0.00  0.00     0.268 C 
BRANCH   4   5
ATOM      5  C6  ZIN A   1      19.190   0.735  13.264  0.00  0.00     0.176 C 
BRANCH   5   6
ATOM      6  C5  ZIN A   1      19.032   0.483  14.741  0.00  0.00    -0.027 A 
ATOM      7  C4  ZIN A   1      18.980   1.548  15.621  0.00  0.00     0.022 A 
ATOM      8  C3  ZIN A   1      18.836   1.319  16.976  0.00  0.00    -0.001 A 
ATOM      9  C32 ZIN A   1      18.749   0.020  17.454  0.00  0.00     0.074 A 
ATOM     10  C31 ZIN A   1      18.797  -1.047  16.568  0.00  0.00     0.038 A 
ATOM     11  C30 ZIN A   1      18.940  -0.813  15.214  0.00  0.00     0.012 A 
BRANCH   8  12
ATOM     12  C2  ZIN A   1      18.779   2.481  17.935  0.00  0.00     0.205 C 
BRANCH  12  13
ATOM     13  O1  ZIN A   1      19.694   2.257  19.010  0.00  0.00    -0.396 OA
ATOM     14  H34 ZIN A   1      20.368   1.590  18.820  0.00  0.00     0.209 HD
ENDBRANCH  12  13
ENDBRANCH   8  12
BRANCH   9  15
ATOM     15  O33 ZIN A   1      18.609  -0.208  18.786  0.00  0.00    -0.360 OA
ATOM     16  H68 ZIN A   1      18.500   0.595  19.313  0.00  0.00     0.217 HD
ENDBRANCH   9  15
ENDBRANCH   5   6
BRANCH   5  17
ATOM     17  O8  ZIN A   1      20.526   1.162  12.993  0.00  0.00    -0.389 OA
ATOM     18  H38 ZIN A   1      20.588   1.867  12.333  0.00  0.00     0.210 HD
ENDBRANCH   5  17
ENDBRANCH   4   5
ENDBRANCH   1   4
BRANCH   1  19
ATOM     19  C13 ZIN A   1      18.178   2.604  10.557  0.00  0.00     0.232 C 
BRANCH  19  20
ATOM     20  C14 ZIN A   1      18.555   1.280   9.888  0.00  0.00     0.027 C 
BRANCH  20  21
ATOM     21  C15 ZIN A   1      18.989   1.543   8.445  0.00  0.00     0.002 C 
BRANCH  21  22
ATOM     22  C16 ZIN A   1      18.966   0.232   7.658  0.00  0.00     0.002 C 
BRANCH  22  23
ATOM     23  C17 ZIN A   1      19.184  -0.941   8.616  0.00  0.00     0.026 C 
BRANCH  23  24
ATOM     24  C18 ZIN A   1      18.269  -2.101   8.218  0.00  0.00     0.167 C 
BRANCH  24  25
ATOM     25  O19 ZIN A   1      19.058  -3.269   7.980  0.00  0.00    -0.391 OA
BRANCH  25  26
ATOM     26  C20 ZIN A   1      18.413  -4.249   7.163  0.00  0.00     0.167 C 
BRANCH  26  27
ATOM     27  C21 ZIN A   1      17.339  -4.967   7.982  0.00  0.00     0.027 C 
BRANCH  27  28
ATOM     28  C22 ZIN A   1      17.992  -6.063   8.828  0.00  0.00     0.007 C 
BRANCH  28  29
ATOM     29  C23 ZIN A   1      17.524  -5.935  10.279  0.00  0.00     0.038 C 
BRANCH  29  30
ATOM     30  C24 ZIN A   1      18.233  -4.778  10.935  0.00  0.00    -0.058 A 
ATOM     31  C29 ZIN A   1      17.501  -3.742  11.484  0.00  0.00     0.007 A 
ATOM     32  C28 ZIN A   1      18.151  -2.682  12.090  0.00  0.00     0.001 A 
ATOM     33  C27 ZIN A   1      19.532  -2.657  12.139  0.00  0.00     0.000 A 
ATOM     34  C26 ZIN A   1      20.263  -3.690  11.585  0.00  0.00     0.001 A 
ATOM     35  C25 ZIN A   1      19.613  -4.751  10.983  0.00  0.00     0.007 A 
ENDBRANCH  29  30
ENDBRANCH  28  29
ENDBRANCH  27  28
ENDBRANCH  26  27
ENDBRANCH  25  26
ENDBRANCH  24  25
ENDBRANCH  23  24
ENDBRANCH  22  23
ENDBRANCH  21  22
ENDBRANCH  20  21
ENDBRANCH  19  20
ENDBRANCH   1  19
TORSDOF 19
ENDMDL
MODEL 7
REMARK VINA RESULT:      -6.0      2.808      5.923
REMARK  19 active torsions:
REMARK  status: ('A' for Active; 'I' for Inactive)
REMARK    1  A    between atoms: O1_1  and  C2_2 
REMARK    2  A    between atoms: C2_2  and  C3_3 
REMARK    3  A    between atoms: C5_5  and  C6_6 
REMARK    4  A    between atoms: C6_6  and  O8_7 
REMARK    5  A    between atoms: C6_6  and  C9_8 
REMARK    6  A    between atoms: C9_8  and  N10_9 
REMARK    7  A    between atoms: N10_9  and  C13_12 
REMARK    8  A    between atoms: C13_12  and  C14_13 
REMARK    9  A    between atoms: C14_13  and  C15_14 
REMARK   10  A    between atoms: C15_14  and  C16_15 
REMARK   11  A    between atoms: C16_15  and  C17_16 
REMARK   12  A    between atoms: C17_16  and  C18_17 
REMARK   13  A    between atoms: C18_17  and  O19_18 
REMARK   14  A    between atoms: O19_18  and  C20_19 
REMARK   15  A    between atoms: C20_19  and  C21_20 
REMARK   16  A    between atoms: C21_20  and  C22_21 
REMARK   17  A    between atoms: C22_21  and  C23_22 
REMARK   18  A    between atoms: C23_22  and  C24_23 
REMARK   19  A    between atoms: C32_31  and  O33_32 
ROOT
ATOM      1  N10 ZIN A   1      17.843   2.612  10.142  0.00  0.00    -0.072 N 
ATOM      2  H11 ZIN A   1      16.937   2.952   9.855  0.00  0.00     0.277 HD
ATOM      3  H12 ZIN A   1      17.726   1.857  10.802  0.00  0.00     0.277 HD
ENDROOT
BRANCH   1   4
ATOM      4  C9  ZIN A   1      18.580   2.126   8.968  0.00  0.00     0.268 C 
BRANCH   4   5
ATOM      5  C6  ZIN A   1      18.812   0.620   9.101  0.00  0.00     0.176 C 
BRANCH   5   6
ATOM      6  C5  ZIN A   1      19.009   0.020   7.733  0.00  0.00    -0.027 A 
ATOM      7  C4  ZIN A   1      19.138  -1.350   7.591  0.00  0.00     0.022 A 
ATOM      8  C3  ZIN A   1      19.318  -1.902   6.338  0.00  0.00    -0.001 A 
ATOM      9  C32 ZIN A   1      19.377  -1.082   5.221  0.00  0.00     0.074 A 
ATOM     10  C31 ZIN A   1      19.244   0.292   5.365  0.00  0.00     0.038 A 
ATOM     11  C30 ZIN A   1      19.062   0.839   6.620  0.00  0.00     0.012 A 
BRANCH   8  12
ATOM     12  C2  ZIN A   1      19.458  -3.395   6.185  0.00  0.00     0.205 C 
BRANCH  12  13
ATOM     13  O1  ZIN A   1      20.613  -3.842   6.899  0.00  0.00    -0.396 OA
ATOM     14  H34 ZIN A   1      21.113  -3.131   7.321  0.00  0.00     0.209 HD
ENDBRANCH  12  13
ENDBRANCH   8  12
BRANCH   9  15
ATOM     15  O33 ZIN A   1      19.556  -1.622   3.987  0.00  0.00    -0.360 OA
ATOM     16  H68 ZIN A   1      19.644  -0.968   3.280  0.00  0.00     0.217 HD
ENDBRANCH   9  15
ENDBRANCH   5   6
BRANCH   5  17
ATOM     17  O8  ZIN A   1      17.678   0.016   9.727  0.00  0.00    -0.389 OA
ATOM     18  H38 ZIN A   1      17.369  -0.789   9.290  0.00  0.00     0.210 HD
ENDBRANCH   5  17
ENDBRANCH   4   5
ENDBRANCH   1   4
BRANCH   1  19
ATOM     19  C13 ZIN A   1      18.596   3.703  10.775  0.00  0.00     0.232 C 
BRANCH  19  20
ATOM     20  C14 ZIN A   1      18.010   3.992  12.159  0.00  0.00     0.027 C 
BRANCH  20  21
ATOM     21  C15 ZIN A   1      19.075   4.653  13.037  0.00  0.00     0.002 C 
BRANCH  21  22
ATOM     22  C16 ZIN A   1      18.574   4.725  14.480  0.00  0.00     0.002 C 
BRANCH  22  23
ATOM     23  C17 ZIN A   1      19.221   3.608  15.301  0.00  0.00     0.026 C 
BRANCH  23  24
ATOM     24  C18 ZIN A   1      19.549   4.130  16.702  0.00  0.00     0.167 C 
BRANCH  24  25
ATOM     25  O19 ZIN A   1      19.967   3.041  17.529  0.00  0.00    -0.391 OA
BRANCH  25  26
ATOM     26  C20 ZIN A   1      18.951   2.559  18.412  0.00  0.00     0.167 C 
BRANCH  26  27
ATOM     27  C21 ZIN A   1      18.859   1.037  18.297  0.00  0.00     0.027 C 
BRANCH  27  28
ATOM     28  C22 ZIN A   1      17.446   0.644  17.856  0.00  0.00     0.007 C 
BRANCH  28  29
ATOM     29  C23 ZIN A   1      17.494  -0.705  17.136  0.00  0.00     0.038 C 
BRANCH  29  30
ATOM     30  C24 ZIN A   1      18.026  -0.510  15.739  0.00  0.00    -0.058 A 
ATOM     31  C29 ZIN A   1      19.107  -1.253  15.302  0.00  0.00     0.007 A 
ATOM     32  C28 ZIN A   1      19.593  -1.077  14.019  0.00  0.00     0.001 A 
ATOM     33  C27 ZIN A   1      19.002  -0.153  13.178  0.00  0.00     0.000 A 
ATOM     34  C26 ZIN A   1      17.925   0.593  13.617  0.00  0.00     0.001 A 
ATOM     35  C25 ZIN A   1      17.437   0.414  14.898  0.00  0.00     0.007 A 
ENDBRANCH  29  30
ENDBRANCH  28  29
ENDBRANCH  27  28
ENDBRANCH  26  27
ENDBRANCH  25  26
ENDBRANCH  24  25
ENDBRANCH  23  24
ENDBRANCH  22  23
ENDBRANCH  21  22
ENDBRANCH  20  21
ENDBRANCH  19  20
ENDBRANCH   1  19
TORSDOF 19
ENDMDL
MODEL 8
REMARK VINA RESULT:      -5.9      2.772      6.973
REMARK  19 active torsions:
REMARK  status: ('A' for Active; 'I' for Inactive)
REMARK    1  A    between atoms: O1_1  and  C2_2 
REMARK    2  A    between atoms: C2_2  and  C3_3 
REMARK    3  A    between atoms: C5_5  and  C6_6 
REMARK    4  A    between atoms: C6_6  and  O8_7 
REMARK    5  A    between atoms: C6_6  and  C9_8 
REMARK    6  A    between atoms: C9_8  and  N10_9 
REMARK    7  A    between atoms: N10_9  and  C13_12 
REMARK    8  A    between atoms: C13_12  and  C14_13 
REMARK    9  A    between atoms: C14_13  and  C15_14 
REMARK   10  A    between atoms: C15_14  and  C16_15 
REMARK   11  A    between atoms: C16_15  and  C17_16 
REMARK   12  A    between atoms: C17_16  and  C18_17 
REMARK   13  A    between atoms: C18_17  and  O19_18 
REMARK   14  A    between atoms: O19_18  and  C20_19 
REMARK   15  A    between atoms: C20_19  and  C21_20 
REMARK   16  A    between atoms: C21_20  and  C22_21 
REMARK   17  A    between atoms: C22_21  and  C23_22 
REMARK   18  A    between atoms: C23_22  and  C24_23 
REMARK   19  A    between atoms: C32_31  and  O33_32 
ROOT
ATOM      1  N10 ZIN A   1      17.763   1.994  12.326  0.00  0.00    -0.072 N 
ATOM      2  H11 ZIN A   1      17.124   2.504  12.916  0.00  0.00     0.277 HD
ATOM      3  H12 ZIN A   1      17.803   2.430  11.416  0.00  0.00     0.277 HD
ENDROOT
BRANCH   1   4
ATOM      4  C9  ZIN A   1      19.103   2.003  12.930  0.00  0.00     0.268 C 
BRANCH   4   5
ATOM      5  C6  ZIN A   1      19.489   0.579  13.332  0.00  0.00     0.176 C 
BRANCH   5   6
ATOM      6  C5  ZIN A   1      19.212   0.378  14.799  0.00  0.00    -0.027 A 
ATOM      7  C4  ZIN A   1      19.146   1.470  15.645  0.00  0.00     0.022 A 
ATOM      8  C3  ZIN A   1      18.891   1.288  16.990  0.00  0.00    -0.001 A 
ATOM      9  C32 ZIN A   1      18.707   0.009  17.494  0.00  0.00     0.074 A 
ATOM     10  C31 ZIN A   1      18.769  -1.085  16.642  0.00  0.00     0.038 A 
ATOM     11  C30 ZIN A   1      19.023  -0.898  15.297  0.00  0.00     0.012 A 
BRANCH   8  12
ATOM     12  C2  ZIN A   1      18.819   2.478  17.912  0.00  0.00     0.205 C 
BRANCH  12  13
ATOM     13  O1  ZIN A   1      19.659   2.255  19.046  0.00  0.00    -0.396 OA
ATOM     14  H34 ZIN A   1      19.176   2.087  19.867  0.00  0.00     0.209 HD
ENDBRANCH  12  13
ENDBRANCH   8  12
BRANCH   9  15
ATOM     15  O33 ZIN A   1      18.457  -0.174  18.818  0.00  0.00    -0.360 OA
ATOM     16  H68 ZIN A   1      19.156  -0.649  19.288  0.00  0.00     0.217 HD
ENDBRANCH   9  15
ENDBRANCH   5   6
BRANCH   5  17
ATOM     17  O8  ZIN A   1      20.881   0.373  13.078  0.00  0.00    -0.389 OA
ATOM     18  H38 ZIN A   1      21.410   0.233  13.874  0.00  0.00     0.210 HD
ENDBRANCH   5  17
ENDBRANCH   4   5
ENDBRANCH   1   4
BRANCH   1  19
ATOM     19  C13 ZIN A   1      17.299   0.607  12.185  0.00  0.00     0.232 C 
BRANCH  19  20
ATOM     20  C14 ZIN A   1      17.266   0.229  10.702  0.00  0.00     0.027 C 
BRANCH  20  21
ATOM     21  C15 ZIN A   1      17.731  -1.219  10.535  0.00  0.00     0.002 C 
BRANCH  21  22
ATOM     22  C16 ZIN A   1      17.427  -2.003  11.813  0.00  0.00     0.002 C 
BRANCH  22  23
ATOM     23  C17 ZIN A   1      18.582  -2.962  12.109  0.00  0.00     0.026 C 
BRANCH  23  24
ATOM     24  C18 ZIN A   1      19.588  -2.919  10.956  0.00  0.00     0.167 C 
BRANCH  24  25
ATOM     25  O19 ZIN A   1      19.762  -4.236  10.427  0.00  0.00    -0.391 OA
BRANCH  25  26
ATOM     26  C20 ZIN A   1      18.713  -4.653   9.552  0.00  0.00     0.167 C 
BRANCH  26  27
ATOM     27  C21 ZIN A   1      19.298  -4.980   8.176  0.00  0.00     0.027 C 
BRANCH  27  28
ATOM     28  C22 ZIN A   1      18.565  -4.168   7.105  0.00  0.00     0.007 C 
BRANCH  28  29
ATOM     29  C23 ZIN A   1      19.587  -3.504   6.180  0.00  0.00     0.038 C 
BRANCH  29  30
ATOM     30  C24 ZIN A   1      19.309  -2.024   6.105  0.00  0.00    -0.058 A 
ATOM     31  C29 ZIN A   1      19.287  -1.388   4.878  0.00  0.00     0.007 A 
ATOM     32  C28 ZIN A   1      19.028  -0.031   4.808  0.00  0.00     0.001 A 
ATOM     33  C27 ZIN A   1      18.799   0.689   5.966  0.00  0.00     0.000 A 
ATOM     34  C26 ZIN A   1      18.826   0.053   7.192  0.00  0.00     0.001 A 
ATOM     35  C25 ZIN A   1      19.081  -1.304   7.261  0.00  0.00     0.007 A 
ENDBRANCH  29  30
ENDBRANCH  28  29
ENDBRANCH  27  28
ENDBRANCH  26  27
ENDBRANCH  25  26
ENDBRANCH  24  25
ENDBRANCH  23  24
ENDBRANCH  22  23
ENDBRANCH  21  22
ENDBRANCH  20  21
ENDBRANCH  19  20
ENDBRANCH   1  19
TORSDOF 19
ENDMDL
MODEL 9
REMARK VINA RESULT:      -5.9      2.542      5.563
REMARK  19 active torsions:
REMARK  status: ('A' for Active; 'I' for Inactive)
REMARK    1  A    between atoms: O1_1  and  C2_2 
REMARK    2  A    between atoms: C2_2  and  C3_3 
REMARK    3  A    between atoms: C5_5  and  C6_6 
REMARK    4  A    between atoms: C6_6  and  O8_7 
REMARK    5  A    between atoms: C6_6  and  C9_8 
REMARK    6  A    between atoms: C9_8  and  N10_9 
REMARK    7  A    between atoms: N10_9  and  C13_12 
REMARK    8  A    between atoms: C13_12  and  C14_13 
REMARK    9  A    between atoms: C14_13  and  C15_14 
REMARK   10  A    between atoms: C15_14  and  C16_15 
REMARK   11  A    between atoms: C16_15  and  C17_16 
REMARK   12  A    between atoms: C17_16  and  C18_17 
REMARK   13  A    between atoms: C18_17  and  O19_18 
REMARK   14  A    between atoms: O19_18  and  C20_19 
REMARK   15  A    between atoms: C20_19  and  C21_20 
REMARK   16  A    between atoms: C21_20  and  C22_21 
REMARK   17  A    between atoms: C22_21  and  C23_22 
REMARK   18  A    between atoms: C23_22  and  C24_23 
REMARK   19  A    between atoms: C32_31  and  O33_32 
ROOT
ATOM      1  N10 ZIN A   1      18.280   2.223  11.652  0.00  0.00    -0.072 N 
ATOM      2  H11 ZIN A   1      17.862   1.463  12.168  0.00  0.00     0.277 HD
ATOM      3  H12 ZIN A   1      19.282   2.202  11.774  0.00  0.00     0.277 HD
ENDROOT
BRANCH   1   4
ATOM      4  C9  ZIN A   1      17.958   2.084  10.225  0.00  0.00     0.268 C 
BRANCH   4   5
ATOM      5  C6  ZIN A   1      19.211   1.655   9.460  0.00  0.00     0.176 C 
BRANCH   5   6
ATOM      6  C5  ZIN A   1      18.857   0.550   8.498  0.00  0.00    -0.027 A 
ATOM      7  C4  ZIN A   1      19.036   0.734   7.139  0.00  0.00     0.022 A 
ATOM      8  C3  ZIN A   1      18.713  -0.277   6.256  0.00  0.00    -0.001 A 
ATOM      9  C32 ZIN A   1      18.203  -1.476   6.731  0.00  0.00     0.074 A 
ATOM     10  C31 ZIN A   1      18.028  -1.660   8.095  0.00  0.00     0.038 A 
ATOM     11  C30 ZIN A   1      18.354  -0.646   8.975  0.00  0.00     0.012 A 
BRANCH   8  12
ATOM     12  C2  ZIN A   1      18.909  -0.075   4.775  0.00  0.00     0.205 C 
BRANCH  12  13
ATOM     13  O1  ZIN A   1      19.702  -1.141   4.249  0.00  0.00    -0.396 OA
ATOM     14  H34 ZIN A   1      19.194  -1.929   4.010  0.00  0.00     0.209 HD
ENDBRANCH  12  13
ENDBRANCH   8  12
BRANCH   9  15
ATOM     15  O33 ZIN A   1      17.883  -2.472   5.864  0.00  0.00    -0.360 OA
ATOM     16  H68 ZIN A   1      17.059  -2.931   6.079  0.00  0.00     0.217 HD
ENDBRANCH   9  15
ENDBRANCH   5   6
BRANCH   5  17
ATOM     17  O8  ZIN A   1      20.196   1.186  10.383  0.00  0.00    -0.389 OA
ATOM     18  H38 ZIN A   1      20.096   1.538  11.278  0.00  0.00     0.210 HD
ENDBRANCH   5  17
ENDBRANCH   4   5
ENDBRANCH   1   4
BRANCH   1  19
ATOM     19  C13 ZIN A   1      17.753   3.500  12.151  0.00  0.00     0.232 C 
BRANCH  19  20
ATOM     20  C14 ZIN A   1      18.848   4.567  12.080  0.00  0.00     0.027 C 
BRANCH  20  21
ATOM     21  C15 ZIN A   1      19.391   4.834  13.486  0.00  0.00     0.002 C 
BRANCH  21  22
ATOM     22  C16 ZIN A   1      18.537   4.089  14.513  0.00  0.00     0.002 C 
BRANCH  22  23
ATOM     23  C17 ZIN A   1      19.274   4.045  15.853  0.00  0.00     0.026 C 
BRANCH  23  24
ATOM     24  C18 ZIN A   1      19.355   2.597  16.342  0.00  0.00     0.167 C 
BRANCH  24  25
ATOM     25  O19 ZIN A   1      18.736   1.735  15.384  0.00  0.00    -0.391 OA
BRANCH  25  26
ATOM     26  C20 ZIN A   1      18.266   0.501  15.931  0.00  0.00     0.167 C 
BRANCH  26  27
ATOM     27  C21 ZIN A   1      18.964  -0.666  15.229  0.00  0.00     0.027 C 
BRANCH  27  28
ATOM     28  C22 ZIN A   1      18.165  -1.063  13.985  0.00  0.00     0.007 C 
BRANCH  28  29
ATOM     29  C23 ZIN A   1      19.106  -1.156  12.783  0.00  0.00     0.038 C 
BRANCH  29  30
ATOM     30  C24 ZIN A   1      18.890  -2.470  12.076  0.00  0.00    -0.058 A 
ATOM     31  C29 ZIN A   1      19.975  -3.236  11.695  0.00  0.00     0.007 A 
ATOM     32  C28 ZIN A   1      19.777  -4.443  11.050  0.00  0.00     0.001 A 
ATOM     33  C27 ZIN A   1      18.493  -4.879  10.781  0.00  0.00     0.000 A 
ATOM     34  C26 ZIN A   1      17.408  -4.111  11.158  0.00  0.00     0.001 A 
ATOM     35  C25 ZIN A   1      17.607  -2.906  11.806  0.00  0.00     0.007 A 
ENDBRANCH  29  30
ENDBRANCH  28  29
ENDBRANCH  27  28
ENDBRANCH  26  27
ENDBRANCH  25  26
ENDBRANCH  24  25
ENDBRANCH  23  24
ENDBRANCH  22  23
ENDBRANCH  21  22
ENDBRANCH  20  21
ENDBRANCH  19  20
ENDBRANCH   1  19
TORSDOF 19
ENDMDL
