MODEL 1
REMARK VINA RESULT:      -7.2      0.000      0.000
REMARK  3 active torsions:
REMARK  status: ('A' for Active; 'I' for Inactive)
REMARK    1  A    between atoms: C4_4  and  C7_7 
REMARK       I    between atoms: C7_7  and  N9_9 
REMARK    2  A    between atoms: N9_9  and  C10_10 
REMARK    3  A    between atoms: C13_13  and  C14_14 
ROOT
ATOM      1  C1  ZIN A   1      19.651   4.518  12.576  0.00  0.00     0.081 C 
ATOM      2  C2  ZIN A   1      19.494   3.325  11.670  0.00  0.00     0.107 C 
ATOM      3  O3  ZIN A   1      20.213   2.212  11.894  0.00  0.00    -0.195 OA
ATOM      4  C4  ZIN A   1      18.623   3.374  10.622  0.00  0.00     0.144 C 
ATOM      5  C5  ZIN A   1      17.857   4.560  10.384  0.00  0.00     0.107 C 
ATOM      6  N6  ZIN A   1      17.250   5.502  10.194  0.00  0.00    -0.191 NA
ENDROOT
BRANCH   4   7
ATOM      7  C7  ZIN A   1      18.470   2.210   9.739  0.00  0.00     0.269 C 
ATOM      8  O8  ZIN A   1      17.481   1.506   9.826  0.00  0.00    -0.266 OA
ATOM      9  N9  ZIN A   1      19.424   1.922   8.832  0.00  0.00    -0.322 N 
ATOM     10  H23 ZIN A   1      20.246   2.436   8.813  0.00  0.00     0.169 HD
BRANCH   9  11
ATOM     11  C10 ZIN A   1      19.229   0.882   7.918  0.00  0.00     0.035 A 
ATOM     12  C19 ZIN A   1      19.426  -0.437   8.310  0.00  0.00     0.030 A 
ATOM     13  C18 ZIN A   1      19.238  -1.461   7.404  0.00  0.00     0.018 A 
ATOM     14  C13 ZIN A   1      18.849  -1.176   6.108  0.00  0.00     0.048 A 
ATOM     15  C12 ZIN A   1      18.646   0.133   5.716  0.00  0.00     0.018 A 
ATOM     16  C11 ZIN A   1      18.832   1.163   6.617  0.00  0.00     0.030 A 
BRANCH  14  17
ATOM     17  C14 ZIN A   1      18.645  -2.298   5.121  0.00  0.00     0.417 C 
ATOM     18  F15 ZIN A   1      18.908  -3.522   5.745  0.00  0.00    -0.166 F 
ATOM     19  F16 ZIN A   1      17.323  -2.282   4.663  0.00  0.00    -0.166 F 
ATOM     20  F17 ZIN A   1      19.516  -2.130   4.039  0.00  0.00    -0.166 F 
ENDBRANCH  14  17
ENDBRANCH   9  11
ENDBRANCH   4   7
TORSDOF 3
ENDMDL
MODEL 2
REMARK VINA RESULT:      -7.2      4.692      7.185
REMARK  3 active torsions:
REMARK  status: ('A' for Active; 'I' for Inactive)
REMARK    1  A    between atoms: C4_4  and  C7_7 
REMARK       I    between atoms: C7_7  and  N9_9 
REMARK    2  A    between atoms: N9_9  and  C10_10 
REMARK    3  A    between atoms: C13_13  and  C14_14 
ROOT
ATOM      1  C1  ZIN A   1      19.165  -4.386   6.641  0.00  0.00     0.081 C 
ATOM      2  C2  ZIN A   1      18.741  -3.154   7.397  0.00  0.00     0.107 C 
ATOM      3  O3  ZIN A   1      18.322  -3.258   8.670  0.00  0.00    -0.195 OA
ATOM      4  C4  ZIN A   1      18.783  -1.934   6.791  0.00  0.00     0.144 C 
ATOM      5  C5  ZIN A   1      19.230  -1.823   5.435  0.00  0.00     0.107 C 
ATOM      6  N6  ZIN A   1      19.584  -1.736   4.358  0.00  0.00    -0.191 NA
ENDROOT
BRANCH   4   7
ATOM      7  C7  ZIN A   1      18.370  -0.732   7.529  0.00  0.00     0.269 C 
ATOM      8  O8  ZIN A   1      17.300  -0.207   7.286  0.00  0.00    -0.266 OA
ATOM      9  N9  ZIN A   1      19.176  -0.212   8.475  0.00  0.00    -0.322 N 
ATOM     10  H23 ZIN A   1      20.061  -0.584   8.616  0.00  0.00     0.169 HD
BRANCH   9  11
ATOM     11  C10 ZIN A   1      18.738   0.864   9.253  0.00  0.00     0.035 A 
ATOM     12  C19 ZIN A   1      18.983   2.168   8.840  0.00  0.00     0.030 A 
ATOM     13  C18 ZIN A   1      18.554   3.228   9.614  0.00  0.00     0.018 A 
ATOM     14  C13 ZIN A   1      17.876   2.993  10.796  0.00  0.00     0.048 A 
ATOM     15  C12 ZIN A   1      17.626   1.697  11.207  0.00  0.00     0.018 A 
ATOM     16  C11 ZIN A   1      18.052   0.632  10.438  0.00  0.00     0.030 A 
BRANCH  14  17
ATOM     17  C14 ZIN A   1      17.410   4.153  11.638  0.00  0.00     0.417 C 
ATOM     18  F15 ZIN A   1      18.442   5.091  11.753  0.00  0.00    -0.166 F 
ATOM     19  F16 ZIN A   1      16.300   4.752  11.033  0.00  0.00    -0.166 F 
ATOM     20  F17 ZIN A   1      17.055   3.692  12.911  0.00  0.00    -0.166 F 
ENDBRANCH  14  17
ENDBRANCH   9  11
ENDBRANCH   4   7
TORSDOF 3
ENDMDL
MODEL 3
REMARK VINA RESULT:      -7.1      5.928      7.879
REMARK  3 active torsions:
REMARK  status: ('A' for Active; 'I' for Inactive)
REMARK    1  A    between atoms: C4_4  and  C7_7 
REMARK       I    between atoms: C7_7  and  N9_9 
REMARK    2  A    between atoms: N9_9  and  C10_10 
REMARK    3  A    between atoms: C13_13  and  C14_14 
ROOT
ATOM      1  C1  ZIN A   1      19.205   1.451   7.225  0.00  0.00     0.081 C 
ATOM      2  C2  ZIN A   1      18.770   1.264   8.655  0.00  0.00     0.107 C 
ATOM      3  O3  ZIN A   1      18.471   2.332   9.413  0.00  0.00    -0.195 OA
ATOM      4  C4  ZIN A   1      18.680   0.009   9.181  0.00  0.00     0.144 C 
ATOM      5  C5  ZIN A   1      18.997  -1.130   8.373  0.00  0.00     0.107 C 
ATOM      6  N6  ZIN A   1      19.250  -2.034   7.732  0.00  0.00    -0.191 NA
ENDROOT
BRANCH   4   7
ATOM      7  C7  ZIN A   1      18.255  -0.175  10.576  0.00  0.00     0.269 C 
ATOM      8  O8  ZIN A   1      17.245  -0.804  10.826  0.00  0.00    -0.266 OA
ATOM      9  N9  ZIN A   1      18.985   0.354  11.577  0.00  0.00    -0.322 N 
ATOM     10  H23 ZIN A   1      19.747   0.920  11.376  0.00  0.00     0.169 HD
BRANCH   9  11
ATOM     11  C10 ZIN A   1      18.645   0.088  12.907  0.00  0.00     0.035 A 
ATOM     12  C19 ZIN A   1      19.139  -1.047  13.539  0.00  0.00     0.030 A 
ATOM     13  C18 ZIN A   1      18.796  -1.310  14.851  0.00  0.00     0.018 A 
ATOM     14  C13 ZIN A   1      17.965  -0.442  15.537  0.00  0.00     0.048 A 
ATOM     15  C12 ZIN A   1      17.477   0.690  14.913  0.00  0.00     0.018 A 
ATOM     16  C11 ZIN A   1      17.816   0.960  13.601  0.00  0.00     0.030 A 
BRANCH  14  17
ATOM     17  C14 ZIN A   1      17.593  -0.733  16.968  0.00  0.00     0.417 C 
ATOM     18  F15 ZIN A   1      18.756  -0.904  17.727  0.00  0.00    -0.166 F 
ATOM     19  F16 ZIN A   1      16.851   0.335  17.483  0.00  0.00    -0.166 F 
ATOM     20  F17 ZIN A   1      16.826  -1.903  17.021  0.00  0.00    -0.166 F 
ENDBRANCH  14  17
ENDBRANCH   9  11
ENDBRANCH   4   7
TORSDOF 3
ENDMDL
MODEL 4
REMARK VINA RESULT:      -7.1      2.378      3.133
REMARK  3 active torsions:
REMARK  status: ('A' for Active; 'I' for Inactive)
REMARK    1  A    between atoms: C4_4  and  C7_7 
REMARK       I    between atoms: C7_7  and  N9_9 
REMARK    2  A    between atoms: N9_9  and  C10_10 
REMARK    3  A    between atoms: C13_13  and  C14_14 
ROOT
ATOM      1  C1  ZIN A   1      19.291   6.018  14.560  0.00  0.00     0.081 C 
ATOM      2  C2  ZIN A   1      19.089   5.152  13.343  0.00  0.00     0.107 C 
ATOM      3  O3  ZIN A   1      20.146   4.769  12.608  0.00  0.00    -0.195 OA
ATOM      4  C4  ZIN A   1      17.833   4.758  12.989  0.00  0.00     0.144 C 
ATOM      5  C5  ZIN A   1      16.707   5.166  13.773  0.00  0.00     0.107 C 
ATOM      6  N6  ZIN A   1      15.813   5.491  14.395  0.00  0.00    -0.191 NA
ENDROOT
BRANCH   4   7
ATOM      7  C7  ZIN A   1      17.636   3.913  11.802  0.00  0.00     0.269 C 
ATOM      8  O8  ZIN A   1      16.778   4.198  10.988  0.00  0.00    -0.266 OA
ATOM      9  N9  ZIN A   1      18.406   2.823  11.615  0.00  0.00    -0.322 N 
ATOM     10  H23 ZIN A   1      19.037   2.553  12.300  0.00  0.00     0.169 HD
BRANCH   9  11
ATOM     11  C10 ZIN A   1      18.294   2.082  10.435  0.00  0.00     0.035 A 
ATOM     12  C19 ZIN A   1      18.993   2.473   9.299  0.00  0.00     0.030 A 
ATOM     13  C18 ZIN A   1      18.877   1.742   8.133  0.00  0.00     0.018 A 
ATOM     14  C13 ZIN A   1      18.069   0.620   8.097  0.00  0.00     0.048 A 
ATOM     15  C12 ZIN A   1      17.378   0.225   9.227  0.00  0.00     0.018 A 
ATOM     16  C11 ZIN A   1      17.490   0.952  10.397  0.00  0.00     0.030 A 
BRANCH  14  17
ATOM     17  C14 ZIN A   1      17.944  -0.175   6.822  0.00  0.00     0.417 C 
ATOM     18  F15 ZIN A   1      18.139  -1.533   7.097  0.00  0.00    -0.166 F 
ATOM     19  F16 ZIN A   1      16.669   0.012   6.279  0.00  0.00    -0.166 F 
ATOM     20  F17 ZIN A   1      18.910   0.259   5.907  0.00  0.00    -0.166 F 
ENDBRANCH  14  17
ENDBRANCH   9  11
ENDBRANCH   4   7
TORSDOF 3
ENDMDL
MODEL 5
REMARK VINA RESULT:      -7.0      3.158      4.027
REMARK  3 active torsions:
REMARK  status: ('A' for Active; 'I' for Inactive)
REMARK    1  A    between atoms: C4_4  and  C7_7 
REMARK       I    between atoms: C7_7  and  N9_9 
REMARK    2  A    between atoms: N9_9  and  C10_10 
REMARK    3  A    between atoms: C13_13  and  C14_14 
ROOT
ATOM      1  C1  ZIN A   1      18.751   2.246  16.110  0.00  0.00     0.081 C 
ATOM      2  C2  ZIN A   1      18.900   2.123  14.616  0.00  0.00     0.107 C 
ATOM      3  O3  ZIN A   1      18.878   3.224  13.846  0.00  0.00    -0.195 OA
ATOM      4  C4  ZIN A   1      19.058   0.895  14.046  0.00  0.00     0.144 C 
ATOM      5  C5  ZIN A   1      19.082  -0.278  14.867  0.00  0.00     0.107 C 
ATOM      6  N6  ZIN A   1      19.100  -1.209  15.518  0.00  0.00    -0.191 NA
ENDROOT
BRANCH   4   7
ATOM      7  C7  ZIN A   1      19.204   0.775  12.588  0.00  0.00     0.269 C 
ATOM      8  O8  ZIN A   1      20.151   0.172  12.120  0.00  0.00    -0.266 OA
ATOM      9  N9  ZIN A   1      18.290   1.334  11.771  0.00  0.00    -0.322 N 
ATOM     10  H23 ZIN A   1      17.578   1.879  12.141  0.00  0.00     0.169 HD
BRANCH   9  11
ATOM     11  C10 ZIN A   1      18.367   1.127  10.390  0.00  0.00     0.035 A 
ATOM     12  C19 ZIN A   1      17.637   0.105   9.797  0.00  0.00     0.030 A 
ATOM     13  C18 ZIN A   1      17.720  -0.100   8.434  0.00  0.00     0.018 A 
ATOM     14  C13 ZIN A   1      18.525   0.715   7.659  0.00  0.00     0.048 A 
ATOM     15  C12 ZIN A   1      19.248   1.737   8.245  0.00  0.00     0.018 A 
ATOM     16  C11 ZIN A   1      19.169   1.948   9.608  0.00  0.00     0.030 A 
BRANCH  14  17
ATOM     17  C14 ZIN A   1      18.614   0.488   6.171  0.00  0.00     0.417 C 
ATOM     18  F15 ZIN A   1      19.586   1.333   5.627  0.00  0.00    -0.166 F 
ATOM     19  F16 ZIN A   1      18.961  -0.844   5.922  0.00  0.00    -0.166 F 
ATOM     20  F17 ZIN A   1      17.374   0.765   5.584  0.00  0.00    -0.166 F 
ENDBRANCH  14  17
ENDBRANCH   9  11
ENDBRANCH   4   7
TORSDOF 3
ENDMDL
MODEL 6
REMARK VINA RESULT:      -7.0      5.523      7.693
REMARK  3 active torsions:
REMARK  status: ('A' for Active; 'I' for Inactive)
REMARK    1  A    between atoms: C4_4  and  C7_7 
REMARK       I    between atoms: C7_7  and  N9_9 
REMARK    2  A    between atoms: N9_9  and  C10_10 
REMARK    3  A    between atoms: C13_13  and  C14_14 
ROOT
ATOM      1  C1  ZIN A   1      17.765  -1.075   5.116  0.00  0.00     0.081 C 
ATOM      2  C2  ZIN A   1      17.891  -0.839   6.599  0.00  0.00     0.107 C 
ATOM      3  O3  ZIN A   1      17.180   0.138   7.187  0.00  0.00    -0.195 OA
ATOM      4  C4  ZIN A   1      18.727  -1.618   7.344  0.00  0.00     0.144 C 
ATOM      5  C5  ZIN A   1      19.483  -2.659   6.717  0.00  0.00     0.107 C 
ATOM      6  N6  ZIN A   1      20.084  -3.485   6.219  0.00  0.00    -0.191 NA
ENDROOT
BRANCH   4   7
ATOM      7  C7  ZIN A   1      18.849  -1.389   8.791  0.00  0.00     0.269 C 
ATOM      8  O8  ZIN A   1      19.813  -0.792   9.232  0.00  0.00    -0.266 OA
ATOM      9  N9  ZIN A   1      17.894  -1.839   9.628  0.00  0.00    -0.322 N 
ATOM     10  H23 ZIN A   1      17.165  -2.380   9.285  0.00  0.00     0.169 HD
BRANCH   9  11
ATOM     11  C10 ZIN A   1      17.953  -1.527  10.989  0.00  0.00     0.035 A 
ATOM     12  C19 ZIN A   1      17.280  -0.413  11.479  0.00  0.00     0.030 A 
ATOM     13  C18 ZIN A   1      17.345  -0.104  12.823  0.00  0.00     0.018 A 
ATOM     14  C13 ZIN A   1      18.076  -0.905  13.683  0.00  0.00     0.048 A 
ATOM     15  C12 ZIN A   1      18.741  -2.016  13.200  0.00  0.00     0.018 A 
ATOM     16  C11 ZIN A   1      18.680  -2.331  11.857  0.00  0.00     0.030 A 
BRANCH  14  17
ATOM     17  C14 ZIN A   1      18.145  -0.564  15.149  0.00  0.00     0.417 C 
ATOM     18  F15 ZIN A   1      19.324   0.143  15.409  0.00  0.00    -0.166 F 
ATOM     19  F16 ZIN A   1      17.042   0.224  15.498  0.00  0.00    -0.166 F 
ATOM     20  F17 ZIN A   1      18.133  -1.743  15.902  0.00  0.00    -0.166 F 
ENDBRANCH  14  17
ENDBRANCH   9  11
ENDBRANCH   4   7
TORSDOF 3
ENDMDL
MODEL 7
REMARK VINA RESULT:      -7.0      2.372      2.813
REMARK  3 active torsions:
REMARK  status: ('A' for Active; 'I' for Inactive)
REMARK    1  A    between atoms: C4_4  and  C7_7 
REMARK       I    between atoms: C7_7  and  N9_9 
REMARK    2  A    between atoms: N9_9  and  C10_10 
REMARK    3  A    between atoms: C13_13  and  C14_14 
ROOT
ATOM      1  C1  ZIN A   1      18.734   2.810  15.772  0.00  0.00     0.081 C 
ATOM      2  C2  ZIN A   1      18.368   2.270  14.414  0.00  0.00     0.107 C 
ATOM      3  O3  ZIN A   1      17.956   0.998  14.285  0.00  0.00    -0.195 OA
ATOM      4  C4  ZIN A   1      18.456   3.073  13.315  0.00  0.00     0.144 C 
ATOM      5  C5  ZIN A   1      18.895   4.429  13.453  0.00  0.00     0.107 C 
ATOM      6  N6  ZIN A   1      19.244   5.504  13.562  0.00  0.00    -0.191 NA
ENDROOT
BRANCH   4   7
ATOM      7  C7  ZIN A   1      18.099   2.546  11.991  0.00  0.00     0.269 C 
ATOM      8  O8  ZIN A   1      17.124   2.981  11.406  0.00  0.00    -0.266 OA
ATOM      9  N9  ZIN A   1      18.851   1.583  11.423  0.00  0.00    -0.322 N 
ATOM     10  H23 ZIN A   1      19.582   1.183  11.919  0.00  0.00     0.169 HD
BRANCH   9  11
ATOM     11  C10 ZIN A   1      18.578   1.160  10.118  0.00  0.00     0.035 A 
ATOM     12  C19 ZIN A   1      17.641   0.159   9.893  0.00  0.00     0.030 A 
ATOM     13  C18 ZIN A   1      17.378  -0.260   8.604  0.00  0.00     0.018 A 
ATOM     14  C13 ZIN A   1      18.042   0.319   7.537  0.00  0.00     0.048 A 
ATOM     15  C12 ZIN A   1      18.969   1.320   7.758  0.00  0.00     0.018 A 
ATOM     16  C11 ZIN A   1      19.238   1.744   9.045  0.00  0.00     0.030 A 
BRANCH  14  17
ATOM     17  C14 ZIN A   1      17.751  -0.142   6.132  0.00  0.00     0.417 C 
ATOM     18  F15 ZIN A   1      18.090  -1.493   6.005  0.00  0.00    -0.166 F 
ATOM     19  F16 ZIN A   1      16.390   0.026   5.858  0.00  0.00    -0.166 F 
ATOM     20  F17 ZIN A   1      18.506   0.615   5.229  0.00  0.00    -0.166 F 
ENDBRANCH  14  17
ENDBRANCH   9  11
ENDBRANCH   4   7
TORSDOF 3
ENDMDL
MODEL 8
REMARK VINA RESULT:      -6.9      2.275      2.995
REMARK  3 active torsions:
REMARK  status: ('A' for Active; 'I' for Inactive)
REMARK    1  A    between atoms: C4_4  and  C7_7 
REMARK       I    between atoms: C7_7  and  N9_9 
REMARK    2  A    between atoms: N9_9  and  C10_10 
REMARK    3  A    between atoms: C13_13  and  C14_14 
ROOT
ATOM      1  C1  ZIN A   1      18.683   4.652  14.341  0.00  0.00     0.081 C 
ATOM      2  C2  ZIN A   1      18.585   3.979  12.996  0.00  0.00     0.107 C 
ATOM      3  O3  ZIN A   1      18.746   4.697  11.872  0.00  0.00    -0.195 OA
ATOM      4  C4  ZIN A   1      18.331   2.641  12.921  0.00  0.00     0.144 C 
ATOM      5  C5  ZIN A   1      18.160   1.877  14.119  0.00  0.00     0.107 C 
ATOM      6  N6  ZIN A   1      18.023   1.270  15.070  0.00  0.00    -0.191 NA
ENDROOT
BRANCH   4   7
ATOM      7  C7  ZIN A   1      18.236   1.985  11.609  0.00  0.00     0.269 C 
ATOM      8  O8  ZIN A   1      17.162   1.577  11.210  0.00  0.00    -0.266 OA
ATOM      9  N9  ZIN A   1      19.338   1.835  10.849  0.00  0.00    -0.322 N 
ATOM     10  H23 ZIN A   1      20.207   2.091  11.198  0.00  0.00     0.169 HD
BRANCH   9  11
ATOM     11  C10 ZIN A   1      19.231   1.311   9.557  0.00  0.00     0.035 A 
ATOM     12  C19 ZIN A   1      18.988   2.156   8.480  0.00  0.00     0.030 A 
ATOM     13  C18 ZIN A   1      18.876   1.635   7.207  0.00  0.00     0.018 A 
ATOM     14  C13 ZIN A   1      19.011   0.274   7.001  0.00  0.00     0.048 A 
ATOM     15  C12 ZIN A   1      19.259  -0.568   8.068  0.00  0.00     0.018 A 
ATOM     16  C11 ZIN A   1      19.372  -0.054   9.346  0.00  0.00     0.030 A 
BRANCH  14  17
ATOM     17  C14 ZIN A   1      18.889  -0.291   5.609  0.00  0.00     0.417 C 
ATOM     18  F15 ZIN A   1      19.366   0.643   4.683  0.00  0.00    -0.166 F 
ATOM     19  F16 ZIN A   1      19.640  -1.467   5.515  0.00  0.00    -0.166 F 
ATOM     20  F17 ZIN A   1      17.545  -0.572   5.338  0.00  0.00    -0.166 F 
ENDBRANCH  14  17
ENDBRANCH   9  11
ENDBRANCH   4   7
TORSDOF 3
ENDMDL
MODEL 9
REMARK VINA RESULT:      -6.8      4.707      7.223
REMARK  3 active torsions:
REMARK  status: ('A' for Active; 'I' for Inactive)
REMARK    1  A    between atoms: C4_4  and  C7_7 
REMARK       I    between atoms: C7_7  and  N9_9 
REMARK    2  A    between atoms: N9_9  and  C10_10 
REMARK    3  A    between atoms: C13_13  and  C14_14 
ROOT
ATOM      1  C1  ZIN A   1      19.560  -4.061   6.363  0.00  0.00     0.081 C 
ATOM      2  C2  ZIN A   1      19.213  -2.657   6.786  0.00  0.00     0.107 C 
ATOM      3  O3  ZIN A   1      19.628  -1.612   6.051  0.00  0.00    -0.195 OA
ATOM      4  C4  ZIN A   1      18.479  -2.448   7.915  0.00  0.00     0.144 C 
ATOM      5  C5  ZIN A   1      18.036  -3.562   8.698  0.00  0.00     0.107 C 
ATOM      6  N6  ZIN A   1      17.686  -4.446   9.320  0.00  0.00    -0.191 NA
ENDROOT
BRANCH   4   7
ATOM      7  C7  ZIN A   1      18.140  -1.079   8.328  0.00  0.00     0.269 C 
ATOM      8  O8  ZIN A   1      17.049  -0.614   8.055  0.00  0.00    -0.266 OA
ATOM      9  N9  ZIN A   1      19.037  -0.338   9.009  0.00  0.00    -0.322 N 
ATOM     10  H23 ZIN A   1      19.932  -0.679   9.159  0.00  0.00     0.169 HD
BRANCH   9  11
ATOM     11  C10 ZIN A   1      18.677   0.921   9.497  0.00  0.00     0.035 A 
ATOM     12  C19 ZIN A   1      18.926   2.059   8.739  0.00  0.00     0.030 A 
ATOM     13  C18 ZIN A   1      18.575   3.303   9.226  0.00  0.00     0.018 A 
ATOM     14  C13 ZIN A   1      17.971   3.415  10.466  0.00  0.00     0.048 A 
ATOM     15  C12 ZIN A   1      17.716   2.285  11.219  0.00  0.00     0.018 A 
ATOM     16  C11 ZIN A   1      18.065   1.038  10.738  0.00  0.00     0.030 A 
BRANCH  14  17
ATOM     17  C14 ZIN A   1      17.590   4.775  10.994  0.00  0.00     0.417 C 
ATOM     18  F15 ZIN A   1      16.256   4.754  11.416  0.00  0.00    -0.166 F 
ATOM     19  F16 ZIN A   1      18.415   5.103  12.075  0.00  0.00    -0.166 F 
ATOM     20  F17 ZIN A   1      17.744   5.728   9.982  0.00  0.00    -0.166 F 
ENDBRANCH  14  17
ENDBRANCH   9  11
ENDBRANCH   4   7
TORSDOF 3
ENDMDL
