MODEL 1
REMARK VINA RESULT:      -7.9      0.000      0.000
REMARK  2 active torsions:
REMARK  status: ('A' for Active; 'I' for Inactive)
REMARK    1  A    between atoms: C11_11  and  C12_12 
REMARK    2  A    between atoms: C19_19  and  O21_20 
ROOT
ATOM      1  O1  ZIN A   1      18.992  -2.253  12.619  0.00  0.00    -0.268 OA
ATOM      2  C2  ZIN A   1      19.046  -1.199  12.022  0.00  0.00     0.272 C 
ATOM      3  N3  ZIN A   1      18.072  -0.308  12.192  0.00  0.00    -0.323 N 
ATOM      4  C4  ZIN A   1      18.037   0.954  11.618  0.00  0.00     0.047 A 
ATOM      5  C5  ZIN A   1      17.579   2.006  12.413  0.00  0.00     0.032 A 
ATOM      6  C6  ZIN A   1      17.513   3.289  11.912  0.00  0.00     0.026 A 
ATOM      7  C7  ZIN A   1      17.903   3.545  10.607  0.00  0.00     0.035 A 
ATOM      8 Cl8  ZIN A   1      17.819   5.161   9.979  0.00  0.00    -0.084 Cl
ATOM      9  C9  ZIN A   1      18.358   2.520   9.809  0.00  0.00     0.040 A 
ATOM     10  C10 ZIN A   1      18.431   1.209  10.306  0.00  0.00     0.022 A 
ATOM     11  C11 ZIN A   1      18.929   0.163   9.400  0.00  0.00     0.077 C 
ATOM     12  N18 ZIN A   1      19.723  -0.789   9.742  0.00  0.00    -0.247 NA
ATOM     13  C19 ZIN A   1      20.216  -0.928  11.117  0.00  0.00     0.335 C 
ATOM     14  H22 ZIN A   1      17.328  -0.561  12.760  0.00  0.00     0.169 HD
ENDROOT
BRANCH  11  15
ATOM     15  C12 ZIN A   1      18.486   0.212   7.987  0.00  0.00    -0.007 A 
ATOM     16  C17 ZIN A   1      17.205  -0.216   7.640  0.00  0.00     0.014 A 
ATOM     17  C16 ZIN A   1      16.795  -0.162   6.324  0.00  0.00     0.001 A 
ATOM     18  C15 ZIN A   1      17.657   0.302   5.347  0.00  0.00     0.000 A 
ATOM     19  C14 ZIN A   1      18.931   0.723   5.683  0.00  0.00     0.001 A 
ATOM     20  C13 ZIN A   1      19.350   0.680   6.998  0.00  0.00     0.014 A 
ENDBRANCH  11  15
BRANCH  13  21
ATOM     21  O21 ZIN A   1      21.139  -2.018  11.186  0.00  0.00    -0.367 OA
ATOM     22  H31 ZIN A   1      20.769  -2.864  10.898  0.00  0.00     0.212 HD
ENDBRANCH  13  21
TORSDOF 2
ENDMDL
MODEL 2
REMARK VINA RESULT:      -7.9      3.090      4.940
REMARK  2 active torsions:
REMARK  status: ('A' for Active; 'I' for Inactive)
REMARK    1  A    between atoms: C11_11  and  C12_12 
REMARK    2  A    between atoms: C19_19  and  O21_20 
ROOT
ATOM      1  O1  ZIN A   1      19.484   2.208  12.609  0.00  0.00    -0.268 OA
ATOM      2  C2  ZIN A   1      19.638   1.423  11.697  0.00  0.00     0.272 C 
ATOM      3  N3  ZIN A   1      18.849   1.507  10.630  0.00  0.00    -0.323 N 
ATOM      4  C4  ZIN A   1      18.952   0.714   9.497  0.00  0.00     0.047 A 
ATOM      5  C5  ZIN A   1      18.768   1.335   8.261  0.00  0.00     0.032 A 
ATOM      6  C6  ZIN A   1      18.852   0.611   7.091  0.00  0.00     0.026 A 
ATOM      7  C7  ZIN A   1      19.123  -0.748   7.133  0.00  0.00     0.035 A 
ATOM      8 Cl8  ZIN A   1      19.228  -1.657   5.658  0.00  0.00    -0.084 Cl
ATOM      9  C9  ZIN A   1      19.308  -1.377   8.344  0.00  0.00     0.040 A 
ATOM     10  C10 ZIN A   1      19.224  -0.652   9.543  0.00  0.00     0.022 A 
ATOM     11  C11 ZIN A   1      19.436  -1.387  10.799  0.00  0.00     0.077 C 
ATOM     12  N18 ZIN A   1      20.099  -0.943  11.808  0.00  0.00    -0.247 NA
ATOM     13  C19 ZIN A   1      20.722   0.385  11.800  0.00  0.00     0.335 C 
ATOM     14  H22 ZIN A   1      18.146   2.176  10.645  0.00  0.00     0.169 HD
ENDROOT
BRANCH  11  15
ATOM     15  C12 ZIN A   1      18.843  -2.740  10.911  0.00  0.00    -0.007 A 
ATOM     16  C17 ZIN A   1      19.647  -3.871  10.770  0.00  0.00     0.014 A 
ATOM     17  C16 ZIN A   1      19.090  -5.128  10.881  0.00  0.00     0.001 A 
ATOM     18  C15 ZIN A   1      17.734  -5.269  11.119  0.00  0.00     0.000 A 
ATOM     19  C14 ZIN A   1      16.930  -4.151  11.255  0.00  0.00     0.001 A 
ATOM     20  C13 ZIN A   1      17.477  -2.888  11.153  0.00  0.00     0.014 A 
ENDBRANCH  11  15
BRANCH  13  21
ATOM     21  O21 ZIN A   1      21.457   0.576  13.012  0.00  0.00    -0.367 OA
ATOM     22  H31 ZIN A   1      21.649  -0.243  13.488  0.00  0.00     0.212 HD
ENDBRANCH  13  21
TORSDOF 2
ENDMDL
MODEL 3
REMARK VINA RESULT:      -7.8      3.367      4.404
REMARK  2 active torsions:
REMARK  status: ('A' for Active; 'I' for Inactive)
REMARK    1  A    between atoms: C11_11  and  C12_12 
REMARK    2  A    between atoms: C19_19  and  O21_20 
ROOT
ATOM      1  O1  ZIN A   1      19.081   4.772  12.836  0.00  0.00    -0.268 OA
ATOM      2  C2  ZIN A   1      18.747   3.632  12.593  0.00  0.00     0.272 C 
ATOM      3  N3  ZIN A   1      19.608   2.643  12.821  0.00  0.00    -0.323 N 
ATOM      4  C4  ZIN A   1      19.338   1.294  12.642  0.00  0.00     0.047 A 
ATOM      5  C5  ZIN A   1      19.830   0.409  13.604  0.00  0.00     0.032 A 
ATOM      6  C6  ZIN A   1      19.605  -0.946  13.493  0.00  0.00     0.026 A 
ATOM      7  C7  ZIN A   1      18.883  -1.444  12.420  0.00  0.00     0.035 A 
ATOM      8 Cl8  ZIN A   1      18.601  -3.151  12.283  0.00  0.00    -0.084 Cl
ATOM      9  C9  ZIN A   1      18.389  -0.586  11.463  0.00  0.00     0.040 A 
ATOM     10  C10 ZIN A   1      18.611   0.796  11.563  0.00  0.00     0.022 A 
ATOM     11  C11 ZIN A   1      18.052   1.654  10.507  0.00  0.00     0.077 C 
ATOM     12  N18 ZIN A   1      17.496   2.797  10.706  0.00  0.00    -0.247 NA
ATOM     13  C19 ZIN A   1      17.369   3.372  12.049  0.00  0.00     0.335 C 
ATOM     14  H22 ZIN A   1      20.493   2.883  13.136  0.00  0.00     0.169 HD
ENDROOT
BRANCH  11  15
ATOM     15  C12 ZIN A   1      18.134   1.165   9.111  0.00  0.00    -0.007 A 
ATOM     16  C17 ZIN A   1      19.053   1.726   8.225  0.00  0.00     0.014 A 
ATOM     17  C16 ZIN A   1      19.128   1.263   6.928  0.00  0.00     0.001 A 
ATOM     18  C15 ZIN A   1      18.286   0.251   6.502  0.00  0.00     0.000 A 
ATOM     19  C14 ZIN A   1      17.369  -0.306   7.374  0.00  0.00     0.001 A 
ATOM     20  C13 ZIN A   1      17.288   0.145   8.676  0.00  0.00     0.014 A 
ENDBRANCH  11  15
BRANCH  13  21
ATOM     21  O21 ZIN A   1      16.642   4.601  11.977  0.00  0.00    -0.367 OA
ATOM     22  H31 ZIN A   1      17.165   5.348  11.655  0.00  0.00     0.212 HD
ENDBRANCH  13  21
TORSDOF 2
ENDMDL
MODEL 4
REMARK VINA RESULT:      -7.8      4.071      5.309
REMARK  2 active torsions:
REMARK  status: ('A' for Active; 'I' for Inactive)
REMARK    1  A    between atoms: C11_11  and  C12_12 
REMARK    2  A    between atoms: C19_19  and  O21_20 
ROOT
ATOM      1  O1  ZIN A   1      19.990   3.160  11.080  0.00  0.00    -0.268 OA
ATOM      2  C2  ZIN A   1      19.358   2.376  11.757  0.00  0.00     0.272 C 
ATOM      3  N3  ZIN A   1      19.819   2.041  12.959  0.00  0.00    -0.323 N 
ATOM      4  C4  ZIN A   1      19.173   1.204  13.857  0.00  0.00     0.047 A 
ATOM      5  C5  ZIN A   1      19.206   1.563  15.206  0.00  0.00     0.032 A 
ATOM      6  C6  ZIN A   1      18.589   0.779  16.157  0.00  0.00     0.026 A 
ATOM      7  C7  ZIN A   1      17.925  -0.377  15.779  0.00  0.00     0.035 A 
ATOM      8 Cl8  ZIN A   1      17.149  -1.362  16.979  0.00  0.00    -0.084 Cl
ATOM      9  C9  ZIN A   1      17.881  -0.745  14.454  0.00  0.00     0.040 A 
ATOM     10  C10 ZIN A   1      18.505   0.042  13.474  0.00  0.00     0.022 A 
ATOM     11  C11 ZIN A   1      18.416  -0.409  12.077  0.00  0.00     0.077 C 
ATOM     12  N18 ZIN A   1      18.221   0.363  11.066  0.00  0.00    -0.247 NA
ATOM     13  C19 ZIN A   1      18.071   1.814  11.219  0.00  0.00     0.335 C 
ATOM     14  H22 ZIN A   1      20.674   2.411  13.230  0.00  0.00     0.169 HD
ENDROOT
BRANCH  11  15
ATOM     15  C12 ZIN A   1      18.558  -1.860  11.814  0.00  0.00    -0.007 A 
ATOM     16  C17 ZIN A   1      17.435  -2.632  11.522  0.00  0.00     0.014 A 
ATOM     17  C16 ZIN A   1      17.575  -3.981  11.272  0.00  0.00     0.001 A 
ATOM     18  C15 ZIN A   1      18.825  -4.572  11.323  0.00  0.00     0.000 A 
ATOM     19  C14 ZIN A   1      19.943  -3.812  11.618  0.00  0.00     0.001 A 
ATOM     20  C13 ZIN A   1      19.817  -2.460  11.863  0.00  0.00     0.014 A 
ENDBRANCH  11  15
BRANCH  13  21
ATOM     21  O21 ZIN A   1      17.785   2.402   9.947  0.00  0.00    -0.367 OA
ATOM     22  H31 ZIN A   1      18.551   2.814   9.525  0.00  0.00     0.212 HD
ENDBRANCH  13  21
TORSDOF 2
ENDMDL
MODEL 5
REMARK VINA RESULT:      -7.7      3.839      6.666
REMARK  2 active torsions:
REMARK  status: ('A' for Active; 'I' for Inactive)
REMARK    1  A    between atoms: C11_11  and  C12_12 
REMARK    2  A    between atoms: C19_19  and  O21_20 
ROOT
ATOM      1  O1  ZIN A   1      18.567   3.081  10.486  0.00  0.00    -0.268 OA
ATOM      2  C2  ZIN A   1      18.785   1.949  10.865  0.00  0.00     0.272 C 
ATOM      3  N3  ZIN A   1      17.934   0.981  10.536  0.00  0.00    -0.323 N 
ATOM      4  C4  ZIN A   1      18.091  -0.360  10.853  0.00  0.00     0.047 A 
ATOM      5  C5  ZIN A   1      17.749  -1.294   9.873  0.00  0.00     0.032 A 
ATOM      6  C6  ZIN A   1      17.875  -2.645  10.115  0.00  0.00     0.026 A 
ATOM      7  C7  ZIN A   1      18.345  -3.090  11.340  0.00  0.00     0.035 A 
ATOM      8 Cl8  ZIN A   1      18.503  -4.792  11.643  0.00  0.00    -0.084 Cl
ATOM      9  C9  ZIN A   1      18.688  -2.183  12.318  0.00  0.00     0.040 A 
ATOM     10  C10 ZIN A   1      18.565  -0.805  12.085  0.00  0.00     0.022 A 
ATOM     11  C11 ZIN A   1      18.952   0.107  13.173  0.00  0.00     0.077 C 
ATOM     12  N18 ZIN A   1      19.596   1.209  13.014  0.00  0.00    -0.247 NA
ATOM     13  C19 ZIN A   1      20.015   1.675  11.688  0.00  0.00     0.335 C 
ATOM     14  H22 ZIN A   1      17.142   1.232  10.036  0.00  0.00     0.169 HD
ENDROOT
BRANCH  11  15
ATOM     15  C12 ZIN A   1      18.572  -0.272  14.554  0.00  0.00    -0.007 A 
ATOM     16  C17 ZIN A   1      17.450   0.298  15.153  0.00  0.00     0.014 A 
ATOM     17  C16 ZIN A   1      17.098  -0.064  16.437  0.00  0.00     0.001 A 
ATOM     18  C15 ZIN A   1      17.864  -0.981  17.135  0.00  0.00     0.000 A 
ATOM     19  C14 ZIN A   1      18.982  -1.546  16.548  0.00  0.00     0.001 A 
ATOM     20  C13 ZIN A   1      19.340  -1.197  15.261  0.00  0.00     0.014 A 
ENDBRANCH  11  15
BRANCH  13  21
ATOM     21  O21 ZIN A   1      20.779   2.877  11.822  0.00  0.00    -0.367 OA
ATOM     22  H31 ZIN A   1      20.671   3.494  11.086  0.00  0.00     0.212 HD
ENDBRANCH  13  21
TORSDOF 2
ENDMDL
MODEL 6
REMARK VINA RESULT:      -7.7      2.289      4.994
REMARK  2 active torsions:
REMARK  status: ('A' for Active; 'I' for Inactive)
REMARK    1  A    between atoms: C11_11  and  C12_12 
REMARK    2  A    between atoms: C19_19  and  O21_20 
ROOT
ATOM      1  O1  ZIN A   1      19.491  -3.398   7.798  0.00  0.00    -0.268 OA
ATOM      2  C2  ZIN A   1      19.005  -2.427   8.338  0.00  0.00     0.272 C 
ATOM      3  N3  ZIN A   1      19.669  -1.274   8.317  0.00  0.00    -0.323 N 
ATOM      4  C4  ZIN A   1      19.206  -0.077   8.843  0.00  0.00     0.047 A 
ATOM      5  C5  ZIN A   1      19.452   1.084   8.108  0.00  0.00     0.032 A 
ATOM      6  C6  ZIN A   1      19.026   2.311   8.568  0.00  0.00     0.026 A 
ATOM      7  C7  ZIN A   1      18.343   2.402   9.771  0.00  0.00     0.035 A 
ATOM      8 Cl8  ZIN A   1      17.806   3.949  10.348  0.00  0.00    -0.084 Cl
ATOM      9  C9  ZIN A   1      18.090   1.268  10.508  0.00  0.00     0.040 A 
ATOM     10  C10 ZIN A   1      18.519   0.012  10.052  0.00  0.00     0.022 A 
ATOM     11  C11 ZIN A   1      18.212  -1.159  10.889  0.00  0.00     0.077 C 
ATOM     12  N18 ZIN A   1      17.829  -2.302  10.442  0.00  0.00    -0.247 NA
ATOM     13  C19 ZIN A   1      17.663  -2.555   9.006  0.00  0.00     0.335 C 
ATOM     14  H22 ZIN A   1      20.546  -1.270   7.902  0.00  0.00     0.169 HD
ENDROOT
BRANCH  11  15
ATOM     15  C12 ZIN A   1      18.352  -1.009  12.356  0.00  0.00    -0.007 A 
ATOM     16  C17 ZIN A   1      17.415  -0.269  13.077  0.00  0.00     0.014 A 
ATOM     17  C16 ZIN A   1      17.547  -0.138  14.443  0.00  0.00     0.001 A 
ATOM     18  C15 ZIN A   1      18.613  -0.728  15.098  0.00  0.00     0.000 A 
ATOM     19  C14 ZIN A   1      19.549  -1.460  14.389  0.00  0.00     0.001 A 
ATOM     20  C13 ZIN A   1      19.424  -1.603  13.022  0.00  0.00     0.014 A 
ENDBRANCH  11  15
BRANCH  13  21
ATOM     21  O21 ZIN A   1      17.153  -3.876   8.808  0.00  0.00    -0.367 OA
ATOM     22  H31 ZIN A   1      16.211  -3.904   8.591  0.00  0.00     0.212 HD
ENDBRANCH  13  21
TORSDOF 2
ENDMDL
MODEL 7
REMARK VINA RESULT:      -7.7      4.147      5.889
REMARK  2 active torsions:
REMARK  status: ('A' for Active; 'I' for Inactive)
REMARK    1  A    between atoms: C11_11  and  C12_12 
REMARK    2  A    between atoms: C19_19  and  O21_20 
ROOT
ATOM      1  O1  ZIN A   1      17.534  -3.149   4.404  0.00  0.00    -0.268 OA
ATOM      2  C2  ZIN A   1      18.133  -3.022   5.452  0.00  0.00     0.272 C 
ATOM      3  N3  ZIN A   1      17.698  -3.671   6.529  0.00  0.00    -0.323 N 
ATOM      4  C4  ZIN A   1      18.317  -3.660   7.770  0.00  0.00     0.047 A 
ATOM      5  C5  ZIN A   1      18.366  -4.866   8.472  0.00  0.00     0.032 A 
ATOM      6  C6  ZIN A   1      18.961  -4.933   9.713  0.00  0.00     0.026 A 
ATOM      7  C7  ZIN A   1      19.520  -3.797  10.277  0.00  0.00     0.035 A 
ATOM      8 Cl8  ZIN A   1      20.270  -3.885  11.840  0.00  0.00    -0.084 Cl
ATOM      9  C9  ZIN A   1      19.482  -2.600   9.599  0.00  0.00     0.040 A 
ATOM     10  C10 ZIN A   1      18.879  -2.517   8.334  0.00  0.00     0.022 A 
ATOM     11  C11 ZIN A   1      18.876  -1.207   7.665  0.00  0.00     0.077 C 
ATOM     12  N18 ZIN A   1      19.086  -1.022   6.409  0.00  0.00    -0.247 NA
ATOM     13  C19 ZIN A   1      19.351  -2.140   5.497  0.00  0.00     0.335 C 
ATOM     14  H22 ZIN A   1      16.885  -4.192   6.439  0.00  0.00     0.169 HD
ENDROOT
BRANCH  11  15
ATOM     15  C12 ZIN A   1      18.615  -0.011   8.499  0.00  0.00    -0.007 A 
ATOM     16  C17 ZIN A   1      17.611  -0.038   9.467  0.00  0.00     0.014 A 
ATOM     17  C16 ZIN A   1      17.377   1.077  10.245  0.00  0.00     0.001 A 
ATOM     18  C15 ZIN A   1      18.127   2.224  10.058  0.00  0.00     0.000 A 
ATOM     19  C14 ZIN A   1      19.121   2.260   9.097  0.00  0.00     0.001 A 
ATOM     20  C13 ZIN A   1      19.369   1.148   8.317  0.00  0.00     0.014 A 
ENDBRANCH  11  15
BRANCH  13  21
ATOM     21  O21 ZIN A   1      19.627  -1.635   4.188  0.00  0.00    -0.367 OA
ATOM     22  H31 ZIN A   1      18.847  -1.568   3.622  0.00  0.00     0.212 HD
ENDBRANCH  13  21
TORSDOF 2
ENDMDL
MODEL 8
REMARK VINA RESULT:      -7.6      3.304      4.616
REMARK  2 active torsions:
REMARK  status: ('A' for Active; 'I' for Inactive)
REMARK    1  A    between atoms: C11_11  and  C12_12 
REMARK    2  A    between atoms: C19_19  and  O21_20 
ROOT
ATOM      1  O1  ZIN A   1      21.132   0.646  12.192  0.00  0.00    -0.268 OA
ATOM      2  C2  ZIN A   1      20.317  -0.123  11.726  0.00  0.00     0.272 C 
ATOM      3  N3  ZIN A   1      20.684  -1.375  11.466  0.00  0.00    -0.323 N 
ATOM      4  C4  ZIN A   1      19.843  -2.369  10.988  0.00  0.00     0.047 A 
ATOM      5  C5  ZIN A   1      19.994  -3.649  11.526  0.00  0.00     0.032 A 
ATOM      6  C6  ZIN A   1      19.197  -4.689  11.098  0.00  0.00     0.026 A 
ATOM      7  C7  ZIN A   1      18.233  -4.471  10.126  0.00  0.00     0.035 A 
ATOM      8 Cl8  ZIN A   1      17.231  -5.783   9.590  0.00  0.00    -0.084 Cl
ATOM      9  C9  ZIN A   1      18.070  -3.216   9.586  0.00  0.00     0.040 A 
ATOM     10  C10 ZIN A   1      18.875  -2.148  10.011  0.00  0.00     0.022 A 
ATOM     11  C11 ZIN A   1      18.645  -0.833   9.393  0.00  0.00     0.077 C 
ATOM     12  N18 ZIN A   1      18.657   0.289  10.024  0.00  0.00    -0.247 NA
ATOM     13  C19 ZIN A   1      18.917   0.361  11.465  0.00  0.00     0.335 C 
ATOM     14  H22 ZIN A   1      21.612  -1.612  11.622  0.00  0.00     0.169 HD
ENDROOT
BRANCH  11  15
ATOM     15  C12 ZIN A   1      18.376  -0.797   7.937  0.00  0.00    -0.007 A 
ATOM     16  C17 ZIN A   1      19.252  -1.417   7.047  0.00  0.00     0.014 A 
ATOM     17  C16 ZIN A   1      18.993  -1.386   5.693  0.00  0.00     0.001 A 
ATOM     18  C15 ZIN A   1      17.873  -0.730   5.215  0.00  0.00     0.000 A 
ATOM     19  C14 ZIN A   1      17.002  -0.108   6.091  0.00  0.00     0.001 A 
ATOM     20  C13 ZIN A   1      17.247  -0.138   7.449  0.00  0.00     0.014 A 
ENDBRANCH  11  15
BRANCH  13  21
ATOM     21  O21 ZIN A   1      18.788   1.716  11.907  0.00  0.00    -0.367 OA
ATOM     22  H31 ZIN A   1      19.585   2.248  11.777  0.00  0.00     0.212 HD
ENDBRANCH  13  21
TORSDOF 2
ENDMDL
MODEL 9
REMARK VINA RESULT:      -7.3      2.927      4.732
REMARK  2 active torsions:
REMARK  status: ('A' for Active; 'I' for Inactive)
REMARK    1  A    between atoms: C11_11  and  C12_12 
REMARK    2  A    between atoms: C19_19  and  O21_20 
ROOT
ATOM      1  O1  ZIN A   1      19.078   0.478   5.411  0.00  0.00    -0.268 OA
ATOM      2  C2  ZIN A   1      18.636   0.555   6.538  0.00  0.00     0.272 C 
ATOM      3  N3  ZIN A   1      19.264   1.317   7.429  0.00  0.00    -0.323 N 
ATOM      4  C4  ZIN A   1      18.837   1.539   8.730  0.00  0.00     0.047 A 
ATOM      5  C5  ZIN A   1      18.965   2.835   9.234  0.00  0.00     0.032 A 
ATOM      6  C6  ZIN A   1      18.566   3.131  10.520  0.00  0.00     0.026 A 
ATOM      7  C7  ZIN A   1      18.030   2.140  11.326  0.00  0.00     0.035 A 
ATOM      8 Cl8  ZIN A   1      17.528   2.517  12.945  0.00  0.00    -0.084 Cl
ATOM      9  C9  ZIN A   1      17.896   0.857  10.846  0.00  0.00     0.040 A 
ATOM     10  C10 ZIN A   1      18.298   0.541   9.539  0.00  0.00     0.022 A 
ATOM     11  C11 ZIN A   1      18.124  -0.849   9.089  0.00  0.00     0.077 C 
ATOM     12  N18 ZIN A   1      17.719  -1.198   7.919  0.00  0.00    -0.247 NA
ATOM     13  C19 ZIN A   1      17.388  -0.208   6.889  0.00  0.00     0.335 C 
ATOM     14  H22 ZIN A   1      20.084   1.752   7.148  0.00  0.00     0.169 HD
ENDROOT
BRANCH  11  15
ATOM     15  C12 ZIN A   1      18.435  -1.927  10.057  0.00  0.00    -0.007 A 
ATOM     16  C17 ZIN A   1      17.440  -2.819  10.455  0.00  0.00     0.014 A 
ATOM     17  C16 ZIN A   1      17.737  -3.825  11.351  0.00  0.00     0.001 A 
ATOM     18  C15 ZIN A   1      19.016  -3.942  11.865  0.00  0.00     0.000 A 
ATOM     19  C14 ZIN A   1      20.007  -3.058  11.477  0.00  0.00     0.001 A 
ATOM     20  C13 ZIN A   1      19.723  -2.051  10.576  0.00  0.00     0.014 A 
ENDBRANCH  11  15
BRANCH  13  21
ATOM     21  O21 ZIN A   1      16.891  -0.876   5.726  0.00  0.00    -0.367 OA
ATOM     22  H31 ZIN A   1      17.196  -0.492   4.893  0.00  0.00     0.212 HD
ENDBRANCH  13  21
TORSDOF 2
ENDMDL
