MODEL 1
REMARK VINA RESULT:      -7.4      0.000      0.000
REMARK  6 active torsions:
REMARK  status: ('A' for Active; 'I' for Inactive)
REMARK    1  A    between atoms: C5_5  and  C6_6 
REMARK    2  A    between atoms: C6_6  and  O7_7 
REMARK    3  A    between atoms: O7_7  and  C8_8 
REMARK    4  A    between atoms: C8_8  and  C10_9 
REMARK    5  A    between atoms: C8_8  and  C16_15 
REMARK    6  A    between atoms: C10_9  and  N11_10 
ROOT
ATOM      1  C8  <0> d   1      18.554   0.013   9.245  0.00  0.00     0.174 C 
ENDROOT
BRANCH   1   2
ATOM      2  O7  <0> d   1      18.107   1.319   8.874  0.00  0.00    -0.375 OA
BRANCH   2   3
ATOM      3  C6  <0> d   1      19.093   2.340   9.035  0.00  0.00     0.207 C 
BRANCH   3   4
ATOM      4  C5  <0> d   1      18.782   3.149  10.266  0.00  0.00    -0.035 A 
ATOM      5  C4  <0> d   1      19.715   3.252  11.282  0.00  0.00     0.011 A 
ATOM      6  C3  <0> d   1      19.430   3.994  12.412  0.00  0.00     0.024 A 
ATOM      7  C2  <0> d   1      18.209   4.636  12.527  0.00  0.00     0.034 A 
ATOM      8 Cl1  <0> d   1      17.850   5.570  13.946  0.00  0.00    -0.084 Cl
ATOM      9  C25 <0> d   1      17.273   4.529  11.514  0.00  0.00     0.024 A 
ATOM     10  C24 <0> d   1      17.562   3.790  10.382  0.00  0.00     0.011 A 
ENDBRANCH   3   4
ENDBRANCH   2   3
ENDBRANCH   1   2
BRANCH   1  11
ATOM     11  C10 <0> d   1      17.733  -1.039   8.497  0.00  0.00     0.166 C 
BRANCH  11  12
ATOM     12  N11 <0> d   1      18.431  -1.416   7.264  0.00  0.00    -0.347 N 
ATOM     13  C15 <0> d   1      19.276  -2.458   7.110  0.00  0.00     0.209 A 
ATOM     14  N14 <0> d   1      19.696  -2.476   5.875  0.00  0.00    -0.255 NA
ATOM     15  C13 <0> d   1      19.145  -1.452   5.205  0.00  0.00     0.135 A 
ATOM     16  C12 <0> d   1      18.350  -0.778   6.058  0.00  0.00     0.111 A 
ENDBRANCH  11  12
ENDBRANCH   1  11
BRANCH   1  17
ATOM     17  C16 <0> d   1      18.378  -0.175  10.729  0.00  0.00    -0.006 A 
ATOM     18  C22 <0> d   1      19.475  -0.456  11.526  0.00  0.00     0.044 A 
ATOM     19  C21 <0> d   1      19.314  -0.623  12.889  0.00  0.00     0.048 A 
ATOM     20 Cl23 <0> d   1      21.053  -0.586  10.815  0.00  0.00    -0.084 Cl
ATOM     21  C19 <0> d   1      18.056  -0.520  13.455  0.00  0.00     0.035 A 
ATOM     22  C18 <0> d   1      16.960  -0.245  12.658  0.00  0.00     0.024 A 
ATOM     23 Cl20 <0> d   1      17.853  -0.737  15.165  0.00  0.00    -0.084 Cl
ATOM     24  C17 <0> d   1      17.121  -0.073  11.295  0.00  0.00     0.013 A 
ENDBRANCH   1  17
TORSDOF 6
ENDMDL
MODEL 2
REMARK VINA RESULT:      -7.3      3.948      6.345
REMARK  6 active torsions:
REMARK  status: ('A' for Active; 'I' for Inactive)
REMARK    1  A    between atoms: C5_5  and  C6_6 
REMARK    2  A    between atoms: C6_6  and  O7_7 
REMARK    3  A    between atoms: O7_7  and  C8_8 
REMARK    4  A    between atoms: C8_8  and  C10_9 
REMARK    5  A    between atoms: C8_8  and  C16_15 
REMARK    6  A    between atoms: C10_9  and  N11_10 
ROOT
ATOM      1  C8  <0> d   1      19.245  -0.789  13.193  0.00  0.00     0.174 C 
ENDROOT
BRANCH   1   2
ATOM      2  O7  <0> d   1      20.258  -0.027  12.533  0.00  0.00    -0.375 OA
BRANCH   2   3
ATOM      3  C6  <0> d   1      19.826   1.264  12.099  0.00  0.00     0.207 C 
BRANCH   3   4
ATOM      4  C5  <0> d   1      19.587   1.241  10.612  0.00  0.00    -0.035 A 
ATOM      5  C4  <0> d   1      19.890   0.107   9.880  0.00  0.00     0.011 A 
ATOM      6  C3  <0> d   1      19.671   0.086   8.515  0.00  0.00     0.024 A 
ATOM      7  C2  <0> d   1      19.150   1.200   7.882  0.00  0.00     0.034 A 
ATOM      8 Cl1  <0> d   1      18.874   1.173   6.168  0.00  0.00    -0.084 Cl
ATOM      9  C25 <0> d   1      18.853   2.336   8.613  0.00  0.00     0.024 A 
ATOM     10  C24 <0> d   1      19.068   2.354   9.978  0.00  0.00     0.011 A 
ENDBRANCH   3   4
ENDBRANCH   2   3
ENDBRANCH   1   2
BRANCH   1  11
ATOM     11  C10 <0> d   1      19.767  -1.262  14.551  0.00  0.00     0.166 C 
BRANCH  11  12
ATOM     12  N11 <0> d   1      18.840  -0.837  15.605  0.00  0.00    -0.347 N 
ATOM     13  C15 <0> d   1      19.011  -1.001  16.934  0.00  0.00     0.209 A 
ATOM     14  N14 <0> d   1      17.980  -0.494  17.553  0.00  0.00    -0.255 NA
ATOM     15  C13 <0> d   1      17.120  -0.000  16.649  0.00  0.00     0.135 A 
ATOM     16  C12 <0> d   1      17.641  -0.206  15.424  0.00  0.00     0.111 A 
ENDBRANCH  11  12
ENDBRANCH   1  11
BRANCH   1  17
ATOM     17  C16 <0> d   1      18.885  -1.983  12.349  0.00  0.00    -0.006 A 
ATOM     18  C22 <0> d   1      17.692  -2.000  11.647  0.00  0.00     0.044 A 
ATOM     19  C21 <0> d   1      17.365  -3.095  10.868  0.00  0.00     0.048 A 
ATOM     20 Cl23 <0> d   1      16.616  -0.642  11.733  0.00  0.00    -0.084 Cl
ATOM     21  C19 <0> d   1      18.224  -4.178  10.800  0.00  0.00     0.035 A 
ATOM     22  C18 <0> d   1      19.412  -4.162  11.507  0.00  0.00     0.024 A 
ATOM     23 Cl20 <0> d   1      17.809  -5.555   9.828  0.00  0.00    -0.084 Cl
ATOM     24  C17 <0> d   1      19.743  -3.066  12.281  0.00  0.00     0.013 A 
ENDBRANCH   1  17
TORSDOF 6
ENDMDL
MODEL 3
REMARK VINA RESULT:      -7.3      1.617      1.860
REMARK  6 active torsions:
REMARK  status: ('A' for Active; 'I' for Inactive)
REMARK    1  A    between atoms: C5_5  and  C6_6 
REMARK    2  A    between atoms: C6_6  and  O7_7 
REMARK    3  A    between atoms: O7_7  and  C8_8 
REMARK    4  A    between atoms: C8_8  and  C10_9 
REMARK    5  A    between atoms: C8_8  and  C16_15 
REMARK    6  A    between atoms: C10_9  and  N11_10 
ROOT
ATOM      1  C8  <0> d   1      18.140   1.078  10.376  0.00  0.00     0.174 C 
ENDROOT
BRANCH   1   2
ATOM      2  O7  <0> d   1      17.372   2.280  10.472  0.00  0.00    -0.375 OA
BRANCH   2   3
ATOM      3  C6  <0> d   1      18.134   3.474  10.282  0.00  0.00     0.207 C 
BRANCH   3   4
ATOM      4  C5  <0> d   1      18.241   4.214  11.590  0.00  0.00    -0.035 A 
ATOM      5  C4  <0> d   1      19.461   4.309  12.233  0.00  0.00     0.011 A 
ATOM      6  C3  <0> d   1      19.560   4.988  13.433  0.00  0.00     0.024 A 
ATOM      7  C2  <0> d   1      18.437   5.574  13.990  0.00  0.00     0.034 A 
ATOM      8 Cl1  <0> d   1      18.561   6.428  15.496  0.00  0.00    -0.084 Cl
ATOM      9  C25 <0> d   1      17.215   5.474  13.349  0.00  0.00     0.024 A 
ATOM     10  C24 <0> d   1      17.119   4.799  12.147  0.00  0.00     0.011 A 
ENDBRANCH   3   4
ENDBRANCH   2   3
ENDBRANCH   1   2
BRANCH   1  11
ATOM     11  C10 <0> d   1      17.403   0.072   9.490  0.00  0.00     0.166 C 
BRANCH  11  12
ATOM     12  N11 <0> d   1      17.791   0.278   8.091  0.00  0.00    -0.347 N 
ATOM     13  C15 <0> d   1      17.108  -0.135   7.002  0.00  0.00     0.209 A 
ATOM     14  N14 <0> d   1      17.762   0.234   5.935  0.00  0.00    -0.255 NA
ATOM     15  C13 <0> d   1      18.877   0.883   6.301  0.00  0.00     0.135 A 
ATOM     16  C12 <0> d   1      18.913   0.921   7.647  0.00  0.00     0.111 A 
ENDBRANCH  11  12
ENDBRANCH   1  11
BRANCH   1  17
ATOM     17  C16 <0> d   1      18.329   0.492  11.751  0.00  0.00    -0.006 A 
ATOM     18  C22 <0> d   1      19.459  -0.255  12.034  0.00  0.00     0.044 A 
ATOM     19  C21 <0> d   1      19.635  -0.789  13.299  0.00  0.00     0.048 A 
ATOM     20 Cl23 <0> d   1      20.661  -0.510  10.809  0.00  0.00    -0.084 Cl
ATOM     21  C19 <0> d   1      18.676  -0.584  14.275  0.00  0.00     0.035 A 
ATOM     22  C18 <0> d   1      17.545   0.157  13.989  0.00  0.00     0.024 A 
ATOM     23 Cl20 <0> d   1      18.894  -1.260  15.859  0.00  0.00    -0.084 Cl
ATOM     24  C17 <0> d   1      17.371   0.695  12.727  0.00  0.00     0.013 A 
ENDBRANCH   1  17
TORSDOF 6
ENDMDL
MODEL 4
REMARK VINA RESULT:      -7.2      2.186      2.627
REMARK  6 active torsions:
REMARK  status: ('A' for Active; 'I' for Inactive)
REMARK    1  A    between atoms: C5_5  and  C6_6 
REMARK    2  A    between atoms: C6_6  and  O7_7 
REMARK    3  A    between atoms: O7_7  and  C8_8 
REMARK    4  A    between atoms: C8_8  and  C10_9 
REMARK    5  A    between atoms: C8_8  and  C16_15 
REMARK    6  A    between atoms: C10_9  and  N11_10 
ROOT
ATOM      1  C8  <0> d   1      18.965  -0.313   8.614  0.00  0.00     0.174 C 
ENDROOT
BRANCH   1   2
ATOM      2  O7  <0> d   1      19.327   0.761   9.484  0.00  0.00    -0.375 OA
BRANCH   2   3
ATOM      3  C6  <0> d   1      19.113   2.060   8.928  0.00  0.00     0.207 C 
BRANCH   3   4
ATOM      4  C5  <0> d   1      18.420   2.933   9.941  0.00  0.00    -0.035 A 
ATOM      5  C4  <0> d   1      18.026   4.213   9.597  0.00  0.00     0.011 A 
ATOM      6  C3  <0> d   1      17.391   5.015  10.526  0.00  0.00     0.024 A 
ATOM      7  C2  <0> d   1      17.150   4.536  11.802  0.00  0.00     0.034 A 
ATOM      8 Cl1  <0> d   1      16.352   5.543  12.970  0.00  0.00    -0.084 Cl
ATOM      9  C25 <0> d   1      17.550   3.258  12.148  0.00  0.00     0.024 A 
ATOM     10  C24 <0> d   1      18.180   2.456  11.216  0.00  0.00     0.011 A 
ENDBRANCH   3   4
ENDBRANCH   2   3
ENDBRANCH   1   2
BRANCH   1  11
ATOM     11  C10 <0> d   1      17.836   0.141   7.686  0.00  0.00     0.166 C 
BRANCH  11  12
ATOM     12  N11 <0> d   1      18.210  -0.129   6.295  0.00  0.00    -0.347 N 
ATOM     13  C15 <0> d   1      19.343   0.269   5.678  0.00  0.00     0.209 A 
ATOM     14  N14 <0> d   1      19.323  -0.162   4.447  0.00  0.00    -0.255 NA
ATOM     15  C13 <0> d   1      18.184  -0.838   4.233  0.00  0.00     0.135 A 
ATOM     16  C12 <0> d   1      17.474  -0.828   5.378  0.00  0.00     0.111 A 
ENDBRANCH  11  12
ENDBRANCH   1  11
BRANCH   1  17
ATOM     17  C16 <0> d   1      18.499  -1.488   9.433  0.00  0.00    -0.006 A 
ATOM     18  C22 <0> d   1      18.694  -2.777   8.965  0.00  0.00     0.044 A 
ATOM     19  C21 <0> d   1      18.271  -3.856   9.720  0.00  0.00     0.048 A 
ATOM     20 Cl23 <0> d   1      19.480  -3.038   7.440  0.00  0.00    -0.084 Cl
ATOM     21  C19 <0> d   1      17.644  -3.647  10.936  0.00  0.00     0.035 A 
ATOM     22  C18 <0> d   1      17.445  -2.359  11.399  0.00  0.00     0.024 A 
ATOM     23 Cl20 <0> d   1      17.108  -5.002  11.880  0.00  0.00    -0.084 Cl
ATOM     24  C17 <0> d   1      17.872  -1.280  10.647  0.00  0.00     0.013 A 
ENDBRANCH   1  17
TORSDOF 6
ENDMDL
MODEL 5
REMARK VINA RESULT:      -7.2      2.973      5.171
REMARK  6 active torsions:
REMARK  status: ('A' for Active; 'I' for Inactive)
REMARK    1  A    between atoms: C5_5  and  C6_6 
REMARK    2  A    between atoms: C6_6  and  O7_7 
REMARK    3  A    between atoms: O7_7  and  C8_8 
REMARK    4  A    between atoms: C8_8  and  C10_9 
REMARK    5  A    between atoms: C8_8  and  C16_15 
REMARK    6  A    between atoms: C10_9  and  N11_10 
ROOT
ATOM      1  C8  <0> d   1      18.958   1.909  11.021  0.00  0.00     0.174 C 
ENDROOT
BRANCH   1   2
ATOM      2  O7  <0> d   1      19.263   3.299  10.885  0.00  0.00    -0.375 OA
BRANCH   2   3
ATOM      3  C6  <0> d   1      19.646   3.933  12.107  0.00  0.00     0.207 C 
BRANCH   3   4
ATOM      4  C5  <0> d   1      18.426   4.498  12.785  0.00  0.00    -0.035 A 
ATOM      5  C4  <0> d   1      18.339   4.498  14.165  0.00  0.00     0.011 A 
ATOM      6  C3  <0> d   1      17.219   5.016  14.788  0.00  0.00     0.024 A 
ATOM      7  C2  <0> d   1      16.185   5.534  14.029  0.00  0.00     0.034 A 
ATOM      8 Cl1  <0> d   1      14.778   6.186  14.811  0.00  0.00    -0.084 Cl
ATOM      9  C25 <0> d   1      16.269   5.528  12.649  0.00  0.00     0.024 A 
ATOM     10  C24 <0> d   1      17.392   5.015  12.028  0.00  0.00     0.011 A 
ENDBRANCH   3   4
ENDBRANCH   2   3
ENDBRANCH   1   2
BRANCH   1  11
ATOM     11  C10 <0> d   1      20.170   1.176  11.601  0.00  0.00     0.166 C 
BRANCH  11  12
ATOM     12  N11 <0> d   1      19.743   0.345  12.730  0.00  0.00    -0.347 N 
ATOM     13  C15 <0> d   1      19.543   0.760  13.999  0.00  0.00     0.209 A 
ATOM     14  N14 <0> d   1      19.165  -0.261  14.718  0.00  0.00    -0.255 NA
ATOM     15  C13 <0> d   1      19.120  -1.355  13.944  0.00  0.00     0.135 A 
ATOM     16  C12 <0> d   1      19.478  -0.997  12.696  0.00  0.00     0.111 A 
ENDBRANCH  11  12
ENDBRANCH   1  11
BRANCH   1  17
ATOM     17  C16 <0> d   1      18.623   1.333   9.670  0.00  0.00    -0.006 A 
ATOM     18  C22 <0> d   1      17.592   0.417   9.545  0.00  0.00     0.044 A 
ATOM     19  C21 <0> d   1      17.281  -0.106   8.303  0.00  0.00     0.048 A 
ATOM     20 Cl23 <0> d   1      16.683  -0.062  10.943  0.00  0.00    -0.084 Cl
ATOM     21  C19 <0> d   1      18.006   0.277   7.189  0.00  0.00     0.035 A 
ATOM     22  C18 <0> d   1      19.040   1.187   7.316  0.00  0.00     0.024 A 
ATOM     23 Cl20 <0> d   1      17.620  -0.387   5.632  0.00  0.00    -0.084 Cl
ATOM     24  C17 <0> d   1      19.348   1.715   8.557  0.00  0.00     0.013 A 
ENDBRANCH   1  17
TORSDOF 6
ENDMDL
MODEL 6
REMARK VINA RESULT:      -7.1      3.148      6.142
REMARK  6 active torsions:
REMARK  status: ('A' for Active; 'I' for Inactive)
REMARK    1  A    between atoms: C5_5  and  C6_6 
REMARK    2  A    between atoms: C6_6  and  O7_7 
REMARK    3  A    between atoms: O7_7  and  C8_8 
REMARK    4  A    between atoms: C8_8  and  C10_9 
REMARK    5  A    between atoms: C8_8  and  C16_15 
REMARK    6  A    between atoms: C10_9  and  N11_10 
ROOT
ATOM      1  C8  <0> d   1      18.128   1.450  11.345  0.00  0.00     0.174 C 
ENDROOT
BRANCH   1   2
ATOM      2  O7  <0> d   1      16.982   0.897  11.996  0.00  0.00    -0.375 OA
BRANCH   2   3
ATOM      3  C6  <0> d   1      17.180  -0.425  12.500  0.00  0.00     0.207 C 
BRANCH   3   4
ATOM      4  C5  <0> d   1      17.751  -0.352  13.892  0.00  0.00    -0.035 A 
ATOM      5  C4  <0> d   1      18.568  -1.366  14.358  0.00  0.00     0.011 A 
ATOM      6  C3  <0> d   1      19.093  -1.300  15.635  0.00  0.00     0.024 A 
ATOM      7  C2  <0> d   1      18.800  -0.219  16.447  0.00  0.00     0.034 A 
ATOM      8 Cl1  <0> d   1      19.459  -0.135  18.051  0.00  0.00    -0.084 Cl
ATOM      9  C25 <0> d   1      17.978   0.792  15.983  0.00  0.00     0.024 A 
ATOM     10  C24 <0> d   1      17.458   0.727  14.704  0.00  0.00     0.011 A 
ENDBRANCH   3   4
ENDBRANCH   2   3
ENDBRANCH   1   2
BRANCH   1  11
ATOM     11  C10 <0> d   1      17.854   2.910  10.981  0.00  0.00     0.166 C 
BRANCH  11  12
ATOM     12  N11 <0> d   1      18.330   3.780  12.060  0.00  0.00    -0.347 N 
ATOM     13  C15 <0> d   1      17.599   4.241  13.099  0.00  0.00     0.209 A 
ATOM     14  N14 <0> d   1      18.365   4.980  13.852  0.00  0.00    -0.255 NA
ATOM     15  C13 <0> d   1      19.597   5.025  13.324  0.00  0.00     0.135 A 
ATOM     16  C12 <0> d   1      19.595   4.279  12.202  0.00  0.00     0.111 A 
ENDBRANCH  11  12
ENDBRANCH   1  11
BRANCH   1  17
ATOM     17  C16 <0> d   1      18.420   0.666  10.092  0.00  0.00    -0.006 A 
ATOM     18  C22 <0> d   1      19.580  -0.084   9.999  0.00  0.00     0.044 A 
ATOM     19  C21 <0> d   1      19.845  -0.808   8.850  0.00  0.00     0.048 A 
ATOM     20 Cl23 <0> d   1      20.694  -0.127  11.329  0.00  0.00    -0.084 Cl
ATOM     21  C19 <0> d   1      18.956  -0.773   7.791  0.00  0.00     0.035 A 
ATOM     22  C18 <0> d   1      17.801  -0.018   7.882  0.00  0.00     0.024 A 
ATOM     23 Cl20 <0> d   1      19.293  -1.675   6.346  0.00  0.00    -0.084 Cl
ATOM     24  C17 <0> d   1      17.533   0.701   9.032  0.00  0.00     0.013 A 
ENDBRANCH   1  17
TORSDOF 6
ENDMDL
MODEL 7
REMARK VINA RESULT:      -7.1      3.519      6.307
REMARK  6 active torsions:
REMARK  status: ('A' for Active; 'I' for Inactive)
REMARK    1  A    between atoms: C5_5  and  C6_6 
REMARK    2  A    between atoms: C6_6  and  O7_7 
REMARK    3  A    between atoms: O7_7  and  C8_8 
REMARK    4  A    between atoms: C8_8  and  C10_9 
REMARK    5  A    between atoms: C8_8  and  C16_15 
REMARK    6  A    between atoms: C10_9  and  N11_10 
ROOT
ATOM      1  C8  <0> d   1      19.512   0.054  10.962  0.00  0.00     0.174 C 
ENDROOT
BRANCH   1   2
ATOM      2  O7  <0> d   1      20.198   0.087   9.709  0.00  0.00    -0.375 OA
BRANCH   2   3
ATOM      3  C6  <0> d   1      19.637   0.997   8.762  0.00  0.00     0.207 C 
BRANCH   3   4
ATOM      4  C5  <0> d   1      19.054   0.225   7.607  0.00  0.00    -0.035 A 
ATOM      5  C4  <0> d   1      19.040  -1.158   7.637  0.00  0.00     0.011 A 
ATOM      6  C3  <0> d   1      18.505  -1.867   6.578  0.00  0.00     0.024 A 
ATOM      7  C2  <0> d   1      17.984  -1.193   5.488  0.00  0.00     0.034 A 
ATOM      8 Cl1  <0> d   1      17.311  -2.083   4.158  0.00  0.00    -0.084 Cl
ATOM      9  C25 <0> d   1      18.003   0.190   5.456  0.00  0.00     0.024 A 
ATOM     10  C24 <0> d   1      18.533   0.897   6.518  0.00  0.00     0.011 A 
ENDBRANCH   3   4
ENDBRANCH   2   3
ENDBRANCH   1   2
BRANCH   1  11
ATOM     11  C10 <0> d   1      20.464   0.493  12.077  0.00  0.00     0.166 C 
BRANCH  11  12
ATOM     12  N11 <0> d   1      19.693   1.091  13.170  0.00  0.00    -0.347 N 
ATOM     13  C15 <0> d   1      19.561   0.598  14.420  0.00  0.00     0.209 A 
ATOM     14  N14 <0> d   1      18.804   1.406  15.111  0.00  0.00    -0.255 NA
ATOM     15  C13 <0> d   1      18.424   2.430  14.332  0.00  0.00     0.135 A 
ATOM     16  C12 <0> d   1      18.970   2.251  13.114  0.00  0.00     0.111 A 
ENDBRANCH  11  12
ENDBRANCH   1  11
BRANCH   1  17
ATOM     17  C16 <0> d   1      19.031  -1.347  11.235  0.00  0.00    -0.006 A 
ATOM     18  C22 <0> d   1      17.704  -1.573  11.555  0.00  0.00     0.044 A 
ATOM     19  C21 <0> d   1      17.261  -2.861  11.801  0.00  0.00     0.048 A 
ATOM     20 Cl23 <0> d   1      16.592  -0.243  11.635  0.00  0.00    -0.084 Cl
ATOM     21  C19 <0> d   1      18.149  -3.920  11.737  0.00  0.00     0.035 A 
ATOM     22  C18 <0> d   1      19.476  -3.693  11.423  0.00  0.00     0.024 A 
ATOM     23 Cl20 <0> d   1      17.595  -5.535  12.052  0.00  0.00    -0.084 Cl
ATOM     24  C17 <0> d   1      19.917  -2.407  11.173  0.00  0.00     0.013 A 
ENDBRANCH   1  17
TORSDOF 6
ENDMDL
MODEL 8
REMARK VINA RESULT:      -7.1      3.472      7.018
REMARK  6 active torsions:
REMARK  status: ('A' for Active; 'I' for Inactive)
REMARK    1  A    between atoms: C5_5  and  C6_6 
REMARK    2  A    between atoms: C6_6  and  O7_7 
REMARK    3  A    between atoms: O7_7  and  C8_8 
REMARK    4  A    between atoms: C8_8  and  C10_9 
REMARK    5  A    between atoms: C8_8  and  C16_15 
REMARK    6  A    between atoms: C10_9  and  N11_10 
ROOT
ATOM      1  C8  <0> d   1      18.150  -0.127  11.937  0.00  0.00     0.174 C 
ENDROOT
BRANCH   1   2
ATOM      2  O7  <0> d   1      17.538  -1.326  12.417  0.00  0.00    -0.375 OA
BRANCH   2   3
ATOM      3  C6  <0> d   1      18.466  -2.355  12.766  0.00  0.00     0.207 C 
BRANCH   3   4
ATOM      4  C5  <0> d   1      18.448  -3.429  11.711  0.00  0.00    -0.035 A 
ATOM      5  C4  <0> d   1      17.243  -3.937  11.262  0.00  0.00     0.011 A 
ATOM      6  C3  <0> d   1      17.225  -4.923  10.293  0.00  0.00     0.024 A 
ATOM      7  C2  <0> d   1      18.415  -5.401   9.773  0.00  0.00     0.034 A 
ATOM      8 Cl1  <0> d   1      18.394  -6.639   8.555  0.00  0.00    -0.084 Cl
ATOM      9  C25 <0> d   1      19.621  -4.897  10.226  0.00  0.00     0.024 A 
ATOM     10  C24 <0> d   1      19.636  -3.907  11.191  0.00  0.00     0.011 A 
ENDBRANCH   3   4
ENDBRANCH   2   3
ENDBRANCH   1   2
BRANCH   1  11
ATOM     11  C10 <0> d   1      17.279   1.074  12.311  0.00  0.00     0.166 C 
BRANCH  11  12
ATOM     12  N11 <0> d   1      18.019   2.313  12.049  0.00  0.00    -0.347 N 
ATOM     13  C15 <0> d   1      17.627   3.325  11.245  0.00  0.00     0.209 A 
ATOM     14  N14 <0> d   1      18.542   4.254  11.268  0.00  0.00    -0.255 NA
ATOM     15  C13 <0> d   1      19.545   3.869  12.072  0.00  0.00     0.135 A 
ATOM     16  C12 <0> d   1      19.235   2.657  12.571  0.00  0.00     0.111 A 
ENDBRANCH  11  12
ENDBRANCH   1  11
BRANCH   1  17
ATOM     17  C16 <0> d   1      18.291  -0.199  10.440  0.00  0.00    -0.006 A 
ATOM     18  C22 <0> d   1      19.542  -0.371   9.870  0.00  0.00     0.044 A 
ATOM     19  C21 <0> d   1      19.670  -0.442   8.494  0.00  0.00     0.048 A 
ATOM     20 Cl23 <0> d   1      20.945  -0.509  10.882  0.00  0.00    -0.084 Cl
ATOM     21  C19 <0> d   1      18.551  -0.332   7.689  0.00  0.00     0.035 A 
ATOM     22  C18 <0> d   1      17.303  -0.155   8.258  0.00  0.00     0.024 A 
ATOM     23 Cl20 <0> d   1      18.713  -0.415   5.962  0.00  0.00    -0.084 Cl
ATOM     24  C17 <0> d   1      17.174  -0.088   9.633  0.00  0.00     0.013 A 
ENDBRANCH   1  17
TORSDOF 6
ENDMDL
MODEL 9
REMARK VINA RESULT:      -7.1      2.755      4.671
REMARK  6 active torsions:
REMARK  status: ('A' for Active; 'I' for Inactive)
REMARK    1  A    between atoms: C5_5  and  C6_6 
REMARK    2  A    between atoms: C6_6  and  O7_7 
REMARK    3  A    between atoms: O7_7  and  C8_8 
REMARK    4  A    between atoms: C8_8  and  C10_9 
REMARK    5  A    between atoms: C8_8  and  C16_15 
REMARK    6  A    between atoms: C10_9  and  N11_10 
ROOT
ATOM      1  C8  <0> d   1      18.887  -0.923  11.754  0.00  0.00     0.174 C 
ENDROOT
BRANCH   1   2
ATOM      2  O7  <0> d   1      17.539  -0.943  11.278  0.00  0.00    -0.375 OA
BRANCH   2   3
ATOM      3  C6  <0> d   1      17.112   0.285  10.685  0.00  0.00     0.207 C 
BRANCH   3   4
ATOM      4  C5  <0> d   1      17.668   0.388   9.289  0.00  0.00    -0.035 A 
ATOM      5  C4  <0> d   1      17.222  -0.472   8.302  0.00  0.00     0.011 A 
ATOM      6  C3  <0> d   1      17.732  -0.377   7.020  0.00  0.00     0.024 A 
ATOM      7  C2  <0> d   1      18.689   0.578   6.726  0.00  0.00     0.034 A 
ATOM      8 Cl1  <0> d   1      19.328   0.698   5.116  0.00  0.00    -0.084 Cl
ATOM      9  C25 <0> d   1      19.139   1.434   7.715  0.00  0.00     0.024 A 
ATOM     10  C24 <0> d   1      18.624   1.341   8.995  0.00  0.00     0.011 A 
ENDBRANCH   3   4
ENDBRANCH   2   3
ENDBRANCH   1   2
BRANCH   1  11
ATOM     11  C10 <0> d   1      19.504  -2.314  11.594  0.00  0.00     0.166 C 
BRANCH  11  12
ATOM     12  N11 <0> d   1      18.539  -3.205  10.943  0.00  0.00    -0.347 N 
ATOM     13  C15 <0> d   1      18.471  -3.485   9.624  0.00  0.00     0.209 A 
ATOM     14  N14 <0> d   1      17.487  -4.318   9.425  0.00  0.00    -0.255 NA
ATOM     15  C13 <0> d   1      16.892  -4.591  10.596  0.00  0.00     0.135 A 
ATOM     16  C12 <0> d   1      17.536  -3.903  11.559  0.00  0.00     0.111 A 
ENDBRANCH  11  12
ENDBRANCH   1  11
BRANCH   1  17
ATOM     17  C16 <0> d   1      18.901  -0.532  13.208  0.00  0.00    -0.006 A 
ATOM     18  C22 <0> d   1      19.298   0.742  13.578  0.00  0.00     0.044 A 
ATOM     19  C21 <0> d   1      19.305   1.103  14.914  0.00  0.00     0.048 A 
ATOM     20 Cl23 <0> d   1      19.772   1.889  12.366  0.00  0.00    -0.084 Cl
ATOM     21  C19 <0> d   1      18.927   0.187  15.879  0.00  0.00     0.035 A 
ATOM     22  C18 <0> d   1      18.536  -1.087  15.509  0.00  0.00     0.024 A 
ATOM     23 Cl20 <0> d   1      18.943   0.638  17.556  0.00  0.00    -0.084 Cl
ATOM     24  C17 <0> d   1      18.524  -1.446  14.174  0.00  0.00     0.013 A 
ENDBRANCH   1  17
TORSDOF 6
ENDMDL
