MODEL 1
REMARK VINA RESULT:      -7.6      0.000      0.000
REMARK  2 active torsions:
REMARK  status: ('A' for Active; 'I' for Inactive)
REMARK    1  A    between atoms: O2_2  and  C3_3 
REMARK    2  A    between atoms: C24_22  and  O25_23 
ROOT
ATOM      1  C3  ZIN A   1      19.400   3.547  11.718  0.00  0.00     0.102 A 
ATOM      2  C4  ZIN A   1      18.402   3.822  10.788  0.00  0.00     0.040 A 
ATOM      3  C5  ZIN A   1      17.698   2.836  10.115  0.00  0.00     0.011 A 
ATOM      4  C6  ZIN A   1      17.985   1.501  10.337  0.00  0.00    -0.046 A 
ATOM      5  C7  ZIN A   1      17.214   0.356   9.764  0.00  0.00     0.078 C 
ATOM      6  C8  ZIN A   1      17.769  -1.003  10.159  0.00  0.00     0.262 C 
ATOM      7  N10 ZIN A   1      18.778  -1.445   9.189  0.00  0.00     0.092 N 
ATOM      8  C11 ZIN A   1      18.201  -1.559   7.842  0.00  0.00     0.310 C 
ATOM      9  C12 ZIN A   1      19.958  -0.574   9.183  0.00  0.00     0.273 C 
ATOM     10  C13 ZIN A   1      20.607  -0.566  10.573  0.00  0.00     0.051 C 
ATOM     11  C14 ZIN A   1      19.563  -0.110  11.590  0.00  0.00     0.058 C 
ATOM     12  C15 ZIN A   1      19.030   1.246  11.196  0.00  0.00    -0.001 A 
ATOM     13  C16 ZIN A   1      19.714   2.199  11.936  0.00  0.00     0.111 A 
ATOM     14  O17 ZIN A   1      20.570   1.602  12.792  0.00  0.00    -0.334 OA
ATOM     15  C18 ZIN A   1      20.184   0.200  12.945  0.00  0.00     0.214 C 
ATOM     16  C20 ZIN A   1      19.205   0.127  14.079  0.00  0.00     0.157 C 
ATOM     17  O21 ZIN A   1      19.435   0.766  15.078  0.00  0.00    -0.295 OA
ATOM     18  C22 ZIN A   1      17.956  -0.699  14.030  0.00  0.00     0.084 C 
ATOM     19  C23 ZIN A   1      17.316  -0.593  12.643  0.00  0.00     0.049 C 
ATOM     20  C24 ZIN A   1      18.388  -1.045  11.558  0.00  0.00     0.104 C 
ENDROOT
BRANCH   1  21
ATOM     21  O2  ZIN A   1      20.047   4.542  12.383  0.00  0.00    -0.353 OA
ATOM     22  C1  ZIN A   1      19.455   5.000  13.600  0.00  0.00     0.210 C 
ENDBRANCH   1  21
BRANCH  20  23
ATOM     23  O25 ZIN A   1      18.823  -2.376  11.841  0.00  0.00    -0.386 OA
ATOM     24  H44 ZIN A   1      18.424  -3.050  11.272  0.00  0.00     0.210 HD
ENDBRANCH  20  23
TORSDOF 2
ENDMDL
MODEL 2
REMARK VINA RESULT:      -7.3      2.217      5.277
REMARK  2 active torsions:
REMARK  status: ('A' for Active; 'I' for Inactive)
REMARK    1  A    between atoms: O2_2  and  C3_3 
REMARK    2  A    between atoms: C24_22  and  O25_23 
ROOT
ATOM      1  C3  ZIN A   1      18.744  -2.313   9.673  0.00  0.00     0.102 A 
ATOM      2  C4  ZIN A   1      17.749  -2.786  10.523  0.00  0.00     0.040 A 
ATOM      3  C5  ZIN A   1      17.305  -2.089  11.635  0.00  0.00     0.011 A 
ATOM      4  C6  ZIN A   1      17.866  -0.866  11.960  0.00  0.00    -0.046 A 
ATOM      5  C7  ZIN A   1      17.387   0.028  13.058  0.00  0.00     0.078 C 
ATOM      6  C8  ZIN A   1      18.206   1.300  13.202  0.00  0.00     0.262 C 
ATOM      7  N10 ZIN A   1      19.327   1.084  14.125  0.00  0.00     0.092 N 
ATOM      8  C11 ZIN A   1      18.845   0.695  15.458  0.00  0.00     0.310 C 
ATOM      9  C12 ZIN A   1      20.289   0.105  13.608  0.00  0.00     0.273 C 
ATOM     10  C13 ZIN A   1      20.863   0.592  12.272  0.00  0.00     0.051 C 
ATOM     11  C14 ZIN A   1      19.703   0.822  11.305  0.00  0.00     0.058 C 
ATOM     12  C15 ZIN A   1      18.904  -0.450  11.159  0.00  0.00    -0.001 A 
ATOM     13  C16 ZIN A   1      19.334  -1.087  10.003  0.00  0.00     0.111 A 
ATOM     14  O17 ZIN A   1      20.263  -0.337   9.373  0.00  0.00    -0.334 OA
ATOM     15  C18 ZIN A   1      20.185   1.034   9.876  0.00  0.00     0.214 C 
ATOM     16  C20 ZIN A   1      19.199   1.770   9.018  0.00  0.00     0.157 C 
ATOM     17  O21 ZIN A   1      19.243   1.605   7.822  0.00  0.00    -0.295 OA
ATOM     18  C22 ZIN A   1      18.162   2.698   9.575  0.00  0.00     0.084 C 
ATOM     19  C23 ZIN A   1      17.573   2.109  10.859  0.00  0.00     0.049 C 
ATOM     20  C24 ZIN A   1      18.761   1.841  11.881  0.00  0.00     0.104 C 
ENDROOT
BRANCH   1  21
ATOM     21  O2  ZIN A   1      19.131  -3.013   8.572  0.00  0.00    -0.353 OA
ATOM     22  C1  ZIN A   1      18.534  -2.645   7.327  0.00  0.00     0.210 C 
ENDBRANCH   1  21
BRANCH  20  23
ATOM     23  O25 ZIN A   1      19.463   3.060  12.130  0.00  0.00    -0.386 OA
ATOM     24  H44 ZIN A   1      19.286   3.445  13.000  0.00  0.00     0.210 HD
ENDBRANCH  20  23
TORSDOF 2
ENDMDL
MODEL 3
REMARK VINA RESULT:      -7.0      2.403      5.136
REMARK  2 active torsions:
REMARK  status: ('A' for Active; 'I' for Inactive)
REMARK    1  A    between atoms: O2_2  and  C3_3 
REMARK    2  A    between atoms: C24_22  and  O25_23 
ROOT
ATOM      1  C3  ZIN A   1      17.347  -3.900  10.748  0.00  0.00     0.102 A 
ATOM      2  C4  ZIN A   1      17.921  -4.480   9.620  0.00  0.00     0.040 A 
ATOM      3  C5  ZIN A   1      18.644  -3.763   8.682  0.00  0.00     0.011 A 
ATOM      4  C6  ZIN A   1      18.811  -2.396   8.827  0.00  0.00    -0.046 A 
ATOM      5  C7  ZIN A   1      19.669  -1.544   7.949  0.00  0.00     0.078 C 
ATOM      6  C8  ZIN A   1      19.646  -0.072   8.329  0.00  0.00     0.262 C 
ATOM      7  N10 ZIN A   1      18.563   0.622   7.622  0.00  0.00     0.092 N 
ATOM      8  C11 ZIN A   1      18.737   0.527   6.166  0.00  0.00     0.310 C 
ATOM      9  C12 ZIN A   1      17.239   0.137   8.026  0.00  0.00     0.273 C 
ATOM     10  C13 ZIN A   1      17.040   0.355   9.531  0.00  0.00     0.051 C 
ATOM     11  C14 ZIN A   1      18.165  -0.362  10.275  0.00  0.00     0.058 C 
ATOM     12  C15 ZIN A   1      18.169  -1.824   9.901  0.00  0.00    -0.001 A 
ATOM     13  C16 ZIN A   1      17.492  -2.515  10.895  0.00  0.00     0.111 A 
ATOM     14  O17 ZIN A   1      17.116  -1.671  11.879  0.00  0.00    -0.334 OA
ATOM     15  C18 ZIN A   1      17.899  -0.441  11.772  0.00  0.00     0.214 C 
ATOM     16  C20 ZIN A   1      19.143  -0.630  12.588  0.00  0.00     0.157 C 
ATOM     17  O21 ZIN A   1      19.043  -1.147  13.675  0.00  0.00    -0.295 OA
ATOM     18  C22 ZIN A   1      20.502  -0.209  12.118  0.00  0.00     0.084 C 
ATOM     19  C23 ZIN A   1      20.662  -0.534  10.631  0.00  0.00     0.049 C 
ATOM     20  C24 ZIN A   1      19.491   0.185   9.830  0.00  0.00     0.104 C 
ENDROOT
BRANCH   1  21
ATOM     21  O2  ZIN A   1      16.671  -4.644  11.664  0.00  0.00    -0.353 OA
ATOM     22  C1  ZIN A   1      17.355  -5.770  12.217  0.00  0.00     0.210 C 
ENDBRANCH   1  21
BRANCH  20  23
ATOM     23  O25 ZIN A   1      19.539   1.592  10.074  0.00  0.00    -0.386 OA
ATOM     24  H44 ZIN A   1      20.153   1.849  10.776  0.00  0.00     0.210 HD
ENDBRANCH  20  23
TORSDOF 2
ENDMDL
MODEL 4
REMARK VINA RESULT:      -7.0      2.431      4.984
REMARK  2 active torsions:
REMARK  status: ('A' for Active; 'I' for Inactive)
REMARK    1  A    between atoms: O2_2  and  C3_3 
REMARK    2  A    between atoms: C24_22  and  O25_23 
ROOT
ATOM      1  C3  ZIN A   1      18.202  -0.115   7.089  0.00  0.00     0.102 A 
ATOM      2  C4  ZIN A   1      18.892   1.087   6.958  0.00  0.00     0.040 A 
ATOM      3  C5  ZIN A   1      19.390   1.799   8.038  0.00  0.00     0.011 A 
ATOM      4  C6  ZIN A   1      19.198   1.334   9.327  0.00  0.00    -0.046 A 
ATOM      5  C7  ZIN A   1      19.791   1.949  10.553  0.00  0.00     0.078 C 
ATOM      6  C8  ZIN A   1      19.392   1.240  11.837  0.00  0.00     0.262 C 
ATOM      7  N10 ZIN A   1      18.155   1.818  12.377  0.00  0.00     0.092 N 
ATOM      8  C11 ZIN A   1      18.328   3.247  12.676  0.00  0.00     0.310 C 
ATOM      9  C12 ZIN A   1      17.009   1.602  11.488  0.00  0.00     0.273 C 
ATOM     10  C13 ZIN A   1      16.781   0.099  11.286  0.00  0.00     0.051 C 
ATOM     11  C14 ZIN A   1      18.064  -0.512  10.727  0.00  0.00     0.058 C 
ATOM     12  C15 ZIN A   1      18.444   0.189   9.446  0.00  0.00    -0.001 A 
ATOM     13  C16 ZIN A   1      17.983  -0.585   8.390  0.00  0.00     0.111 A 
ATOM     14  O17 ZIN A   1      17.415  -1.718   8.853  0.00  0.00    -0.334 OA
ATOM     15  C18 ZIN A   1      17.849  -1.936  10.232  0.00  0.00     0.214 C 
ATOM     16  C20 ZIN A   1      19.110  -2.745  10.181  0.00  0.00     0.157 C 
ATOM     17  O21 ZIN A   1      19.164  -3.677   9.414  0.00  0.00    -0.295 OA
ATOM     18  C22 ZIN A   1      20.306  -2.452  11.035  0.00  0.00     0.084 C 
ATOM     19  C23 ZIN A   1      20.525  -0.940  11.122  0.00  0.00     0.049 C 
ATOM     20  C24 ZIN A   1      19.196  -0.271  11.685  0.00  0.00     0.104 C 
ENDROOT
BRANCH   1  21
ATOM     21  O2  ZIN A   1      17.756  -0.801   6.003  0.00  0.00    -0.353 OA
ATOM     22  C1  ZIN A   1      18.348  -0.476   4.743  0.00  0.00     0.210 C 
ENDBRANCH   1  21
BRANCH  20  23
ATOM     23  O25 ZIN A   1      18.879  -0.835  12.959  0.00  0.00    -0.386 OA
ATOM     24  H44 ZIN A   1      19.654  -1.073  13.487  0.00  0.00     0.210 HD
ENDBRANCH  20  23
TORSDOF 2
ENDMDL
MODEL 5
REMARK VINA RESULT:      -7.0      1.976      4.178
REMARK  2 active torsions:
REMARK  status: ('A' for Active; 'I' for Inactive)
REMARK    1  A    between atoms: O2_2  and  C3_3 
REMARK    2  A    between atoms: C24_22  and  O25_23 
ROOT
ATOM      1  C3  ZIN A   1      18.254   0.301  15.988  0.00  0.00     0.102 A 
ATOM      2  C4  ZIN A   1      18.960  -0.889  16.145  0.00  0.00     0.040 A 
ATOM      3  C5  ZIN A   1      19.446  -1.630  15.080  0.00  0.00     0.011 A 
ATOM      4  C6  ZIN A   1      19.225  -1.210  13.780  0.00  0.00    -0.046 A 
ATOM      5  C7  ZIN A   1      19.802  -1.858  12.564  0.00  0.00     0.078 C 
ATOM      6  C8  ZIN A   1      19.371  -1.197  11.265  0.00  0.00     0.262 C 
ATOM      7  N10 ZIN A   1      18.132  -1.807  10.768  0.00  0.00     0.092 N 
ATOM      8  C11 ZIN A   1      18.315  -3.242  10.513  0.00  0.00     0.310 C 
ATOM      9  C12 ZIN A   1      17.000  -1.574  11.671  0.00  0.00     0.273 C 
ATOM     10  C13 ZIN A   1      16.758  -0.067  11.828  0.00  0.00     0.051 C 
ATOM     11  C14 ZIN A   1      18.044   0.576  12.342  0.00  0.00     0.058 C 
ATOM     12  C15 ZIN A   1      18.455  -0.078  13.639  0.00  0.00    -0.001 A 
ATOM     13  C16 ZIN A   1      18.006   0.725  14.677  0.00  0.00     0.111 A 
ATOM     14  O17 ZIN A   1      17.415   1.836  14.188  0.00  0.00    -0.334 OA
ATOM     15  C18 ZIN A   1      17.821   2.013  12.794  0.00  0.00     0.214 C 
ATOM     16  C20 ZIN A   1      19.074   2.837  12.795  0.00  0.00     0.157 C 
ATOM     17  O21 ZIN A   1      19.131   3.795  13.529  0.00  0.00    -0.295 OA
ATOM     18  C22 ZIN A   1      20.257   2.529  11.929  0.00  0.00     0.084 C 
ATOM     19  C23 ZIN A   1      20.492   1.017  11.887  0.00  0.00     0.049 C 
ATOM     20  C24 ZIN A   1      19.161   0.316  11.372  0.00  0.00     0.104 C 
ENDROOT
BRANCH   1  21
ATOM     21  O2  ZIN A   1      17.820   1.017  17.060  0.00  0.00    -0.353 OA
ATOM     22  C1  ZIN A   1      18.810   1.722  17.812  0.00  0.00     0.210 C 
ENDBRANCH   1  21
BRANCH  20  23
ATOM     23  O25 ZIN A   1      18.814   0.834  10.086  0.00  0.00    -0.386 OA
ATOM     24  H44 ZIN A   1      19.370   0.505   9.366  0.00  0.00     0.210 HD
ENDBRANCH  20  23
TORSDOF 2
ENDMDL
MODEL 6
REMARK VINA RESULT:      -7.0      2.730      6.122
REMARK  2 active torsions:
REMARK  status: ('A' for Active; 'I' for Inactive)
REMARK    1  A    between atoms: O2_2  and  C3_3 
REMARK    2  A    between atoms: C24_22  and  O25_23 
ROOT
ATOM      1  C3  ZIN A   1      18.445  -4.347   9.663  0.00  0.00     0.102 A 
ATOM      2  C4  ZIN A   1      17.686  -4.339  10.830  0.00  0.00     0.040 A 
ATOM      3  C5  ZIN A   1      17.376  -3.183  11.527  0.00  0.00     0.011 A 
ATOM      4  C6  ZIN A   1      17.839  -1.956  11.083  0.00  0.00    -0.046 A 
ATOM      5  C7  ZIN A   1      17.469  -0.637  11.680  0.00  0.00     0.078 C 
ATOM      6  C8  ZIN A   1      18.146   0.543  11.003  0.00  0.00     0.262 C 
ATOM      7  N10 ZIN A   1      19.435   0.830  11.644  0.00  0.00     0.092 N 
ATOM      8  C11 ZIN A   1      19.256   1.157  13.065  0.00  0.00     0.310 C 
ATOM      9  C12 ZIN A   1      20.393  -0.267  11.474  0.00  0.00     0.273 C 
ATOM     10  C13 ZIN A   1      20.650  -0.510   9.982  0.00  0.00     0.051 C 
ATOM     11  C14 ZIN A   1      19.313  -0.806   9.306  0.00  0.00     0.058 C 
ATOM     12  C15 ZIN A   1      18.656  -1.989   9.976  0.00  0.00    -0.001 A 
ATOM     13  C16 ZIN A   1      18.937  -3.114   9.216  0.00  0.00     0.111 A 
ATOM     14  O17 ZIN A   1      19.639  -2.773   8.115  0.00  0.00    -0.334 OA
ATOM     15  C18 ZIN A   1      19.495  -1.335   7.889  0.00  0.00     0.214 C 
ATOM     16  C20 ZIN A   1      18.289  -1.138   7.021  0.00  0.00     0.157 C 
ATOM     17  O21 ZIN A   1      18.130  -1.880   6.080  0.00  0.00    -0.295 OA
ATOM     18  C22 ZIN A   1      17.271  -0.066   7.265  0.00  0.00     0.084 C 
ATOM     19  C23 ZIN A   1      17.001   0.063   8.766  0.00  0.00     0.049 C 
ATOM     20  C24 ZIN A   1      18.381   0.354   9.502  0.00  0.00     0.104 C 
ENDROOT
BRANCH   1  21
ATOM     21  O2  ZIN A   1      18.702  -5.500   8.990  0.00  0.00    -0.353 OA
ATOM     22  C1  ZIN A   1      19.993  -6.084   9.173  0.00  0.00     0.210 C 
ENDBRANCH   1  21
BRANCH  20  23
ATOM     23  O25 ZIN A   1      18.968   1.541   8.965  0.00  0.00    -0.386 OA
ATOM     24  H44 ZIN A   1      18.794   2.337   9.486  0.00  0.00     0.210 HD
ENDBRANCH  20  23
TORSDOF 2
ENDMDL
MODEL 7
REMARK VINA RESULT:      -6.8      2.052      4.020
REMARK  2 active torsions:
REMARK  status: ('A' for Active; 'I' for Inactive)
REMARK    1  A    between atoms: O2_2  and  C3_3 
REMARK    2  A    between atoms: C24_22  and  O25_23 
ROOT
ATOM      1  C3  ZIN A   1      18.339   3.648  10.912  0.00  0.00     0.102 A 
ATOM      2  C4  ZIN A   1      19.343   3.937  11.832  0.00  0.00     0.040 A 
ATOM      3  C5  ZIN A   1      19.999   2.965  12.570  0.00  0.00     0.011 A 
ATOM      4  C6  ZIN A   1      19.656   1.632  12.428  0.00  0.00    -0.046 A 
ATOM      5  C7  ZIN A   1      20.374   0.492  13.076  0.00  0.00     0.078 C 
ATOM      6  C8  ZIN A   1      19.764  -0.864  12.760  0.00  0.00     0.262 C 
ATOM      7  N10 ZIN A   1      18.730  -1.202  13.746  0.00  0.00     0.092 N 
ATOM      8  C11 ZIN A   1      19.294  -1.258  15.102  0.00  0.00     0.310 C 
ATOM      9  C12 ZIN A   1      17.589  -0.283  13.688  0.00  0.00     0.273 C 
ATOM     10  C13 ZIN A   1      16.949  -0.332  12.295  0.00  0.00     0.051 C 
ATOM     11  C14 ZIN A   1      18.018   0.016  11.262  0.00  0.00     0.058 C 
ATOM     12  C15 ZIN A   1      18.607   1.370  11.577  0.00  0.00    -0.001 A 
ATOM     13  C16 ZIN A   1      17.969   2.305  10.775  0.00  0.00     0.111 A 
ATOM     14  O17 ZIN A   1      17.093   1.693   9.949  0.00  0.00    -0.334 OA
ATOM     15  C18 ZIN A   1      17.419   0.269   9.885  0.00  0.00     0.214 C 
ATOM     16  C20 ZIN A   1      18.401   0.086   8.766  0.00  0.00     0.157 C 
ATOM     17  O21 ZIN A   1      18.205   0.671   7.728  0.00  0.00    -0.295 OA
ATOM     18  C22 ZIN A   1      19.613  -0.789   8.876  0.00  0.00     0.084 C 
ATOM     19  C23 ZIN A   1      20.248  -0.626  10.259  0.00  0.00     0.049 C 
ATOM     20  C24 ZIN A   1      19.152  -0.964  11.360  0.00  0.00     0.104 C 
ENDROOT
BRANCH   1  21
ATOM     21  O2  ZIN A   1      17.740   4.627  10.183  0.00  0.00    -0.353 OA
ATOM     22  C1  ZIN A   1      16.556   5.212  10.731  0.00  0.00     0.210 C 
ENDBRANCH   1  21
BRANCH  20  23
ATOM     23  O25 ZIN A   1      18.662  -2.291  11.155  0.00  0.00    -0.386 OA
ATOM     24  H44 ZIN A   1      19.197  -2.818  10.546  0.00  0.00     0.210 HD
ENDBRANCH  20  23
TORSDOF 2
ENDMDL
MODEL 8
REMARK VINA RESULT:      -6.7      1.990      3.760
REMARK  2 active torsions:
REMARK  status: ('A' for Active; 'I' for Inactive)
REMARK    1  A    between atoms: O2_2  and  C3_3 
REMARK    2  A    between atoms: C24_22  and  O25_23 
ROOT
ATOM      1  C3  ZIN A   1      18.794   1.923  13.834  0.00  0.00     0.102 A 
ATOM      2  C4  ZIN A   1      19.855   1.095  14.190  0.00  0.00     0.040 A 
ATOM      3  C5  ZIN A   1      20.347   0.095  13.368  0.00  0.00     0.011 A 
ATOM      4  C6  ZIN A   1      19.770  -0.138  12.131  0.00  0.00    -0.046 A 
ATOM      5  C7  ZIN A   1      20.290  -1.102  11.115  0.00  0.00     0.078 C 
ATOM      6  C8  ZIN A   1      19.442  -1.167   9.855  0.00  0.00     0.262 C 
ATOM      7  N10 ZIN A   1      18.390  -2.180   9.999  0.00  0.00     0.092 N 
ATOM      8  C11 ZIN A   1      18.968  -3.511  10.232  0.00  0.00     0.310 C 
ATOM      9  C12 ZIN A   1      17.428  -1.833  11.050  0.00  0.00     0.273 C 
ATOM     10  C13 ZIN A   1      16.756  -0.494  10.722  0.00  0.00     0.051 C 
ATOM     11  C14 ZIN A   1      17.844   0.566  10.567  0.00  0.00     0.058 C 
ATOM     12  C15 ZIN A   1      18.671   0.632  11.829  0.00  0.00    -0.001 A 
ATOM     13  C16 ZIN A   1      18.189   1.683  12.594  0.00  0.00     0.111 A 
ATOM     14  O17 ZIN A   1      17.199   2.325  11.938  0.00  0.00    -0.334 OA
ATOM     15  C18 ZIN A   1      17.265   1.974  10.521  0.00  0.00     0.214 C 
ATOM     16  C20 ZIN A   1      18.171   2.967   9.856  0.00  0.00     0.157 C 
ATOM     17  O21 ZIN A   1      18.057   4.134  10.148  0.00  0.00    -0.295 OA
ATOM     18  C22 ZIN A   1      19.212   2.581   8.849  0.00  0.00     0.084 C 
ATOM     19  C23 ZIN A   1      19.900   1.285   9.284  0.00  0.00     0.049 C 
ATOM     20  C24 ZIN A   1      18.788   0.163   9.471  0.00  0.00     0.104 C 
ENDROOT
BRANCH   1  21
ATOM     21  O2  ZIN A   1      18.360   2.916  14.656  0.00  0.00    -0.353 OA
ATOM     22  C1  ZIN A   1      19.095   3.126  15.863  0.00  0.00     0.210 C 
ENDBRANCH   1  21
BRANCH  20  23
ATOM     23  O25 ZIN A   1      18.066  -0.004   8.249  0.00  0.00    -0.386 OA
ATOM     24  H44 ZIN A   1      18.338  -0.776   7.734  0.00  0.00     0.210 HD
ENDBRANCH  20  23
TORSDOF 2
ENDMDL
MODEL 9
REMARK VINA RESULT:      -6.4      2.247      4.670
REMARK  2 active torsions:
REMARK  status: ('A' for Active; 'I' for Inactive)
REMARK    1  A    between atoms: O2_2  and  C3_3 
REMARK    2  A    between atoms: C24_22  and  O25_23 
ROOT
ATOM      1  C3  ZIN A   1      18.330   0.198   8.457  0.00  0.00     0.102 A 
ATOM      2  C4  ZIN A   1      17.594  -0.895   8.905  0.00  0.00     0.040 A 
ATOM      3  C5  ZIN A   1      17.378  -1.165  10.247  0.00  0.00     0.011 A 
ATOM      4  C6  ZIN A   1      17.918  -0.342  11.220  0.00  0.00    -0.046 A 
ATOM      5  C7  ZIN A   1      17.651  -0.464  12.685  0.00  0.00     0.078 C 
ATOM      6  C8  ZIN A   1      18.397   0.562  13.522  0.00  0.00     0.262 C 
ATOM      7  N10 ZIN A   1      19.714   0.044  13.912  0.00  0.00     0.092 N 
ATOM      8  C11 ZIN A   1      19.583  -1.187  14.705  0.00  0.00     0.310 C 
ATOM      9  C12 ZIN A   1      20.590  -0.168  12.755  0.00  0.00     0.273 C 
ATOM     10  C13 ZIN A   1      20.803   1.157  12.013  0.00  0.00     0.051 C 
ATOM     11  C14 ZIN A   1      19.437   1.706  11.605  0.00  0.00     0.058 C 
ATOM     12  C15 ZIN A   1      18.711   0.685  10.763  0.00  0.00    -0.001 A 
ATOM     13  C16 ZIN A   1      18.900   1.026   9.432  0.00  0.00     0.111 A 
ATOM     14  O17 ZIN A   1      19.605   2.173   9.337  0.00  0.00    -0.334 OA
ATOM     15  C18 ZIN A   1      19.558   2.865  10.624  0.00  0.00     0.214 C 
ATOM     16  C20 ZIN A   1      18.353   3.758  10.608  0.00  0.00     0.157 C 
ATOM     17  O21 ZIN A   1      18.127   4.400   9.610  0.00  0.00    -0.295 OA
ATOM     18  C22 ZIN A   1      17.417   3.891  11.771  0.00  0.00     0.084 C 
ATOM     19  C23 ZIN A   1      17.183   2.520  12.410  0.00  0.00     0.049 C 
ATOM     20  C24 ZIN A   1      18.592   1.913  12.829  0.00  0.00     0.104 C 
ENDROOT
BRANCH   1  21
ATOM     21  O2  ZIN A   1      18.494   0.448   7.130  0.00  0.00    -0.353 OA
ATOM     22  C1  ZIN A   1      17.426   0.066   6.261  0.00  0.00     0.210 C 
ENDBRANCH   1  21
BRANCH  20  23
ATOM     23  O25 ZIN A   1      19.252   2.810  13.725  0.00  0.00    -0.386 OA
ATOM     24  H44 ZIN A   1      19.676   3.562  13.288  0.00  0.00     0.210 HD
ENDBRANCH  20  23
TORSDOF 2
ENDMDL
