MODEL 1
REMARK VINA RESULT:      -5.3      0.000      0.000
REMARK  4 active torsions:
REMARK  status: ('A' for Active; 'I' for Inactive)
REMARK    1  A    between atoms: C3_3  and  N4_4 
REMARK    2  A    between atoms: N4_4  and  C6_6 
REMARK    3  A    between atoms: C6_6  and  C9_8 
REMARK    4  A    between atoms: C9_8  and  C10_9 
ROOT
ATOM      1  C1  <0> d   1      20.655  -0.520  10.863  0.00  0.00     0.013 C 
ATOM      2  C2  <0> d   1      20.375   0.041  11.856  0.00  0.00    -0.087 C 
ATOM      3  C3  <0> d   1      20.025   0.746  13.100  0.00  0.00     0.364 C 
ENDROOT
BRANCH   3   4
ATOM      4  N4  <0> d   1      18.816   1.552  12.882  0.00  0.00     0.099 N 
ATOM      5  C5  <0> d   1      18.299   2.079  14.152  0.00  0.00     0.311 C 
BRANCH   4   6
ATOM      6  C6  <0> d   1      19.074   2.638  11.928  0.00  0.00     0.223 C 
ATOM      7  C8  <0> d   1      19.278   3.949  12.689  0.00  0.00     0.043 C 
BRANCH   6   8
ATOM      8  C9  <0> d   1      17.880   2.779  10.981  0.00  0.00     0.074 C 
BRANCH   8   9
ATOM      9  C10 <0> d   1      18.079   1.885   9.784  0.00  0.00    -0.056 A 
ATOM     10  C15 <0> d   1      18.986   2.236   8.801  0.00  0.00     0.007 A 
ATOM     11  C14 <0> d   1      19.172   1.413   7.706  0.00  0.00     0.001 A 
ATOM     12  C13 <0> d   1      18.445   0.244   7.589  0.00  0.00     0.000 A 
ATOM     13  C12 <0> d   1      17.534  -0.105   8.569  0.00  0.00     0.001 A 
ATOM     14  C11 <0> d   1      17.352   0.715   9.667  0.00  0.00     0.007 A 
ENDBRANCH   8   9
ENDBRANCH   6   8
ENDBRANCH   4   6
ENDBRANCH   3   4
TORSDOF 4
ENDMDL
MODEL 2
REMARK VINA RESULT:      -5.3      1.972      4.424
REMARK  4 active torsions:
REMARK  status: ('A' for Active; 'I' for Inactive)
REMARK    1  A    between atoms: C3_3  and  N4_4 
REMARK    2  A    between atoms: N4_4  and  C6_6 
REMARK    3  A    between atoms: C6_6  and  C9_8 
REMARK    4  A    between atoms: C9_8  and  C10_9 
ROOT
ATOM      1  C1  <0> d   1      17.012   0.323  12.368  0.00  0.00     0.013 C 
ATOM      2  C2  <0> d   1      17.237  -0.177  11.330  0.00  0.00    -0.087 C 
ATOM      3  C3  <0> d   1      17.519  -0.804  10.028  0.00  0.00     0.364 C 
ENDROOT
BRANCH   3   4
ATOM      4  N4  <0> d   1      18.698  -0.169   9.425  0.00  0.00     0.099 N 
ATOM      5  C5  <0> d   1      19.468  -1.137   8.630  0.00  0.00     0.311 C 
BRANCH   4   6
ATOM      6  C6  <0> d   1      18.313   0.991   8.610  0.00  0.00     0.223 C 
ATOM      7  C8  <0> d   1      18.365   0.615   7.128  0.00  0.00     0.043 C 
BRANCH   6   8
ATOM      8  C9  <0> d   1      19.281   2.146   8.878  0.00  0.00     0.074 C 
BRANCH   8   9
ATOM      9  C10 <0> d   1      18.890   2.843  10.155  0.00  0.00    -0.056 A 
ATOM     10  C15 <0> d   1      19.748   2.833  11.239  0.00  0.00     0.007 A 
ATOM     11  C14 <0> d   1      19.392   3.476  12.410  0.00  0.00     0.001 A 
ATOM     12  C13 <0> d   1      18.172   4.121  12.500  0.00  0.00     0.000 A 
ATOM     13  C12 <0> d   1      17.312   4.126  11.418  0.00  0.00     0.001 A 
ATOM     14  C11 <0> d   1      17.670   3.488  10.246  0.00  0.00     0.007 A 
ENDBRANCH   8   9
ENDBRANCH   6   8
ENDBRANCH   4   6
ENDBRANCH   3   4
TORSDOF 4
ENDMDL
MODEL 3
REMARK VINA RESULT:      -5.2      1.751      2.984
REMARK  4 active torsions:
REMARK  status: ('A' for Active; 'I' for Inactive)
REMARK    1  A    between atoms: C3_3  and  N4_4 
REMARK    2  A    between atoms: N4_4  and  C6_6 
REMARK    3  A    between atoms: C6_6  and  C9_8 
REMARK    4  A    between atoms: C9_8  and  C10_9 
ROOT
ATOM      1  C1  <0> d   1      19.875   5.228  13.318  0.00  0.00     0.013 C 
ATOM      2  C2  <0> d   1      19.649   4.375  12.543  0.00  0.00    -0.087 C 
ATOM      3  C3  <0> d   1      19.365   3.306  11.571  0.00  0.00     0.364 C 
ENDROOT
BRANCH   3   4
ATOM      4  N4  <0> d   1      17.921   3.039  11.546  0.00  0.00     0.099 N 
ATOM      5  C5  <0> d   1      17.199   4.114  10.851  0.00  0.00     0.311 C 
BRANCH   4   6
ATOM      6  C6  <0> d   1      17.638   1.735  10.933  0.00  0.00     0.223 C 
ATOM      7  C8  <0> d   1      17.247   0.733  12.022  0.00  0.00     0.043 C 
BRANCH   6   8
ATOM      8  C9  <0> d   1      18.884   1.233  10.201  0.00  0.00     0.074 C 
BRANCH   8   9
ATOM      9  C10 <0> d   1      18.537   0.935   8.765  0.00  0.00    -0.056 A 
ATOM     10  C15 <0> d   1      19.264   1.517   7.743  0.00  0.00     0.007 A 
ATOM     11  C14 <0> d   1      18.949   1.240   6.426  0.00  0.00     0.001 A 
ATOM     12  C13 <0> d   1      17.900   0.388   6.130  0.00  0.00     0.000 A 
ATOM     13  C12 <0> d   1      17.170  -0.189   7.152  0.00  0.00     0.001 A 
ATOM     14  C11 <0> d   1      17.489   0.083   8.470  0.00  0.00     0.007 A 
ENDBRANCH   8   9
ENDBRANCH   6   8
ENDBRANCH   4   6
ENDBRANCH   3   4
TORSDOF 4
ENDMDL
MODEL 4
REMARK VINA RESULT:      -5.1      1.804      2.608
REMARK  4 active torsions:
REMARK  status: ('A' for Active; 'I' for Inactive)
REMARK    1  A    between atoms: C3_3  and  N4_4 
REMARK    2  A    between atoms: N4_4  and  C6_6 
REMARK    3  A    between atoms: C6_6  and  C9_8 
REMARK    4  A    between atoms: C9_8  and  C10_9 
ROOT
ATOM      1  C1  <0> d   1      17.814  -2.787  11.754  0.00  0.00     0.013 C 
ATOM      2  C2  <0> d   1      17.464  -1.691  11.986  0.00  0.00    -0.087 C 
ATOM      3  C3  <0> d   1      17.026  -0.316  12.277  0.00  0.00     0.364 C 
ENDROOT
BRANCH   3   4
ATOM      4  N4  <0> d   1      18.202   0.546  12.450  0.00  0.00     0.099 N 
ATOM      5  C5  <0> d   1      18.910   0.228  13.698  0.00  0.00     0.311 C 
BRANCH   4   6
ATOM      6  C6  <0> d   1      19.104   0.445  11.295  0.00  0.00     0.223 C 
ATOM      7  C8  <0> d   1      20.555   0.418  11.779  0.00  0.00     0.043 C 
BRANCH   6   8
ATOM      8  C9  <0> d   1      18.895   1.651  10.377  0.00  0.00     0.074 C 
BRANCH   8   9
ATOM      9  C10 <0> d   1      18.574   1.173   8.984  0.00  0.00    -0.056 A 
ATOM     10  C15 <0> d   1      17.583   0.230   8.788  0.00  0.00     0.007 A 
ATOM     11  C14 <0> d   1      17.285  -0.205   7.510  0.00  0.00     0.001 A 
ATOM     12  C13 <0> d   1      17.987   0.296   6.429  0.00  0.00     0.000 A 
ATOM     13  C12 <0> d   1      18.983   1.234   6.626  0.00  0.00     0.001 A 
ATOM     14  C11 <0> d   1      19.276   1.673   7.903  0.00  0.00     0.007 A 
ENDBRANCH   8   9
ENDBRANCH   6   8
ENDBRANCH   4   6
ENDBRANCH   3   4
TORSDOF 4
ENDMDL
MODEL 5
REMARK VINA RESULT:      -5.1      2.352      5.591
REMARK  4 active torsions:
REMARK  status: ('A' for Active; 'I' for Inactive)
REMARK    1  A    between atoms: C3_3  and  N4_4 
REMARK    2  A    between atoms: N4_4  and  C6_6 
REMARK    3  A    between atoms: C6_6  and  C9_8 
REMARK    4  A    between atoms: C9_8  and  C10_9 
ROOT
ATOM      1  C1  <0> d   1      19.209   1.784   7.824  0.00  0.00     0.013 C 
ATOM      2  C2  <0> d   1      19.254   1.624   8.986  0.00  0.00    -0.087 C 
ATOM      3  C3  <0> d   1      19.311   1.423  10.444  0.00  0.00     0.364 C 
ENDROOT
BRANCH   3   4
ATOM      4  N4  <0> d   1      19.255  -0.014  10.742  0.00  0.00     0.099 N 
ATOM      5  C5  <0> d   1      20.600  -0.555  10.980  0.00  0.00     0.311 C 
BRANCH   4   6
ATOM      6  C6  <0> d   1      18.372  -0.280  11.885  0.00  0.00     0.223 C 
ATOM      7  C8  <0> d   1      16.912  -0.148  11.445  0.00  0.00     0.043 C 
BRANCH   6   8
ATOM      8  C9  <0> d   1      18.661   0.727  13.000  0.00  0.00     0.074 C 
BRANCH   8   9
ATOM      9  C10 <0> d   1      18.434   0.074  14.338  0.00  0.00    -0.056 A 
ATOM     10  C15 <0> d   1      17.442   0.544  15.179  0.00  0.00     0.007 A 
ATOM     11  C14 <0> d   1      17.231  -0.058  16.405  0.00  0.00     0.001 A 
ATOM     12  C13 <0> d   1      18.018  -1.125  16.796  0.00  0.00     0.000 A 
ATOM     13  C12 <0> d   1      19.014  -1.592  15.958  0.00  0.00     0.001 A 
ATOM     14  C11 <0> d   1      19.222  -0.993  14.729  0.00  0.00     0.007 A 
ENDBRANCH   8   9
ENDBRANCH   6   8
ENDBRANCH   4   6
ENDBRANCH   3   4
TORSDOF 4
ENDMDL
MODEL 6
REMARK VINA RESULT:      -5.1      1.412      2.285
REMARK  4 active torsions:
REMARK  status: ('A' for Active; 'I' for Inactive)
REMARK    1  A    between atoms: C3_3  and  N4_4 
REMARK    2  A    between atoms: N4_4  and  C6_6 
REMARK    3  A    between atoms: C6_6  and  C9_8 
REMARK    4  A    between atoms: C9_8  and  C10_9 
ROOT
ATOM      1  C1  <0> d   1      18.777  -1.264  15.582  0.00  0.00     0.013 C 
ATOM      2  C2  <0> d   1      19.236  -0.552  14.770  0.00  0.00    -0.087 C 
ATOM      3  C3  <0> d   1      19.813   0.341  13.751  0.00  0.00     0.364 C 
ENDROOT
BRANCH   3   4
ATOM      4  N4  <0> d   1      18.751   0.801  12.846  0.00  0.00     0.099 N 
ATOM      5  C5  <0> d   1      18.568   2.255  12.945  0.00  0.00     0.311 C 
BRANCH   4   6
ATOM      6  C6  <0> d   1      19.029   0.399  11.461  0.00  0.00     0.223 C 
ATOM      7  C8  <0> d   1      20.448  -0.166  11.368  0.00  0.00     0.043 C 
BRANCH   6   8
ATOM      8  C9  <0> d   1      18.903   1.615  10.541  0.00  0.00     0.074 C 
BRANCH   8   9
ATOM      9  C10 <0> d   1      18.564   1.157   9.146  0.00  0.00    -0.056 A 
ATOM     10  C15 <0> d   1      19.250   1.672   8.063  0.00  0.00     0.007 A 
ATOM     11  C14 <0> d   1      18.943   1.248   6.784  0.00  0.00     0.001 A 
ATOM     12  C13 <0> d   1      17.941   0.315   6.587  0.00  0.00     0.000 A 
ATOM     13  C12 <0> d   1      17.251  -0.196   7.670  0.00  0.00     0.001 A 
ATOM     14  C11 <0> d   1      17.562   0.224   8.950  0.00  0.00     0.007 A 
ENDBRANCH   8   9
ENDBRANCH   6   8
ENDBRANCH   4   6
ENDBRANCH   3   4
TORSDOF 4
ENDMDL
MODEL 7
REMARK VINA RESULT:      -5.1      1.611      1.947
REMARK  4 active torsions:
REMARK  status: ('A' for Active; 'I' for Inactive)
REMARK    1  A    between atoms: C3_3  and  N4_4 
REMARK    2  A    between atoms: N4_4  and  C6_6 
REMARK    3  A    between atoms: C6_6  and  C9_8 
REMARK    4  A    between atoms: C9_8  and  C10_9 
ROOT
ATOM      1  C1  <0> d   1      18.043  -0.211  13.950  0.00  0.00     0.013 C 
ATOM      2  C2  <0> d   1      18.274   0.884  14.308  0.00  0.00    -0.087 C 
ATOM      3  C3  <0> d   1      18.563   2.256  14.756  0.00  0.00     0.364 C 
ENDROOT
BRANCH   3   4
ATOM      4  N4  <0> d   1      17.885   3.212  13.871  0.00  0.00     0.099 N 
ATOM      5  C5  <0> d   1      17.705   4.509  14.538  0.00  0.00     0.311 C 
BRANCH   4   6
ATOM      6  C6  <0> d   1      18.615   3.369  12.607  0.00  0.00     0.223 C 
ATOM      7  C8  <0> d   1      19.456   4.647  12.656  0.00  0.00     0.043 C 
BRANCH   6   8
ATOM      8  C9  <0> d   1      17.619   3.459  11.449  0.00  0.00     0.074 C 
BRANCH   8   9
ATOM      9  C10 <0> d   1      17.978   2.444  10.396  0.00  0.00    -0.056 A 
ATOM     10  C15 <0> d   1      18.802   2.800   9.344  0.00  0.00     0.007 A 
ATOM     11  C14 <0> d   1      19.136   1.867   8.380  0.00  0.00     0.001 A 
ATOM     12  C13 <0> d   1      18.638   0.580   8.463  0.00  0.00     0.000 A 
ATOM     13  C12 <0> d   1      17.810   0.225   9.511  0.00  0.00     0.001 A 
ATOM     14  C11 <0> d   1      17.480   1.157  10.478  0.00  0.00     0.007 A 
ENDBRANCH   8   9
ENDBRANCH   6   8
ENDBRANCH   4   6
ENDBRANCH   3   4
TORSDOF 4
ENDMDL
MODEL 8
REMARK VINA RESULT:      -5.0      2.263      5.413
REMARK  4 active torsions:
REMARK  status: ('A' for Active; 'I' for Inactive)
REMARK    1  A    between atoms: C3_3  and  N4_4 
REMARK    2  A    between atoms: N4_4  and  C6_6 
REMARK    3  A    between atoms: C6_6  and  C9_8 
REMARK    4  A    between atoms: C9_8  and  C10_9 
ROOT
ATOM      1  C1  <0> d   1      19.084   1.672   8.101  0.00  0.00     0.013 C 
ATOM      2  C2  <0> d   1      18.608   1.438   9.148  0.00  0.00    -0.087 C 
ATOM      3  C3  <0> d   1      18.011   1.144  10.461  0.00  0.00     0.364 C 
ENDROOT
BRANCH   3   4
ATOM      4  N4  <0> d   1      18.664   1.962  11.490  0.00  0.00     0.099 N 
ATOM      5  C5  <0> d   1      17.728   2.942  12.058  0.00  0.00     0.311 C 
BRANCH   4   6
ATOM      6  C6  <0> d   1      19.245   1.119  12.544  0.00  0.00     0.223 C 
ATOM      7  C8  <0> d   1      20.620   0.617  12.097  0.00  0.00     0.043 C 
BRANCH   6   8
ATOM      8  C9  <0> d   1      18.326  -0.076  12.805  0.00  0.00     0.074 C 
BRANCH   8   9
ATOM      9  C10 <0> d   1      18.251  -0.338  14.287  0.00  0.00    -0.056 A 
ATOM     10  C15 <0> d   1      19.090  -1.270  14.868  0.00  0.00     0.007 A 
ATOM     11  C14 <0> d   1      19.024  -1.506  16.229  0.00  0.00     0.001 A 
ATOM     12  C13 <0> d   1      18.111  -0.818  17.006  0.00  0.00     0.000 A 
ATOM     13  C12 <0> d   1      17.268   0.110  16.424  0.00  0.00     0.001 A 
ATOM     14  C11 <0> d   1      17.338   0.350  15.064  0.00  0.00     0.007 A 
ENDBRANCH   8   9
ENDBRANCH   6   8
ENDBRANCH   4   6
ENDBRANCH   3   4
TORSDOF 4
ENDMDL
MODEL 9
REMARK VINA RESULT:      -4.8      1.926      4.633
REMARK  4 active torsions:
REMARK  status: ('A' for Active; 'I' for Inactive)
REMARK    1  A    between atoms: C3_3  and  N4_4 
REMARK    2  A    between atoms: N4_4  and  C6_6 
REMARK    3  A    between atoms: C6_6  and  C9_8 
REMARK    4  A    between atoms: C9_8  and  C10_9 
ROOT
ATOM      1  C1  <0> d   1      19.853   4.947  12.977  0.00  0.00     0.013 C 
ATOM      2  C2  <0> d   1      18.765   4.582  12.729  0.00  0.00    -0.087 C 
ATOM      3  C3  <0> d   1      17.401   4.124  12.419  0.00  0.00     0.364 C 
ENDROOT
BRANCH   3   4
ATOM      4  N4  <0> d   1      17.348   3.650  11.030  0.00  0.00     0.099 N 
ATOM      5  C5  <0> d   1      17.638   4.741  10.089  0.00  0.00     0.311 C 
BRANCH   4   6
ATOM      6  C6  <0> d   1      18.265   2.521  10.823  0.00  0.00     0.223 C 
ATOM      7  C8  <0> d   1      18.772   2.531   9.380  0.00  0.00     0.043 C 
BRANCH   6   8
ATOM      8  C9  <0> d   1      17.528   1.208  11.096  0.00  0.00     0.074 C 
BRANCH   8   9
ATOM      9  C10 <0> d   1      18.234   0.455  12.193  0.00  0.00    -0.056 A 
ATOM     10  C15 <0> d   1      17.663  -0.685  12.729  0.00  0.00     0.007 A 
ATOM     11  C14 <0> d   1      18.313  -1.379  13.732  0.00  0.00     0.001 A 
ATOM     12  C13 <0> d   1      19.530  -0.927  14.208  0.00  0.00     0.000 A 
ATOM     13  C12 <0> d   1      20.098   0.215  13.677  0.00  0.00     0.001 A 
ATOM     14  C11 <0> d   1      19.451   0.906  12.670  0.00  0.00     0.007 A 
ENDBRANCH   8   9
ENDBRANCH   6   8
ENDBRANCH   4   6
ENDBRANCH   3   4
TORSDOF 4
ENDMDL
