MODEL 1
REMARK VINA RESULT:      -8.5      0.000      0.000
REMARK  5 active torsions:
REMARK  status: ('A' for Active; 'I' for Inactive)
REMARK    1  A    between atoms: C6_6  and  C7_7 
REMARK    2  A    between atoms: C7_7  and  N8_8 
REMARK    3  A    between atoms: N11_11  and  C12_12 
REMARK    4  A    between atoms: C12_12  and  C14_13 
REMARK    5  A    between atoms: C12_12  and  C20_19 
ROOT
ATOM      1  N8  <0> d   1      18.514   3.903  12.660  0.00  0.00     0.096 N 
ATOM      2  C9  <0> d   1      19.150   2.632  13.031  0.00  0.00     0.303 C 
ATOM      3  C10 <0> d   1      18.364   1.472  12.415  0.00  0.00     0.304 C 
ATOM      4  N11 <0> d   1      18.325   1.631  10.955  0.00  0.00     0.105 N 
ATOM      5  C27 <0> d   1      17.689   2.903  10.583  0.00  0.00     0.304 C 
ATOM      6  C28 <0> d   1      18.475   4.063  11.200  0.00  0.00     0.303 C 
ENDROOT
BRANCH   4   7
ATOM      7  C12 <0> d   1      17.643   0.496  10.320  0.00  0.00     0.289 C 
BRANCH   7   8
ATOM      8  C14 <0> d   1      18.148  -0.791  10.919  0.00  0.00    -0.021 A 
ATOM      9  C19 <0> d   1      19.482  -1.134  10.798  0.00  0.00     0.010 A 
ATOM     10  C18 <0> d   1      19.945  -2.313  11.350  0.00  0.00     0.001 A 
ATOM     11  C17 <0> d   1      19.073  -3.153  12.018  0.00  0.00     0.000 A 
ATOM     12  C16 <0> d   1      17.738  -2.813  12.134  0.00  0.00     0.001 A 
ATOM     13  C15 <0> d   1      17.276  -1.632  11.585  0.00  0.00     0.010 A 
ENDBRANCH   7   8
BRANCH   7  14
ATOM     14  C20 <0> d   1      17.924   0.506   8.839  0.00  0.00    -0.021 A 
ATOM     15  C26 <0> d   1      17.175  -0.285   7.988  0.00  0.00     0.011 A 
ATOM     16  C25 <0> d   1      17.428  -0.272   6.630  0.00  0.00     0.024 A 
ATOM     17  C23 <0> d   1      18.440   0.524   6.122  0.00  0.00     0.034 A 
ATOM     18  C22 <0> d   1      19.193   1.310   6.975  0.00  0.00     0.024 A 
ATOM     19 Cl24 <0> d   1      18.763   0.535   4.417  0.00  0.00    -0.084 Cl
ATOM     20  C21 <0> d   1      18.935   1.302   8.333  0.00  0.00     0.011 A 
ENDBRANCH   7  14
ENDBRANCH   4   7
BRANCH   1  21
ATOM     21  C7  <0> d   1      19.196   5.039  13.296  0.00  0.00     0.311 C 
BRANCH  21  22
ATOM     22  C6  <0> d   1      18.191   5.866  14.056  0.00  0.00    -0.030 A 
ATOM     23  C5  <0> d   1      18.619   6.916  14.848  0.00  0.00     0.009 A 
ATOM     24  C4  <0> d   1      17.699   7.675  15.545  0.00  0.00     0.001 A 
ATOM     25  C3  <0> d   1      16.349   7.386  15.450  0.00  0.00     0.007 A 
ATOM     26  C2  <0> d   1      15.922   6.338  14.656  0.00  0.00    -0.061 A 
ATOM     27  C1  <0> d   1      14.452   6.023  14.553  0.00  0.00     0.048 C 
ATOM     28  C29 <0> d   1      16.844   5.575  13.963  0.00  0.00     0.015 A 
ENDBRANCH  21  22
ENDBRANCH   1  21
TORSDOF 5
ENDMDL
MODEL 2
REMARK VINA RESULT:      -8.5      3.174      5.327
REMARK  5 active torsions:
REMARK  status: ('A' for Active; 'I' for Inactive)
REMARK    1  A    between atoms: C6_6  and  C7_7 
REMARK    2  A    between atoms: C7_7  and  N8_8 
REMARK    3  A    between atoms: N11_11  and  C12_12 
REMARK    4  A    between atoms: C12_12  and  C14_13 
REMARK    5  A    between atoms: C12_12  and  C20_19 
ROOT
ATOM      1  N8  <0> d   1      18.313  -0.365  13.965  0.00  0.00     0.096 N 
ATOM      2  C9  <0> d   1      17.290  -0.232  12.920  0.00  0.00     0.303 C 
ATOM      3  C10 <0> d   1      17.709   0.862  11.935  0.00  0.00     0.304 C 
ATOM      4  N11 <0> d   1      19.013   0.518  11.350  0.00  0.00     0.105 N 
ATOM      5  C27 <0> d   1      20.037   0.386  12.397  0.00  0.00     0.304 C 
ATOM      6  C28 <0> d   1      19.617  -0.708  13.382  0.00  0.00     0.303 C 
ENDROOT
BRANCH   4   7
ATOM      7  C12 <0> d   1      19.415   1.508  10.343  0.00  0.00     0.289 C 
BRANCH   7   8
ATOM      8  C14 <0> d   1      18.836   2.853  10.701  0.00  0.00    -0.021 A 
ATOM      9  C19 <0> d   1      19.388   3.590  11.733  0.00  0.00     0.010 A 
ATOM     10  C18 <0> d   1      18.859   4.824  12.059  0.00  0.00     0.001 A 
ATOM     11  C17 <0> d   1      17.775   5.320  11.358  0.00  0.00     0.000 A 
ATOM     12  C16 <0> d   1      17.221   4.580  10.330  0.00  0.00     0.001 A 
ATOM     13  C15 <0> d   1      17.752   3.347  10.002  0.00  0.00     0.010 A 
ENDBRANCH   7   8
BRANCH   7  14
ATOM     14  C20 <0> d   1      18.902   1.085   8.990  0.00  0.00    -0.021 A 
ATOM     15  C26 <0> d   1      17.999   0.044   8.888  0.00  0.00     0.011 A 
ATOM     16  C25 <0> d   1      17.524  -0.340   7.648  0.00  0.00     0.024 A 
ATOM     17  C23 <0> d   1      17.962   0.309   6.508  0.00  0.00     0.034 A 
ATOM     18  C22 <0> d   1      18.871   1.347   6.611  0.00  0.00     0.024 A 
ATOM     19 Cl24 <0> d   1      17.372  -0.178   4.950  0.00  0.00    -0.084 Cl
ATOM     20  C21 <0> d   1      19.341   1.735   7.851  0.00  0.00     0.011 A 
ENDBRANCH   7  14
ENDBRANCH   4   7
BRANCH   1  21
ATOM     21  C7  <0> d   1      17.911  -1.354  14.974  0.00  0.00     0.311 C 
BRANCH  21  22
ATOM     22  C6  <0> d   1      18.250  -0.837  16.348  0.00  0.00    -0.030 A 
ATOM     23  C5  <0> d   1      19.311  -1.382  17.049  0.00  0.00     0.009 A 
ATOM     24  C4  <0> d   1      19.623  -0.909  18.309  0.00  0.00     0.001 A 
ATOM     25  C3  <0> d   1      18.875   0.110  18.870  0.00  0.00     0.007 A 
ATOM     26  C2  <0> d   1      17.815   0.656  18.168  0.00  0.00    -0.061 A 
ATOM     27  C1  <0> d   1      17.000   1.765  18.780  0.00  0.00     0.048 C 
ATOM     28  C29 <0> d   1      17.500   0.178  16.910  0.00  0.00     0.015 A 
ENDBRANCH  21  22
ENDBRANCH   1  21
TORSDOF 5
ENDMDL
MODEL 3
REMARK VINA RESULT:      -8.4      3.118      8.499
REMARK  5 active torsions:
REMARK  status: ('A' for Active; 'I' for Inactive)
REMARK    1  A    between atoms: C6_6  and  C7_7 
REMARK    2  A    between atoms: C7_7  and  N8_8 
REMARK    3  A    between atoms: N11_11  and  C12_12 
REMARK    4  A    between atoms: C12_12  and  C14_13 
REMARK    5  A    between atoms: C12_12  and  C20_19 
ROOT
ATOM      1  N8  <0> d   1      18.312   0.088   6.763  0.00  0.00     0.096 N 
ATOM      2  C9  <0> d   1      17.296  -0.069   7.813  0.00  0.00     0.303 C 
ATOM      3  C10 <0> d   1      17.959   0.067   9.185  0.00  0.00     0.304 C 
ATOM      4  N11 <0> d   1      18.613   1.380   9.282  0.00  0.00     0.105 N 
ATOM      5  C27 <0> d   1      19.630   1.537   8.232  0.00  0.00     0.304 C 
ATOM      6  C28 <0> d   1      18.966   1.400   6.859  0.00  0.00     0.303 C 
ENDROOT
BRANCH   4   7
ATOM      7  C12 <0> d   1      19.198   1.579  10.614  0.00  0.00     0.289 C 
BRANCH   7   8
ATOM      8  C14 <0> d   1      18.922   0.370  11.470  0.00  0.00    -0.021 A 
ATOM      9  C19 <0> d   1      17.737   0.277  12.176  0.00  0.00     0.010 A 
ATOM     10  C18 <0> d   1      17.483  -0.833  12.957  0.00  0.00     0.001 A 
ATOM     11  C17 <0> d   1      18.416  -1.850  13.038  0.00  0.00     0.000 A 
ATOM     12  C16 <0> d   1      19.603  -1.756  12.335  0.00  0.00     0.001 A 
ATOM     13  C15 <0> d   1      19.855  -0.646  11.551  0.00  0.00     0.010 A 
ENDBRANCH   7   8
BRANCH   7  14
ATOM     14  C20 <0> d   1      18.585   2.798  11.255  0.00  0.00    -0.021 A 
ATOM     15  C26 <0> d   1      19.079   3.270  12.456  0.00  0.00     0.011 A 
ATOM     16  C25 <0> d   1      18.520   4.391  13.041  0.00  0.00     0.024 A 
ATOM     17  C23 <0> d   1      17.459   5.034  12.430  0.00  0.00     0.034 A 
ATOM     18  C22 <0> d   1      16.961   4.558  11.230  0.00  0.00     0.024 A 
ATOM     19 Cl24 <0> d   1      16.752   6.438  13.168  0.00  0.00    -0.084 Cl
ATOM     20  C21 <0> d   1      17.524   3.440  10.643  0.00  0.00     0.011 A 
ENDBRANCH   7  14
ENDBRANCH   4   7
BRANCH   1  21
ATOM     21  C7  <0> d   1      17.727  -0.112   5.430  0.00  0.00     0.311 C 
BRANCH  21  22
ATOM     22  C6  <0> d   1      17.845  -1.564   5.043  0.00  0.00    -0.030 A 
ATOM     23  C5  <0> d   1      18.847  -2.345   5.588  0.00  0.00     0.009 A 
ATOM     24  C4  <0> d   1      18.955  -3.676   5.233  0.00  0.00     0.001 A 
ATOM     25  C3  <0> d   1      18.061  -4.227   4.333  0.00  0.00     0.007 A 
ATOM     26  C2  <0> d   1      17.058  -3.446   3.790  0.00  0.00    -0.061 A 
ATOM     27  C1  <0> d   1      16.085  -4.046   2.809  0.00  0.00     0.048 C 
ATOM     28  C29 <0> d   1      16.954  -2.112   4.140  0.00  0.00     0.015 A 
ENDBRANCH  21  22
ENDBRANCH   1  21
TORSDOF 5
ENDMDL
MODEL 4
REMARK VINA RESULT:      -8.4      3.745      9.129
REMARK  5 active torsions:
REMARK  status: ('A' for Active; 'I' for Inactive)
REMARK    1  A    between atoms: C6_6  and  C7_7 
REMARK    2  A    between atoms: C7_7  and  N8_8 
REMARK    3  A    between atoms: N11_11  and  C12_12 
REMARK    4  A    between atoms: C12_12  and  C14_13 
REMARK    5  A    between atoms: C12_12  and  C20_19 
ROOT
ATOM      1  N8  <0> d   1      18.855  -1.611   8.121  0.00  0.00     0.096 N 
ATOM      2  C9  <0> d   1      19.567  -0.366   8.439  0.00  0.00     0.303 C 
ATOM      3  C10 <0> d   1      18.752   0.442   9.451  0.00  0.00     0.304 C 
ATOM      4  N11 <0> d   1      18.543  -0.365  10.662  0.00  0.00     0.105 N 
ATOM      5  C27 <0> d   1      17.829  -1.611  10.345  0.00  0.00     0.304 C 
ATOM      6  C28 <0> d   1      18.645  -2.418   9.331  0.00  0.00     0.303 C 
ENDROOT
BRANCH   4   7
ATOM      7  C12 <0> d   1      17.828   0.404  11.689  0.00  0.00     0.289 C 
BRANCH   7   8
ATOM      8  C14 <0> d   1      18.205   1.859  11.580  0.00  0.00    -0.021 A 
ATOM      9  C19 <0> d   1      19.475   2.272  11.938  0.00  0.00     0.010 A 
ATOM     10  C18 <0> d   1      19.822   3.605  11.835  0.00  0.00     0.001 A 
ATOM     11  C17 <0> d   1      18.898   4.528  11.381  0.00  0.00     0.000 A 
ATOM     12  C16 <0> d   1      17.627   4.115  11.027  0.00  0.00     0.001 A 
ATOM     13  C15 <0> d   1      17.281   2.780  11.127  0.00  0.00     0.010 A 
ENDBRANCH   7   8
BRANCH   7  14
ATOM     14  C20 <0> d   1      18.202  -0.112  13.055  0.00  0.00    -0.021 A 
ATOM     15  C26 <0> d   1      19.260  -0.990  13.196  0.00  0.00     0.011 A 
ATOM     16  C25 <0> d   1      19.607  -1.459  14.449  0.00  0.00     0.024 A 
ATOM     17  C23 <0> d   1      18.889  -1.058  15.561  0.00  0.00     0.034 A 
ATOM     18  C22 <0> d   1      17.827  -0.183  15.418  0.00  0.00     0.024 A 
ATOM     19 Cl24 <0> d   1      19.321  -1.652  17.134  0.00  0.00    -0.084 Cl
ATOM     20  C21 <0> d   1      17.484   0.290  14.166  0.00  0.00     0.011 A 
ENDBRANCH   7  14
ENDBRANCH   4   7
BRANCH   1  21
ATOM     21  C7  <0> d   1      19.569  -2.380   7.094  0.00  0.00     0.311 C 
BRANCH  21  22
ATOM     22  C6  <0> d   1      18.654  -2.624   5.922  0.00  0.00    -0.030 A 
ATOM     23  C5  <0> d   1      18.037  -1.559   5.293  0.00  0.00     0.009 A 
ATOM     24  C4  <0> d   1      17.197  -1.782   4.218  0.00  0.00     0.001 A 
ATOM     25  C3  <0> d   1      16.975  -3.072   3.771  0.00  0.00     0.007 A 
ATOM     26  C2  <0> d   1      17.593  -4.137   4.399  0.00  0.00    -0.061 A 
ATOM     27  C1  <0> d   1      17.350  -5.542   3.912  0.00  0.00     0.048 C 
ATOM     28  C29 <0> d   1      18.428  -3.914   5.478  0.00  0.00     0.015 A 
ENDBRANCH  21  22
ENDBRANCH   1  21
TORSDOF 5
ENDMDL
MODEL 5
REMARK VINA RESULT:      -8.4      3.786      5.675
REMARK  5 active torsions:
REMARK  status: ('A' for Active; 'I' for Inactive)
REMARK    1  A    between atoms: C6_6  and  C7_7 
REMARK    2  A    between atoms: C7_7  and  N8_8 
REMARK    3  A    between atoms: N11_11  and  C12_12 
REMARK    4  A    between atoms: C12_12  and  C14_13 
REMARK    5  A    between atoms: C12_12  and  C20_19 
ROOT
ATOM      1  N8  <0> d   1      18.178   0.119  13.033  0.00  0.00     0.096 N 
ATOM      2  C9  <0> d   1      19.341   0.760  12.405  0.00  0.00     0.303 C 
ATOM      3  C10 <0> d   1      19.966  -0.201  11.392  0.00  0.00     0.304 C 
ATOM      4  N11 <0> d   1      18.962  -0.566  10.383  0.00  0.00     0.105 N 
ATOM      5  C27 <0> d   1      17.798  -1.209  11.011  0.00  0.00     0.304 C 
ATOM      6  C28 <0> d   1      17.173  -0.247  12.025  0.00  0.00     0.303 C 
ENDROOT
BRANCH   4   7
ATOM      7  C12 <0> d   1      19.545  -1.430   9.349  0.00  0.00     0.289 C 
BRANCH   7   8
ATOM      8  C14 <0> d   1      19.277  -0.838   7.989  0.00  0.00    -0.021 A 
ATOM      9  C19 <0> d   1      19.483  -1.596   6.852  0.00  0.00     0.010 A 
ATOM     10  C18 <0> d   1      19.233  -1.054   5.606  0.00  0.00     0.001 A 
ATOM     11  C17 <0> d   1      18.783   0.248   5.496  0.00  0.00     0.000 A 
ATOM     12  C16 <0> d   1      18.581   1.008   6.633  0.00  0.00     0.001 A 
ATOM     13  C15 <0> d   1      18.828   0.464   7.879  0.00  0.00     0.010 A 
ENDBRANCH   7   8
BRANCH   7  14
ATOM     14  C20 <0> d   1      18.924  -2.802   9.431  0.00  0.00    -0.021 A 
ATOM     15  C26 <0> d   1      19.497  -3.773  10.230  0.00  0.00     0.011 A 
ATOM     16  C25 <0> d   1      18.924  -5.028  10.311  0.00  0.00     0.024 A 
ATOM     17  C23 <0> d   1      17.785  -5.317   9.581  0.00  0.00     0.034 A 
ATOM     18  C22 <0> d   1      17.216  -4.346   8.776  0.00  0.00     0.024 A 
ATOM     19 Cl24 <0> d   1      17.070  -6.896   9.676  0.00  0.00    -0.084 Cl
ATOM     20  C21 <0> d   1      17.785  -3.089   8.701  0.00  0.00     0.011 A 
ENDBRANCH   7  14
ENDBRANCH   4   7
BRANCH   1  21
ATOM     21  C7  <0> d   1      17.594   0.982  14.068  0.00  0.00     0.311 C 
BRANCH  21  22
ATOM     22  C6  <0> d   1      18.162   0.608  15.413  0.00  0.00    -0.030 A 
ATOM     23  C5  <0> d   1      18.418  -0.717  15.711  0.00  0.00     0.009 A 
ATOM     24  C4  <0> d   1      18.939  -1.061  16.944  0.00  0.00     0.001 A 
ATOM     25  C3  <0> d   1      19.205  -0.078  17.880  0.00  0.00     0.007 A 
ATOM     26  C2  <0> d   1      18.951   1.247  17.582  0.00  0.00    -0.061 A 
ATOM     27  C1  <0> d   1      19.240   2.318  18.602  0.00  0.00     0.048 C 
ATOM     28  C29 <0> d   1      18.424   1.590  16.350  0.00  0.00     0.015 A 
ENDBRANCH  21  22
ENDBRANCH   1  21
TORSDOF 5
ENDMDL
MODEL 6
REMARK VINA RESULT:      -8.4      1.304      2.021
REMARK  5 active torsions:
REMARK  status: ('A' for Active; 'I' for Inactive)
REMARK    1  A    between atoms: C6_6  and  C7_7 
REMARK    2  A    between atoms: C7_7  and  N8_8 
REMARK    3  A    between atoms: N11_11  and  C12_12 
REMARK    4  A    between atoms: C12_12  and  C14_13 
REMARK    5  A    between atoms: C12_12  and  C20_19 
ROOT
ATOM      1  N8  <0> d   1      18.741   2.770  11.895  0.00  0.00     0.096 N 
ATOM      2  C9  <0> d   1      18.744   1.567  12.739  0.00  0.00     0.303 C 
ATOM      3  C10 <0> d   1      17.936   0.463  12.054  0.00  0.00     0.304 C 
ATOM      4  N11 <0> d   1      18.519   0.179  10.735  0.00  0.00     0.105 N 
ATOM      5  C27 <0> d   1      18.515   1.382   9.890  0.00  0.00     0.304 C 
ATOM      6  C28 <0> d   1      19.324   2.486  10.576  0.00  0.00     0.303 C 
ENDROOT
BRANCH   4   7
ATOM      7  C12 <0> d   1      17.815  -0.929  10.076  0.00  0.00     0.289 C 
BRANCH   7   8
ATOM      8  C14 <0> d   1      18.374  -2.240  10.564  0.00  0.00    -0.021 A 
ATOM      9  C19 <0> d   1      19.644  -2.290  11.110  0.00  0.00     0.010 A 
ATOM     10  C18 <0> d   1      20.155  -3.492  11.560  0.00  0.00     0.001 A 
ATOM     11  C17 <0> d   1      19.400  -4.646  11.460  0.00  0.00     0.000 A 
ATOM     12  C16 <0> d   1      18.133  -4.597  10.910  0.00  0.00     0.001 A 
ATOM     13  C15 <0> d   1      17.620  -3.393  10.463  0.00  0.00     0.010 A 
ENDBRANCH   7   8
BRANCH   7  14
ATOM     14  C20 <0> d   1      18.003  -0.826   8.584  0.00  0.00    -0.021 A 
ATOM     15  C26 <0> d   1      19.136  -1.350   7.992  0.00  0.00     0.011 A 
ATOM     16  C25 <0> d   1      19.306  -1.262   6.623  0.00  0.00     0.024 A 
ATOM     17  C23 <0> d   1      18.346  -0.638   5.846  0.00  0.00     0.034 A 
ATOM     18  C22 <0> d   1      17.214  -0.109   6.440  0.00  0.00     0.024 A 
ATOM     19 Cl24 <0> d   1      18.562  -0.521   4.128  0.00  0.00    -0.084 Cl
ATOM     20  C21 <0> d   1      17.043  -0.203   7.808  0.00  0.00     0.011 A 
ENDBRANCH   7  14
ENDBRANCH   4   7
BRANCH   1  21
ATOM     21  C7  <0> d   1      19.444   3.878  12.554  0.00  0.00     0.311 C 
BRANCH  21  22
ATOM     22  C6  <0> d   1      18.438   4.851  13.112  0.00  0.00    -0.030 A 
ATOM     23  C5  <0> d   1      17.171   4.927  12.563  0.00  0.00     0.009 A 
ATOM     24  C4  <0> d   1      16.248   5.818  13.073  0.00  0.00     0.001 A 
ATOM     25  C3  <0> d   1      16.590   6.635  14.136  0.00  0.00     0.007 A 
ATOM     26  C2  <0> d   1      17.856   6.558  14.687  0.00  0.00    -0.061 A 
ATOM     27  C1  <0> d   1      18.228   7.448  15.844  0.00  0.00     0.048 C 
ATOM     28  C29 <0> d   1      18.781   5.670  14.171  0.00  0.00     0.015 A 
ENDBRANCH  21  22
ENDBRANCH   1  21
TORSDOF 5
ENDMDL
MODEL 7
REMARK VINA RESULT:      -8.4      3.699      8.195
REMARK  5 active torsions:
REMARK  status: ('A' for Active; 'I' for Inactive)
REMARK    1  A    between atoms: C6_6  and  C7_7 
REMARK    2  A    between atoms: C7_7  and  N8_8 
REMARK    3  A    between atoms: N11_11  and  C12_12 
REMARK    4  A    between atoms: C12_12  and  C14_13 
REMARK    5  A    between atoms: C12_12  and  C20_19 
ROOT
ATOM      1  N8  <0> d   1      17.786   0.269  10.489  0.00  0.00     0.096 N 
ATOM      2  C9  <0> d   1      16.835   0.147  11.602  0.00  0.00     0.303 C 
ATOM      3  C10 <0> d   1      17.601   0.128  12.926  0.00  0.00     0.304 C 
ATOM      4  N11 <0> d   1      18.393   1.361  13.048  0.00  0.00     0.105 N 
ATOM      5  C27 <0> d   1      19.346   1.483  11.935  0.00  0.00     0.304 C 
ATOM      6  C28 <0> d   1      18.578   1.501  10.610  0.00  0.00     0.303 C 
ENDROOT
BRANCH   4   7
ATOM      7  C12 <0> d   1      19.086   1.415  14.342  0.00  0.00     0.289 C 
BRANCH   7   8
ATOM      8  C14 <0> d   1      18.547   0.336  15.246  0.00  0.00    -0.021 A 
ATOM      9  C19 <0> d   1      17.350   0.527  15.911  0.00  0.00     0.010 A 
ATOM     10  C18 <0> d   1      16.854  -0.464  16.737  0.00  0.00     0.001 A 
ATOM     11  C17 <0> d   1      17.557  -1.642  16.903  0.00  0.00     0.000 A 
ATOM     12  C16 <0> d   1      18.756  -1.831  16.241  0.00  0.00     0.001 A 
ATOM     13  C15 <0> d   1      19.250  -0.841  15.412  0.00  0.00     0.010 A 
ENDBRANCH   7   8
BRANCH   7  14
ATOM     14  C20 <0> d   1      18.859   2.763  14.977  0.00  0.00    -0.021 A 
ATOM     15  C26 <0> d   1      17.975   3.657  14.404  0.00  0.00     0.011 A 
ATOM     16  C25 <0> d   1      17.762   4.891  14.990  0.00  0.00     0.024 A 
ATOM     17  C23 <0> d   1      18.444   5.236  16.143  0.00  0.00     0.034 A 
ATOM     18  C22 <0> d   1      19.333   4.342  16.713  0.00  0.00     0.024 A 
ATOM     19 Cl24 <0> d   1      18.183   6.788  16.875  0.00  0.00    -0.084 Cl
ATOM     20  C21 <0> d   1      19.541   3.107  16.130  0.00  0.00     0.011 A 
ENDBRANCH   7  14
ENDBRANCH   4   7
BRANCH   1  21
ATOM     21  C7  <0> d   1      17.094   0.214   9.195  0.00  0.00     0.311 C 
BRANCH  21  22
ATOM     22  C6  <0> d   1      17.908  -0.601   8.224  0.00  0.00    -0.030 A 
ATOM     23  C5  <0> d   1      18.373  -1.851   8.590  0.00  0.00     0.009 A 
ATOM     24  C4  <0> d   1      19.120  -2.599   7.701  0.00  0.00     0.001 A 
ATOM     25  C3  <0> d   1      19.401  -2.099   6.442  0.00  0.00     0.007 A 
ATOM     26  C2  <0> d   1      18.934  -0.850   6.075  0.00  0.00    -0.061 A 
ATOM     27  C1  <0> d   1      19.241  -0.305   4.704  0.00  0.00     0.048 C 
ATOM     28  C29 <0> d   1      18.192  -0.099   6.968  0.00  0.00     0.015 A 
ENDBRANCH  21  22
ENDBRANCH   1  21
TORSDOF 5
ENDMDL
MODEL 8
REMARK VINA RESULT:      -8.3      2.834      3.500
REMARK  5 active torsions:
REMARK  status: ('A' for Active; 'I' for Inactive)
REMARK    1  A    between atoms: C6_6  and  C7_7 
REMARK    2  A    between atoms: C7_7  and  N8_8 
REMARK    3  A    between atoms: N11_11  and  C12_12 
REMARK    4  A    between atoms: C12_12  and  C14_13 
REMARK    5  A    between atoms: C12_12  and  C20_19 
ROOT
ATOM      1  N8  <0> d   1      18.727   1.293  14.290  0.00  0.00     0.096 N 
ATOM      2  C9  <0> d   1      19.720   0.355  13.749  0.00  0.00     0.303 C 
ATOM      3  C10 <0> d   1      19.026  -0.635  12.810  0.00  0.00     0.304 C 
ATOM      4  N11 <0> d   1      18.362   0.105  11.727  0.00  0.00     0.105 N 
ATOM      5  C27 <0> d   1      17.367   1.043  12.269  0.00  0.00     0.304 C 
ATOM      6  C28 <0> d   1      18.062   2.032  13.208  0.00  0.00     0.303 C 
ENDROOT
BRANCH   4   7
ATOM      7  C12 <0> d   1      17.746  -0.815  10.762  0.00  0.00     0.289 C 
BRANCH   7   8
ATOM      8  C14 <0> d   1      18.228  -2.218  11.029  0.00  0.00    -0.021 A 
ATOM      9  C19 <0> d   1      19.559  -2.540  10.840  0.00  0.00     0.010 A 
ATOM     10  C18 <0> d   1      20.001  -3.825  11.088  0.00  0.00     0.001 A 
ATOM     11  C17 <0> d   1      19.111  -4.791  11.519  0.00  0.00     0.000 A 
ATOM     12  C16 <0> d   1      17.778  -4.470  11.703  0.00  0.00     0.001 A 
ATOM     13  C15 <0> d   1      17.338  -3.183  11.458  0.00  0.00     0.010 A 
ENDBRANCH   7   8
BRANCH   7  14
ATOM     14  C20 <0> d   1      18.134  -0.408   9.363  0.00  0.00    -0.021 A 
ATOM     15  C26 <0> d   1      18.904   0.721   9.160  0.00  0.00     0.011 A 
ATOM     16  C25 <0> d   1      19.264   1.091   7.878  0.00  0.00     0.024 A 
ATOM     17  C23 <0> d   1      18.844   0.337   6.797  0.00  0.00     0.034 A 
ATOM     18  C22 <0> d   1      18.069  -0.790   7.001  0.00  0.00     0.024 A 
ATOM     19 Cl24 <0> d   1      19.290   0.806   5.186  0.00  0.00    -0.084 Cl
ATOM     20  C21 <0> d   1      17.714  -1.162   8.283  0.00  0.00     0.011 A 
ENDBRANCH   7  14
ENDBRANCH   4   7
BRANCH   1  21
ATOM     21  C7  <0> d   1      19.342   2.212  15.256  0.00  0.00     0.311 C 
BRANCH  21  22
ATOM     22  C6  <0> d   1      18.630   2.099  16.580  0.00  0.00    -0.030 A 
ATOM     23  C5  <0> d   1      18.107   0.884  16.982  0.00  0.00     0.009 A 
ATOM     24  C4  <0> d   1      17.455   0.779  18.195  0.00  0.00     0.001 A 
ATOM     25  C3  <0> d   1      17.326   1.891  19.009  0.00  0.00     0.007 A 
ATOM     26  C2  <0> d   1      17.851   3.105  18.608  0.00  0.00    -0.061 A 
ATOM     27  C1  <0> d   1      17.711   4.315  19.494  0.00  0.00     0.048 C 
ATOM     28  C29 <0> d   1      18.498   3.210  17.391  0.00  0.00     0.015 A 
ENDBRANCH  21  22
ENDBRANCH   1  21
TORSDOF 5
ENDMDL
MODEL 9
REMARK VINA RESULT:      -8.3      4.588      9.801
REMARK  5 active torsions:
REMARK  status: ('A' for Active; 'I' for Inactive)
REMARK    1  A    between atoms: C6_6  and  C7_7 
REMARK    2  A    between atoms: C7_7  and  N8_8 
REMARK    3  A    between atoms: N11_11  and  C12_12 
REMARK    4  A    between atoms: C12_12  and  C14_13 
REMARK    5  A    between atoms: C12_12  and  C20_19 
ROOT
ATOM      1  N8  <0> d   1      18.152  -3.779  10.114  0.00  0.00     0.096 N 
ATOM      2  C9  <0> d   1      18.741  -2.521   9.635  0.00  0.00     0.303 C 
ATOM      3  C10 <0> d   1      18.059  -1.342  10.332  0.00  0.00     0.304 C 
ATOM      4  N11 <0> d   1      18.223  -1.475  11.787  0.00  0.00     0.105 N 
ATOM      5  C27 <0> d   1      17.633  -2.733  12.266  0.00  0.00     0.304 C 
ATOM      6  C28 <0> d   1      18.315  -3.912  11.568  0.00  0.00     0.303 C 
ENDROOT
BRANCH   4   7
ATOM      7  C12 <0> d   1      17.646  -0.322  12.489  0.00  0.00     0.289 C 
BRANCH   7   8
ATOM      8  C14 <0> d   1      18.160   0.952  11.870  0.00  0.00    -0.021 A 
ATOM      9  C19 <0> d   1      17.319   1.739  11.106  0.00  0.00     0.010 A 
ATOM     10  C18 <0> d   1      17.790   2.908  10.541  0.00  0.00     0.001 A 
ATOM     11  C17 <0> d   1      19.105   3.289  10.735  0.00  0.00     0.000 A 
ATOM     12  C16 <0> d   1      19.948   2.500  11.495  0.00  0.00     0.001 A 
ATOM     13  C15 <0> d   1      19.475   1.332  12.063  0.00  0.00     0.010 A 
ENDBRANCH   7   8
BRANCH   7  14
ATOM     14  C20 <0> d   1      18.041  -0.369  13.943  0.00  0.00    -0.021 A 
ATOM     15  C26 <0> d   1      19.034  -1.234  14.361  0.00  0.00     0.011 A 
ATOM     16  C25 <0> d   1      19.401  -1.274  15.693  0.00  0.00     0.024 A 
ATOM     17  C23 <0> d   1      18.765  -0.456  16.610  0.00  0.00     0.034 A 
ATOM     18  C22 <0> d   1      17.767   0.405  16.191  0.00  0.00     0.024 A 
ATOM     19 Cl24 <0> d   1      19.220  -0.511  18.284  0.00  0.00    -0.084 Cl
ATOM     20  C21 <0> d   1      17.405   0.449  14.859  0.00  0.00     0.011 A 
ENDBRANCH   7  14
ENDBRANCH   4   7
BRANCH   1  21
ATOM     21  C7  <0> d   1      18.729  -4.932   9.412  0.00  0.00     0.311 C 
BRANCH  21  22
ATOM     22  C6  <0> d   1      17.621  -5.765   8.820  0.00  0.00    -0.030 A 
ATOM     23  C5  <0> d   1      16.313  -5.320   8.881  0.00  0.00     0.009 A 
ATOM     24  C4  <0> d   1      15.297  -6.083   8.339  0.00  0.00     0.001 A 
ATOM     25  C3  <0> d   1      15.588  -7.292   7.733  0.00  0.00     0.007 A 
ATOM     26  C2  <0> d   1      16.895  -7.736   7.670  0.00  0.00    -0.061 A 
ATOM     27  C1  <0> d   1      17.212  -9.053   7.011  0.00  0.00     0.048 C 
ATOM     28  C29 <0> d   1      17.911  -6.975   8.218  0.00  0.00     0.015 A 
ENDBRANCH  21  22
ENDBRANCH   1  21
TORSDOF 5
ENDMDL
