MODEL 1
REMARK VINA RESULT:      -5.7      0.000      0.000
REMARK  7 active torsions:
REMARK  status: ('A' for Active; 'I' for Inactive)
REMARK    1  A    between atoms: C2_2  and  C3_3 
REMARK    2  A    between atoms: C3_3  and  C4_4 
REMARK    3  A    between atoms: C4_4  and  O5_5 
REMARK    4  A    between atoms: O5_5  and  C6_6 
REMARK    5  A    between atoms: C6_6  and  C7_7 
REMARK    6  A    between atoms: C10_10  and  O11_11 
REMARK    7  A    between atoms: C12_12  and  O13_13 
ROOT
ATOM      1  C7  ZIN A   1      18.675   0.277   7.503  0.00  0.00    -0.032 A 
ATOM      2  C8  ZIN A   1      18.594   0.936   6.291  0.00  0.00     0.012 A 
ATOM      3  C9  ZIN A   1      18.914   0.278   5.119  0.00  0.00     0.040 A 
ATOM      4  C10 ZIN A   1      19.317  -1.048   5.157  0.00  0.00     0.099 A 
ATOM      5  C12 ZIN A   1      19.399  -1.712   6.378  0.00  0.00     0.101 A 
ATOM      6  C15 ZIN A   1      19.082  -1.043   7.549  0.00  0.00     0.049 A 
ENDROOT
BRANCH   1   7
ATOM      7  C6  ZIN A   1      18.324   1.000   8.778  0.00  0.00     0.206 C 
BRANCH   7   8
ATOM      8  O5  ZIN A   1      19.203   2.114   8.951  0.00  0.00    -0.387 OA
BRANCH   8   9
ATOM      9  C4  ZIN A   1      19.186   2.669  10.268  0.00  0.00     0.168 C 
BRANCH   9  10
ATOM     10  C3  ZIN A   1      17.763   2.611  10.827  0.00  0.00     0.026 C 
BRANCH  10  11
ATOM     11  C2  ZIN A   1      17.366   3.992  11.354  0.00  0.00    -0.002 C 
ATOM     12  C1  ZIN A   1      17.462   5.016  10.222  0.00  0.00     0.005 C 
ENDBRANCH  10  11
ENDBRANCH   9  10
ENDBRANCH   8   9
ENDBRANCH   7   8
ENDBRANCH   1   7
BRANCH   5  13
ATOM     13  O13 ZIN A   1      19.795  -3.012   6.421  0.00  0.00    -0.353 OA
ATOM     14  C14 ZIN A   1      19.375  -3.781   7.550  0.00  0.00     0.210 C 
ENDBRANCH   5  13
BRANCH   4  15
ATOM     15  O11 ZIN A   1      19.632  -1.697   4.006  0.00  0.00    -0.358 OA
ATOM     16  H29 ZIN A   1      18.917  -1.710   3.353  0.00  0.00     0.217 HD
ENDBRANCH   4  15
TORSDOF 7
ENDMDL
MODEL 2
REMARK VINA RESULT:      -5.4      2.612      3.955
REMARK  7 active torsions:
REMARK  status: ('A' for Active; 'I' for Inactive)
REMARK    1  A    between atoms: C2_2  and  C3_3 
REMARK    2  A    between atoms: C3_3  and  C4_4 
REMARK    3  A    between atoms: C4_4  and  O5_5 
REMARK    4  A    between atoms: O5_5  and  C6_6 
REMARK    5  A    between atoms: C6_6  and  C7_7 
REMARK    6  A    between atoms: C10_10  and  O11_11 
REMARK    7  A    between atoms: C12_12  and  O13_13 
ROOT
ATOM      1  C7  ZIN A   1      18.149  -0.727   8.102  0.00  0.00    -0.032 A 
ATOM      2  C8  ZIN A   1      18.075   0.283   7.162  0.00  0.00     0.012 A 
ATOM      3  C9  ZIN A   1      18.655   0.119   5.918  0.00  0.00     0.040 A 
ATOM      4  C10 ZIN A   1      19.314  -1.061   5.611  0.00  0.00     0.099 A 
ATOM      5  C12 ZIN A   1      19.389  -2.078   6.558  0.00  0.00     0.101 A 
ATOM      6  C15 ZIN A   1      18.810  -1.904   7.805  0.00  0.00     0.049 A 
ENDROOT
BRANCH   1   7
ATOM      7  C6  ZIN A   1      17.514  -0.543   9.456  0.00  0.00     0.206 C 
BRANCH   7   8
ATOM      8  O5  ZIN A   1      18.377  -1.074  10.463  0.00  0.00    -0.387 OA
BRANCH   8   9
ATOM      9  C4  ZIN A   1      17.689  -1.600  11.600  0.00  0.00     0.168 C 
BRANCH   9  10
ATOM     10  C3  ZIN A   1      17.874  -3.118  11.650  0.00  0.00     0.026 C 
BRANCH  10  11
ATOM     11  C2  ZIN A   1      19.366  -3.448  11.723  0.00  0.00    -0.002 C 
ATOM     12  C1  ZIN A   1      19.701  -4.522  10.686  0.00  0.00     0.005 C 
ENDBRANCH  10  11
ENDBRANCH   9  10
ENDBRANCH   8   9
ENDBRANCH   7   8
ENDBRANCH   1   7
BRANCH   5  13
ATOM     13  O13 ZIN A   1      20.034  -3.238   6.262  0.00  0.00    -0.353 OA
ATOM     14  C14 ZIN A   1      19.568  -4.424   6.910  0.00  0.00     0.210 C 
ENDBRANCH   5  13
BRANCH   4  15
ATOM     15  O11 ZIN A   1      19.885  -1.224   4.389  0.00  0.00    -0.358 OA
ATOM     16  H29 ZIN A   1      20.852  -1.174   4.396  0.00  0.00     0.217 HD
ENDBRANCH   4  15
TORSDOF 7
ENDMDL
MODEL 3
REMARK VINA RESULT:      -5.4      6.288      9.909
REMARK  7 active torsions:
REMARK  status: ('A' for Active; 'I' for Inactive)
REMARK    1  A    between atoms: C2_2  and  C3_3 
REMARK    2  A    between atoms: C3_3  and  C4_4 
REMARK    3  A    between atoms: C4_4  and  O5_5 
REMARK    4  A    between atoms: O5_5  and  C6_6 
REMARK    5  A    between atoms: C6_6  and  C7_7 
REMARK    6  A    between atoms: C10_10  and  O11_11 
REMARK    7  A    between atoms: C12_12  and  O13_13 
ROOT
ATOM      1  C7  ZIN A   1      18.828  -0.474  15.894  0.00  0.00    -0.032 A 
ATOM      2  C8  ZIN A   1      18.976  -0.949  17.183  0.00  0.00     0.012 A 
ATOM      3  C9  ZIN A   1      19.224  -0.072  18.223  0.00  0.00     0.040 A 
ATOM      4  C10 ZIN A   1      19.324   1.288  17.973  0.00  0.00     0.099 A 
ATOM      5  C12 ZIN A   1      19.175   1.766  16.674  0.00  0.00     0.101 A 
ATOM      6  C15 ZIN A   1      18.932   0.880  15.637  0.00  0.00     0.049 A 
ENDROOT
BRANCH   1   7
ATOM      7  C6  ZIN A   1      18.557  -1.435  14.765  0.00  0.00     0.206 C 
BRANCH   7   8
ATOM      8  O5  ZIN A   1      17.852  -0.759  13.722  0.00  0.00    -0.387 OA
BRANCH   8   9
ATOM      9  C4  ZIN A   1      18.142  -1.250  12.411  0.00  0.00     0.168 C 
BRANCH   9  10
ATOM     10  C3  ZIN A   1      19.277  -2.273  12.489  0.00  0.00     0.026 C 
BRANCH  10  11
ATOM     11  C2  ZIN A   1      18.952  -3.464  11.586  0.00  0.00    -0.002 C 
ATOM     12  C1  ZIN A   1      17.437  -3.676  11.546  0.00  0.00     0.005 C 
ENDBRANCH  10  11
ENDBRANCH   9  10
ENDBRANCH   8   9
ENDBRANCH   7   8
ENDBRANCH   1   7
BRANCH   5  13
ATOM     13  O13 ZIN A   1      19.273   3.098  16.423  0.00  0.00    -0.353 OA
ATOM     14  C14 ZIN A   1      18.670   3.579  15.219  0.00  0.00     0.210 C 
ENDBRANCH   5  13
BRANCH   4  15
ATOM     15  O11 ZIN A   1      19.568   2.152  18.993  0.00  0.00    -0.358 OA
ATOM     16  H29 ZIN A   1      18.851   2.782  19.154  0.00  0.00     0.217 HD
ENDBRANCH   4  15
TORSDOF 7
ENDMDL
MODEL 4
REMARK VINA RESULT:      -5.4      6.042      9.457
REMARK  7 active torsions:
REMARK  status: ('A' for Active; 'I' for Inactive)
REMARK    1  A    between atoms: C2_2  and  C3_3 
REMARK    2  A    between atoms: C3_3  and  C4_4 
REMARK    3  A    between atoms: C4_4  and  O5_5 
REMARK    4  A    between atoms: O5_5  and  C6_6 
REMARK    5  A    between atoms: C6_6  and  C7_7 
REMARK    6  A    between atoms: C10_10  and  O11_11 
REMARK    7  A    between atoms: C12_12  and  O13_13 
ROOT
ATOM      1  C7  ZIN A   1      18.855  -0.454  15.723  0.00  0.00    -0.032 A 
ATOM      2  C8  ZIN A   1      19.017  -1.010  16.977  0.00  0.00     0.012 A 
ATOM      3  C9  ZIN A   1      19.261  -0.201  18.071  0.00  0.00     0.040 A 
ATOM      4  C10 ZIN A   1      19.342   1.174  17.910  0.00  0.00     0.099 A 
ATOM      5  C12 ZIN A   1      19.178   1.734  16.646  0.00  0.00     0.101 A 
ATOM      6  C15 ZIN A   1      18.941   0.915  15.554  0.00  0.00     0.049 A 
ENDROOT
BRANCH   1   7
ATOM      7  C6  ZIN A   1      18.590  -1.342  14.535  0.00  0.00     0.206 C 
BRANCH   7   8
ATOM      8  O5  ZIN A   1      19.318  -0.857  13.405  0.00  0.00    -0.387 OA
BRANCH   8   9
ATOM      9  C4  ZIN A   1      18.909  -1.428  12.160  0.00  0.00     0.168 C 
BRANCH   9  10
ATOM     10  C3  ZIN A   1      17.386  -1.345  12.037  0.00  0.00     0.026 C 
BRANCH  10  11
ATOM     11  C2  ZIN A   1      16.989   0.051  11.552  0.00  0.00    -0.002 C 
ATOM     12  C1  ZIN A   1      17.330   0.190  10.067  0.00  0.00     0.005 C 
ENDBRANCH  10  11
ENDBRANCH   9  10
ENDBRANCH   8   9
ENDBRANCH   7   8
ENDBRANCH   1   7
BRANCH   5  13
ATOM     13  O13 ZIN A   1      19.258   3.082  16.484  0.00  0.00    -0.353 OA
ATOM     14  C14 ZIN A   1      18.862   3.607  15.214  0.00  0.00     0.210 C 
ENDBRANCH   5  13
BRANCH   4  15
ATOM     15  O11 ZIN A   1      19.581   1.972  18.984  0.00  0.00    -0.358 OA
ATOM     16  H29 ZIN A   1      19.983   2.824  18.759  0.00  0.00     0.217 HD
ENDBRANCH   4  15
TORSDOF 7
ENDMDL
MODEL 5
REMARK VINA RESULT:      -5.2      5.630      9.168
REMARK  7 active torsions:
REMARK  status: ('A' for Active; 'I' for Inactive)
REMARK    1  A    between atoms: C2_2  and  C3_3 
REMARK    2  A    between atoms: C3_3  and  C4_4 
REMARK    3  A    between atoms: C4_4  and  O5_5 
REMARK    4  A    between atoms: O5_5  and  C6_6 
REMARK    5  A    between atoms: C6_6  and  C7_7 
REMARK    6  A    between atoms: C10_10  and  O11_11 
REMARK    7  A    between atoms: C12_12  and  O13_13 
ROOT
ATOM      1  C7  ZIN A   1      18.506  -0.007  15.233  0.00  0.00    -0.032 A 
ATOM      2  C8  ZIN A   1      18.583  -0.810  16.355  0.00  0.00     0.012 A 
ATOM      3  C9  ZIN A   1      18.972  -0.273  17.568  0.00  0.00     0.040 A 
ATOM      4  C10 ZIN A   1      19.286   1.074  17.661  0.00  0.00     0.099 A 
ATOM      5  C12 ZIN A   1      19.208   1.882  16.530  0.00  0.00     0.101 A 
ATOM      6  C15 ZIN A   1      18.823   1.335  15.317  0.00  0.00     0.049 A 
ENDROOT
BRANCH   1   7
ATOM      7  C6  ZIN A   1      18.080  -0.598  13.913  0.00  0.00     0.206 C 
BRANCH   7   8
ATOM      8  O5  ZIN A   1      17.136   0.270  13.284  0.00  0.00    -0.387 OA
BRANCH   8   9
ATOM      9  C4  ZIN A   1      17.222   0.287  11.858  0.00  0.00     0.168 C 
BRANCH   9  10
ATOM     10  C3  ZIN A   1      18.367   1.206  11.427  0.00  0.00     0.026 C 
BRANCH  10  11
ATOM     11  C2  ZIN A   1      17.850   2.220  10.405  0.00  0.00    -0.002 C 
ATOM     12  C1  ZIN A   1      18.871   2.371   9.275  0.00  0.00     0.005 C 
ENDBRANCH  10  11
ENDBRANCH   9  10
ENDBRANCH   8   9
ENDBRANCH   7   8
ENDBRANCH   1   7
BRANCH   5  13
ATOM     13  O13 ZIN A   1      19.515   3.204  16.616  0.00  0.00    -0.353 OA
ATOM     14  C14 ZIN A   1      18.476   4.134  16.300  0.00  0.00     0.210 C 
ENDBRANCH   5  13
BRANCH   4  15
ATOM     15  O11 ZIN A   1      19.669   1.603  18.852  0.00  0.00    -0.358 OA
ATOM     16  H29 ZIN A   1      20.604   1.852  18.890  0.00  0.00     0.217 HD
ENDBRANCH   4  15
TORSDOF 7
ENDMDL
MODEL 6
REMARK VINA RESULT:      -5.1      1.197      2.483
REMARK  7 active torsions:
REMARK  status: ('A' for Active; 'I' for Inactive)
REMARK    1  A    between atoms: C2_2  and  C3_3 
REMARK    2  A    between atoms: C3_3  and  C4_4 
REMARK    3  A    between atoms: C4_4  and  O5_5 
REMARK    4  A    between atoms: O5_5  and  C6_6 
REMARK    5  A    between atoms: C6_6  and  C7_7 
REMARK    6  A    between atoms: C10_10  and  O11_11 
REMARK    7  A    between atoms: C12_12  and  O13_13 
ROOT
ATOM      1  C7  ZIN A   1      18.161  -0.678   8.284  0.00  0.00    -0.032 A 
ATOM      2  C8  ZIN A   1      18.340  -1.950   8.793  0.00  0.00     0.012 A 
ATOM      3  C9  ZIN A   1      18.979  -2.917   8.040  0.00  0.00     0.040 A 
ATOM      4  C10 ZIN A   1      19.443  -2.610   6.770  0.00  0.00     0.099 A 
ATOM      5  C12 ZIN A   1      19.263  -1.329   6.258  0.00  0.00     0.101 A 
ATOM      6  C15 ZIN A   1      18.616  -0.367   7.016  0.00  0.00     0.049 A 
ENDROOT
BRANCH   1   7
ATOM      7  C6  ZIN A   1      17.463   0.372   9.111  0.00  0.00     0.206 C 
BRANCH   7   8
ATOM      8  O5  ZIN A   1      18.128   0.507  10.368  0.00  0.00    -0.387 OA
BRANCH   8   9
ATOM      9  C4  ZIN A   1      19.193   1.460  10.363  0.00  0.00     0.168 C 
BRANCH   9  10
ATOM     10  C3  ZIN A   1      18.704   2.769   9.740  0.00  0.00     0.026 C 
BRANCH  10  11
ATOM     11  C2  ZIN A   1      18.496   3.811  10.840  0.00  0.00    -0.002 C 
ATOM     12  C1  ZIN A   1      17.119   4.457  10.677  0.00  0.00     0.005 C 
ENDBRANCH  10  11
ENDBRANCH   9  10
ENDBRANCH   8   9
ENDBRANCH   7   8
ENDBRANCH   1   7
BRANCH   5  13
ATOM     13  O13 ZIN A   1      19.716  -1.024   5.012  0.00  0.00    -0.353 OA
ATOM     14  C14 ZIN A   1      18.930  -0.110   4.242  0.00  0.00     0.210 C 
ENDBRANCH   5  13
BRANCH   4  15
ATOM     15  O11 ZIN A   1      20.072  -3.559   6.027  0.00  0.00    -0.358 OA
ATOM     16  H29 ZIN A   1      21.023  -3.408   5.920  0.00  0.00     0.217 HD
ENDBRANCH   4  15
TORSDOF 7
ENDMDL
MODEL 7
REMARK VINA RESULT:      -5.0      5.904      8.987
REMARK  7 active torsions:
REMARK  status: ('A' for Active; 'I' for Inactive)
REMARK    1  A    between atoms: C2_2  and  C3_3 
REMARK    2  A    between atoms: C3_3  and  C4_4 
REMARK    3  A    between atoms: C4_4  and  O5_5 
REMARK    4  A    between atoms: O5_5  and  C6_6 
REMARK    5  A    between atoms: C6_6  and  C7_7 
REMARK    6  A    between atoms: C10_10  and  O11_11 
REMARK    7  A    between atoms: C12_12  and  O13_13 
ROOT
ATOM      1  C7  ZIN A   1      18.351   1.371  14.757  0.00  0.00    -0.032 A 
ATOM      2  C8  ZIN A   1      18.025   0.047  14.980  0.00  0.00     0.012 A 
ATOM      3  C9  ZIN A   1      18.256  -0.528  16.216  0.00  0.00     0.040 A 
ATOM      4  C10 ZIN A   1      18.816   0.225  17.236  0.00  0.00     0.099 A 
ATOM      5  C12 ZIN A   1      19.144   1.559  17.011  0.00  0.00     0.101 A 
ATOM      6  C15 ZIN A   1      18.915   2.126  15.768  0.00  0.00     0.049 A 
ENDROOT
BRANCH   1   7
ATOM      7  C6  ZIN A   1      18.097   1.991  13.408  0.00  0.00     0.206 C 
BRANCH   7   8
ATOM      8  O5  ZIN A   1      17.762   3.370  13.573  0.00  0.00    -0.387 OA
BRANCH   8   9
ATOM      9  C4  ZIN A   1      18.345   4.231  12.591  0.00  0.00     0.168 C 
BRANCH   9  10
ATOM     10  C3  ZIN A   1      18.940   3.388  11.462  0.00  0.00     0.026 C 
BRANCH  10  11
ATOM     11  C2  ZIN A   1      18.191   3.678  10.160  0.00  0.00    -0.002 C 
ATOM     12  C1  ZIN A   1      17.361   4.954  10.323  0.00  0.00     0.005 C 
ENDBRANCH  10  11
ENDBRANCH   9  10
ENDBRANCH   8   9
ENDBRANCH   7   8
ENDBRANCH   1   7
BRANCH   5  13
ATOM     13  O13 ZIN A   1      19.694   2.302  18.009  0.00  0.00    -0.353 OA
ATOM     14  C14 ZIN A   1      18.829   3.213  18.692  0.00  0.00     0.210 C 
ENDBRANCH   5  13
BRANCH   4  15
ATOM     15  O11 ZIN A   1      19.043  -0.337  18.452  0.00  0.00    -0.358 OA
ATOM     16  H29 ZIN A   1      19.120   0.304  19.174  0.00  0.00     0.217 HD
ENDBRANCH   4  15
TORSDOF 7
ENDMDL
MODEL 8
REMARK VINA RESULT:      -5.0      3.006      4.468
REMARK  7 active torsions:
REMARK  status: ('A' for Active; 'I' for Inactive)
REMARK    1  A    between atoms: C2_2  and  C3_3 
REMARK    2  A    between atoms: C3_3  and  C4_4 
REMARK    3  A    between atoms: C4_4  and  O5_5 
REMARK    4  A    between atoms: O5_5  and  C6_6 
REMARK    5  A    between atoms: C6_6  and  C7_7 
REMARK    6  A    between atoms: C10_10  and  O11_11 
REMARK    7  A    between atoms: C12_12  and  O13_13 
ROOT
ATOM      1  C7  ZIN A   1      17.805  -0.964  11.736  0.00  0.00    -0.032 A 
ATOM      2  C8  ZIN A   1      18.588  -1.718  12.589  0.00  0.00     0.012 A 
ATOM      3  C9  ZIN A   1      19.338  -2.770  12.098  0.00  0.00     0.040 A 
ATOM      4  C10 ZIN A   1      19.307  -3.070  10.745  0.00  0.00     0.099 A 
ATOM      5  C12 ZIN A   1      18.518  -2.311   9.885  0.00  0.00     0.101 A 
ATOM      6  C15 ZIN A   1      17.764  -1.262  10.387  0.00  0.00     0.049 A 
ENDROOT
BRANCH   1   7
ATOM      7  C6  ZIN A   1      16.989   0.181  12.278  0.00  0.00     0.206 C 
BRANCH   7   8
ATOM      8  O5  ZIN A   1      17.863   1.223  12.715  0.00  0.00    -0.387 OA
BRANCH   8   9
ATOM      9  C4  ZIN A   1      17.776   2.420  11.939  0.00  0.00     0.168 C 
BRANCH   9  10
ATOM     10  C3  ZIN A   1      19.002   2.529  11.030  0.00  0.00     0.026 C 
BRANCH  10  11
ATOM     11  C2  ZIN A   1      18.548   2.750   9.586  0.00  0.00    -0.002 C 
ATOM     12  C1  ZIN A   1      19.320   1.808   8.659  0.00  0.00     0.005 C 
ENDBRANCH  10  11
ENDBRANCH   9  10
ENDBRANCH   8   9
ENDBRANCH   7   8
ENDBRANCH   1   7
BRANCH   5  13
ATOM     13  O13 ZIN A   1      18.484  -2.602   8.558  0.00  0.00    -0.353 OA
ATOM     14  C14 ZIN A   1      19.258  -1.770   7.690  0.00  0.00     0.210 C 
ENDBRANCH   5  13
BRANCH   4  15
ATOM     15  O11 ZIN A   1      20.044  -4.103  10.260  0.00  0.00    -0.358 OA
ATOM     16  H29 ZIN A   1      20.994  -4.025  10.433  0.00  0.00     0.217 HD
ENDBRANCH   4  15
TORSDOF 7
ENDMDL
MODEL 9
REMARK VINA RESULT:      -4.9      4.407      7.580
REMARK  7 active torsions:
REMARK  status: ('A' for Active; 'I' for Inactive)
REMARK    1  A    between atoms: C2_2  and  C3_3 
REMARK    2  A    between atoms: C3_3  and  C4_4 
REMARK    3  A    between atoms: C4_4  and  O5_5 
REMARK    4  A    between atoms: O5_5  and  C6_6 
REMARK    5  A    between atoms: C6_6  and  C7_7 
REMARK    6  A    between atoms: C10_10  and  O11_11 
REMARK    7  A    between atoms: C12_12  and  O13_13 
ROOT
ATOM      1  C7  ZIN A   1      19.551  -0.473  13.093  0.00  0.00    -0.032 A 
ATOM      2  C8  ZIN A   1      19.245  -1.473  13.996  0.00  0.00     0.012 A 
ATOM      3  C9  ZIN A   1      18.915  -1.156  15.300  0.00  0.00     0.040 A 
ATOM      4  C10 ZIN A   1      18.890   0.170  15.705  0.00  0.00     0.099 A 
ATOM      5  C12 ZIN A   1      19.198   1.177  14.795  0.00  0.00     0.101 A 
ATOM      6  C15 ZIN A   1      19.533   0.851  13.491  0.00  0.00     0.049 A 
ENDROOT
BRANCH   1   7
ATOM      7  C6  ZIN A   1      19.910  -0.826  11.672  0.00  0.00     0.206 C 
BRANCH   7   8
ATOM      8  O5  ZIN A   1      18.947  -0.256  10.782  0.00  0.00    -0.387 OA
BRANCH   8   9
ATOM      9  C4  ZIN A   1      19.519   0.377   9.636  0.00  0.00     0.168 C 
BRANCH   9  10
ATOM     10  C3  ZIN A   1      18.565   1.456   9.120  0.00  0.00     0.026 C 
BRANCH  10  11
ATOM     11  C2  ZIN A   1      18.833   2.768   9.860  0.00  0.00    -0.002 C 
ATOM     12  C1  ZIN A   1      17.645   3.092  10.769  0.00  0.00     0.005 C 
ENDBRANCH  10  11
ENDBRANCH   9  10
ENDBRANCH   8   9
ENDBRANCH   7   8
ENDBRANCH   1   7
BRANCH   5  13
ATOM     13  O13 ZIN A   1      19.175   2.479  15.187  0.00  0.00    -0.353 OA
ATOM     14  C14 ZIN A   1      18.214   3.330  14.558  0.00  0.00     0.210 C 
ENDBRANCH   5  13
BRANCH   4  15
ATOM     15  O11 ZIN A   1      18.565   0.485  16.987  0.00  0.00    -0.358 OA
ATOM     16  H29 ZIN A   1      18.018   1.279  17.070  0.00  0.00     0.217 HD
ENDBRANCH   4  15
TORSDOF 7
ENDMDL
