MODEL 1
REMARK VINA RESULT:      -9.1      0.000      0.000
REMARK  10 active torsions:
REMARK  status: ('A' for Active; 'I' for Inactive)
REMARK    1  A    between atoms: C2_2  and  C3_3 
REMARK       I    between atoms: C3_3  and  N5_5 
REMARK    2  A    between atoms: N5_5  and  C6_6 
REMARK    3  A    between atoms: C8_8  and  N9_9 
REMARK    4  A    between atoms: N9_9  and  C10_10 
REMARK    5  A    between atoms: C14_14  and  C15_15 
REMARK    6  A    between atoms: C26_26  and  O27_27 
REMARK    7  A    between atoms: C30_30  and  N31_31 
REMARK    8  A    between atoms: N31_31  and  C33_33 
REMARK    9  A    between atoms: C33_33  and  C34_34 
REMARK   10  A    between atoms: C34_34  and  N35_35 
ROOT
ATOM      1  C6  ZIN A   1      19.320   1.678  12.653  0.00  0.00     0.058 A 
ATOM      2  C7  ZIN A   1      19.552   0.367  12.260  0.00  0.00     0.064 A 
ATOM      3  C8  ZIN A   1      19.579  -0.645  13.208  0.00  0.00     0.085 A 
ATOM      4  C26 ZIN A   1      19.373  -0.347  14.553  0.00  0.00     0.097 A 
ATOM      5  C29 ZIN A   1      19.141   0.962  14.946  0.00  0.00     0.065 A 
ATOM      6  C30 ZIN A   1      19.118   1.976  14.000  0.00  0.00     0.040 A 
ENDROOT
BRANCH   3   7
ATOM      7  N9  ZIN A   1      19.814  -1.971  12.812  0.00  0.00    -0.185 N 
ATOM      8  H44 ZIN A   1      20.537  -2.476  13.214  0.00  0.00     0.184 HD
BRANCH   7   9
ATOM      9  C10 ZIN A   1      19.013  -2.556  11.847  0.00  0.00     0.727 A 
ATOM     10  N25 ZIN A   1      19.170  -2.205  10.579  0.00  0.00    -0.062 NA
ATOM     11  C14 ZIN A   1      18.419  -2.754   9.625  0.00  0.00     0.089 A 
ATOM     12  C13 ZIN A   1      17.452  -3.700   9.986  0.00  0.00     0.053 A 
ATOM     13  C12 ZIN A   1      17.319  -4.032  11.320  0.00  0.00     0.139 A 
ATOM     14  N11 ZIN A   1      18.106  -3.449  12.214  0.00  0.00    -0.075 NA
BRANCH  11  15
ATOM     15  C15 ZIN A   1      18.599  -2.365   8.210  0.00  0.00     0.021 A 
ATOM     16  C24 ZIN A   1      18.753  -0.998   7.687  0.00  0.00     0.005 A 
ATOM     17  C19 ZIN A   1      18.896  -1.131   6.295  0.00  0.00     0.045 A 
ATOM     18  C23 ZIN A   1      18.795   0.264   8.275  0.00  0.00     0.014 A 
ATOM     19  N17 ZIN A   1      18.824  -2.476   6.000  0.00  0.00    -0.359 N 
ATOM     20  C20 ZIN A   1      19.068   0.008   5.515  0.00  0.00     0.030 A 
ATOM     21  C16 ZIN A   1      18.647  -3.200   7.139  0.00  0.00     0.105 A 
ATOM     22  C18 ZIN A   1      18.922  -3.045   4.654  0.00  0.00     0.156 C 
ATOM     23  C21 ZIN A   1      19.101   1.250   6.109  0.00  0.00     0.002 A 
ATOM     24  C22 ZIN A   1      18.966   1.380   7.484  0.00  0.00     0.001 A 
ENDBRANCH  11  15
ENDBRANCH   7   9
ENDBRANCH   3   7
BRANCH   4  25
ATOM     25  O27 ZIN A   1      19.401  -1.341  15.482  0.00  0.00    -0.354 OA
ATOM     26  C28 ZIN A   1      18.395  -1.307  16.497  0.00  0.00     0.210 C 
ENDBRANCH   4  25
BRANCH   1  27
ATOM     27  N5  ZIN A   1      19.293   2.702  11.696  0.00  0.00    -0.322 N 
ATOM     28  C3  ZIN A   1      18.179   2.913  10.966  0.00  0.00     0.244 C 
ATOM     29  O4  ZIN A   1      17.234   2.154  11.063  0.00  0.00    -0.268 OA
ATOM     30  H42 ZIN A   1      20.076   3.258  11.559  0.00  0.00     0.169 HD
BRANCH  28  31
ATOM     31  C2  ZIN A   1      18.107   4.063  10.051  0.00  0.00     0.064 C 
ATOM     32  C1  ZIN A   1      17.369   5.122  10.372  0.00  0.00     0.017 C 
ENDBRANCH  28  31
ENDBRANCH   1  27
BRANCH   6  33
ATOM     33  N31 ZIN A   1      18.883   3.299  14.397  0.00  0.00    -0.284 NA
ATOM     34  C32 ZIN A   1      17.445   3.596  14.414  0.00  0.00     0.116 C 
BRANCH  33  35
ATOM     35  C33 ZIN A   1      19.493   3.573  15.705  0.00  0.00     0.123 C 
BRANCH  35  36
ATOM     36  C34 ZIN A   1      18.632   4.579  16.470  0.00  0.00     0.248 C 
BRANCH  36  37
ATOM     37  N35 ZIN A   1      18.732   4.315  17.910  0.00  0.00    -0.078 N 
ATOM     38  H36 ZIN A   1      19.499   4.847  18.297  0.00  0.00     0.279 HD
ATOM     39  C37 ZIN A   1      17.482   4.712  18.570  0.00  0.00     0.269 C 
ATOM     40  C38 ZIN A   1      18.969   2.882  18.132  0.00  0.00     0.269 C 
ENDBRANCH  36  37
ENDBRANCH  35  36
ENDBRANCH  33  35
ENDBRANCH   6  33
TORSDOF 10
ENDMDL
MODEL 2
REMARK VINA RESULT:      -8.7      1.824      9.395
REMARK  10 active torsions:
REMARK  status: ('A' for Active; 'I' for Inactive)
REMARK    1  A    between atoms: C2_2  and  C3_3 
REMARK       I    between atoms: C3_3  and  N5_5 
REMARK    2  A    between atoms: N5_5  and  C6_6 
REMARK    3  A    between atoms: C8_8  and  N9_9 
REMARK    4  A    between atoms: N9_9  and  C10_10 
REMARK    5  A    between atoms: C14_14  and  C15_15 
REMARK    6  A    between atoms: C26_26  and  O27_27 
REMARK    7  A    between atoms: C30_30  and  N31_31 
REMARK    8  A    between atoms: N31_31  and  C33_33 
REMARK    9  A    between atoms: C33_33  and  C34_34 
REMARK   10  A    between atoms: C34_34  and  N35_35 
ROOT
ATOM      1  C6  ZIN A   1      19.309  -1.882   9.538  0.00  0.00     0.058 A 
ATOM      2  C7  ZIN A   1      19.557  -0.557   9.869  0.00  0.00     0.064 A 
ATOM      3  C8  ZIN A   1      19.546   0.417   8.882  0.00  0.00     0.085 A 
ATOM      4  C26 ZIN A   1      19.287   0.067   7.559  0.00  0.00     0.097 A 
ATOM      5  C29 ZIN A   1      19.039  -1.256   7.228  0.00  0.00     0.065 A 
ATOM      6  C30 ZIN A   1      19.053  -2.232   8.213  0.00  0.00     0.040 A 
ENDROOT
BRANCH   3   7
ATOM      7  N9  ZIN A   1      19.797   1.757   9.216  0.00  0.00    -0.185 N 
ATOM      8  H44 ZIN A   1      20.516   2.239   8.779  0.00  0.00     0.184 HD
BRANCH   7   9
ATOM      9  C10 ZIN A   1      19.019   2.389  10.170  0.00  0.00     0.727 A 
ATOM     10  N25 ZIN A   1      19.180   2.072  11.446  0.00  0.00    -0.062 NA
ATOM     11  C14 ZIN A   1      18.450   2.667  12.389  0.00  0.00     0.089 A 
ATOM     12  C13 ZIN A   1      17.500   3.624  12.008  0.00  0.00     0.053 A 
ATOM     13  C12 ZIN A   1      17.363   3.917  10.666  0.00  0.00     0.139 A 
ATOM     14  N11 ZIN A   1      18.128   3.291   9.784  0.00  0.00    -0.075 NA
BRANCH  11  15
ATOM     15  C15 ZIN A   1      18.634   2.317  13.814  0.00  0.00     0.021 A 
ATOM     16  C24 ZIN A   1      18.613   0.966  14.397  0.00  0.00     0.005 A 
ATOM     17  C19 ZIN A   1      18.836   1.136  15.775  0.00  0.00     0.045 A 
ATOM     18  C23 ZIN A   1      18.448  -0.313  13.870  0.00  0.00     0.014 A 
ATOM     19  N17 ZIN A   1      18.970   2.489  16.006  0.00  0.00    -0.359 N 
ATOM     20  C20 ZIN A   1      18.877   0.019  16.602  0.00  0.00     0.030 A 
ATOM     21  C16 ZIN A   1      18.849   3.181  14.840  0.00  0.00     0.105 A 
ATOM     22  C18 ZIN A   1      19.208   3.094  17.318  0.00  0.00     0.156 C 
ATOM     23  C21 ZIN A   1      18.705  -1.239  16.068  0.00  0.00     0.002 A 
ATOM     24  C22 ZIN A   1      18.492  -1.407  14.707  0.00  0.00     0.001 A 
ENDBRANCH  11  15
ENDBRANCH   7   9
ENDBRANCH   3   7
BRANCH   4  25
ATOM     25  O27 ZIN A   1      19.277   1.023   6.592  0.00  0.00    -0.354 OA
ATOM     26  C28 ZIN A   1      19.270   0.573   5.235  0.00  0.00     0.210 C 
ENDBRANCH   4  25
BRANCH   1  27
ATOM     27  N5  ZIN A   1      19.320  -2.868  10.535  0.00  0.00    -0.322 N 
ATOM     28  C3  ZIN A   1      18.220  -3.081  11.283  0.00  0.00     0.244 C 
ATOM     29  O4  ZIN A   1      17.252  -2.354  11.166  0.00  0.00    -0.268 OA
ATOM     30  H42 ZIN A   1      20.120  -3.396  10.686  0.00  0.00     0.169 HD
BRANCH  28  31
ATOM     31  C2  ZIN A   1      18.189  -4.196  12.243  0.00  0.00     0.064 C 
ATOM     32  C1  ZIN A   1      17.695  -5.376  11.877  0.00  0.00     0.017 C 
ENDBRANCH  28  31
ENDBRANCH   1  27
BRANCH   6  33
ATOM     33  N31 ZIN A   1      18.802  -3.570   7.878  0.00  0.00    -0.284 NA
ATOM     34  C32 ZIN A   1      17.365  -3.868   7.942  0.00  0.00     0.116 C 
BRANCH  33  35
ATOM     35  C33 ZIN A   1      19.348  -3.892   6.552  0.00  0.00     0.123 C 
BRANCH  35  36
ATOM     36  C34 ZIN A   1      18.564  -5.058   5.947  0.00  0.00     0.248 C 
BRANCH  36  37
ATOM     37  N35 ZIN A   1      18.371  -4.825   4.511  0.00  0.00    -0.078 N 
ATOM     38  H36 ZIN A   1      19.121  -5.261   3.995  0.00  0.00     0.279 HD
ATOM     39  C37 ZIN A   1      17.088  -5.403   4.090  0.00  0.00     0.269 C 
ATOM     40  C38 ZIN A   1      18.368  -3.381   4.244  0.00  0.00     0.269 C 
ENDBRANCH  36  37
ENDBRANCH  35  36
ENDBRANCH  33  35
ENDBRANCH   6  33
TORSDOF 10
ENDMDL
MODEL 3
REMARK VINA RESULT:      -8.5      1.982      3.858
REMARK  10 active torsions:
REMARK  status: ('A' for Active; 'I' for Inactive)
REMARK    1  A    between atoms: C2_2  and  C3_3 
REMARK       I    between atoms: C3_3  and  N5_5 
REMARK    2  A    between atoms: N5_5  and  C6_6 
REMARK    3  A    between atoms: C8_8  and  N9_9 
REMARK    4  A    between atoms: N9_9  and  C10_10 
REMARK    5  A    between atoms: C14_14  and  C15_15 
REMARK    6  A    between atoms: C26_26  and  O27_27 
REMARK    7  A    between atoms: C30_30  and  N31_31 
REMARK    8  A    between atoms: N31_31  and  C33_33 
REMARK    9  A    between atoms: C33_33  and  C34_34 
REMARK   10  A    between atoms: C34_34  and  N35_35 
ROOT
ATOM      1  C6  ZIN A   1      18.553   2.435  14.908  0.00  0.00     0.058 A 
ATOM      2  C7  ZIN A   1      19.164   1.307  14.380  0.00  0.00     0.064 A 
ATOM      3  C8  ZIN A   1      19.588   1.302  13.060  0.00  0.00     0.085 A 
ATOM      4  C26 ZIN A   1      19.400   2.429  12.263  0.00  0.00     0.097 A 
ATOM      5  C29 ZIN A   1      18.790   3.556  12.789  0.00  0.00     0.065 A 
ATOM      6  C30 ZIN A   1      18.361   3.562  14.108  0.00  0.00     0.040 A 
ENDROOT
BRANCH   3   7
ATOM      7  N9  ZIN A   1      20.206   0.161  12.525  0.00  0.00    -0.185 N 
ATOM      8  H44 ZIN A   1      21.169   0.063  12.574  0.00  0.00     0.184 HD
BRANCH   7   9
ATOM      9  C10 ZIN A   1      19.439  -0.825  11.928  0.00  0.00     0.727 A 
ATOM     10  N25 ZIN A   1      19.503  -0.985  10.614  0.00  0.00    -0.062 NA
ATOM     11  C14 ZIN A   1      18.782  -1.928  10.010  0.00  0.00     0.089 A 
ATOM     12  C13 ZIN A   1      17.945  -2.741  10.785  0.00  0.00     0.053 A 
ATOM     13  C12 ZIN A   1      17.906  -2.534  12.150  0.00  0.00     0.139 A 
ATOM     14  N11 ZIN A   1      18.655  -1.581  12.683  0.00  0.00    -0.075 NA
BRANCH  11  15
ATOM     15  C15 ZIN A   1      18.859  -2.109   8.545  0.00  0.00     0.021 A 
ATOM     16  C24 ZIN A   1      18.939  -1.045   7.530  0.00  0.00     0.005 A 
ATOM     17  C19 ZIN A   1      18.997  -1.700   6.288  0.00  0.00     0.045 A 
ATOM     18  C23 ZIN A   1      18.982   0.346   7.589  0.00  0.00     0.014 A 
ATOM     19  N17 ZIN A   1      18.944  -3.055   6.534  0.00  0.00    -0.359 N 
ATOM     20  C20 ZIN A   1      19.085  -0.945   5.123  0.00  0.00     0.030 A 
ATOM     21  C16 ZIN A   1      18.863  -3.289   7.872  0.00  0.00     0.105 A 
ATOM     22  C18 ZIN A   1      18.972  -4.095   5.502  0.00  0.00     0.156 C 
ATOM     23  C21 ZIN A   1      19.120   0.430   5.195  0.00  0.00     0.002 A 
ATOM     24  C22 ZIN A   1      19.070   1.075   6.423  0.00  0.00     0.001 A 
ENDBRANCH  11  15
ENDBRANCH   7   9
ENDBRANCH   3   7
BRANCH   4  25
ATOM     25  O27 ZIN A   1      19.816   2.422  10.967  0.00  0.00    -0.354 OA
ATOM     26  C28 ZIN A   1      18.863   2.820   9.979  0.00  0.00     0.210 C 
ENDBRANCH   4  25
BRANCH   1  27
ATOM     27  N5  ZIN A   1      18.123   2.441  16.242  0.00  0.00    -0.322 N 
ATOM     28  C3  ZIN A   1      18.939   2.902  17.211  0.00  0.00     0.244 C 
ATOM     29  O4  ZIN A   1      20.083   3.218  16.944  0.00  0.00    -0.268 OA
ATOM     30  H42 ZIN A   1      17.239   2.113  16.469  0.00  0.00     0.169 HD
BRANCH  28  31
ATOM     31  C2  ZIN A   1      18.446   3.024  18.591  0.00  0.00     0.064 C 
ATOM     32  C1  ZIN A   1      17.375   2.337  18.977  0.00  0.00     0.017 C 
ENDBRANCH  28  31
ENDBRANCH   1  27
BRANCH   6  33
ATOM     33  N31 ZIN A   1      17.745   4.702  14.640  0.00  0.00    -0.284 NA
ATOM     34  C32 ZIN A   1      18.721   5.779  14.852  0.00  0.00     0.116 C 
BRANCH  33  35
ATOM     35  C33 ZIN A   1      16.641   5.154  13.781  0.00  0.00     0.123 C 
BRANCH  35  36
ATOM     36  C34 ZIN A   1      15.924   6.328  14.447  0.00  0.00     0.248 C 
BRANCH  36  37
ATOM     37  N35 ZIN A   1      14.904   5.819  15.372  0.00  0.00    -0.078 N 
ATOM     38  H36 ZIN A   1      14.925   4.810  15.374  0.00  0.00     0.279 HD
ATOM     39  C37 ZIN A   1      15.181   6.315  16.727  0.00  0.00     0.269 C 
ATOM     40  C38 ZIN A   1      13.577   6.282  14.943  0.00  0.00     0.269 C 
ENDBRANCH  36  37
ENDBRANCH  35  36
ENDBRANCH  33  35
ENDBRANCH   6  33
TORSDOF 10
ENDMDL
MODEL 4
REMARK VINA RESULT:      -8.4      1.849      8.917
REMARK  10 active torsions:
REMARK  status: ('A' for Active; 'I' for Inactive)
REMARK    1  A    between atoms: C2_2  and  C3_3 
REMARK       I    between atoms: C3_3  and  N5_5 
REMARK    2  A    between atoms: N5_5  and  C6_6 
REMARK    3  A    between atoms: C8_8  and  N9_9 
REMARK    4  A    between atoms: N9_9  and  C10_10 
REMARK    5  A    between atoms: C14_14  and  C15_15 
REMARK    6  A    between atoms: C26_26  and  O27_27 
REMARK    7  A    between atoms: C30_30  and  N31_31 
REMARK    8  A    between atoms: N31_31  and  C33_33 
REMARK    9  A    between atoms: C33_33  and  C34_34 
REMARK   10  A    between atoms: C34_34  and  N35_35 
ROOT
ATOM      1  C6  ZIN A   1      19.452  -1.018  12.432  0.00  0.00     0.058 A 
ATOM      2  C7  ZIN A   1      19.728   0.300  12.097  0.00  0.00     0.064 A 
ATOM      3  C8  ZIN A   1      19.725   0.692  10.767  0.00  0.00     0.085 A 
ATOM      4  C26 ZIN A   1      19.447  -0.236   9.767  0.00  0.00     0.097 A 
ATOM      5  C29 ZIN A   1      19.171  -1.553  10.100  0.00  0.00     0.065 A 
ATOM      6  C30 ZIN A   1      19.177  -1.948  11.430  0.00  0.00     0.040 A 
ENDROOT
BRANCH   3   7
ATOM      7  N9  ZIN A   1      20.005   2.025  10.428  0.00  0.00    -0.185 N 
ATOM      8  H44 ZIN A   1      20.809   2.241   9.930  0.00  0.00     0.184 HD
BRANCH   7   9
ATOM      9  C10 ZIN A   1      19.132   3.031  10.805  0.00  0.00     0.727 A 
ATOM     10  N25 ZIN A   1      19.111   3.426  12.070  0.00  0.00    -0.062 NA
ATOM     11  C14 ZIN A   1      18.287   4.396  12.463  0.00  0.00     0.089 A 
ATOM     12  C13 ZIN A   1      17.434   4.984  11.521  0.00  0.00     0.053 A 
ATOM     13  C12 ZIN A   1      17.487   4.537  10.215  0.00  0.00     0.139 A 
ATOM     14  N11 ZIN A   1      18.336   3.572   9.894  0.00  0.00    -0.075 NA
BRANCH  11  15
ATOM     15  C15 ZIN A   1      18.267   4.839  13.874  0.00  0.00     0.021 A 
ATOM     16  C24 ZIN A   1      18.546   4.012  15.059  0.00  0.00     0.005 A 
ATOM     17  C19 ZIN A   1      18.410   4.866  16.167  0.00  0.00     0.045 A 
ATOM     18  C23 ZIN A   1      18.901   2.678  15.246  0.00  0.00     0.014 A 
ATOM     19  N17 ZIN A   1      18.065   6.112  15.687  0.00  0.00    -0.359 N 
ATOM     20  C20 ZIN A   1      18.622   4.363  17.446  0.00  0.00     0.030 A 
ATOM     21  C16 ZIN A   1      17.982   6.087  14.328  0.00  0.00     0.105 A 
ATOM     22  C18 ZIN A   1      17.822   7.292  16.519  0.00  0.00     0.156 C 
ATOM     23  C21 ZIN A   1      18.966   3.040  17.617  0.00  0.00     0.002 A 
ATOM     24  C22 ZIN A   1      19.107   2.200  16.522  0.00  0.00     0.001 A 
ENDBRANCH  11  15
ENDBRANCH   7   9
ENDBRANCH   3   7
BRANCH   4  25
ATOM     25  O27 ZIN A   1      19.445   0.150   8.462  0.00  0.00    -0.354 OA
ATOM     26  C28 ZIN A   1      19.174  -0.861   7.488  0.00  0.00     0.210 C 
ENDBRANCH   4  25
BRANCH   1  27
ATOM     27  N5  ZIN A   1      19.455  -1.416  13.776  0.00  0.00    -0.322 N 
ATOM     28  C3  ZIN A   1      18.414  -1.102  14.574  0.00  0.00     0.244 C 
ATOM     29  O4  ZIN A   1      17.521  -0.389  14.158  0.00  0.00    -0.268 OA
ATOM     30  H42 ZIN A   1      20.205  -1.916  14.133  0.00  0.00     0.169 HD
BRANCH  28  31
ATOM     31  C2  ZIN A   1      18.358  -1.624  15.948  0.00  0.00     0.064 C 
ATOM     32  C1  ZIN A   1      19.414  -1.505  16.748  0.00  0.00     0.017 C 
ENDBRANCH  28  31
ENDBRANCH   1  27
BRANCH   6  33
ATOM     33  N31 ZIN A   1      18.898  -3.279  11.767  0.00  0.00    -0.284 NA
ATOM     34  C32 ZIN A   1      17.449  -3.508  11.854  0.00  0.00     0.116 C 
BRANCH  33  35
ATOM     35  C33 ZIN A   1      19.520  -4.206  10.812  0.00  0.00     0.123 C 
BRANCH  35  36
ATOM     36  C34 ZIN A   1      18.528  -5.313  10.454  0.00  0.00     0.248 C 
BRANCH  36  37
ATOM     37  N35 ZIN A   1      18.545  -5.537   9.003  0.00  0.00    -0.078 N 
ATOM     38  H36 ZIN A   1      18.663  -6.522   8.816  0.00  0.00     0.279 HD
ATOM     39  C37 ZIN A   1      17.277  -5.078   8.422  0.00  0.00     0.269 C 
ATOM     40  C38 ZIN A   1      19.658  -4.788   8.404  0.00  0.00     0.269 C 
ENDBRANCH  36  37
ENDBRANCH  35  36
ENDBRANCH  33  35
ENDBRANCH   6  33
TORSDOF 10
ENDMDL
MODEL 5
REMARK VINA RESULT:      -8.4      2.097      8.553
REMARK  10 active torsions:
REMARK  status: ('A' for Active; 'I' for Inactive)
REMARK    1  A    between atoms: C2_2  and  C3_3 
REMARK       I    between atoms: C3_3  and  N5_5 
REMARK    2  A    between atoms: N5_5  and  C6_6 
REMARK    3  A    between atoms: C8_8  and  N9_9 
REMARK    4  A    between atoms: N9_9  and  C10_10 
REMARK    5  A    between atoms: C14_14  and  C15_15 
REMARK    6  A    between atoms: C26_26  and  O27_27 
REMARK    7  A    between atoms: C30_30  and  N31_31 
REMARK    8  A    between atoms: N31_31  and  C33_33 
REMARK    9  A    between atoms: C33_33  and  C34_34 
REMARK   10  A    between atoms: C34_34  and  N35_35 
ROOT
ATOM      1  C6  ZIN A   1      18.067  -2.170   8.385  0.00  0.00     0.058 A 
ATOM      2  C7  ZIN A   1      17.649  -1.762   9.644  0.00  0.00     0.064 A 
ATOM      3  C8  ZIN A   1      17.790  -2.614  10.729  0.00  0.00     0.085 A 
ATOM      4  C26 ZIN A   1      18.350  -3.877  10.557  0.00  0.00     0.097 A 
ATOM      5  C29 ZIN A   1      18.767  -4.285   9.300  0.00  0.00     0.065 A 
ATOM      6  C30 ZIN A   1      18.624  -3.437   8.212  0.00  0.00     0.040 A 
ENDROOT
BRANCH   3   7
ATOM      7  N9  ZIN A   1      17.367  -2.202  12.003  0.00  0.00    -0.185 N 
ATOM      8  H44 ZIN A   1      16.545  -2.555  12.378  0.00  0.00     0.184 HD
BRANCH   7   9
ATOM      9  C10 ZIN A   1      18.123  -1.293  12.722  0.00  0.00     0.727 A 
ATOM     10  N25 ZIN A   1      17.766  -0.018  12.726  0.00  0.00    -0.062 NA
ATOM     11  C14 ZIN A   1      18.470   0.881  13.414  0.00  0.00     0.089 A 
ATOM     12  C13 ZIN A   1      19.602   0.457  14.122  0.00  0.00     0.053 A 
ATOM     13  C12 ZIN A   1      19.939  -0.881  14.084  0.00  0.00     0.139 A 
ATOM     14  N11 ZIN A   1      19.189  -1.720  13.384  0.00  0.00    -0.075 NA
BRANCH  11  15
ATOM     15  C15 ZIN A   1      18.068   2.304  13.422  0.00  0.00     0.021 A 
ATOM     16  C24 ZIN A   1      17.884   3.172  12.247  0.00  0.00     0.005 A 
ATOM     17  C19 ZIN A   1      17.499   4.427  12.751  0.00  0.00     0.045 A 
ATOM     18  C23 ZIN A   1      17.995   2.977  10.872  0.00  0.00     0.014 A 
ATOM     19  N17 ZIN A   1      17.464   4.326  14.126  0.00  0.00    -0.359 N 
ATOM     20  C20 ZIN A   1      17.244   5.469  11.865  0.00  0.00     0.030 A 
ATOM     21  C16 ZIN A   1      17.803   3.066  14.514  0.00  0.00     0.105 A 
ATOM     22  C18 ZIN A   1      17.114   5.417  15.037  0.00  0.00     0.156 C 
ATOM     23  C21 ZIN A   1      17.364   5.263  10.509  0.00  0.00     0.002 A 
ATOM     24  C22 ZIN A   1      17.737   4.022  10.012  0.00  0.00     0.001 A 
ENDBRANCH  11  15
ENDBRANCH   7   9
ENDBRANCH   3   7
BRANCH   4  25
ATOM     25  O27 ZIN A   1      18.486  -4.712  11.623  0.00  0.00    -0.354 OA
ATOM     26  C28 ZIN A   1      17.432  -5.649  11.851  0.00  0.00     0.210 C 
ENDBRANCH   4  25
BRANCH   1  27
ATOM     27  N5  ZIN A   1      17.925  -1.310   7.287  0.00  0.00    -0.322 N 
ATOM     28  C3  ZIN A   1      18.783  -0.285   7.118  0.00  0.00     0.244 C 
ATOM     29  O4  ZIN A   1      19.617  -0.043   7.969  0.00  0.00    -0.268 OA
ATOM     30  H42 ZIN A   1      17.209  -1.453   6.648  0.00  0.00     0.169 HD
BRANCH  28  31
ATOM     31  C2  ZIN A   1      18.712   0.541   5.902  0.00  0.00     0.064 C 
ATOM     32  C1  ZIN A   1      19.269   0.112   4.773  0.00  0.00     0.017 C 
ENDBRANCH  28  31
ENDBRANCH   1  27
BRANCH   6  33
ATOM     33  N31 ZIN A   1      19.046  -3.849   6.941  0.00  0.00    -0.284 NA
ATOM     34  C32 ZIN A   1      20.308  -4.598   7.023  0.00  0.00     0.116 C 
BRANCH  33  35
ATOM     35  C33 ZIN A   1      18.006  -4.641   6.271  0.00  0.00     0.123 C 
BRANCH  35  36
ATOM     36  C34 ZIN A   1      17.806  -4.122   4.847  0.00  0.00     0.248 C 
BRANCH  36  37
ATOM     37  N35 ZIN A   1      16.380  -4.167   4.504  0.00  0.00    -0.078 N 
ATOM     38  H36 ZIN A   1      15.881  -3.476   5.045  0.00  0.00     0.279 HD
ATOM     39  C37 ZIN A   1      16.211  -3.882   3.073  0.00  0.00     0.269 C 
ATOM     40  C38 ZIN A   1      15.845  -5.503   4.804  0.00  0.00     0.269 C 
ENDBRANCH  36  37
ENDBRANCH  35  36
ENDBRANCH  33  35
ENDBRANCH   6  33
TORSDOF 10
ENDMDL
MODEL 6
REMARK VINA RESULT:      -8.3      1.857      8.982
REMARK  10 active torsions:
REMARK  status: ('A' for Active; 'I' for Inactive)
REMARK    1  A    between atoms: C2_2  and  C3_3 
REMARK       I    between atoms: C3_3  and  N5_5 
REMARK    2  A    between atoms: N5_5  and  C6_6 
REMARK    3  A    between atoms: C8_8  and  N9_9 
REMARK    4  A    between atoms: N9_9  and  C10_10 
REMARK    5  A    between atoms: C14_14  and  C15_15 
REMARK    6  A    between atoms: C26_26  and  O27_27 
REMARK    7  A    between atoms: C30_30  and  N31_31 
REMARK    8  A    between atoms: N31_31  and  C33_33 
REMARK    9  A    between atoms: C33_33  and  C34_34 
REMARK   10  A    between atoms: C34_34  and  N35_35 
ROOT
ATOM      1  C6  ZIN A   1      19.523  -1.343   9.361  0.00  0.00     0.058 A 
ATOM      2  C7  ZIN A   1      19.909  -0.063   9.731  0.00  0.00     0.064 A 
ATOM      3  C8  ZIN A   1      20.011   0.268  11.074  0.00  0.00     0.085 A 
ATOM      4  C26 ZIN A   1      19.726  -0.683  12.051  0.00  0.00     0.097 A 
ATOM      5  C29 ZIN A   1      19.340  -1.962  11.681  0.00  0.00     0.065 A 
ATOM      6  C30 ZIN A   1      19.233  -2.294  10.339  0.00  0.00     0.040 A 
ENDROOT
BRANCH   3   7
ATOM      7  N9  ZIN A   1      20.402   1.563  11.450  0.00  0.00    -0.185 N 
ATOM      8  H44 ZIN A   1      21.342   1.802  11.460  0.00  0.00     0.184 HD
BRANCH   7   9
ATOM      9  C10 ZIN A   1      19.445   2.497  11.806  0.00  0.00     0.727 A 
ATOM     10  N25 ZIN A   1      19.314   2.833  13.080  0.00  0.00    -0.062 NA
ATOM     11  C14 ZIN A   1      18.406   3.734  13.454  0.00  0.00     0.089 A 
ATOM     12  C13 ZIN A   1      17.584   4.311  12.479  0.00  0.00     0.053 A 
ATOM     13  C12 ZIN A   1      17.752   3.927  11.164  0.00  0.00     0.139 A 
ATOM     14  N11 ZIN A   1      18.679   3.030  10.864  0.00  0.00    -0.075 NA
BRANCH  11  15
ATOM     15  C15 ZIN A   1      18.265   4.112  14.877  0.00  0.00     0.021 A 
ATOM     16  C24 ZIN A   1      18.563   3.266  16.045  0.00  0.00     0.005 A 
ATOM     17  C19 ZIN A   1      18.280   4.054  17.174  0.00  0.00     0.045 A 
ATOM     18  C23 ZIN A   1      19.043   1.969  16.203  0.00  0.00     0.014 A 
ATOM     19  N17 ZIN A   1      17.834   5.278  16.721  0.00  0.00    -0.359 N 
ATOM     20  C20 ZIN A   1      18.473   3.521  18.444  0.00  0.00     0.030 A 
ATOM     21  C16 ZIN A   1      17.829   5.304  15.360  0.00  0.00     0.105 A 
ATOM     22  C18 ZIN A   1      17.426   6.391  17.581  0.00  0.00     0.156 C 
ATOM     23  C21 ZIN A   1      18.942   2.233  18.585  0.00  0.00     0.002 A 
ATOM     24  C22 ZIN A   1      19.228   1.459  17.470  0.00  0.00     0.001 A 
ENDBRANCH  11  15
ENDBRANCH   7   9
ENDBRANCH   3   7
BRANCH   4  25
ATOM     25  O27 ZIN A   1      19.826  -0.356  13.368  0.00  0.00    -0.354 OA
ATOM     26  C28 ZIN A   1      19.218  -1.249  14.305  0.00  0.00     0.210 C 
ENDBRANCH   4  25
BRANCH   1  27
ATOM     27  N5  ZIN A   1      19.419  -1.679   8.004  0.00  0.00    -0.322 N 
ATOM     28  C3  ZIN A   1      18.334  -1.302   7.298  0.00  0.00     0.244 C 
ATOM     29  O4  ZIN A   1      17.401  -0.761   7.858  0.00  0.00    -0.268 OA
ATOM     30  H42 ZIN A   1      20.127  -2.183   7.572  0.00  0.00     0.169 HD
BRANCH  28  31
ATOM     31  C2  ZIN A   1      18.280  -1.545   5.847  0.00  0.00     0.064 C 
ATOM     32  C1  ZIN A   1      19.289  -1.160   5.071  0.00  0.00     0.017 C 
ENDBRANCH  28  31
ENDBRANCH   1  27
BRANCH   6  33
ATOM     33  N31 ZIN A   1      18.843  -3.587   9.966  0.00  0.00    -0.284 NA
ATOM     34  C32 ZIN A   1      19.765  -4.593  10.511  0.00  0.00     0.116 C 
BRANCH  33  35
ATOM     35  C33 ZIN A   1      17.460  -3.861  10.380  0.00  0.00     0.123 C 
BRANCH  35  36
ATOM     36  C34 ZIN A   1      17.025  -5.222   9.837  0.00  0.00     0.248 C 
BRANCH  36  37
ATOM     37  N35 ZIN A   1      16.339  -5.041   8.552  0.00  0.00    -0.078 N 
ATOM     38  H36 ZIN A   1      16.114  -4.065   8.425  0.00  0.00     0.279 HD
ATOM     39  C37 ZIN A   1      17.216  -5.487   7.462  0.00  0.00     0.269 C 
ATOM     40  C38 ZIN A   1      15.102  -5.834   8.540  0.00  0.00     0.269 C 
ENDBRANCH  36  37
ENDBRANCH  35  36
ENDBRANCH  33  35
ENDBRANCH   6  33
TORSDOF 10
ENDMDL
MODEL 7
REMARK VINA RESULT:      -8.2      1.155      1.456
REMARK  10 active torsions:
REMARK  status: ('A' for Active; 'I' for Inactive)
REMARK    1  A    between atoms: C2_2  and  C3_3 
REMARK       I    between atoms: C3_3  and  N5_5 
REMARK    2  A    between atoms: N5_5  and  C6_6 
REMARK    3  A    between atoms: C8_8  and  N9_9 
REMARK    4  A    between atoms: N9_9  and  C10_10 
REMARK    5  A    between atoms: C14_14  and  C15_15 
REMARK    6  A    between atoms: C26_26  and  O27_27 
REMARK    7  A    between atoms: C30_30  and  N31_31 
REMARK    8  A    between atoms: N31_31  and  C33_33 
REMARK    9  A    between atoms: C33_33  and  C34_34 
REMARK   10  A    between atoms: C34_34  and  N35_35 
ROOT
ATOM      1  C6  ZIN A   1      18.367   1.434  12.856  0.00  0.00     0.058 A 
ATOM      2  C7  ZIN A   1      18.734   0.193  12.354  0.00  0.00     0.064 A 
ATOM      3  C8  ZIN A   1      19.240  -0.776  13.206  0.00  0.00     0.085 A 
ATOM      4  C26 ZIN A   1      19.381  -0.506  14.565  0.00  0.00     0.097 A 
ATOM      5  C29 ZIN A   1      19.014   0.733  15.068  0.00  0.00     0.065 A 
ATOM      6  C30 ZIN A   1      18.511   1.705  14.216  0.00  0.00     0.040 A 
ENDROOT
BRANCH   3   7
ATOM      7  N9  ZIN A   1      19.612  -2.031  12.699  0.00  0.00    -0.185 N 
ATOM      8  H44 ZIN A   1      20.401  -2.479  13.044  0.00  0.00     0.184 HD
BRANCH   7   9
ATOM      9  C10 ZIN A   1      18.854  -2.628  11.708  0.00  0.00     0.727 A 
ATOM     10  N25 ZIN A   1      19.031  -2.256  10.448  0.00  0.00    -0.062 NA
ATOM     11  C14 ZIN A   1      18.321  -2.816   9.470  0.00  0.00     0.089 A 
ATOM     12  C13 ZIN A   1      17.375  -3.796   9.795  0.00  0.00     0.053 A 
ATOM     13  C12 ZIN A   1      17.220  -4.148  11.121  0.00  0.00     0.139 A 
ATOM     14  N11 ZIN A   1      17.966  -3.553  12.041  0.00  0.00    -0.075 NA
BRANCH  11  15
ATOM     15  C15 ZIN A   1      18.524  -2.404   8.064  0.00  0.00     0.021 A 
ATOM     16  C24 ZIN A   1      18.717  -1.030   7.570  0.00  0.00     0.005 A 
ATOM     17  C19 ZIN A   1      18.870  -1.139   6.177  0.00  0.00     0.045 A 
ATOM     18  C23 ZIN A   1      18.786   0.218   8.184  0.00  0.00     0.014 A 
ATOM     19  N17 ZIN A   1      18.766  -2.476   5.854  0.00  0.00    -0.359 N 
ATOM     20  C20 ZIN A   1      19.078   0.010   5.422  0.00  0.00     0.030 A 
ATOM     21  C16 ZIN A   1      18.561  -3.217   6.978  0.00  0.00     0.105 A 
ATOM     22  C18 ZIN A   1      18.862  -3.020   4.498  0.00  0.00     0.156 C 
ATOM     23  C21 ZIN A   1      19.137   1.239   6.041  0.00  0.00     0.002 A 
ATOM     24  C22 ZIN A   1      18.993   1.345   7.417  0.00  0.00     0.001 A 
ENDBRANCH  11  15
ENDBRANCH   7   9
ENDBRANCH   3   7
BRANCH   4  25
ATOM     25  O27 ZIN A   1      19.878  -1.458  15.401  0.00  0.00    -0.354 OA
ATOM     26  C28 ZIN A   1      19.302  -1.541  16.706  0.00  0.00     0.210 C 
ENDBRANCH   4  25
BRANCH   1  27
ATOM     27  N5  ZIN A   1      17.855   2.415  11.995  0.00  0.00    -0.322 N 
ATOM     28  C3  ZIN A   1      18.655   2.983  11.070  0.00  0.00     0.244 C 
ATOM     29  O4  ZIN A   1      19.842   2.721  11.048  0.00  0.00    -0.268 OA
ATOM     30  H42 ZIN A   1      16.926   2.686  12.065  0.00  0.00     0.169 HD
BRANCH  28  31
ATOM     31  C2  ZIN A   1      18.090   3.920  10.087  0.00  0.00     0.064 C 
ATOM     32  C1  ZIN A   1      17.173   4.806  10.463  0.00  0.00     0.017 C 
ENDBRANCH  28  31
ENDBRANCH   1  27
BRANCH   6  33
ATOM     33  N31 ZIN A   1      18.141   2.958  14.724  0.00  0.00    -0.284 NA
ATOM     34  C32 ZIN A   1      18.008   2.915  16.186  0.00  0.00     0.116 C 
BRANCH  33  35
ATOM     35  C33 ZIN A   1      19.095   3.997  14.312  0.00  0.00     0.123 C 
BRANCH  35  36
ATOM     36  C34 ZIN A   1      18.356   5.323  14.125  0.00  0.00     0.248 C 
BRANCH  36  37
ATOM     37  N35 ZIN A   1      19.181   6.421  14.643  0.00  0.00    -0.078 N 
ATOM     38  H36 ZIN A   1      19.756   6.790  13.901  0.00  0.00     0.279 HD
ATOM     39  C37 ZIN A   1      18.311   7.484  15.162  0.00  0.00     0.269 C 
ATOM     40  C38 ZIN A   1      20.040   5.920  15.726  0.00  0.00     0.269 C 
ENDBRANCH  36  37
ENDBRANCH  35  36
ENDBRANCH  33  35
ENDBRANCH   6  33
TORSDOF 10
ENDMDL
MODEL 8
REMARK VINA RESULT:      -8.2      1.780      3.781
REMARK  10 active torsions:
REMARK  status: ('A' for Active; 'I' for Inactive)
REMARK    1  A    between atoms: C2_2  and  C3_3 
REMARK       I    between atoms: C3_3  and  N5_5 
REMARK    2  A    between atoms: N5_5  and  C6_6 
REMARK    3  A    between atoms: C8_8  and  N9_9 
REMARK    4  A    between atoms: N9_9  and  C10_10 
REMARK    5  A    between atoms: C14_14  and  C15_15 
REMARK    6  A    between atoms: C26_26  and  O27_27 
REMARK    7  A    between atoms: C30_30  and  N31_31 
REMARK    8  A    between atoms: N31_31  and  C33_33 
REMARK    9  A    between atoms: C33_33  and  C34_34 
REMARK   10  A    between atoms: C34_34  and  N35_35 
ROOT
ATOM      1  C6  ZIN A   1      18.673   0.697  13.899  0.00  0.00     0.058 A 
ATOM      2  C7  ZIN A   1      18.248  -0.572  13.532  0.00  0.00     0.064 A 
ATOM      3  C8  ZIN A   1      17.638  -0.770  12.303  0.00  0.00     0.085 A 
ATOM      4  C26 ZIN A   1      17.450   0.304  11.437  0.00  0.00     0.097 A 
ATOM      5  C29 ZIN A   1      17.873   1.572  11.802  0.00  0.00     0.065 A 
ATOM      6  C30 ZIN A   1      18.480   1.773  13.033  0.00  0.00     0.040 A 
ENDROOT
BRANCH   3   7
ATOM      7  N9  ZIN A   1      17.208  -2.054  11.931  0.00  0.00    -0.185 N 
ATOM      8  H44 ZIN A   1      16.303  -2.338  12.129  0.00  0.00     0.184 HD
BRANCH   7   9
ATOM      9  C10 ZIN A   1      18.078  -2.913  11.282  0.00  0.00     0.727 A 
ATOM     10  N25 ZIN A   1      17.925  -3.126   9.984  0.00  0.00    -0.062 NA
ATOM     11  C14 ZIN A   1      18.750  -3.943   9.329  0.00  0.00     0.089 A 
ATOM     12  C13 ZIN A   1      19.774  -4.582  10.039  0.00  0.00     0.053 A 
ATOM     13  C12 ZIN A   1      19.892  -4.334  11.392  0.00  0.00     0.139 A 
ATOM     14  N11 ZIN A   1      19.039  -3.505  11.976  0.00  0.00    -0.075 NA
BRANCH  11  15
ATOM     15  C15 ZIN A   1      18.581  -4.176   7.879  0.00  0.00     0.021 A 
ATOM     16  C24 ZIN A   1      18.788  -3.195   6.801  0.00  0.00     0.005 A 
ATOM     17  C19 ZIN A   1      18.512  -3.875   5.602  0.00  0.00     0.045 A 
ATOM     18  C23 ZIN A   1      19.185  -1.860   6.770  0.00  0.00     0.014 A 
ATOM     19  N17 ZIN A   1      18.156  -5.165   5.932  0.00  0.00    -0.359 N 
ATOM     20  C20 ZIN A   1      18.629  -3.199   4.392  0.00  0.00     0.030 A 
ATOM     21  C16 ZIN A   1      18.199  -5.335   7.282  0.00  0.00     0.105 A 
ATOM     22  C18 ZIN A   1      17.784  -6.204   4.970  0.00  0.00     0.156 C 
ATOM     23  C21 ZIN A   1      19.016  -1.877   4.377  0.00  0.00     0.002 A 
ATOM     24  C22 ZIN A   1      19.295  -1.208   5.561  0.00  0.00     0.001 A 
ENDBRANCH  11  15
ENDBRANCH   7   9
ENDBRANCH   3   7
BRANCH   4  25
ATOM     25  O27 ZIN A   1      16.850   0.109  10.231  0.00  0.00    -0.354 OA
ATOM     26  C28 ZIN A   1      17.594   0.482   9.069  0.00  0.00     0.210 C 
ENDBRANCH   4  25
BRANCH   1  27
ATOM     27  N5  ZIN A   1      19.289   0.898  15.142  0.00  0.00    -0.322 N 
ATOM     28  C3  ZIN A   1      18.571   0.785  16.276  0.00  0.00     0.244 C 
ATOM     29  O4  ZIN A   1      17.369   0.610  16.221  0.00  0.00    -0.268 OA
ATOM     30  H42 ZIN A   1      20.233   1.118  15.185  0.00  0.00     0.169 HD
BRANCH  28  31
ATOM     31  C2  ZIN A   1      19.242   0.873  17.583  0.00  0.00     0.064 C 
ATOM     32  C1  ZIN A   1      19.008  -0.048  18.514  0.00  0.00     0.017 C 
ENDBRANCH  28  31
ENDBRANCH   1  27
BRANCH   6  33
ATOM     33  N31 ZIN A   1      18.909   3.055  13.403  0.00  0.00    -0.284 NA
ATOM     34  C32 ZIN A   1      19.576   3.731  12.281  0.00  0.00     0.116 C 
BRANCH  33  35
ATOM     35  C33 ZIN A   1      17.788   3.858  13.911  0.00  0.00     0.123 C 
BRANCH  35  36
ATOM     36  C34 ZIN A   1      18.332   5.046  14.706  0.00  0.00     0.248 C 
BRANCH  36  37
ATOM     37  N35 ZIN A   1      19.205   4.559  15.780  0.00  0.00    -0.078 N 
ATOM     38  H36 ZIN A   1      19.564   3.647  15.535  0.00  0.00     0.279 HD
ATOM     39  C37 ZIN A   1      20.325   5.491  15.962  0.00  0.00     0.269 C 
ATOM     40  C38 ZIN A   1      18.440   4.464  17.031  0.00  0.00     0.269 C 
ENDBRANCH  36  37
ENDBRANCH  35  36
ENDBRANCH  33  35
ENDBRANCH   6  33
TORSDOF 10
ENDMDL
MODEL 9
REMARK VINA RESULT:      -8.1      2.054      3.960
REMARK  10 active torsions:
REMARK  status: ('A' for Active; 'I' for Inactive)
REMARK    1  A    between atoms: C2_2  and  C3_3 
REMARK       I    between atoms: C3_3  and  N5_5 
REMARK    2  A    between atoms: N5_5  and  C6_6 
REMARK    3  A    between atoms: C8_8  and  N9_9 
REMARK    4  A    between atoms: N9_9  and  C10_10 
REMARK    5  A    between atoms: C14_14  and  C15_15 
REMARK    6  A    between atoms: C26_26  and  O27_27 
REMARK    7  A    between atoms: C30_30  and  N31_31 
REMARK    8  A    between atoms: N31_31  and  C33_33 
REMARK    9  A    between atoms: C33_33  and  C34_34 
REMARK   10  A    between atoms: C34_34  and  N35_35 
ROOT
ATOM      1  C6  ZIN A   1      18.167   2.496  12.078  0.00  0.00     0.058 A 
ATOM      2  C7  ZIN A   1      18.663   2.349  10.790  0.00  0.00     0.064 A 
ATOM      3  C8  ZIN A   1      19.560   1.331  10.506  0.00  0.00     0.085 A 
ATOM      4  C26 ZIN A   1      19.965   0.457  11.512  0.00  0.00     0.097 A 
ATOM      5  C29 ZIN A   1      19.471   0.603  12.798  0.00  0.00     0.065 A 
ATOM      6  C30 ZIN A   1      18.576   1.623  13.086  0.00  0.00     0.040 A 
ENDROOT
BRANCH   3   7
ATOM      7  N9  ZIN A   1      20.062   1.182   9.203  0.00  0.00    -0.185 N 
ATOM      8  H44 ZIN A   1      20.927   1.555   8.971  0.00  0.00     0.184 HD
BRANCH   7   9
ATOM      9  C10 ZIN A   1      19.322   0.503   8.251  0.00  0.00     0.727 A 
ATOM     10  N25 ZIN A   1      19.186  -0.811   8.356  0.00  0.00    -0.062 NA
ATOM     11  C14 ZIN A   1      18.474  -1.492   7.459  0.00  0.00     0.089 A 
ATOM     12  C13 ZIN A   1      17.883  -0.799   6.396  0.00  0.00     0.053 A 
ATOM     13  C12 ZIN A   1      18.056   0.570   6.324  0.00  0.00     0.139 A 
ATOM     14  N11 ZIN A   1      18.772   1.182   7.255  0.00  0.00    -0.075 NA
BRANCH  11  15
ATOM     15  C15 ZIN A   1      18.319  -2.957   7.580  0.00  0.00     0.021 A 
ATOM     16  C24 ZIN A   1      17.886  -3.700   8.775  0.00  0.00     0.005 A 
ATOM     17  C19 ZIN A   1      17.888  -5.057   8.408  0.00  0.00     0.045 A 
ATOM     18  C23 ZIN A   1      17.499  -3.325  10.059  0.00  0.00     0.014 A 
ATOM     19  N17 ZIN A   1      18.301  -5.128   7.094  0.00  0.00    -0.359 N 
ATOM     20  C20 ZIN A   1      17.512  -6.017   9.342  0.00  0.00     0.030 A 
ATOM     21  C16 ZIN A   1      18.554  -3.881   6.612  0.00  0.00     0.105 A 
ATOM     22  C18 ZIN A   1      18.446  -6.368   6.328  0.00  0.00     0.156 C 
ATOM     23  C21 ZIN A   1      17.138  -5.632  10.611  0.00  0.00     0.002 A 
ATOM     24  C22 ZIN A   1      17.130  -4.292  10.970  0.00  0.00     0.001 A 
ENDBRANCH  11  15
ENDBRANCH   7   9
ENDBRANCH   3   7
BRANCH   4  25
ATOM     25  O27 ZIN A   1      20.847  -0.541  11.231  0.00  0.00    -0.354 OA
ATOM     26  C28 ZIN A   1      20.385  -1.883  11.408  0.00  0.00     0.210 C 
ENDBRANCH   4  25
BRANCH   1  27
ATOM     27  N5  ZIN A   1      17.260   3.525  12.367  0.00  0.00    -0.322 N 
ATOM     28  C3  ZIN A   1      17.714   4.751  12.696  0.00  0.00     0.244 C 
ATOM     29  O4  ZIN A   1      18.907   4.939  12.842  0.00  0.00    -0.268 OA
ATOM     30  H42 ZIN A   1      16.306   3.355  12.331  0.00  0.00     0.169 HD
BRANCH  28  31
ATOM     31  C2  ZIN A   1      16.767   5.861  12.878  0.00  0.00     0.064 C 
ATOM     32  C1  ZIN A   1      16.900   6.686  13.912  0.00  0.00     0.017 C 
ENDBRANCH  28  31
ENDBRANCH   1  27
BRANCH   6  33
ATOM     33  N31 ZIN A   1      18.076   1.770  14.386  0.00  0.00    -0.284 NA
ATOM     34  C32 ZIN A   1      17.409   0.541  14.837  0.00  0.00     0.116 C 
BRANCH  33  35
ATOM     35  C33 ZIN A   1      19.141   2.164  15.319  0.00  0.00     0.123 C 
BRANCH  35  36
ATOM     36  C34 ZIN A   1      18.661   3.333  16.180  0.00  0.00     0.248 C 
BRANCH  36  37
ATOM     37  N35 ZIN A   1      19.109   3.139  17.564  0.00  0.00    -0.078 N 
ATOM     38  H36 ZIN A   1      20.007   3.581  17.693  0.00  0.00     0.279 HD
ATOM     39  C37 ZIN A   1      18.133   3.738  18.483  0.00  0.00     0.269 C 
ATOM     40  C38 ZIN A   1      19.227   1.701  17.845  0.00  0.00     0.269 C 
ENDBRANCH  36  37
ENDBRANCH  35  36
ENDBRANCH  33  35
ENDBRANCH   6  33
TORSDOF 10
ENDMDL
