MODEL 1
REMARK VINA RESULT:      -9.4      0.000      0.000
REMARK  10 active torsions:
REMARK  status: ('A' for Active; 'I' for Inactive)
REMARK    1  A    between atoms: O2_2  and  C3_3 
REMARK    2  A    between atoms: C17_17  and  O18_18 
REMARK    3  A    between atoms: C17_17  and  C19_19 
REMARK    4  A    between atoms: C19_19  and  C21_21 
REMARK    5  A    between atoms: C21_21  and  O22_22 
REMARK    6  A    between atoms: C24_24  and  O26_25 
REMARK    7  A    between atoms: O26_25  and  C27_26 
REMARK    8  A    between atoms: C30_28  and  N32_29 
REMARK    9  A    between atoms: C36_33  and  O38_34 
REMARK   10  A    between atoms: C43_38  and  O44_39 
ROOT
ATOM      1  C3  ZIN A   1      17.421   3.522  12.311  0.00  0.00     0.083 A 
ATOM      2  C4  ZIN A   1      17.572   4.267  13.476  0.00  0.00     0.038 A 
ATOM      3  C5  ZIN A   1      18.325   3.778  14.524  0.00  0.00     0.004 A 
ATOM      4  C6  ZIN A   1      18.941   2.541  14.433  0.00  0.00     0.017 A 
ATOM      5  C7  ZIN A   1      18.801   1.779  13.278  0.00  0.00     0.032 A 
ATOM      6  C8  ZIN A   1      18.031   2.269  12.207  0.00  0.00     0.062 A 
ATOM      7  C9  ZIN A   1      17.883   1.460  10.982  0.00  0.00     0.200 C 
ATOM      8  O10 ZIN A   1      17.440   1.959   9.965  0.00  0.00    -0.286 OA
ATOM      9  C11 ZIN A   1      18.278   0.039  11.006  0.00  0.00     0.069 A 
ATOM     10  C12 ZIN A   1      17.895  -0.826   9.985  0.00  0.00     0.132 A 
ATOM     11  O13 ZIN A   1      17.147  -0.362   8.954  0.00  0.00    -0.190 OA
ATOM     12  C14 ZIN A   1      18.276  -2.174  10.015  0.00  0.00     0.018 A 
ATOM     13  C15 ZIN A   1      19.034  -2.652  11.055  0.00  0.00    -0.009 A 
ATOM     14  C16 ZIN A   1      19.482  -4.088  11.139  0.00  0.00     0.088 C 
ATOM     15  C17 ZIN A   1      18.645  -4.969  10.215  0.00  0.00     0.127 C 
ATOM     16  C23 ZIN A   1      18.640  -4.334   8.819  0.00  0.00     0.083 C 
ATOM     17  C24 ZIN A   1      17.816  -3.050   8.879  0.00  0.00     0.164 C 
ATOM     18  C43 ZIN A   1      19.425  -1.794  12.092  0.00  0.00     0.088 A 
ATOM     19  C45 ZIN A   1      19.053  -0.453  12.077  0.00  0.00     0.066 A 
ATOM     20  C46 ZIN A   1      19.452   0.455  13.167  0.00  0.00     0.197 C 
ATOM     21  O47 ZIN A   1      20.308   0.123  13.962  0.00  0.00    -0.286 OA
ENDROOT
BRANCH  17  22
ATOM     22  O26 ZIN A   1      17.964  -2.338   7.648  0.00  0.00    -0.351 OA
BRANCH  22  23
ATOM     23  C27 ZIN A   1      19.299  -2.329   7.138  0.00  0.00     0.263 C 
ATOM     24  O42 ZIN A   1      19.651  -1.002   6.747  0.00  0.00    -0.354 OA
ATOM     25  C39 ZIN A   1      18.794  -0.440   5.750  0.00  0.00     0.151 C 
ATOM     26  C36 ZIN A   1      18.862  -1.293   4.481  0.00  0.00     0.177 C 
ATOM     27  C41 ZIN A   1      19.248   0.986   5.433  0.00  0.00     0.042 C 
ATOM     28  C30 ZIN A   1      18.465  -2.733   4.820  0.00  0.00     0.219 C 
ATOM     29  C29 ZIN A   1      19.387  -3.259   5.924  0.00  0.00     0.096 C 
BRANCH  26  30
ATOM     30  O38 ZIN A   1      17.964  -0.767   3.502  0.00  0.00    -0.391 OA
ATOM     31  H64 ZIN A   1      17.078  -0.579   3.842  0.00  0.00     0.210 HD
ENDBRANCH  26  30
BRANCH  28  32
ATOM     32  N32 ZIN A   1      18.599  -3.576   3.626  0.00  0.00    -0.072 N 
ATOM     33  H33 ZIN A   1      18.092  -3.157   2.860  0.00  0.00     0.274 HD
ATOM     34  H34 ZIN A   1      19.573  -3.657   3.378  0.00  0.00     0.274 HD
ATOM     35  H35 ZIN A   1      18.223  -4.492   3.816  0.00  0.00     0.274 HD
ENDBRANCH  28  32
ENDBRANCH  22  23
ENDBRANCH  17  22
BRANCH  15  36
ATOM     36  O18 ZIN A   1      19.218  -6.277  10.147  0.00  0.00    -0.382 OA
ATOM     37  H56 ZIN A   1      18.809  -6.850   9.485  0.00  0.00     0.211 HD
ENDBRANCH  15  36
BRANCH  15  38
ATOM     38  C19 ZIN A   1      17.235  -5.059  10.738  0.00  0.00     0.184 C 
ATOM     39  O20 ZIN A   1      16.306  -5.091   9.967  0.00  0.00    -0.292 OA
BRANCH  38  40
ATOM     40  C21 ZIN A   1      16.984  -5.109  12.224  0.00  0.00     0.245 C 
BRANCH  40  41
ATOM     41  O22 ZIN A   1      17.437  -6.362  12.741  0.00  0.00    -0.393 OA
ATOM     42  H59 ZIN A   1      17.990  -6.863  12.127  0.00  0.00     0.209 HD
ENDBRANCH  40  41
ENDBRANCH  38  40
ENDBRANCH  15  38
BRANCH  18  43
ATOM     43  O44 ZIN A   1      20.172  -2.273  13.118  0.00  0.00    -0.359 OA
ATOM     44  H68 ZIN A   1      21.009  -1.807  13.247  0.00  0.00     0.217 HD
ENDBRANCH  18  43
BRANCH   1  45
ATOM     45  O2  ZIN A   1      16.680   4.006  11.283  0.00  0.00    -0.355 OA
ATOM     46  C1  ZIN A   1      17.066   5.274  10.746  0.00  0.00     0.210 C 
ENDBRANCH   1  45
TORSDOF 10
ENDMDL
MODEL 2
REMARK VINA RESULT:      -8.6      3.572      9.268
REMARK  10 active torsions:
REMARK  status: ('A' for Active; 'I' for Inactive)
REMARK    1  A    between atoms: O2_2  and  C3_3 
REMARK    2  A    between atoms: C17_17  and  O18_18 
REMARK    3  A    between atoms: C17_17  and  C19_19 
REMARK    4  A    between atoms: C19_19  and  C21_21 
REMARK    5  A    between atoms: C21_21  and  O22_22 
REMARK    6  A    between atoms: C24_24  and  O26_25 
REMARK    7  A    between atoms: O26_25  and  C27_26 
REMARK    8  A    between atoms: C30_28  and  N32_29 
REMARK    9  A    between atoms: C36_33  and  O38_34 
REMARK   10  A    between atoms: C43_38  and  O44_39 
ROOT
ATOM      1  C3  ZIN A   1      17.408  -3.595  10.411  0.00  0.00     0.083 A 
ATOM      2  C4  ZIN A   1      17.546  -4.301   9.219  0.00  0.00     0.038 A 
ATOM      3  C5  ZIN A   1      18.263  -3.766   8.170  0.00  0.00     0.004 A 
ATOM      4  C6  ZIN A   1      18.857  -2.519   8.285  0.00  0.00     0.017 A 
ATOM      5  C7  ZIN A   1      18.730  -1.796   9.465  0.00  0.00     0.032 A 
ATOM      6  C8  ZIN A   1      17.995  -2.334  10.538  0.00  0.00     0.062 A 
ATOM      7  C9  ZIN A   1      17.860  -1.566  11.791  0.00  0.00     0.200 C 
ATOM      8  O10 ZIN A   1      17.452  -2.104  12.802  0.00  0.00    -0.286 OA
ATOM      9  C11 ZIN A   1      18.227  -0.137  11.802  0.00  0.00     0.069 A 
ATOM     10  C12 ZIN A   1      17.850   0.689  12.857  0.00  0.00     0.132 A 
ATOM     11  O13 ZIN A   1      17.137   0.178  13.891  0.00  0.00    -0.190 OA
ATOM     12  C14 ZIN A   1      18.204   2.045  12.859  0.00  0.00     0.018 A 
ATOM     13  C15 ZIN A   1      18.927   2.570  11.818  0.00  0.00    -0.009 A 
ATOM     14  C16 ZIN A   1      19.344   4.017  11.767  0.00  0.00     0.088 C 
ATOM     15  C17 ZIN A   1      18.512   4.852  12.737  0.00  0.00     0.127 C 
ATOM     16  C23 ZIN A   1      18.553   4.175  14.113  0.00  0.00     0.083 C 
ATOM     17  C24 ZIN A   1      17.754   2.876  14.033  0.00  0.00     0.164 C 
ATOM     18  C43 ZIN A   1      19.310   1.752  10.746  0.00  0.00     0.088 A 
ATOM     19  C45 ZIN A   1      18.966   0.403  10.729  0.00  0.00     0.066 A 
ATOM     20  C46 ZIN A   1      19.356  -0.462   9.602  0.00  0.00     0.197 C 
ATOM     21  O47 ZIN A   1      20.186  -0.089   8.797  0.00  0.00    -0.286 OA
ENDROOT
BRANCH  17  22
ATOM     22  O26 ZIN A   1      17.945   2.131  15.237  0.00  0.00    -0.351 OA
BRANCH  22  23
ATOM     23  C27 ZIN A   1      19.308   2.051  15.661  0.00  0.00     0.263 C 
ATOM     24  O42 ZIN A   1      19.623   0.701  16.003  0.00  0.00    -0.354 OA
ATOM     25  C39 ZIN A   1      18.805   0.154  17.040  0.00  0.00     0.151 C 
ATOM     26  C36 ZIN A   1      18.991   0.974  18.320  0.00  0.00     0.177 C 
ATOM     27  C41 ZIN A   1      19.212  -1.297  17.300  0.00  0.00     0.042 C 
ATOM     28  C30 ZIN A   1      18.639   2.438  18.035  0.00  0.00     0.219 C 
ATOM     29  C29 ZIN A   1      19.513   2.948  16.886  0.00  0.00     0.096 C 
BRANCH  26  30
ATOM     30  O38 ZIN A   1      18.132   0.466  19.343  0.00  0.00    -0.391 OA
ATOM     31  H64 ZIN A   1      17.327   0.987  19.474  0.00  0.00     0.210 HD
ENDBRANCH  26  30
BRANCH  28  32
ATOM     32  N32 ZIN A   1      18.885   3.247  19.236  0.00  0.00    -0.072 N 
ATOM     33  H33 ZIN A   1      19.600   3.931  19.040  0.00  0.00     0.274 HD
ATOM     34  H34 ZIN A   1      18.034   3.717  19.505  0.00  0.00     0.274 HD
ATOM     35  H35 ZIN A   1      19.190   2.648  19.988  0.00  0.00     0.274 HD
ENDBRANCH  28  32
ENDBRANCH  22  23
ENDBRANCH  17  22
BRANCH  15  36
ATOM     36  O18 ZIN A   1      19.060   6.169  12.832  0.00  0.00    -0.382 OA
ATOM     37  H56 ZIN A   1      19.844   6.308  12.284  0.00  0.00     0.211 HD
ENDBRANCH  15  36
BRANCH  15  38
ATOM     38  C19 ZIN A   1      17.088   4.928  12.250  0.00  0.00     0.184 C 
ATOM     39  O20 ZIN A   1      16.190   5.114  13.037  0.00  0.00    -0.292 OA
BRANCH  38  40
ATOM     40  C21 ZIN A   1      16.784   4.772  10.782  0.00  0.00     0.245 C 
BRANCH  40  41
ATOM     41  O22 ZIN A   1      17.274   5.912  10.072  0.00  0.00    -0.393 OA
ATOM     42  H59 ZIN A   1      16.610   6.345   9.519  0.00  0.00     0.209 HD
ENDBRANCH  40  41
ENDBRANCH  38  40
ENDBRANCH  15  38
BRANCH  18  43
ATOM     43  O44 ZIN A   1      20.022   2.278   9.718  0.00  0.00    -0.359 OA
ATOM     44  H68 ZIN A   1      20.492   3.093   9.941  0.00  0.00     0.217 HD
ENDBRANCH  18  43
BRANCH   1  45
ATOM     45  O2  ZIN A   1      16.702  -4.126  11.440  0.00  0.00    -0.355 OA
ATOM     46  C1  ZIN A   1      17.165  -5.370  11.971  0.00  0.00     0.210 C 
ENDBRANCH   1  45
TORSDOF 10
ENDMDL
MODEL 3
REMARK VINA RESULT:      -7.9      3.271      9.023
REMARK  10 active torsions:
REMARK  status: ('A' for Active; 'I' for Inactive)
REMARK    1  A    between atoms: O2_2  and  C3_3 
REMARK    2  A    between atoms: C17_17  and  O18_18 
REMARK    3  A    between atoms: C17_17  and  C19_19 
REMARK    4  A    between atoms: C19_19  and  C21_21 
REMARK    5  A    between atoms: C21_21  and  O22_22 
REMARK    6  A    between atoms: C24_24  and  O26_25 
REMARK    7  A    between atoms: O26_25  and  C27_26 
REMARK    8  A    between atoms: C30_28  and  N32_29 
REMARK    9  A    between atoms: C36_33  and  O38_34 
REMARK   10  A    between atoms: C43_38  and  O44_39 
ROOT
ATOM      1  C3  ZIN A   1      17.359  -4.309   9.340  0.00  0.00     0.083 A 
ATOM      2  C4  ZIN A   1      17.321  -4.892   8.077  0.00  0.00     0.038 A 
ATOM      3  C5  ZIN A   1      17.912  -4.265   7.000  0.00  0.00     0.004 A 
ATOM      4  C6  ZIN A   1      18.551  -3.046   7.158  0.00  0.00     0.017 A 
ATOM      5  C7  ZIN A   1      18.599  -2.445   8.410  0.00  0.00     0.032 A 
ATOM      6  C8  ZIN A   1      17.994  -3.077   9.513  0.00  0.00     0.062 A 
ATOM      7  C9  ZIN A   1      18.045  -2.437  10.841  0.00  0.00     0.200 C 
ATOM      8  O10 ZIN A   1      17.755  -3.069  11.840  0.00  0.00    -0.286 OA
ATOM      9  C11 ZIN A   1      18.451  -1.023  10.945  0.00  0.00     0.069 A 
ATOM     10  C12 ZIN A   1      18.239  -0.303  12.117  0.00  0.00     0.132 A 
ATOM     11  O13 ZIN A   1      17.651  -0.904  13.180  0.00  0.00    -0.190 OA
ATOM     12  C14 ZIN A   1      18.630   1.041  12.206  0.00  0.00     0.018 A 
ATOM     13  C15 ZIN A   1      19.227   1.656  11.135  0.00  0.00    -0.009 A 
ATOM     14  C16 ZIN A   1      19.676   3.094  11.172  0.00  0.00     0.088 C 
ATOM     15  C17 ZIN A   1      19.001   3.840  12.321  0.00  0.00     0.127 C 
ATOM     16  C23 ZIN A   1      19.200   3.026  13.606  0.00  0.00     0.083 C 
ATOM     17  C24 ZIN A   1      18.360   1.755  13.504  0.00  0.00     0.164 C 
ATOM     18  C43 ZIN A   1      19.444   0.945   9.946  0.00  0.00     0.088 A 
ATOM     19  C45 ZIN A   1      19.061  -0.389   9.842  0.00  0.00     0.066 A 
ATOM     20  C46 ZIN A   1      19.277  -1.142   8.594  0.00  0.00     0.197 C 
ATOM     21  O47 ZIN A   1      20.007  -0.702   7.728  0.00  0.00    -0.286 OA
ENDROOT
BRANCH  17  22
ATOM     22  O26 ZIN A   1      18.683   0.889  14.594  0.00  0.00    -0.351 OA
BRANCH  22  23
ATOM     23  C27 ZIN A   1      17.593   0.642  15.484  0.00  0.00     0.263 C 
ATOM     24  O42 ZIN A   1      17.303   1.830  16.223  0.00  0.00    -0.354 OA
ATOM     25  C39 ZIN A   1      18.402   2.320  16.995  0.00  0.00     0.151 C 
ATOM     26  C36 ZIN A   1      18.812   1.264  18.025  0.00  0.00     0.177 C 
ATOM     27  C41 ZIN A   1      17.986   3.603  17.717  0.00  0.00     0.042 C 
ATOM     28  C30 ZIN A   1      19.168  -0.037  17.298  0.00  0.00     0.219 C 
ATOM     29  C29 ZIN A   1      17.970  -0.481  16.454  0.00  0.00     0.096 C 
BRANCH  26  30
ATOM     30  O38 ZIN A   1      19.946   1.727  18.760  0.00  0.00    -0.391 OA
ATOM     31  H64 ZIN A   1      19.862   2.635  19.082  0.00  0.00     0.210 HD
ENDBRANCH  26  30
BRANCH  28  32
ATOM     32  N32 ZIN A   1      19.491  -1.079  18.281  0.00  0.00    -0.072 N 
ATOM     33  H33 ZIN A   1      20.476  -1.046  18.495  0.00  0.00     0.274 HD
ATOM     34  H34 ZIN A   1      18.959  -0.922  19.124  0.00  0.00     0.274 HD
ATOM     35  H35 ZIN A   1      19.259  -1.984  17.901  0.00  0.00     0.274 HD
ENDBRANCH  28  32
ENDBRANCH  22  23
ENDBRANCH  17  22
BRANCH  15  36
ATOM     36  O18 ZIN A   1      19.595   5.131  12.472  0.00  0.00    -0.382 OA
ATOM     37  H56 ZIN A   1      19.538   5.487  13.368  0.00  0.00     0.211 HD
ENDBRANCH  15  36
BRANCH  15  38
ATOM     38  C19 ZIN A   1      17.529   3.988  12.035  0.00  0.00     0.184 C 
ATOM     39  O20 ZIN A   1      17.059   3.515  11.028  0.00  0.00    -0.292 OA
BRANCH  38  40
ATOM     40  C21 ZIN A   1      16.643   4.724  13.008  0.00  0.00     0.245 C 
BRANCH  40  41
ATOM     41  O22 ZIN A   1      16.964   6.117  12.983  0.00  0.00    -0.393 OA
ATOM     42  H59 ZIN A   1      17.045   6.485  12.093  0.00  0.00     0.209 HD
ENDBRANCH  40  41
ENDBRANCH  38  40
ENDBRANCH  15  38
BRANCH  18  43
ATOM     43  O44 ZIN A   1      20.032   1.561   8.891  0.00  0.00    -0.359 OA
ATOM     44  H68 ZIN A   1      20.851   1.140   8.596  0.00  0.00     0.217 HD
ENDBRANCH  18  43
BRANCH   1  45
ATOM     45  O2  ZIN A   1      16.777  -4.930  10.396  0.00  0.00    -0.355 OA
ATOM     46  C1  ZIN A   1      17.299  -6.209  10.765  0.00  0.00     0.210 C 
ENDBRANCH   1  45
TORSDOF 10
ENDMDL
MODEL 4
REMARK VINA RESULT:      -7.3      2.552      7.523
REMARK  10 active torsions:
REMARK  status: ('A' for Active; 'I' for Inactive)
REMARK    1  A    between atoms: O2_2  and  C3_3 
REMARK    2  A    between atoms: C17_17  and  O18_18 
REMARK    3  A    between atoms: C17_17  and  C19_19 
REMARK    4  A    between atoms: C19_19  and  C21_21 
REMARK    5  A    between atoms: C21_21  and  O22_22 
REMARK    6  A    between atoms: C24_24  and  O26_25 
REMARK    7  A    between atoms: O26_25  and  C27_26 
REMARK    8  A    between atoms: C30_28  and  N32_29 
REMARK    9  A    between atoms: C36_33  and  O38_34 
REMARK   10  A    between atoms: C43_38  and  O44_39 
ROOT
ATOM      1  C3  ZIN A   1      19.156  -1.999   5.710  0.00  0.00     0.083 A 
ATOM      2  C4  ZIN A   1      19.240  -3.138   4.916  0.00  0.00     0.038 A 
ATOM      3  C5  ZIN A   1      18.794  -4.354   5.392  0.00  0.00     0.004 A 
ATOM      4  C6  ZIN A   1      18.259  -4.460   6.665  0.00  0.00     0.017 A 
ATOM      5  C7  ZIN A   1      18.168  -3.334   7.475  0.00  0.00     0.032 A 
ATOM      6  C8  ZIN A   1      18.625  -2.091   6.998  0.00  0.00     0.062 A 
ATOM      7  C9  ZIN A   1      18.529  -0.897   7.859  0.00  0.00     0.200 C 
ATOM      8  O10 ZIN A   1      18.680   0.214   7.389  0.00  0.00    -0.286 OA
ATOM      9  C11 ZIN A   1      18.246  -1.067   9.297  0.00  0.00     0.069 A 
ATOM     10  C12 ZIN A   1      18.431  -0.016  10.190  0.00  0.00     0.132 A 
ATOM     11  O13 ZIN A   1      18.877   1.182   9.738  0.00  0.00    -0.190 OA
ATOM     12  C14 ZIN A   1      18.159  -0.186  11.555  0.00  0.00     0.018 A 
ATOM     13  C15 ZIN A   1      17.706  -1.395  12.021  0.00  0.00    -0.009 A 
ATOM     14  C16 ZIN A   1      17.389  -1.637  13.474  0.00  0.00     0.088 C 
ATOM     15  C17 ZIN A   1      18.036  -0.570  14.352  0.00  0.00     0.127 C 
ATOM     16  C23 ZIN A   1      17.664   0.807  13.790  0.00  0.00     0.083 C 
ATOM     17  C24 ZIN A   1      18.390   0.995  12.460  0.00  0.00     0.164 C 
ATOM     18  C43 ZIN A   1      17.518  -2.465  11.134  0.00  0.00     0.088 A 
ATOM     19  C45 ZIN A   1      17.785  -2.311   9.776  0.00  0.00     0.066 A 
ATOM     20  C46 ZIN A   1      17.600  -3.431   8.838  0.00  0.00     0.197 C 
ATOM     21  O47 ZIN A   1      16.983  -4.423   9.176  0.00  0.00    -0.286 OA
ENDROOT
BRANCH  17  22
ATOM     22  O26 ZIN A   1      17.905   2.178  11.822  0.00  0.00    -0.351 OA
BRANCH  22  23
ATOM     23  C27 ZIN A   1      18.812   3.282  11.875  0.00  0.00     0.263 C 
ATOM     24  O42 ZIN A   1      18.803   3.842  13.189  0.00  0.00    -0.354 OA
ATOM     25  C39 ZIN A   1      17.520   4.303  13.619  0.00  0.00     0.151 C 
ATOM     26  C36 ZIN A   1      17.035   5.410  12.679  0.00  0.00     0.177 C 
ATOM     27  C41 ZIN A   1      17.627   4.853  15.043  0.00  0.00     0.042 C 
ATOM     28  C30 ZIN A   1      16.989   4.868  11.246  0.00  0.00     0.219 C 
ATOM     29  C29 ZIN A   1      18.378   4.347  10.864  0.00  0.00     0.096 C 
BRANCH  26  30
ATOM     30  O38 ZIN A   1      15.729   5.834  13.072  0.00  0.00    -0.391 OA
ATOM     31  H64 ZIN A   1      15.052   5.701  12.394  0.00  0.00     0.210 HD
ENDBRANCH  26  30
BRANCH  28  32
ATOM     32  N32 ZIN A   1      16.597   5.943  10.325  0.00  0.00    -0.072 N 
ATOM     33  H33 ZIN A   1      15.970   5.574   9.626  0.00  0.00     0.274 HD
ATOM     34  H34 ZIN A   1      16.131   6.674  10.841  0.00  0.00     0.274 HD
ATOM     35  H35 ZIN A   1      17.418   6.318   9.877  0.00  0.00     0.274 HD
ENDBRANCH  28  32
ENDBRANCH  22  23
ENDBRANCH  17  22
BRANCH  15  36
ATOM     36  O18 ZIN A   1      17.553  -0.691  15.692  0.00  0.00    -0.382 OA
ATOM     37  H56 ZIN A   1      17.094  -1.522  15.870  0.00  0.00     0.211 HD
ENDBRANCH  15  36
BRANCH  15  38
ATOM     38  C19 ZIN A   1      19.534  -0.739  14.335  0.00  0.00     0.184 C 
ATOM     39  O20 ZIN A   1      20.019  -1.839  14.447  0.00  0.00    -0.292 OA
BRANCH  38  40
ATOM     40  C21 ZIN A   1      20.426   0.466  14.178  0.00  0.00     0.245 C 
BRANCH  40  41
ATOM     41  O22 ZIN A   1      21.299   0.269  13.063  0.00  0.00    -0.393 OA
ATOM     42  H59 ZIN A   1      21.799   1.057  12.812  0.00  0.00     0.209 HD
ENDBRANCH  40  41
ENDBRANCH  38  40
ENDBRANCH  15  38
BRANCH  18  43
ATOM     43  O44 ZIN A   1      17.074  -3.657  11.601  0.00  0.00    -0.359 OA
ATOM     44  H68 ZIN A   1      17.773  -4.233  11.941  0.00  0.00     0.217 HD
ENDBRANCH  18  43
BRANCH   1  45
ATOM     45  O2  ZIN A   1      19.595  -0.805   5.237  0.00  0.00    -0.355 OA
ATOM     46  C1  ZIN A   1      18.812  -0.185   4.214  0.00  0.00     0.210 C 
ENDBRANCH   1  45
TORSDOF 10
ENDMDL
MODEL 5
REMARK VINA RESULT:      -6.6      2.415      5.119
REMARK  10 active torsions:
REMARK  status: ('A' for Active; 'I' for Inactive)
REMARK    1  A    between atoms: O2_2  and  C3_3 
REMARK    2  A    between atoms: C17_17  and  O18_18 
REMARK    3  A    between atoms: C17_17  and  C19_19 
REMARK    4  A    between atoms: C19_19  and  C21_21 
REMARK    5  A    between atoms: C21_21  and  O22_22 
REMARK    6  A    between atoms: C24_24  and  O26_25 
REMARK    7  A    between atoms: O26_25  and  C27_26 
REMARK    8  A    between atoms: C30_28  and  N32_29 
REMARK    9  A    between atoms: C36_33  and  O38_34 
REMARK   10  A    between atoms: C43_38  and  O44_39 
ROOT
ATOM      1  C3  ZIN A   1      18.978   0.960  16.907  0.00  0.00     0.083 A 
ATOM      2  C4  ZIN A   1      19.268   2.058  17.711  0.00  0.00     0.038 A 
ATOM      3  C5  ZIN A   1      19.106   3.340  17.228  0.00  0.00     0.004 A 
ATOM      4  C6  ZIN A   1      18.653   3.554  15.936  0.00  0.00     0.017 A 
ATOM      5  C7  ZIN A   1      18.360   2.472  15.115  0.00  0.00     0.032 A 
ATOM      6  C8  ZIN A   1      18.527   1.161  15.600  0.00  0.00     0.062 A 
ATOM      7  C9  ZIN A   1      18.216   0.013  14.727  0.00  0.00     0.200 C 
ATOM      8  O10 ZIN A   1      18.113  -1.105  15.195  0.00  0.00    -0.286 OA
ATOM      9  C11 ZIN A   1      18.030   0.237  13.281  0.00  0.00     0.069 A 
ATOM     10  C12 ZIN A   1      18.024  -0.831  12.388  0.00  0.00     0.132 A 
ATOM     11  O13 ZIN A   1      18.192  -2.095  12.848  0.00  0.00    -0.190 OA
ATOM     12  C14 ZIN A   1      17.846  -0.608  11.015  0.00  0.00     0.018 A 
ATOM     13  C15 ZIN A   1      17.675   0.668  10.542  0.00  0.00    -0.009 A 
ATOM     14  C16 ZIN A   1      17.471   0.970   9.080  0.00  0.00     0.088 C 
ATOM     15  C17 ZIN A   1      17.914  -0.210   8.218  0.00  0.00     0.127 C 
ATOM     16  C23 ZIN A   1      17.240  -1.478   8.756  0.00  0.00     0.083 C 
ATOM     17  C24 ZIN A   1      17.860  -1.813  10.111  0.00  0.00     0.164 C 
ATOM     18  C43 ZIN A   1      17.682   1.754  11.428  0.00  0.00     0.088 A 
ATOM     19  C45 ZIN A   1      17.859   1.549  12.794  0.00  0.00     0.066 A 
ATOM     20  C46 ZIN A   1      17.877   2.684  13.733  0.00  0.00     0.197 C 
ATOM     21  O47 ZIN A   1      17.495   3.783  13.378  0.00  0.00    -0.286 OA
ENDROOT
BRANCH  17  22
ATOM     22  O26 ZIN A   1      17.113  -2.867  10.723  0.00  0.00    -0.351 OA
BRANCH  22  23
ATOM     23  C27 ZIN A   1      17.826  -4.102  10.823  0.00  0.00     0.263 C 
ATOM     24  O42 ZIN A   1      18.807  -4.171   9.788  0.00  0.00    -0.354 OA
ATOM     25  C39 ZIN A   1      18.270  -4.077   8.466  0.00  0.00     0.151 C 
ATOM     26  C36 ZIN A   1      17.309  -5.243   8.223  0.00  0.00     0.177 C 
ATOM     27  C41 ZIN A   1      19.410  -4.134   7.447  0.00  0.00     0.042 C 
ATOM     28  C30 ZIN A   1      16.205  -5.215   9.285  0.00  0.00     0.219 C 
ATOM     29  C29 ZIN A   1      16.846  -5.270  10.674  0.00  0.00     0.096 C 
BRANCH  26  30
ATOM     30  O38 ZIN A   1      16.726  -5.122   6.924  0.00  0.00    -0.391 OA
ATOM     31  H64 ZIN A   1      17.310  -5.398   6.204  0.00  0.00     0.210 HD
ENDBRANCH  26  30
BRANCH  28  32
ATOM     32  N32 ZIN A   1      15.319  -6.373   9.106  0.00  0.00    -0.072 N 
ATOM     33  H33 ZIN A   1      14.810  -6.276   8.241  0.00  0.00     0.274 HD
ATOM     34  H34 ZIN A   1      15.870  -7.217   9.079  0.00  0.00     0.274 HD
ATOM     35  H35 ZIN A   1      14.669  -6.421   9.875  0.00  0.00     0.274 HD
ENDBRANCH  28  32
ENDBRANCH  22  23
ENDBRANCH  17  22
BRANCH  15  36
ATOM     36  O18 ZIN A   1      17.518   0.008   6.862  0.00  0.00    -0.382 OA
ATOM     37  H56 ZIN A   1      17.339  -0.804   6.370  0.00  0.00     0.211 HD
ENDBRANCH  15  36
BRANCH  15  38
ATOM     38  C19 ZIN A   1      19.412  -0.359   8.293  0.00  0.00     0.184 C 
ATOM     39  O20 ZIN A   1      19.963  -1.231   7.664  0.00  0.00    -0.292 OA
BRANCH  38  40
ATOM     40  C21 ZIN A   1      20.221   0.580   9.150  0.00  0.00     0.245 C 
BRANCH  40  41
ATOM     41  O22 ZIN A   1      21.103  -0.176   9.983  0.00  0.00    -0.393 OA
ATOM     42  H59 ZIN A   1      22.036  -0.089   9.748  0.00  0.00     0.209 HD
ENDBRANCH  40  41
ENDBRANCH  38  40
ENDBRANCH  15  38
BRANCH  18  43
ATOM     43  O44 ZIN A   1      17.515   3.013  10.953  0.00  0.00    -0.359 OA
ATOM     44  H68 ZIN A   1      16.983   3.583  11.525  0.00  0.00     0.217 HD
ENDBRANCH  18  43
BRANCH   1  45
ATOM     45  O2  ZIN A   1      19.138  -0.298  17.387  0.00  0.00    -0.355 OA
ATOM     46  C1  ZIN A   1      18.863  -0.504  18.774  0.00  0.00     0.210 C 
ENDBRANCH   1  45
TORSDOF 10
ENDMDL
