MODEL 1
REMARK VINA RESULT:      -8.1      0.000      0.000
REMARK  6 active torsions:
REMARK  status: ('A' for Active; 'I' for Inactive)
REMARK    1  A    between atoms: C5_5  and  C6_6 
REMARK    2  A    between atoms: C6_6  and  S7_7 
REMARK    3  A    between atoms: S7_7  and  C8_8 
REMARK    4  A    between atoms: C8_8  and  C10_9 
REMARK    5  A    between atoms: C8_8  and  C17_16 
REMARK    6  A    between atoms: C10_9  and  N11_10 
ROOT
ATOM      1  C8  ZIN A   1      19.007   1.685  11.244  0.00  0.00     0.100 C 
ENDROOT
BRANCH   1   2
ATOM      2  S7  ZIN A   1      20.343   0.676  11.942  0.00  0.00    -0.153 SA
BRANCH   2   3
ATOM      3  C6  ZIN A   1      19.453  -0.710  12.703  0.00  0.00     0.113 C 
BRANCH   3   4
ATOM      4  C5  ZIN A   1      19.252  -0.432  14.171  0.00  0.00    -0.049 A 
ATOM      5  C4  ZIN A   1      19.250   0.869  14.634  0.00  0.00     0.009 A 
ATOM      6  C3  ZIN A   1      19.066   1.125  15.981  0.00  0.00     0.024 A 
ATOM      7  C2  ZIN A   1      18.884   0.075  16.864  0.00  0.00     0.034 A 
ATOM      8 Cl1  ZIN A   1      18.652   0.394  18.555  0.00  0.00    -0.084 Cl
ATOM      9  C26 ZIN A   1      18.894  -1.229  16.401  0.00  0.00     0.024 A 
ATOM     10  C25 ZIN A   1      19.072  -1.482  15.053  0.00  0.00     0.009 A 
ENDBRANCH   3   4
ENDBRANCH   2   3
ENDBRANCH   1   2
BRANCH   1  11
ATOM     11  C10 ZIN A   1      19.459   3.144  11.161  0.00  0.00     0.149 C 
BRANCH  11  12
ATOM     12  N11 ZIN A   1      18.284   4.020  11.179  0.00  0.00    -0.350 N 
ATOM     13  C16 ZIN A   1      17.771   4.694  10.127  0.00  0.00     0.182 A 
ATOM     14  N14 ZIN A   1      16.726   5.364  10.529  0.00  0.00    -0.361 N 
ATOM     15  C13 ZIN A   1      16.542   5.150  11.840  0.00  0.00     0.106 A 
ATOM     16  H15 ZIN A   1      16.172   5.930   9.970  0.00  0.00     0.166 HD
ATOM     17  C12 ZIN A   1      17.506   4.312  12.266  0.00  0.00     0.108 A 
ENDBRANCH  11  12
ENDBRANCH   1  11
BRANCH   1  18
ATOM     18  C17 ZIN A   1      18.667   1.184   9.865  0.00  0.00    -0.021 A 
ATOM     19  C23 ZIN A   1      17.568   0.364   9.677  0.00  0.00     0.043 A 
ATOM     20  C22 ZIN A   1      17.253  -0.090   8.410  0.00  0.00     0.048 A 
ATOM     21 Cl24 ZIN A   1      16.578  -0.083  11.031  0.00  0.00    -0.084 Cl
ATOM     22  C20 ZIN A   1      18.042   0.266   7.331  0.00  0.00     0.035 A 
ATOM     23  C19 ZIN A   1      19.144   1.081   7.521  0.00  0.00     0.024 A 
ATOM     24 Cl21 ZIN A   1      17.651  -0.309   5.740  0.00  0.00    -0.084 Cl
ATOM     25  C18 ZIN A   1      19.456   1.540   8.787  0.00  0.00     0.012 A 
ENDBRANCH   1  18
TORSDOF 6
ENDMDL
MODEL 2
REMARK VINA RESULT:      -8.1      3.120      6.359
REMARK  6 active torsions:
REMARK  status: ('A' for Active; 'I' for Inactive)
REMARK    1  A    between atoms: C5_5  and  C6_6 
REMARK    2  A    between atoms: C6_6  and  S7_7 
REMARK    3  A    between atoms: S7_7  and  C8_8 
REMARK    4  A    between atoms: C8_8  and  C10_9 
REMARK    5  A    between atoms: C8_8  and  C17_16 
REMARK    6  A    between atoms: C10_9  and  N11_10 
ROOT
ATOM      1  C8  ZIN A   1      18.425  -0.841  12.715  0.00  0.00     0.100 C 
ENDROOT
BRANCH   1   2
ATOM      2  S7  ZIN A   1      16.936   0.069  12.222  0.00  0.00    -0.153 SA
BRANCH   2   3
ATOM      3  C6  ZIN A   1      17.608   1.576  11.470  0.00  0.00     0.113 C 
BRANCH   3   4
ATOM      4  C5  ZIN A   1      17.976   1.301  10.035  0.00  0.00    -0.049 A 
ATOM      5  C4  ZIN A   1      17.359   0.272   9.349  0.00  0.00     0.009 A 
ATOM      6  C3  ZIN A   1      17.695   0.018   8.032  0.00  0.00     0.024 A 
ATOM      7  C2  ZIN A   1      18.650   0.795   7.400  0.00  0.00     0.034 A 
ATOM      8 Cl1  ZIN A   1      19.072   0.478   5.747  0.00  0.00    -0.084 Cl
ATOM      9  C26 ZIN A   1      19.273   1.821   8.090  0.00  0.00     0.024 A 
ATOM     10  C25 ZIN A   1      18.931   2.077   9.405  0.00  0.00     0.009 A 
ENDBRANCH   3   4
ENDBRANCH   2   3
ENDBRANCH   1   2
BRANCH   1  11
ATOM     11  C10 ZIN A   1      18.329  -1.214  14.195  0.00  0.00     0.149 C 
BRANCH  11  12
ATOM     12  N11 ZIN A   1      18.406   0.002  15.010  0.00  0.00    -0.350 N 
ATOM     13  C16 ZIN A   1      17.573   0.346  16.017  0.00  0.00     0.182 A 
ATOM     14  N14 ZIN A   1      17.959   1.493  16.505  0.00  0.00    -0.361 N 
ATOM     15  C13 ZIN A   1      19.036   1.921  15.829  0.00  0.00     0.106 A 
ATOM     16  H15 ZIN A   1      17.533   1.963  17.238  0.00  0.00     0.166 HD
ATOM     17  C12 ZIN A   1      19.332   1.002  14.890  0.00  0.00     0.108 A 
ENDBRANCH  11  12
ENDBRANCH   1  11
BRANCH   1  18
ATOM     18  C17 ZIN A   1      18.545  -2.094  11.887  0.00  0.00    -0.021 A 
ATOM     19  C23 ZIN A   1      19.552  -2.207  10.943  0.00  0.00     0.043 A 
ATOM     20  C22 ZIN A   1      19.665  -3.359  10.188  0.00  0.00     0.048 A 
ATOM     21 Cl24 ZIN A   1      20.679  -0.906  10.717  0.00  0.00    -0.084 Cl
ATOM     22  C20 ZIN A   1      18.767  -4.396  10.368  0.00  0.00     0.035 A 
ATOM     23  C19 ZIN A   1      17.758  -4.280  11.308  0.00  0.00     0.024 A 
ATOM     24 Cl21 ZIN A   1      18.904  -5.841   9.416  0.00  0.00    -0.084 Cl
ATOM     25  C18 ZIN A   1      17.647  -3.130  12.066  0.00  0.00     0.012 A 
ENDBRANCH   1  18
TORSDOF 6
ENDMDL
MODEL 3
REMARK VINA RESULT:      -7.9      3.274      6.712
REMARK  6 active torsions:
REMARK  status: ('A' for Active; 'I' for Inactive)
REMARK    1  A    between atoms: C5_5  and  C6_6 
REMARK    2  A    between atoms: C6_6  and  S7_7 
REMARK    3  A    between atoms: S7_7  and  C8_8 
REMARK    4  A    between atoms: C8_8  and  C10_9 
REMARK    5  A    between atoms: C8_8  and  C17_16 
REMARK    6  A    between atoms: C10_9  and  N11_10 
ROOT
ATOM      1  C8  ZIN A   1      18.992  -1.462  11.415  0.00  0.00     0.100 C 
ENDROOT
BRANCH   1   2
ATOM      2  S7  ZIN A   1      20.451  -0.544  10.851  0.00  0.00    -0.153 SA
BRANCH   2   3
ATOM      3  C6  ZIN A   1      19.757   0.627   9.651  0.00  0.00     0.113 C 
BRANCH   3   4
ATOM      4  C5  ZIN A   1      19.222   1.833  10.379  0.00  0.00    -0.049 A 
ATOM      5  C4  ZIN A   1      19.724   2.170  11.622  0.00  0.00     0.009 A 
ATOM      6  C3  ZIN A   1      19.235   3.277  12.290  0.00  0.00     0.024 A 
ATOM      7  C2  ZIN A   1      18.241   4.048  11.714  0.00  0.00     0.034 A 
ATOM      8 Cl1  ZIN A   1      17.626   5.438  12.551  0.00  0.00    -0.084 Cl
ATOM      9  C26 ZIN A   1      17.733   3.707  10.472  0.00  0.00     0.024 A 
ATOM     10  C25 ZIN A   1      18.228   2.603   9.803  0.00  0.00     0.009 A 
ENDBRANCH   3   4
ENDBRANCH   2   3
ENDBRANCH   1   2
BRANCH   1  11
ATOM     11  C10 ZIN A   1      19.259  -2.964  11.302  0.00  0.00     0.149 C 
BRANCH  11  12
ATOM     12  N11 ZIN A   1      18.345  -3.548  10.315  0.00  0.00    -0.350 N 
ATOM     13  C16 ZIN A   1      18.158  -3.124   9.046  0.00  0.00     0.182 A 
ATOM     14  N14 ZIN A   1      17.271  -3.892   8.475  0.00  0.00    -0.361 N 
ATOM     15  C13 ZIN A   1      16.858  -4.818   9.352  0.00  0.00     0.106 A 
ATOM     16  H15 ZIN A   1      16.957  -3.804   7.562  0.00  0.00     0.166 HD
ATOM     17  C12 ZIN A   1      17.518  -4.621  10.510  0.00  0.00     0.108 A 
ENDBRANCH  11  12
ENDBRANCH   1  11
BRANCH   1  18
ATOM     18  C17 ZIN A   1      18.701  -1.110  12.851  0.00  0.00    -0.021 A 
ATOM     19  C23 ZIN A   1      17.601  -0.331  13.164  0.00  0.00     0.043 A 
ATOM     20  C22 ZIN A   1      17.331  -0.013  14.482  0.00  0.00     0.048 A 
ATOM     21 Cl24 ZIN A   1      16.553   0.236  11.902  0.00  0.00    -0.084 Cl
ATOM     22  C20 ZIN A   1      18.167  -0.465  15.488  0.00  0.00     0.035 A 
ATOM     23  C19 ZIN A   1      19.270  -1.240  15.173  0.00  0.00     0.024 A 
ATOM     24 Cl21 ZIN A   1      17.833  -0.062  17.143  0.00  0.00    -0.084 Cl
ATOM     25  C18 ZIN A   1      19.537  -1.561  13.856  0.00  0.00     0.012 A 
ENDBRANCH   1  18
TORSDOF 6
ENDMDL
MODEL 4
REMARK VINA RESULT:      -7.8      2.562      6.841
REMARK  6 active torsions:
REMARK  status: ('A' for Active; 'I' for Inactive)
REMARK    1  A    between atoms: C5_5  and  C6_6 
REMARK    2  A    between atoms: C6_6  and  S7_7 
REMARK    3  A    between atoms: S7_7  and  C8_8 
REMARK    4  A    between atoms: C8_8  and  C10_9 
REMARK    5  A    between atoms: C8_8  and  C17_16 
REMARK    6  A    between atoms: C10_9  and  N11_10 
ROOT
ATOM      1  C8  ZIN A   1      18.767   2.788  13.190  0.00  0.00     0.100 C 
ENDROOT
BRANCH   1   2
ATOM      2  S7  ZIN A   1      17.802   2.634  11.662  0.00  0.00    -0.153 SA
BRANCH   2   3
ATOM      3  C6  ZIN A   1      19.070   2.730  10.368  0.00  0.00     0.113 C 
BRANCH   3   4
ATOM      4  C5  ZIN A   1      18.690   1.824   9.225  0.00  0.00    -0.049 A 
ATOM      5  C4  ZIN A   1      17.757   0.823   9.417  0.00  0.00     0.009 A 
ATOM      6  C3  ZIN A   1      17.407  -0.008   8.368  0.00  0.00     0.024 A 
ATOM      7  C2  ZIN A   1      17.993   0.163   7.126  0.00  0.00     0.034 A 
ATOM      8 Cl1  ZIN A   1      17.554  -0.880   5.810  0.00  0.00    -0.084 Cl
ATOM      9  C26 ZIN A   1      18.932   1.161   6.936  0.00  0.00     0.024 A 
ATOM     10  C25 ZIN A   1      19.276   1.995   7.984  0.00  0.00     0.009 A 
ENDBRANCH   3   4
ENDBRANCH   2   3
ENDBRANCH   1   2
BRANCH   1  11
ATOM     11  C10 ZIN A   1      18.230   3.958  14.017  0.00  0.00     0.149 C 
BRANCH  11  12
ATOM     12  N11 ZIN A   1      19.343   4.622  14.702  0.00  0.00    -0.350 N 
ATOM     13  C16 ZIN A   1      19.808   4.336  15.938  0.00  0.00     0.182 A 
ATOM     14  N14 ZIN A   1      20.806   5.133  16.204  0.00  0.00    -0.361 N 
ATOM     15  C13 ZIN A   1      21.007   5.952  15.162  0.00  0.00     0.106 A 
ATOM     16  H15 ZIN A   1      21.319   5.135  17.027  0.00  0.00     0.166 HD
ATOM     17  C12 ZIN A   1      20.102   5.649  14.212  0.00  0.00     0.108 A 
ENDBRANCH  11  12
ENDBRANCH   1  11
BRANCH   1  18
ATOM     18  C17 ZIN A   1      18.653   1.515  13.987  0.00  0.00    -0.021 A 
ATOM     19  C23 ZIN A   1      19.525   0.467  13.747  0.00  0.00     0.043 A 
ATOM     20  C22 ZIN A   1      19.424  -0.698  14.483  0.00  0.00     0.048 A 
ATOM     21 Cl24 ZIN A   1      20.754   0.623  12.531  0.00  0.00    -0.084 Cl
ATOM     22  C20 ZIN A   1      18.445  -0.822  15.452  0.00  0.00     0.035 A 
ATOM     23  C19 ZIN A   1      17.570   0.224  15.688  0.00  0.00     0.024 A 
ATOM     24 Cl21 ZIN A   1      18.313  -2.288  16.373  0.00  0.00    -0.084 Cl
ATOM     25  C18 ZIN A   1      17.674   1.391  14.955  0.00  0.00     0.012 A 
ENDBRANCH   1  18
TORSDOF 6
ENDMDL
MODEL 5
REMARK VINA RESULT:      -7.8      2.856      4.672
REMARK  6 active torsions:
REMARK  status: ('A' for Active; 'I' for Inactive)
REMARK    1  A    between atoms: C5_5  and  C6_6 
REMARK    2  A    between atoms: C6_6  and  S7_7 
REMARK    3  A    between atoms: S7_7  and  C8_8 
REMARK    4  A    between atoms: C8_8  and  C10_9 
REMARK    5  A    between atoms: C8_8  and  C17_16 
REMARK    6  A    between atoms: C10_9  and  N11_10 
ROOT
ATOM      1  C8  ZIN A   1      19.294   0.230  11.059  0.00  0.00     0.100 C 
ENDROOT
BRANCH   1   2
ATOM      2  S7  ZIN A   1      20.224   0.052  12.606  0.00  0.00    -0.153 SA
BRANCH   2   3
ATOM      3  C6  ZIN A   1      19.241  -1.155  13.537  0.00  0.00     0.113 C 
BRANCH   3   4
ATOM      4  C5  ZIN A   1      18.810  -0.548  14.847  0.00  0.00    -0.049 A 
ATOM      5  C4  ZIN A   1      19.124   0.766  15.137  0.00  0.00     0.009 A 
ATOM      6  C3  ZIN A   1      18.729   1.324  16.339  0.00  0.00     0.024 A 
ATOM      7  C2  ZIN A   1      18.018   0.566  17.252  0.00  0.00     0.034 A 
ATOM      8 Cl1  ZIN A   1      17.521   1.265  18.761  0.00  0.00    -0.084 Cl
ATOM      9  C26 ZIN A   1      17.710  -0.753  16.965  0.00  0.00     0.024 A 
ATOM     10  C25 ZIN A   1      18.101  -1.307  15.760  0.00  0.00     0.009 A 
ENDBRANCH   3   4
ENDBRANCH   2   3
ENDBRANCH   1   2
BRANCH   1  11
ATOM     11  C10 ZIN A   1      18.181  -0.818  11.009  0.00  0.00     0.149 C 
BRANCH  11  12
ATOM     12  N11 ZIN A   1      18.513  -1.834  10.006  0.00  0.00    -0.350 N 
ATOM     13  C16 ZIN A   1      19.182  -2.987  10.224  0.00  0.00     0.182 A 
ATOM     14  N14 ZIN A   1      19.283  -3.632   9.094  0.00  0.00    -0.361 N 
ATOM     15  C13 ZIN A   1      18.695  -2.917   8.124  0.00  0.00     0.106 A 
ATOM     16  H15 ZIN A   1      19.717  -4.490   8.975  0.00  0.00     0.166 HD
ATOM     17  C12 ZIN A   1      18.207  -1.789   8.673  0.00  0.00     0.108 A 
ENDBRANCH  11  12
ENDBRANCH   1  11
BRANCH   1  18
ATOM     18  C17 ZIN A   1      18.691   1.608  10.990  0.00  0.00    -0.021 A 
ATOM     19  C23 ZIN A   1      18.790   2.351   9.826  0.00  0.00     0.043 A 
ATOM     20  C22 ZIN A   1      18.231   3.613   9.762  0.00  0.00     0.048 A 
ATOM     21 Cl24 ZIN A   1      19.604   1.690   8.443  0.00  0.00    -0.084 Cl
ATOM     22  C20 ZIN A   1      17.582   4.140  10.865  0.00  0.00     0.035 A 
ATOM     23  C19 ZIN A   1      17.489   3.399  12.030  0.00  0.00     0.024 A 
ATOM     24 Cl21 ZIN A   1      16.885   5.728  10.787  0.00  0.00    -0.084 Cl
ATOM     25  C18 ZIN A   1      18.044   2.135  12.093  0.00  0.00     0.012 A 
ENDBRANCH   1  18
TORSDOF 6
ENDMDL
MODEL 6
REMARK VINA RESULT:      -7.8      3.005      4.700
REMARK  6 active torsions:
REMARK  status: ('A' for Active; 'I' for Inactive)
REMARK    1  A    between atoms: C5_5  and  C6_6 
REMARK    2  A    between atoms: C6_6  and  S7_7 
REMARK    3  A    between atoms: S7_7  and  C8_8 
REMARK    4  A    between atoms: C8_8  and  C10_9 
REMARK    5  A    between atoms: C8_8  and  C17_16 
REMARK    6  A    between atoms: C10_9  and  N11_10 
ROOT
ATOM      1  C8  ZIN A   1      17.854   1.086  11.709  0.00  0.00     0.100 C 
ENDROOT
BRANCH   1   2
ATOM      2  S7  ZIN A   1      16.905  -0.406  12.114  0.00  0.00    -0.153 SA
BRANCH   2   3
ATOM      3  C6  ZIN A   1      18.147  -1.484  12.880  0.00  0.00     0.113 C 
BRANCH   3   4
ATOM      4  C5  ZIN A   1      18.421  -2.657  11.973  0.00  0.00    -0.049 A 
ATOM      5  C4  ZIN A   1      19.712  -3.128  11.824  0.00  0.00     0.009 A 
ATOM      6  C3  ZIN A   1      19.965  -4.203  10.993  0.00  0.00     0.024 A 
ATOM      7  C2  ZIN A   1      18.924  -4.808  10.309  0.00  0.00     0.034 A 
ATOM      8 Cl1  ZIN A   1      19.240  -6.158   9.266  0.00  0.00    -0.084 Cl
ATOM      9  C26 ZIN A   1      17.633  -4.331  10.454  0.00  0.00     0.024 A 
ATOM     10  C25 ZIN A   1      17.381  -3.259  11.290  0.00  0.00     0.009 A 
ENDBRANCH   3   4
ENDBRANCH   2   3
ENDBRANCH   1   2
BRANCH   1  11
ATOM     11  C10 ZIN A   1      19.126   1.128  12.559  0.00  0.00     0.149 C 
BRANCH  11  12
ATOM     12  N11 ZIN A   1      18.834   1.778  13.840  0.00  0.00    -0.350 N 
ATOM     13  C16 ZIN A   1      18.093   2.893  14.023  0.00  0.00     0.182 A 
ATOM     14  N14 ZIN A   1      18.056   3.165  15.299  0.00  0.00    -0.361 N 
ATOM     15  C13 ZIN A   1      18.771   2.249  15.967  0.00  0.00     0.106 A 
ATOM     16  H15 ZIN A   1      17.589   3.914  15.699  0.00  0.00     0.166 HD
ATOM     17  C12 ZIN A   1      19.266   1.371  15.073  0.00  0.00     0.108 A 
ENDBRANCH  11  12
ENDBRANCH   1  11
BRANCH   1  18
ATOM     18  C17 ZIN A   1      18.224   1.065  10.250  0.00  0.00    -0.021 A 
ATOM     19  C23 ZIN A   1      18.525   2.247   9.594  0.00  0.00     0.043 A 
ATOM     20  C22 ZIN A   1      18.871   2.226   8.256  0.00  0.00     0.048 A 
ATOM     21 Cl24 ZIN A   1      18.481   3.752  10.457  0.00  0.00    -0.084 Cl
ATOM     22  C20 ZIN A   1      18.906   1.026   7.569  0.00  0.00     0.035 A 
ATOM     23  C19 ZIN A   1      18.600  -0.154   8.223  0.00  0.00     0.024 A 
ATOM     24 Cl21 ZIN A   1      19.334   0.999   5.886  0.00  0.00    -0.084 Cl
ATOM     25  C18 ZIN A   1      18.259  -0.134   9.563  0.00  0.00     0.012 A 
ENDBRANCH   1  18
TORSDOF 6
ENDMDL
MODEL 7
REMARK VINA RESULT:      -7.8      2.276      3.577
REMARK  6 active torsions:
REMARK  status: ('A' for Active; 'I' for Inactive)
REMARK    1  A    between atoms: C5_5  and  C6_6 
REMARK    2  A    between atoms: C6_6  and  S7_7 
REMARK    3  A    between atoms: S7_7  and  C8_8 
REMARK    4  A    between atoms: C8_8  and  C10_9 
REMARK    5  A    between atoms: C8_8  and  C17_16 
REMARK    6  A    between atoms: C10_9  and  N11_10 
ROOT
ATOM      1  C8  ZIN A   1      19.096   1.471  11.128  0.00  0.00     0.100 C 
ENDROOT
BRANCH   1   2
ATOM      2  S7  ZIN A   1      20.431   0.418  11.758  0.00  0.00    -0.153 SA
BRANCH   2   3
ATOM      3  C6  ZIN A   1      19.568  -0.695  12.901  0.00  0.00     0.113 C 
BRANCH   3   4
ATOM      4  C5  ZIN A   1      19.190  -1.963  12.179  0.00  0.00    -0.049 A 
ATOM      5  C4  ZIN A   1      18.118  -2.715  12.617  0.00  0.00     0.009 A 
ATOM      6  C3  ZIN A   1      17.770  -3.878  11.955  0.00  0.00     0.024 A 
ATOM      7  C2  ZIN A   1      18.498  -4.289  10.852  0.00  0.00     0.034 A 
ATOM      8 Cl1  ZIN A   1      18.062  -5.748  10.019  0.00  0.00    -0.084 Cl
ATOM      9  C26 ZIN A   1      19.577  -3.539  10.417  0.00  0.00     0.024 A 
ATOM     10  C25 ZIN A   1      19.919  -2.373  11.077  0.00  0.00     0.009 A 
ENDBRANCH   3   4
ENDBRANCH   2   3
ENDBRANCH   1   2
BRANCH   1  11
ATOM     11  C10 ZIN A   1      19.569   2.925  11.084  0.00  0.00     0.149 C 
BRANCH  11  12
ATOM     12  N11 ZIN A   1      18.431   3.816  11.331  0.00  0.00    -0.350 N 
ATOM     13  C16 ZIN A   1      17.977   4.220  12.537  0.00  0.00     0.182 A 
ATOM     14  N14 ZIN A   1      16.953   5.007  12.356  0.00  0.00    -0.361 N 
ATOM     15  C13 ZIN A   1      16.714   5.126  11.042  0.00  0.00     0.106 A 
ATOM     16  H15 ZIN A   1      16.442   5.436  13.060  0.00  0.00     0.166 HD
ATOM     17  C12 ZIN A   1      17.628   4.388  10.383  0.00  0.00     0.108 A 
ENDBRANCH  11  12
ENDBRANCH   1  11
BRANCH   1  18
ATOM     18  C17 ZIN A   1      18.715   1.024   9.740  0.00  0.00    -0.021 A 
ATOM     19  C23 ZIN A   1      17.561   0.287   9.542  0.00  0.00     0.043 A 
ATOM     20  C22 ZIN A   1      17.209  -0.118   8.268  0.00  0.00     0.048 A 
ATOM     21 Cl24 ZIN A   1      16.548  -0.118  10.892  0.00  0.00    -0.084 Cl
ATOM     22  C20 ZIN A   1      18.016   0.205   7.192  0.00  0.00     0.035 A 
ATOM     23  C19 ZIN A   1      19.174   0.938   7.392  0.00  0.00     0.024 A 
ATOM     24 Cl21 ZIN A   1      17.579  -0.308   5.592  0.00  0.00    -0.084 Cl
ATOM     25  C18 ZIN A   1      19.523   1.346   8.665  0.00  0.00     0.012 A 
ENDBRANCH   1  18
TORSDOF 6
ENDMDL
MODEL 8
REMARK VINA RESULT:      -7.6      2.772      4.697
REMARK  6 active torsions:
REMARK  status: ('A' for Active; 'I' for Inactive)
REMARK    1  A    between atoms: C5_5  and  C6_6 
REMARK    2  A    between atoms: C6_6  and  S7_7 
REMARK    3  A    between atoms: S7_7  and  C8_8 
REMARK    4  A    between atoms: C8_8  and  C10_9 
REMARK    5  A    between atoms: C8_8  and  C17_16 
REMARK    6  A    between atoms: C10_9  and  N11_10 
ROOT
ATOM      1  C8  ZIN A   1      18.979   0.078   9.723  0.00  0.00     0.100 C 
ENDROOT
BRANCH   1   2
ATOM      2  S7  ZIN A   1      18.878  -1.350  10.837  0.00  0.00    -0.153 SA
BRANCH   2   3
ATOM      3  C6  ZIN A   1      17.418  -0.976  11.847  0.00  0.00     0.113 C 
BRANCH   3   4
ATOM      4  C5  ZIN A   1      17.846  -0.708  13.267  0.00  0.00    -0.049 A 
ATOM      5  C4  ZIN A   1      18.719  -1.571  13.901  0.00  0.00     0.009 A 
ATOM      6  C3  ZIN A   1      19.113  -1.325  15.203  0.00  0.00     0.024 A 
ATOM      7  C2  ZIN A   1      18.630  -0.215  15.873  0.00  0.00     0.034 A 
ATOM      8 Cl1  ZIN A   1      19.123   0.094  17.508  0.00  0.00    -0.084 Cl
ATOM      9  C26 ZIN A   1      17.750   0.645  15.241  0.00  0.00     0.024 A 
ATOM     10  C25 ZIN A   1      17.362   0.402  13.936  0.00  0.00     0.009 A 
ENDBRANCH   3   4
ENDBRANCH   2   3
ENDBRANCH   1   2
BRANCH   1  11
ATOM     11  C10 ZIN A   1      17.867  -0.010   8.676  0.00  0.00     0.149 C 
BRANCH  11  12
ATOM     12  N11 ZIN A   1      18.461  -0.052   7.337  0.00  0.00    -0.350 N 
ATOM     13  C16 ZIN A   1      18.824   1.012   6.588  0.00  0.00     0.182 A 
ATOM     14  N14 ZIN A   1      19.316   0.580   5.459  0.00  0.00    -0.361 N 
ATOM     15  C13 ZIN A   1      19.276  -0.760   5.444  0.00  0.00     0.106 A 
ATOM     16  H15 ZIN A   1      19.653   1.140   4.742  0.00  0.00     0.166 HD
ATOM     17  C12 ZIN A   1      18.745  -1.176   6.609  0.00  0.00     0.108 A 
ENDBRANCH  11  12
ENDBRANCH   1  11
BRANCH   1  18
ATOM     18  C17 ZIN A   1      18.823   1.348  10.517  0.00  0.00    -0.021 A 
ATOM     19  C23 ZIN A   1      19.739   1.663  11.507  0.00  0.00     0.043 A 
ATOM     20  C22 ZIN A   1      19.598   2.832  12.232  0.00  0.00     0.048 A 
ATOM     21 Cl24 ZIN A   1      21.071   0.598  11.828  0.00  0.00    -0.084 Cl
ATOM     22  C20 ZIN A   1      18.536   3.681  11.976  0.00  0.00     0.035 A 
ATOM     23  C19 ZIN A   1      17.618   3.363  10.990  0.00  0.00     0.024 A 
ATOM     24 Cl21 ZIN A   1      18.355   5.146  12.890  0.00  0.00    -0.084 Cl
ATOM     25  C18 ZIN A   1      17.762   2.196  10.262  0.00  0.00     0.012 A 
ENDBRANCH   1  18
TORSDOF 6
ENDMDL
MODEL 9
REMARK VINA RESULT:      -7.5      2.837      7.702
REMARK  6 active torsions:
REMARK  status: ('A' for Active; 'I' for Inactive)
REMARK    1  A    between atoms: C5_5  and  C6_6 
REMARK    2  A    between atoms: C6_6  and  S7_7 
REMARK    3  A    between atoms: S7_7  and  C8_8 
REMARK    4  A    between atoms: C8_8  and  C10_9 
REMARK    5  A    between atoms: C8_8  and  C17_16 
REMARK    6  A    between atoms: C10_9  and  N11_10 
ROOT
ATOM      1  C8  ZIN A   1      18.239   0.100  13.328  0.00  0.00     0.100 C 
ENDROOT
BRANCH   1   2
ATOM      2  S7  ZIN A   1      17.602   1.300  12.126  0.00  0.00    -0.153 SA
BRANCH   2   3
ATOM      3  C6  ZIN A   1      19.020   1.566  11.025  0.00  0.00     0.113 C 
BRANCH   3   4
ATOM      4  C5  ZIN A   1      18.660   1.131   9.628  0.00  0.00    -0.049 A 
ATOM      5  C4  ZIN A   1      17.742   0.116   9.435  0.00  0.00     0.009 A 
ATOM      6  C3  ZIN A   1      17.411  -0.284   8.154  0.00  0.00     0.024 A 
ATOM      7  C2  ZIN A   1      18.000   0.332   7.064  0.00  0.00     0.034 A 
ATOM      8 Cl1  ZIN A   1      17.586  -0.169   5.455  0.00  0.00    -0.084 Cl
ATOM      9  C26 ZIN A   1      18.926   1.343   7.258  0.00  0.00     0.024 A 
ATOM     10  C25 ZIN A   1      19.251   1.745   8.539  0.00  0.00     0.009 A 
ENDBRANCH   3   4
ENDBRANCH   2   3
ENDBRANCH   1   2
BRANCH   1  11
ATOM     11  C10 ZIN A   1      19.545  -0.501  12.807  0.00  0.00     0.149 C 
BRANCH  11  12
ATOM     12  N11 ZIN A   1      19.257  -1.748  12.091  0.00  0.00    -0.350 N 
ATOM     13  C16 ZIN A   1      20.034  -2.333  11.154  0.00  0.00     0.182 A 
ATOM     14  N14 ZIN A   1      19.450  -3.426  10.748  0.00  0.00    -0.361 N 
ATOM     15  C13 ZIN A   1      18.287  -3.573  11.399  0.00  0.00     0.106 A 
ATOM     16  H15 ZIN A   1      19.799  -4.035  10.079  0.00  0.00     0.166 HD
ATOM     17  C12 ZIN A   1      18.146  -2.533  12.244  0.00  0.00     0.108 A 
ENDBRANCH  11  12
ENDBRANCH   1  11
BRANCH   1  18
ATOM     18  C17 ZIN A   1      18.492   0.791  14.642  0.00  0.00    -0.021 A 
ATOM     19  C23 ZIN A   1      18.457   0.069  15.823  0.00  0.00     0.043 A 
ATOM     20  C22 ZIN A   1      18.696   0.703  17.028  0.00  0.00     0.048 A 
ATOM     21 Cl24 ZIN A   1      18.127  -1.634  15.788  0.00  0.00    -0.084 Cl
ATOM     22  C20 ZIN A   1      18.959   2.061  17.055  0.00  0.00     0.035 A 
ATOM     23  C19 ZIN A   1      18.988   2.783  15.875  0.00  0.00     0.024 A 
ATOM     24 Cl21 ZIN A   1      19.252   2.860  18.568  0.00  0.00    -0.084 Cl
ATOM     25  C18 ZIN A   1      18.754   2.148  14.669  0.00  0.00     0.012 A 
ENDBRANCH   1  18
TORSDOF 6
ENDMDL
