MODEL 1
REMARK VINA RESULT:      -6.8      0.000      0.000
REMARK  5 active torsions:
REMARK  status: ('A' for Active; 'I' for Inactive)
REMARK    1  A    between atoms: N2_2  and  C5_5 
REMARK    2  A    between atoms: C5_5  and  C6_6 
REMARK    3  A    between atoms: C6_6  and  C7_7 
REMARK    4  A    between atoms: C7_7  and  C9_8 
REMARK    5  A    between atoms: C7_7  and  C16_15 
ROOT
ATOM      1  C7  ZIN A   1      17.631   1.873  10.897  0.00  0.00     0.072 C 
ENDROOT
BRANCH   1   2
ATOM      2  C6  ZIN A   1      18.170   3.296  11.047  0.00  0.00     0.043 C 
BRANCH   2   3
ATOM      3  C5  ZIN A   1      17.344   4.047  12.093  0.00  0.00     0.235 C 
BRANCH   3   4
ATOM      4  N2  ZIN A   1      18.238   4.605  13.116  0.00  0.00    -0.079 N 
ATOM      5  C1  ZIN A   1      18.184   3.770  14.323  0.00  0.00     0.269 C 
ATOM      6  H3  ZIN A   1      17.945   5.543  13.343  0.00  0.00     0.278 HD
ATOM      7  C4  ZIN A   1      19.614   4.634  12.602  0.00  0.00     0.269 C 
ENDBRANCH   3   4
ENDBRANCH   2   3
ENDBRANCH   1   2
BRANCH   1   8
ATOM      8  C9  ZIN A   1      17.992   1.341   9.532  0.00  0.00    -0.048 A 
ATOM      9  C15 ZIN A   1      18.904   2.019   8.746  0.00  0.00     0.009 A 
ATOM     10  C14 ZIN A   1      19.238   1.528   7.498  0.00  0.00     0.019 A 
ATOM     11  C12 ZIN A   1      18.652   0.365   7.031  0.00  0.00     0.011 A 
ATOM     12  C11 ZIN A   1      17.736  -0.310   7.817  0.00  0.00     0.019 A 
ATOM     13 Br13 ZIN A   1      19.105  -0.301   5.320  0.00  0.00    -0.051 Br
ATOM     14  C10 ZIN A   1      17.406   0.178   9.067  0.00  0.00     0.009 A 
ENDBRANCH   1   8
BRANCH   1  15
ATOM     15  C16 ZIN A   1      18.238   0.990  11.956  0.00  0.00     0.042 A 
ATOM     16  N21 ZIN A   1      19.538   1.030  12.171  0.00  0.00    -0.265 NA
ATOM     17  C20 ZIN A   1      20.113   0.279  13.090  0.00  0.00     0.117 A 
ATOM     18  C19 ZIN A   1      19.364  -0.593  13.860  0.00  0.00     0.019 A 
ATOM     19  C18 ZIN A   1      17.995  -0.666  13.658  0.00  0.00     0.003 A 
ATOM     20  C17 ZIN A   1      17.427   0.143  12.687  0.00  0.00     0.028 A 
ENDBRANCH   1  15
TORSDOF 5
ENDMDL
MODEL 2
REMARK VINA RESULT:      -6.8      1.353      3.986
REMARK  5 active torsions:
REMARK  status: ('A' for Active; 'I' for Inactive)
REMARK    1  A    between atoms: N2_2  and  C5_5 
REMARK    2  A    between atoms: C5_5  and  C6_6 
REMARK    3  A    between atoms: C6_6  and  C7_7 
REMARK    4  A    between atoms: C7_7  and  C9_8 
REMARK    5  A    between atoms: C7_7  and  C16_15 
ROOT
ATOM      1  C7  ZIN A   1      19.214   2.096  10.958  0.00  0.00     0.072 C 
ENDROOT
BRANCH   1   2
ATOM      2  C6  ZIN A   1      19.123   1.066  12.085  0.00  0.00     0.043 C 
BRANCH   2   3
ATOM      3  C5  ZIN A   1      20.410   0.241  12.127  0.00  0.00     0.235 C 
BRANCH   3   4
ATOM      4  N2  ZIN A   1      20.082  -1.164  12.403  0.00  0.00    -0.079 N 
ATOM      5  C1  ZIN A   1      18.813  -1.236  13.138  0.00  0.00     0.269 C 
ATOM      6  H3  ZIN A   1      20.816  -1.578  12.958  0.00  0.00     0.278 HD
ATOM      7  C4  ZIN A   1      19.956  -1.896  11.135  0.00  0.00     0.269 C 
ENDBRANCH   3   4
ENDBRANCH   2   3
ENDBRANCH   1   2
BRANCH   1   8
ATOM      8  C9  ZIN A   1      18.790   1.458   9.659  0.00  0.00    -0.048 A 
ATOM      9  C15 ZIN A   1      19.461   1.762   8.489  0.00  0.00     0.009 A 
ATOM     10  C14 ZIN A   1      19.074   1.173   7.299  0.00  0.00     0.019 A 
ATOM     11  C12 ZIN A   1      18.010   0.290   7.278  0.00  0.00     0.011 A 
ATOM     12  C11 ZIN A   1      17.337  -0.009   8.448  0.00  0.00     0.019 A 
ATOM     13 Br13 ZIN A   1      17.478  -0.509   5.648  0.00  0.00    -0.051 Br
ATOM     14  C10 ZIN A   1      17.726   0.575   9.638  0.00  0.00     0.009 A 
ENDBRANCH   1   8
BRANCH   1  15
ATOM     15  C16 ZIN A   1      18.308   3.260  11.265  0.00  0.00     0.042 A 
ATOM     16  N21 ZIN A   1      17.929   3.480  12.508  0.00  0.00    -0.265 NA
ATOM     17  C20 ZIN A   1      17.141   4.489  12.825  0.00  0.00     0.117 A 
ATOM     18  C19 ZIN A   1      16.671   5.352  11.852  0.00  0.00     0.019 A 
ATOM     19  C18 ZIN A   1      17.043   5.148  10.532  0.00  0.00     0.003 A 
ATOM     20  C17 ZIN A   1      17.878   4.080  10.239  0.00  0.00     0.028 A 
ENDBRANCH   1  15
TORSDOF 5
ENDMDL
MODEL 3
REMARK VINA RESULT:      -6.5      1.223      1.998
REMARK  5 active torsions:
REMARK  status: ('A' for Active; 'I' for Inactive)
REMARK    1  A    between atoms: N2_2  and  C5_5 
REMARK    2  A    between atoms: C5_5  and  C6_6 
REMARK    3  A    between atoms: C6_6  and  C7_7 
REMARK    4  A    between atoms: C7_7  and  C9_8 
REMARK    5  A    between atoms: C7_7  and  C16_15 
ROOT
ATOM      1  C7  ZIN A   1      18.149   1.641  10.248  0.00  0.00     0.072 C 
ENDROOT
BRANCH   1   2
ATOM      2  C6  ZIN A   1      19.250   2.679  10.474  0.00  0.00     0.043 C 
BRANCH   2   3
ATOM      3  C5  ZIN A   1      18.757   3.741  11.458  0.00  0.00     0.235 C 
BRANCH   3   4
ATOM      4  N2  ZIN A   1      19.565   3.688  12.683  0.00  0.00    -0.079 N 
ATOM      5  C1  ZIN A   1      19.926   5.052  13.091  0.00  0.00     0.269 C 
ATOM      6  H3  ZIN A   1      20.405   3.157  12.509  0.00  0.00     0.278 HD
ATOM      7  C4  ZIN A   1      18.792   3.045  13.753  0.00  0.00     0.269 C 
ENDBRANCH   3   4
ENDBRANCH   2   3
ENDBRANCH   1   2
BRANCH   1   8
ATOM      8  C9  ZIN A   1      18.222   1.131   8.831  0.00  0.00    -0.048 A 
ATOM      9  C15 ZIN A   1      17.436   0.063   8.440  0.00  0.00     0.009 A 
ATOM     10  C14 ZIN A   1      17.500  -0.401   7.140  0.00  0.00     0.019 A 
ATOM     11  C12 ZIN A   1      18.358   0.195   6.233  0.00  0.00     0.011 A 
ATOM     12  C11 ZIN A   1      19.147   1.260   6.627  0.00  0.00     0.019 A 
ATOM     13 Br13 ZIN A   1      18.449  -0.447   4.457  0.00  0.00    -0.051 Br
ATOM     14  C10 ZIN A   1      19.080   1.727   7.925  0.00  0.00     0.009 A 
ENDBRANCH   1   8
BRANCH   1  15
ATOM     15  C16 ZIN A   1      18.336   0.493  11.206  0.00  0.00     0.042 A 
ATOM     16  N21 ZIN A   1      17.351   0.149  12.011  0.00  0.00    -0.265 NA
ATOM     17  C20 ZIN A   1      17.468  -0.851  12.862  0.00  0.00     0.117 A 
ATOM     18  C19 ZIN A   1      18.644  -1.574  12.947  0.00  0.00     0.019 A 
ATOM     19  C18 ZIN A   1      19.704  -1.237  12.119  0.00  0.00     0.003 A 
ATOM     20  C17 ZIN A   1      19.541  -0.183  11.234  0.00  0.00     0.028 A 
ENDBRANCH   1  15
TORSDOF 5
ENDMDL
MODEL 4
REMARK VINA RESULT:      -6.5      1.271      3.921
REMARK  5 active torsions:
REMARK  status: ('A' for Active; 'I' for Inactive)
REMARK    1  A    between atoms: N2_2  and  C5_5 
REMARK    2  A    between atoms: C5_5  and  C6_6 
REMARK    3  A    between atoms: C6_6  and  C7_7 
REMARK    4  A    between atoms: C7_7  and  C9_8 
REMARK    5  A    between atoms: C7_7  and  C16_15 
ROOT
ATOM      1  C7  ZIN A   1      18.245   0.932  10.984  0.00  0.00     0.072 C 
ENDROOT
BRANCH   1   2
ATOM      2  C6  ZIN A   1      16.996   0.252  11.547  0.00  0.00     0.043 C 
BRANCH   2   3
ATOM      3  C5  ZIN A   1      17.360  -0.510  12.822  0.00  0.00     0.235 C 
BRANCH   3   4
ATOM      4  N2  ZIN A   1      18.690  -1.113  12.670  0.00  0.00    -0.079 N 
ATOM      5  C1  ZIN A   1      19.424  -1.007  13.938  0.00  0.00     0.269 C 
ATOM      6  H3  ZIN A   1      19.199  -0.628  11.946  0.00  0.00     0.278 HD
ATOM      7  C4  ZIN A   1      18.548  -2.529  12.303  0.00  0.00     0.269 C 
ENDBRANCH   3   4
ENDBRANCH   2   3
ENDBRANCH   1   2
BRANCH   1   8
ATOM      8  C9  ZIN A   1      18.304   0.719   9.492  0.00  0.00    -0.048 A 
ATOM      9  C15 ZIN A   1      17.452  -0.187   8.890  0.00  0.00     0.009 A 
ATOM     10  C14 ZIN A   1      17.503  -0.378   7.522  0.00  0.00     0.019 A 
ATOM     11  C12 ZIN A   1      18.413   0.329   6.758  0.00  0.00     0.011 A 
ATOM     12  C11 ZIN A   1      19.269   1.231   7.362  0.00  0.00     0.019 A 
ATOM     13 Br13 ZIN A   1      18.487   0.062   4.887  0.00  0.00    -0.051 Br
ATOM     14  C10 ZIN A   1      19.215   1.426   8.729  0.00  0.00     0.009 A 
ENDBRANCH   1   8
BRANCH   1  15
ATOM     15  C16 ZIN A   1      18.191   2.409  11.279  0.00  0.00     0.042 A 
ATOM     16  N21 ZIN A   1      17.133   3.107  10.916  0.00  0.00    -0.265 NA
ATOM     17  C20 ZIN A   1      17.040   4.400  11.157  0.00  0.00     0.117 A 
ATOM     18  C19 ZIN A   1      18.064   5.076  11.794  0.00  0.00     0.019 A 
ATOM     19  C18 ZIN A   1      19.195   4.376  12.185  0.00  0.00     0.003 A 
ATOM     20  C17 ZIN A   1      19.254   3.017  11.920  0.00  0.00     0.028 A 
ENDBRANCH   1  15
TORSDOF 5
ENDMDL
MODEL 5
REMARK VINA RESULT:      -6.4      3.941      6.880
REMARK  5 active torsions:
REMARK  status: ('A' for Active; 'I' for Inactive)
REMARK    1  A    between atoms: N2_2  and  C5_5 
REMARK    2  A    between atoms: C5_5  and  C6_6 
REMARK    3  A    between atoms: C6_6  and  C7_7 
REMARK    4  A    between atoms: C7_7  and  C9_8 
REMARK    5  A    between atoms: C7_7  and  C16_15 
ROOT
ATOM      1  C7  ZIN A   1      17.700  -0.397  12.384  0.00  0.00     0.072 C 
ENDROOT
BRANCH   1   2
ATOM      2  C6  ZIN A   1      18.465  -1.556  11.742  0.00  0.00     0.043 C 
BRANCH   2   3
ATOM      3  C5  ZIN A   1      17.474  -2.617  11.260  0.00  0.00     0.235 C 
BRANCH   3   4
ATOM      4  N2  ZIN A   1      17.834  -3.920  11.833  0.00  0.00    -0.079 N 
ATOM      5  C1  ZIN A   1      16.920  -4.950  11.321  0.00  0.00     0.269 C 
ATOM      6  H3  ZIN A   1      17.762  -3.877  12.839  0.00  0.00     0.278 HD
ATOM      7  C4  ZIN A   1      19.213  -4.258  11.456  0.00  0.00     0.269 C 
ENDBRANCH   3   4
ENDBRANCH   2   3
ENDBRANCH   1   2
BRANCH   1   8
ATOM      8  C9  ZIN A   1      18.019  -0.339  13.856  0.00  0.00    -0.048 A 
ATOM      9  C15 ZIN A   1      18.799  -1.324  14.433  0.00  0.00     0.009 A 
ATOM     10  C14 ZIN A   1      19.095  -1.268  15.782  0.00  0.00     0.019 A 
ATOM     11  C12 ZIN A   1      18.603  -0.232  16.556  0.00  0.00     0.011 A 
ATOM     12  C11 ZIN A   1      17.819   0.750  15.979  0.00  0.00     0.019 A 
ATOM     13 Br13 ZIN A   1      19.003  -0.160  18.403  0.00  0.00    -0.051 Br
ATOM     14  C10 ZIN A   1      17.528   0.696  14.629  0.00  0.00     0.009 A 
ENDBRANCH   1   8
BRANCH   1  15
ATOM     15  C16 ZIN A   1      18.108   0.898  11.730  0.00  0.00     0.042 A 
ATOM     16  N21 ZIN A   1      17.181   1.725  11.288  0.00  0.00    -0.265 NA
ATOM     17  C20 ZIN A   1      17.490   2.871  10.714  0.00  0.00     0.117 A 
ATOM     18  C19 ZIN A   1      18.811   3.243  10.544  0.00  0.00     0.019 A 
ATOM     19  C18 ZIN A   1      19.814   2.395  10.991  0.00  0.00     0.003 A 
ATOM     20  C17 ZIN A   1      19.449   1.202  11.595  0.00  0.00     0.028 A 
ENDBRANCH   1  15
TORSDOF 5
ENDMDL
MODEL 6
REMARK VINA RESULT:      -6.4      3.875      6.820
REMARK  5 active torsions:
REMARK  status: ('A' for Active; 'I' for Inactive)
REMARK    1  A    between atoms: N2_2  and  C5_5 
REMARK    2  A    between atoms: C5_5  and  C6_6 
REMARK    3  A    between atoms: C6_6  and  C7_7 
REMARK    4  A    between atoms: C7_7  and  C9_8 
REMARK    5  A    between atoms: C7_7  and  C16_15 
ROOT
ATOM      1  C7  ZIN A   1      17.550  -1.575  11.882  0.00  0.00     0.072 C 
ENDROOT
BRANCH   1   2
ATOM      2  C6  ZIN A   1      18.063  -3.015  11.875  0.00  0.00     0.043 C 
BRANCH   2   3
ATOM      3  C5  ZIN A   1      17.316  -3.818  10.809  0.00  0.00     0.235 C 
BRANCH   3   4
ATOM      4  N2  ZIN A   1      18.284  -4.510   9.948  0.00  0.00    -0.079 N 
ATOM      5  C1  ZIN A   1      18.374  -3.816   8.656  0.00  0.00     0.269 C 
ATOM      6  H3  ZIN A   1      17.981  -5.461   9.797  0.00  0.00     0.278 HD
ATOM      7  C4  ZIN A   1      19.602  -4.513  10.595  0.00  0.00     0.269 C 
ENDBRANCH   3   4
ENDBRANCH   2   3
ENDBRANCH   1   2
BRANCH   1   8
ATOM      8  C9  ZIN A   1      17.913  -0.918  13.190  0.00  0.00    -0.048 A 
ATOM      9  C15 ZIN A   1      18.716  -1.584  14.098  0.00  0.00     0.009 A 
ATOM     10  C14 ZIN A   1      19.052  -0.980  15.295  0.00  0.00     0.019 A 
ATOM     11  C12 ZIN A   1      18.578   0.285  15.589  0.00  0.00     0.011 A 
ATOM     12  C11 ZIN A   1      17.771   0.949  14.682  0.00  0.00     0.019 A 
ATOM     13 Br13 ZIN A   1      19.034   1.108  17.230  0.00  0.00    -0.051 Br
ATOM     14  C10 ZIN A   1      17.439   0.347  13.484  0.00  0.00     0.009 A 
ENDBRANCH   1   8
BRANCH   1  15
ATOM     15  C16 ZIN A   1      18.179  -0.811  10.746  0.00  0.00     0.042 A 
ATOM     16  N21 ZIN A   1      19.483  -0.871  10.564  0.00  0.00    -0.265 NA
ATOM     17  C20 ZIN A   1      20.077  -0.223   9.580  0.00  0.00     0.117 A 
ATOM     18  C19 ZIN A   1      19.344   0.558   8.705  0.00  0.00     0.019 A 
ATOM     19  C18 ZIN A   1      17.971   0.650   8.869  0.00  0.00     0.003 A 
ATOM     20  C17 ZIN A   1      17.382  -0.050   9.911  0.00  0.00     0.028 A 
ENDBRANCH   1  15
TORSDOF 5
ENDMDL
MODEL 7
REMARK VINA RESULT:      -6.3      3.131      5.435
REMARK  5 active torsions:
REMARK  status: ('A' for Active; 'I' for Inactive)
REMARK    1  A    between atoms: N2_2  and  C5_5 
REMARK    2  A    between atoms: C5_5  and  C6_6 
REMARK    3  A    between atoms: C6_6  and  C7_7 
REMARK    4  A    between atoms: C7_7  and  C9_8 
REMARK    5  A    between atoms: C7_7  and  C16_15 
ROOT
ATOM      1  C7  ZIN A   1      19.150   2.323  10.592  0.00  0.00     0.072 C 
ENDROOT
BRANCH   1   2
ATOM      2  C6  ZIN A   1      18.632   2.437   9.157  0.00  0.00     0.043 C 
BRANCH   2   3
ATOM      3  C5  ZIN A   1      19.518   1.606   8.227  0.00  0.00     0.235 C 
BRANCH   3   4
ATOM      4  N2  ZIN A   1      18.701   0.596   7.544  0.00  0.00    -0.079 N 
ATOM      5  C1  ZIN A   1      18.827   0.766   6.090  0.00  0.00     0.269 C 
ATOM      6  H3  ZIN A   1      17.735   0.707   7.812  0.00  0.00     0.278 HD
ATOM      7  C4  ZIN A   1      19.162  -0.746   7.922  0.00  0.00     0.269 C 
ENDBRANCH   3   4
ENDBRANCH   2   3
ENDBRANCH   1   2
BRANCH   1   8
ATOM      8  C9  ZIN A   1      18.533   3.409  11.436  0.00  0.00    -0.048 A 
ATOM      9  C15 ZIN A   1      17.481   4.156  10.940  0.00  0.00     0.009 A 
ATOM     10  C14 ZIN A   1      16.912   5.149  11.716  0.00  0.00     0.019 A 
ATOM     11  C12 ZIN A   1      17.403   5.401  12.985  0.00  0.00     0.011 A 
ATOM     12  C11 ZIN A   1      18.459   4.657  13.478  0.00  0.00     0.019 A 
ATOM     13 Br13 ZIN A   1      16.629   6.764  14.043  0.00  0.00    -0.051 Br
ATOM     14  C10 ZIN A   1      19.023   3.662  12.704  0.00  0.00     0.009 A 
ENDBRANCH   1   8
BRANCH   1  15
ATOM     15  C16 ZIN A   1      18.778   0.976  11.156  0.00  0.00     0.042 A 
ATOM     16  N21 ZIN A   1      19.723   0.174  11.604  0.00  0.00    -0.265 NA
ATOM     17  C20 ZIN A   1      19.444  -1.011  12.110  0.00  0.00     0.117 A 
ATOM     18  C19 ZIN A   1      18.138  -1.462  12.177  0.00  0.00     0.019 A 
ATOM     19  C18 ZIN A   1      17.118  -0.648  11.710  0.00  0.00     0.003 A 
ATOM     20  C17 ZIN A   1      17.450   0.594  11.190  0.00  0.00     0.028 A 
ENDBRANCH   1  15
TORSDOF 5
ENDMDL
MODEL 8
REMARK VINA RESULT:      -6.2      2.885      4.282
REMARK  5 active torsions:
REMARK  status: ('A' for Active; 'I' for Inactive)
REMARK    1  A    between atoms: N2_2  and  C5_5 
REMARK    2  A    between atoms: C5_5  and  C6_6 
REMARK    3  A    between atoms: C6_6  and  C7_7 
REMARK    4  A    between atoms: C7_7  and  C9_8 
REMARK    5  A    between atoms: C7_7  and  C16_15 
ROOT
ATOM      1  C7  ZIN A   1      17.754   0.739  13.816  0.00  0.00     0.072 C 
ENDROOT
BRANCH   1   2
ATOM      2  C6  ZIN A   1      18.582   1.894  13.250  0.00  0.00     0.043 C 
BRANCH   2   3
ATOM      3  C5  ZIN A   1      17.749   2.664  12.224  0.00  0.00     0.235 C 
BRANCH   3   4
ATOM      4  N2  ZIN A   1      18.580   2.982  11.056  0.00  0.00    -0.079 N 
ATOM      5  C1  ZIN A   1      19.960   3.237  11.491  0.00  0.00     0.269 C 
ATOM      6  H3  ZIN A   1      18.216   3.803  10.597  0.00  0.00     0.278 HD
ATOM      7  C4  ZIN A   1      18.563   1.850  10.119  0.00  0.00     0.269 C 
ENDBRANCH   3   4
ENDBRANCH   2   3
ENDBRANCH   1   2
BRANCH   1   8
ATOM      8  C9  ZIN A   1      18.107  -0.535  13.092  0.00  0.00    -0.048 A 
ATOM      9  C15 ZIN A   1      17.239  -1.058  12.151  0.00  0.00     0.009 A 
ATOM     10  C14 ZIN A   1      17.565  -2.224  11.484  0.00  0.00     0.019 A 
ATOM     11  C12 ZIN A   1      18.754  -2.873  11.765  0.00  0.00     0.011 A 
ATOM     12  C11 ZIN A   1      19.619  -2.351  12.710  0.00  0.00     0.019 A 
ATOM     13 Br13 ZIN A   1      19.196  -4.471  10.856  0.00  0.00    -0.051 Br
ATOM     14  C10 ZIN A   1      19.295  -1.183  13.372  0.00  0.00     0.009 A 
ENDBRANCH   1   8
BRANCH   1  15
ATOM     15  C16 ZIN A   1      18.051   0.580  15.285  0.00  0.00     0.042 A 
ATOM     16  N21 ZIN A   1      18.955   1.353  15.854  0.00  0.00    -0.265 NA
ATOM     17  C20 ZIN A   1      19.245   1.253  17.136  0.00  0.00     0.117 A 
ATOM     18  C19 ZIN A   1      18.611   0.317  17.934  0.00  0.00     0.019 A 
ATOM     19  C18 ZIN A   1      17.658  -0.517  17.368  0.00  0.00     0.003 A 
ATOM     20  C17 ZIN A   1      17.377  -0.378  16.018  0.00  0.00     0.028 A 
ENDBRANCH   1  15
TORSDOF 5
ENDMDL
MODEL 9
REMARK VINA RESULT:      -6.0      2.907      4.137
REMARK  5 active torsions:
REMARK  status: ('A' for Active; 'I' for Inactive)
REMARK    1  A    between atoms: N2_2  and  C5_5 
REMARK    2  A    between atoms: C5_5  and  C6_6 
REMARK    3  A    between atoms: C6_6  and  C7_7 
REMARK    4  A    between atoms: C7_7  and  C9_8 
REMARK    5  A    between atoms: C7_7  and  C16_15 
ROOT
ATOM      1  C7  ZIN A   1      18.558  -0.116  12.905  0.00  0.00     0.072 C 
ENDROOT
BRANCH   1   2
ATOM      2  C6  ZIN A   1      19.900   0.593  12.716  0.00  0.00     0.043 C 
BRANCH   2   3
ATOM      3  C5  ZIN A   1      19.659   2.010  12.193  0.00  0.00     0.235 C 
BRANCH   3   4
ATOM      4  N2  ZIN A   1      18.622   1.980  11.154  0.00  0.00    -0.079 N 
ATOM      5  C1  ZIN A   1      17.748   3.152  11.300  0.00  0.00     0.269 C 
ATOM      6  H3  ZIN A   1      18.075   1.138  11.249  0.00  0.00     0.278 HD
ATOM      7  C4  ZIN A   1      19.256   2.004   9.829  0.00  0.00     0.269 C 
ENDBRANCH   3   4
ENDBRANCH   2   3
ENDBRANCH   1   2
BRANCH   1   8
ATOM      8  C9  ZIN A   1      18.568  -1.421  12.149  0.00  0.00    -0.048 A 
ATOM      9  C15 ZIN A   1      19.768  -1.974  11.742  0.00  0.00     0.009 A 
ATOM     10  C14 ZIN A   1      19.777  -3.172  11.053  0.00  0.00     0.019 A 
ATOM     11  C12 ZIN A   1      18.586  -3.812  10.762  0.00  0.00     0.011 A 
ATOM     12  C11 ZIN A   1      17.386  -3.255  11.164  0.00  0.00     0.019 A 
ATOM     13 Br13 ZIN A   1      18.599  -5.448   9.813  0.00  0.00    -0.051 Br
ATOM     14  C10 ZIN A   1      17.377  -2.060  11.858  0.00  0.00     0.009 A 
ENDBRANCH   1   8
BRANCH   1  15
ATOM     15  C16 ZIN A   1      18.334  -0.387  14.370  0.00  0.00     0.042 A 
ATOM     16  N21 ZIN A   1      17.377   0.254  15.012  0.00  0.00    -0.265 NA
ATOM     17  C20 ZIN A   1      17.141   0.046  16.293  0.00  0.00     0.117 A 
ATOM     18  C19 ZIN A   1      17.905  -0.852  17.016  0.00  0.00     0.019 A 
ATOM     19  C18 ZIN A   1      18.925  -1.540  16.375  0.00  0.00     0.003 A 
ATOM     20  C17 ZIN A   1      19.138  -1.299  15.027  0.00  0.00     0.028 A 
ENDBRANCH   1  15
TORSDOF 5
ENDMDL
