MODEL 1
REMARK VINA RESULT:      -8.1      0.000      0.000
REMARK  2 active torsions:
REMARK  status: ('A' for Active; 'I' for Inactive)
REMARK    1  A    between atoms: N7_7  and  C8_8 
REMARK    2  A    between atoms: C8_8  and  C9_9 
ROOT
ATOM      1  C9  ZIN A   1      18.022   1.351  10.937  0.00  0.00     0.079 C 
ATOM      2  C11 ZIN A   1      17.064   0.180  11.157  0.00  0.00     0.020 C 
ATOM      3  C12 ZIN A   1      17.700  -1.129  10.674  0.00  0.00     0.059 C 
ATOM      4  C13 ZIN A   1      18.093  -0.953   9.226  0.00  0.00     0.026 A 
ATOM      5  C14 ZIN A   1      18.389   0.295   8.690  0.00  0.00     0.045 A 
ATOM      6  C15 ZIN A   1      18.711   0.077   7.290  0.00  0.00     0.007 A 
ATOM      7  C16 ZIN A   1      19.079   0.935   6.254  0.00  0.00     0.015 A 
ATOM      8  C17 ZIN A   1      19.314   0.358   5.018  0.00  0.00     0.001 A 
ATOM      9  C18 ZIN A   1      19.193  -1.007   4.813  0.00  0.00     0.002 A 
ATOM     10  C19 ZIN A   1      18.830  -1.874   5.829  0.00  0.00     0.030 A 
ATOM     11  C20 ZIN A   1      18.587  -1.319   7.082  0.00  0.00     0.045 A 
ATOM     12  N21 ZIN A   1      18.217  -1.890   8.272  0.00  0.00    -0.353 N 
ATOM     13  C22 ZIN A   1      17.991  -3.324   8.475  0.00  0.00     0.156 C 
ATOM     14  C23 ZIN A   1      18.352   1.479   9.466  0.00  0.00     0.168 C 
ATOM     15  O24 ZIN A   1      18.581   2.562   8.968  0.00  0.00    -0.292 OA
ENDROOT
BRANCH   1  16
ATOM     16  C8  ZIN A   1      17.364   2.644  11.423  0.00  0.00     0.142 C 
BRANCH  16  17
ATOM     17  N7  ZIN A   1      18.300   3.378  12.277  0.00  0.00    -0.345 N 
ATOM     18  C2  ZIN A   1      18.593   3.103  13.567  0.00  0.00     0.079 A 
ATOM     19  C1  ZIN A   1      18.009   1.975  14.379  0.00  0.00     0.089 C 
ATOM     20  N3  ZIN A   1      19.469   3.971  13.991  0.00  0.00    -0.355 N 
ATOM     21  H4  ZIN A   1      19.850   3.995  14.884  0.00  0.00     0.166 HD
ATOM     22  C5  ZIN A   1      19.760   4.827  13.001  0.00  0.00     0.106 A 
ATOM     23  C6  ZIN A   1      19.037   4.475  11.921  0.00  0.00     0.109 A 
ENDBRANCH  16  17
ENDBRANCH   1  16
TORSDOF 2
ENDMDL
MODEL 2
REMARK VINA RESULT:      -8.0      0.560      1.411
REMARK  2 active torsions:
REMARK  status: ('A' for Active; 'I' for Inactive)
REMARK    1  A    between atoms: N7_7  and  C8_8 
REMARK    2  A    between atoms: C8_8  and  C9_9 
ROOT
ATOM      1  C9  ZIN A   1      18.108   0.792  11.128  0.00  0.00     0.079 C 
ATOM      2  C11 ZIN A   1      17.184  -0.418  11.250  0.00  0.00     0.020 C 
ATOM      3  C12 ZIN A   1      17.832  -1.654  10.616  0.00  0.00     0.059 C 
ATOM      4  C13 ZIN A   1      18.179  -1.319   9.184  0.00  0.00     0.026 A 
ATOM      5  C14 ZIN A   1      18.431  -0.015   8.774  0.00  0.00     0.045 A 
ATOM      6  C15 ZIN A   1      18.717  -0.078   7.351  0.00  0.00     0.007 A 
ATOM      7  C16 ZIN A   1      19.034   0.891   6.400  0.00  0.00     0.015 A 
ATOM      8  C17 ZIN A   1      19.245   0.452   5.104  0.00  0.00     0.001 A 
ATOM      9  C18 ZIN A   1      19.147  -0.886   4.761  0.00  0.00     0.002 A 
ATOM     10  C19 ZIN A   1      18.834  -1.863   5.690  0.00  0.00     0.030 A 
ATOM     11  C20 ZIN A   1      18.616  -1.448   7.001  0.00  0.00     0.045 A 
ATOM     12  N21 ZIN A   1      18.295  -2.149   8.134  0.00  0.00    -0.353 N 
ATOM     13  C22 ZIN A   1      18.106  -3.601   8.192  0.00  0.00     0.156 C 
ATOM     14  C23 ZIN A   1      18.392   1.080   9.670  0.00  0.00     0.168 C 
ATOM     15  O24 ZIN A   1      18.582   2.215   9.282  0.00  0.00    -0.292 OA
ENDROOT
BRANCH   1  16
ATOM     16  C8  ZIN A   1      17.437   2.011  11.765  0.00  0.00     0.142 C 
BRANCH  16  17
ATOM     17  N7  ZIN A   1      18.108   2.335  13.026  0.00  0.00    -0.345 N 
ATOM     18  C2  ZIN A   1      18.988   3.339  13.231  0.00  0.00     0.079 A 
ATOM     19  C1  ZIN A   1      19.449   4.328  12.191  0.00  0.00     0.089 C 
ATOM     20  N3  ZIN A   1      19.368   3.314  14.478  0.00  0.00    -0.355 N 
ATOM     21  H4  ZIN A   1      19.996   3.931  14.886  0.00  0.00     0.166 HD
ATOM     22  C5  ZIN A   1      18.756   2.301  15.108  0.00  0.00     0.106 A 
ATOM     23  C6  ZIN A   1      17.965   1.673  14.216  0.00  0.00     0.109 A 
ENDBRANCH  16  17
ENDBRANCH   1  16
TORSDOF 2
ENDMDL
MODEL 3
REMARK VINA RESULT:      -8.0      2.773      8.094
REMARK  2 active torsions:
REMARK  status: ('A' for Active; 'I' for Inactive)
REMARK    1  A    between atoms: N7_7  and  C8_8 
REMARK    2  A    between atoms: C8_8  and  C9_9 
ROOT
ATOM      1  C9  ZIN A   1      18.095  -0.883  11.909  0.00  0.00     0.079 C 
ATOM      2  C11 ZIN A   1      17.160   0.319  11.771  0.00  0.00     0.020 C 
ATOM      3  C12 ZIN A   1      17.805   1.571  12.379  0.00  0.00     0.059 C 
ATOM      4  C13 ZIN A   1      18.164   1.265  13.813  0.00  0.00     0.026 A 
ATOM      5  C14 ZIN A   1      18.429  -0.030  14.246  0.00  0.00     0.045 A 
ATOM      6  C15 ZIN A   1      18.724   0.061  15.665  0.00  0.00     0.007 A 
ATOM      7  C16 ZIN A   1      19.055  -0.888  16.631  0.00  0.00     0.015 A 
ATOM      8  C17 ZIN A   1      19.272  -0.423  17.917  0.00  0.00     0.001 A 
ATOM      9  C18 ZIN A   1      19.167   0.920  18.236  0.00  0.00     0.002 A 
ATOM     10  C19 ZIN A   1      18.840   1.878  17.292  0.00  0.00     0.030 A 
ATOM     11  C20 ZIN A   1      18.616   1.437  15.990  0.00  0.00     0.045 A 
ATOM     12  N21 ZIN A   1      18.281   2.114  14.847  0.00  0.00    -0.353 N 
ATOM     13  C22 ZIN A   1      18.082   3.564  14.764  0.00  0.00     0.156 C 
ATOM     14  C23 ZIN A   1      18.391  -1.142  13.370  0.00  0.00     0.168 C 
ATOM     15  O24 ZIN A   1      18.592  -2.268  13.778  0.00  0.00    -0.292 OA
ENDROOT
BRANCH   1  16
ATOM     16  C8  ZIN A   1      17.428  -2.117  11.300  0.00  0.00     0.142 C 
BRANCH  16  17
ATOM     17  N7  ZIN A   1      18.150  -2.516  10.090  0.00  0.00    -0.345 N 
ATOM     18  C2  ZIN A   1      19.103  -3.470  10.003  0.00  0.00     0.079 A 
ATOM     19  C1  ZIN A   1      19.607  -4.315  11.145  0.00  0.00     0.089 C 
ATOM     20  N3  ZIN A   1      19.512  -3.541   8.766  0.00  0.00    -0.355 N 
ATOM     21  H4  ZIN A   1      20.191  -4.149   8.434  0.00  0.00     0.166 HD
ATOM     22  C5  ZIN A   1      18.846  -2.642   8.027  0.00  0.00     0.106 A 
ATOM     23  C6  ZIN A   1      17.992  -1.988   8.837  0.00  0.00     0.109 A 
ENDBRANCH  16  17
ENDBRANCH   1  16
TORSDOF 2
ENDMDL
MODEL 4
REMARK VINA RESULT:      -7.8      1.842      3.499
REMARK  2 active torsions:
REMARK  status: ('A' for Active; 'I' for Inactive)
REMARK    1  A    between atoms: N7_7  and  C8_8 
REMARK    2  A    between atoms: C8_8  and  C9_9 
ROOT
ATOM      1  C9  ZIN A   1      18.681   1.728   9.850  0.00  0.00     0.079 C 
ATOM      2  C11 ZIN A   1      19.252   1.694   8.433  0.00  0.00     0.020 C 
ATOM      3  C12 ZIN A   1      18.612   0.559   7.625  0.00  0.00     0.059 C 
ATOM      4  C13 ZIN A   1      18.826  -0.733   8.379  0.00  0.00     0.026 A 
ATOM      5  C14 ZIN A   1      18.989  -0.761   9.759  0.00  0.00     0.045 A 
ATOM      6  C15 ZIN A   1      19.177  -2.155  10.124  0.00  0.00     0.007 A 
ATOM      7  C16 ZIN A   1      19.389  -2.799  11.342  0.00  0.00     0.015 A 
ATOM      8  C17 ZIN A   1      19.528  -4.176  11.306  0.00  0.00     0.001 A 
ATOM      9  C18 ZIN A   1      19.462  -4.886  10.119  0.00  0.00     0.002 A 
ATOM     10  C19 ZIN A   1      19.252  -4.265   8.900  0.00  0.00     0.030 A 
ATOM     11  C20 ZIN A   1      19.109  -2.880   8.908  0.00  0.00     0.045 A 
ATOM     12  N21 ZIN A   1      18.895  -1.983   7.894  0.00  0.00    -0.353 N 
ATOM     13  C22 ZIN A   1      18.759  -2.340   6.480  0.00  0.00     0.156 C 
ATOM     14  C23 ZIN A   1      18.953   0.414  10.549  0.00  0.00     0.168 C 
ATOM     15  O24 ZIN A   1      19.132   0.368  11.749  0.00  0.00    -0.292 OA
ENDROOT
BRANCH   1  16
ATOM     16  C8  ZIN A   1      19.338   2.865  10.635  0.00  0.00     0.142 C 
BRANCH  16  17
ATOM     17  N7  ZIN A   1      18.302   3.733  11.199  0.00  0.00    -0.345 N 
ATOM     18  C2  ZIN A   1      18.069   3.956  12.510  0.00  0.00     0.079 A 
ATOM     19  C1  ZIN A   1      18.841   3.350  13.655  0.00  0.00     0.089 C 
ATOM     20  N3  ZIN A   1      17.068   4.785  12.623  0.00  0.00    -0.355 N 
ATOM     21  H4  ZIN A   1      16.701   5.112  13.460  0.00  0.00     0.166 HD
ATOM     22  C5  ZIN A   1      16.627   5.115  11.401  0.00  0.00     0.106 A 
ATOM     23  C6  ZIN A   1      17.383   4.465  10.495  0.00  0.00     0.109 A 
ENDBRANCH  16  17
ENDBRANCH   1  16
TORSDOF 2
ENDMDL
MODEL 5
REMARK VINA RESULT:      -7.8      2.521      7.759
REMARK  2 active torsions:
REMARK  status: ('A' for Active; 'I' for Inactive)
REMARK    1  A    between atoms: N7_7  and  C8_8 
REMARK    2  A    between atoms: C8_8  and  C9_9 
ROOT
ATOM      1  C9  ZIN A   1      18.259   1.168  11.744  0.00  0.00     0.079 C 
ATOM      2  C11 ZIN A   1      17.771   2.557  12.155  0.00  0.00     0.020 C 
ATOM      3  C12 ZIN A   1      18.717   3.171  13.194  0.00  0.00     0.059 C 
ATOM      4  C13 ZIN A   1      18.820   2.214  14.358  0.00  0.00     0.026 A 
ATOM      5  C14 ZIN A   1      18.618   0.846  14.207  0.00  0.00     0.045 A 
ATOM      6  C15 ZIN A   1      18.788   0.256  15.523  0.00  0.00     0.007 A 
ATOM      7  C16 ZIN A   1      18.707  -1.053  15.997  0.00  0.00     0.015 A 
ATOM      8  C17 ZIN A   1      18.934  -1.245  17.349  0.00  0.00     0.001 A 
ATOM      9  C18 ZIN A   1      19.230  -0.192  18.197  0.00  0.00     0.002 A 
ATOM     10  C19 ZIN A   1      19.315   1.115  17.747  0.00  0.00     0.030 A 
ATOM     11  C20 ZIN A   1      19.090   1.336  16.390  0.00  0.00     0.045 A 
ATOM     12  N21 ZIN A   1      19.100   2.485  15.643  0.00  0.00    -0.353 N 
ATOM     13  C22 ZIN A   1      19.379   3.822  16.174  0.00  0.00     0.156 C 
ATOM     14  C23 ZIN A   1      18.315   0.261  12.954  0.00  0.00     0.168 C 
ATOM     15  O24 ZIN A   1      18.109  -0.931  12.852  0.00  0.00    -0.292 OA
ENDROOT
BRANCH   1  16
ATOM     16  C8  ZIN A   1      17.298   0.577  10.711  0.00  0.00     0.142 C 
BRANCH  16  17
ATOM     17  N7  ZIN A   1      18.064  -0.067   9.642  0.00  0.00    -0.345 N 
ATOM     18  C2  ZIN A   1      18.816   0.555   8.708  0.00  0.00     0.079 A 
ATOM     19  C1  ZIN A   1      19.014   2.044   8.589  0.00  0.00     0.089 C 
ATOM     20  N3  ZIN A   1      19.347  -0.347   7.930  0.00  0.00    -0.355 N 
ATOM     21  H4  ZIN A   1      19.933  -0.166   7.178  0.00  0.00     0.166 HD
ATOM     22  C5  ZIN A   1      18.953  -1.565   8.330  0.00  0.00     0.106 A 
ATOM     23  C6  ZIN A   1      18.147  -1.412   9.399  0.00  0.00     0.109 A 
ENDBRANCH  16  17
ENDBRANCH   1  16
TORSDOF 2
ENDMDL
MODEL 6
REMARK VINA RESULT:      -7.8      1.843      2.889
REMARK  2 active torsions:
REMARK  status: ('A' for Active; 'I' for Inactive)
REMARK    1  A    between atoms: N7_7  and  C8_8 
REMARK    2  A    between atoms: C8_8  and  C9_9 
ROOT
ATOM      1  C9  ZIN A   1      18.816   2.526  13.529  0.00  0.00     0.079 C 
ATOM      2  C11 ZIN A   1      17.901   1.359  13.900  0.00  0.00     0.020 C 
ATOM      3  C12 ZIN A   1      18.434   0.051  13.305  0.00  0.00     0.059 C 
ATOM      4  C13 ZIN A   1      18.575   0.237  11.813  0.00  0.00     0.026 A 
ATOM      5  C14 ZIN A   1      18.785   1.489  11.244  0.00  0.00     0.045 A 
ATOM      6  C15 ZIN A   1      18.861   1.281   9.808  0.00  0.00     0.007 A 
ATOM      7  C16 ZIN A   1      19.052   2.146   8.731  0.00  0.00     0.015 A 
ATOM      8  C17 ZIN A   1      19.067   1.579   7.468  0.00  0.00     0.001 A 
ATOM      9  C18 ZIN A   1      18.901   0.218   7.276  0.00  0.00     0.002 A 
ATOM     10  C19 ZIN A   1      18.710  -0.657   8.332  0.00  0.00     0.030 A 
ATOM     11  C20 ZIN A   1      18.690  -0.112   9.613  0.00  0.00     0.045 A 
ATOM     12  N21 ZIN A   1      18.526  -0.692  10.844  0.00  0.00    -0.353 N 
ATOM     13  C22 ZIN A   1      18.326  -2.126  11.071  0.00  0.00     0.156 C 
ATOM     14  C23 ZIN A   1      18.891   2.665  12.024  0.00  0.00     0.168 C 
ATOM     15  O24 ZIN A   1      19.040   3.751  11.502  0.00  0.00    -0.292 OA
ENDROOT
BRANCH   1  16
ATOM     16  C8  ZIN A   1      18.263   3.818  14.131  0.00  0.00     0.142 C 
BRANCH  16  17
ATOM     17  N7  ZIN A   1      19.347   4.561  14.777  0.00  0.00    -0.345 N 
ATOM     18  C2  ZIN A   1      19.867   4.318  16.000  0.00  0.00     0.079 A 
ATOM     19  C1  ZIN A   1      19.429   3.223  16.939  0.00  0.00     0.089 C 
ATOM     20  N3  ZIN A   1      20.815   5.184  16.231  0.00  0.00    -0.355 N 
ATOM     21  H4  ZIN A   1      21.352   5.227  17.038  0.00  0.00     0.166 HD
ATOM     22  C5  ZIN A   1      20.930   6.006  15.178  0.00  0.00     0.106 A 
ATOM     23  C6  ZIN A   1      20.018   5.636  14.258  0.00  0.00     0.109 A 
ENDBRANCH  16  17
ENDBRANCH   1  16
TORSDOF 2
ENDMDL
MODEL 7
REMARK VINA RESULT:      -7.3      2.411      6.836
REMARK  2 active torsions:
REMARK  status: ('A' for Active; 'I' for Inactive)
REMARK    1  A    between atoms: N7_7  and  C8_8 
REMARK    2  A    between atoms: C8_8  and  C9_9 
ROOT
ATOM      1  C9  ZIN A   1      19.061  -0.472  11.489  0.00  0.00     0.079 C 
ATOM      2  C11 ZIN A   1      19.978  -0.270  12.695  0.00  0.00     0.020 C 
ATOM      3  C12 ZIN A   1      19.218   0.418  13.835  0.00  0.00     0.059 C 
ATOM      4  C13 ZIN A   1      18.647   1.712  13.305  0.00  0.00     0.026 A 
ATOM      5  C14 ZIN A   1      18.348   1.887  11.959  0.00  0.00     0.045 A 
ATOM      6  C15 ZIN A   1      17.833   3.240  11.824  0.00  0.00     0.007 A 
ATOM      7  C16 ZIN A   1      17.377   3.979  10.733  0.00  0.00     0.015 A 
ATOM      8  C17 ZIN A   1      16.952   5.272  10.987  0.00  0.00     0.001 A 
ATOM      9  C18 ZIN A   1      16.975   5.811  12.262  0.00  0.00     0.002 A 
ATOM     10  C19 ZIN A   1      17.423   5.094  13.358  0.00  0.00     0.030 A 
ATOM     11  C20 ZIN A   1      17.857   3.790  13.129  0.00  0.00     0.045 A 
ATOM     12  N21 ZIN A   1      18.350   2.835  13.980  0.00  0.00    -0.353 N 
ATOM     13  C22 ZIN A   1      18.527   3.015  15.423  0.00  0.00     0.156 C 
ATOM     14  C23 ZIN A   1      18.547   0.865  11.001  0.00  0.00     0.168 C 
ATOM     15  O24 ZIN A   1      18.310   1.053   9.825  0.00  0.00    -0.292 OA
ENDROOT
BRANCH   1  16
ATOM     16  C8  ZIN A   1      19.842  -1.156  10.365  0.00  0.00     0.142 C 
BRANCH  16  17
ATOM     17  N7  ZIN A   1      19.112  -2.341   9.913  0.00  0.00    -0.345 N 
ATOM     18  C2  ZIN A   1      19.252  -3.599  10.386  0.00  0.00     0.079 A 
ATOM     19  C1  ZIN A   1      20.194  -4.024  11.483  0.00  0.00     0.089 C 
ATOM     20  N3  ZIN A   1      18.434  -4.383   9.740  0.00  0.00    -0.355 N 
ATOM     21  H4  ZIN A   1      18.335  -5.337   9.889  0.00  0.00     0.166 HD
ATOM     22  C5  ZIN A   1      17.752  -3.664   8.837  0.00  0.00     0.106 A 
ATOM     23  C6  ZIN A   1      18.163  -2.385   8.926  0.00  0.00     0.109 A 
ENDBRANCH  16  17
ENDBRANCH   1  16
TORSDOF 2
ENDMDL
MODEL 8
REMARK VINA RESULT:      -7.1      1.843      3.024
REMARK  2 active torsions:
REMARK  status: ('A' for Active; 'I' for Inactive)
REMARK    1  A    between atoms: N7_7  and  C8_8 
REMARK    2  A    between atoms: C8_8  and  C9_9 
ROOT
ATOM      1  C9  ZIN A   1      19.095   0.756  10.585  0.00  0.00     0.079 C 
ATOM      2  C11 ZIN A   1      19.655   1.732   9.551  0.00  0.00     0.020 C 
ATOM      3  C12 ZIN A   1      18.879   1.618   8.233  0.00  0.00     0.059 C 
ATOM      4  C13 ZIN A   1      18.936   0.179   7.778  0.00  0.00     0.026 A 
ATOM      5  C14 ZIN A   1      19.097  -0.871   8.675  0.00  0.00     0.045 A 
ATOM      6  C15 ZIN A   1      19.115  -2.090   7.885  0.00  0.00     0.007 A 
ATOM      7  C16 ZIN A   1      19.249  -3.438   8.217  0.00  0.00     0.015 A 
ATOM      8  C17 ZIN A   1      19.220  -4.346   7.173  0.00  0.00     0.001 A 
ATOM      9  C18 ZIN A   1      19.065  -3.942   5.857  0.00  0.00     0.002 A 
ATOM     10  C19 ZIN A   1      18.930  -2.610   5.507  0.00  0.00     0.030 A 
ATOM     11  C20 ZIN A   1      18.956  -1.675   6.539  0.00  0.00     0.045 A 
ATOM     12  N21 ZIN A   1      18.851  -0.309   6.529  0.00  0.00    -0.353 N 
ATOM     13  C22 ZIN A   1      18.670   0.506   5.325  0.00  0.00     0.156 C 
ATOM     14  C23 ZIN A   1      19.206  -0.662  10.071  0.00  0.00     0.168 C 
ATOM     15  O24 ZIN A   1      19.381  -1.593  10.832  0.00  0.00    -0.292 OA
ENDROOT
BRANCH   1  16
ATOM     16  C8  ZIN A   1      19.887   0.887  11.888  0.00  0.00     0.142 C 
BRANCH  16  17
ATOM     17  N7  ZIN A   1      19.067   1.567  12.892  0.00  0.00    -0.345 N 
ATOM     18  C2  ZIN A   1      18.329   0.978  13.858  0.00  0.00     0.079 A 
ATOM     19  C1  ZIN A   1      18.211  -0.507  14.090  0.00  0.00     0.089 C 
ATOM     20  N3  ZIN A   1      17.740   1.906  14.560  0.00  0.00    -0.355 N 
ATOM     21  H4  ZIN A   1      17.154   1.750  15.318  0.00  0.00     0.166 HD
ATOM     22  C5  ZIN A   1      18.073   3.109  14.071  0.00  0.00     0.106 A 
ATOM     23  C6  ZIN A   1      18.899   2.920  13.025  0.00  0.00     0.109 A 
ENDBRANCH  16  17
ENDBRANCH   1  16
TORSDOF 2
ENDMDL
MODEL 9
REMARK VINA RESULT:      -7.1      1.968      3.437
REMARK  2 active torsions:
REMARK  status: ('A' for Active; 'I' for Inactive)
REMARK    1  A    between atoms: N7_7  and  C8_8 
REMARK    2  A    between atoms: C8_8  and  C9_9 
ROOT
ATOM      1  C9  ZIN A   1      17.181   0.065  10.658  0.00  0.00     0.079 C 
ATOM      2  C11 ZIN A   1      17.940   0.881   9.613  0.00  0.00     0.020 C 
ATOM      3  C12 ZIN A   1      17.810   0.233   8.229  0.00  0.00     0.059 C 
ATOM      4  C13 ZIN A   1      18.297  -1.193   8.331  0.00  0.00     0.026 A 
ATOM      5  C14 ZIN A   1      18.251  -1.902   9.526  0.00  0.00     0.045 A 
ATOM      6  C15 ZIN A   1      18.803  -3.217   9.246  0.00  0.00     0.007 A 
ATOM      7  C16 ZIN A   1      19.018  -4.346  10.035  0.00  0.00     0.015 A 
ATOM      8  C17 ZIN A   1      19.580  -5.448   9.413  0.00  0.00     0.001 A 
ATOM      9  C18 ZIN A   1      19.914  -5.436   8.069  0.00  0.00     0.002 A 
ATOM     10  C19 ZIN A   1      19.709  -4.325   7.269  0.00  0.00     0.030 A 
ATOM     11  C20 ZIN A   1      19.145  -3.203   7.871  0.00  0.00     0.045 A 
ATOM     12  N21 ZIN A   1      18.820  -1.970   7.369  0.00  0.00    -0.353 N 
ATOM     13  C22 ZIN A   1      19.014  -1.558   5.976  0.00  0.00     0.156 C 
ATOM     14  C23 ZIN A   1      17.737  -1.341  10.719  0.00  0.00     0.168 C 
ATOM     15  O24 ZIN A   1      17.739  -1.969  11.759  0.00  0.00    -0.292 OA
ENDROOT
BRANCH   1  16
ATOM     16  C8  ZIN A   1      17.329   0.729  12.028  0.00  0.00     0.142 C 
BRANCH  16  17
ATOM     17  N7  ZIN A   1      18.323   1.801  11.947  0.00  0.00    -0.345 N 
ATOM     18  C2  ZIN A   1      19.651   1.681  12.164  0.00  0.00     0.079 A 
ATOM     19  C1  ZIN A   1      20.369   0.407  12.531  0.00  0.00     0.089 C 
ATOM     20  N3  ZIN A   1      20.209   2.848  11.998  0.00  0.00    -0.355 N 
ATOM     21  H4  ZIN A   1      21.157   3.035  12.092  0.00  0.00     0.166 HD
ATOM     22  C5  ZIN A   1      19.269   3.747  11.678  0.00  0.00     0.106 A 
ATOM     23  C6  ZIN A   1      18.081   3.114  11.644  0.00  0.00     0.109 A 
ENDBRANCH  16  17
ENDBRANCH   1  16
TORSDOF 2
ENDMDL
