MODEL 1
REMARK VINA RESULT:      -7.1      0.000      0.000
REMARK  4 active torsions:
REMARK  status: ('A' for Active; 'I' for Inactive)
REMARK    1  A    between atoms: C5_5  and  N6_6 
REMARK       I    between atoms: N6_6  and  C7_7 
REMARK    2  A    between atoms: C7_7  and  C9_9 
REMARK    3  A    between atoms: C14_14  and  N15_15 
REMARK       I    between atoms: N15_15  and  C16_16 
REMARK    4  A    between atoms: C16_16  and  C18_18 
ROOT
ATOM      1  N1  ZIN A   1      17.468   5.457  10.068  0.00  0.00    -0.191 NA
ATOM      2  C2  ZIN A   1      17.758   4.358  10.063  0.00  0.00     0.099 C 
ATOM      3  C3  ZIN A   1      18.124   2.974  10.057  0.00  0.00     0.049 A 
ATOM      4  C4  ZIN A   1      18.662   2.397   8.906  0.00  0.00     0.054 A 
ATOM      5  C5  ZIN A   1      19.015   1.057   8.903  0.00  0.00     0.060 A 
ATOM      6  C12 ZIN A   1      18.834   0.286  10.046  0.00  0.00     0.087 A 
ATOM      7 Cl13 ZIN A   1      19.278  -1.391  10.039  0.00  0.00    -0.079 Cl
ATOM      8  C14 ZIN A   1      18.298   0.858  11.194  0.00  0.00     0.060 A 
ATOM      9  C21 ZIN A   1      17.948   2.200  11.205  0.00  0.00     0.054 A 
ENDROOT
BRANCH   8  10
ATOM     10  N15 ZIN A   1      18.119   0.081  12.342  0.00  0.00    -0.316 N 
ATOM     11  C16 ZIN A   1      19.057   0.079  13.309  0.00  0.00     0.322 C 
ATOM     12  O17 ZIN A   1      20.103   0.670  13.141  0.00  0.00    -0.261 OA
ATOM     13  H24 ZIN A   1      17.317  -0.457  12.443  0.00  0.00     0.169 HD
BRANCH  11  14
ATOM     14  C18 ZIN A   1      18.810  -0.653  14.590  0.00  0.00     0.270 C 
ATOM     15  O19 ZIN A   1      19.576  -1.533  14.947  0.00  0.00    -0.640 OA
ATOM     16  O20 ZIN A   1      17.843  -0.371  15.277  0.00  0.00    -0.640 OA
ENDBRANCH  11  14
ENDBRANCH   8  10
BRANCH   5  17
ATOM     17  N6  ZIN A   1      19.554   0.479   7.750  0.00  0.00    -0.316 N 
ATOM     18  C7  ZIN A   1      18.737  -0.034   6.809  0.00  0.00     0.322 C 
ATOM     19  O8  ZIN A   1      17.535   0.096   6.912  0.00  0.00    -0.261 OA
ATOM     20  H23 ZIN A   1      20.515   0.447   7.628  0.00  0.00     0.169 HD
BRANCH  18  21
ATOM     21  C9  ZIN A   1      19.313  -0.761   5.635  0.00  0.00     0.270 C 
ATOM     22  O10 ZIN A   1      19.608  -1.941   5.732  0.00  0.00    -0.640 OA
ATOM     23  O11 ZIN A   1      19.488  -0.173   4.579  0.00  0.00    -0.640 OA
ENDBRANCH  18  21
ENDBRANCH   5  17
TORSDOF 4
ENDMDL
MODEL 2
REMARK VINA RESULT:      -7.0      3.310      5.087
REMARK  4 active torsions:
REMARK  status: ('A' for Active; 'I' for Inactive)
REMARK    1  A    between atoms: C5_5  and  N6_6 
REMARK       I    between atoms: N6_6  and  C7_7 
REMARK    2  A    between atoms: C7_7  and  C9_9 
REMARK    3  A    between atoms: C14_14  and  N15_15 
REMARK       I    between atoms: N15_15  and  C16_16 
REMARK    4  A    between atoms: C16_16  and  C18_18 
ROOT
ATOM      1  N1  ZIN A   1      18.525  -0.004   4.787  0.00  0.00    -0.191 NA
ATOM      2  C2  ZIN A   1      18.738   0.121   5.895  0.00  0.00     0.099 C 
ATOM      3  C3  ZIN A   1      19.005   0.278   7.293  0.00  0.00     0.049 A 
ATOM      4  C4  ZIN A   1      18.907   1.538   7.887  0.00  0.00     0.054 A 
ATOM      5  C5  ZIN A   1      19.167   1.687   9.241  0.00  0.00     0.060 A 
ATOM      6  C12 ZIN A   1      19.525   0.583  10.007  0.00  0.00     0.087 A 
ATOM      7 Cl13 ZIN A   1      19.848   0.774  11.701  0.00  0.00    -0.079 Cl
ATOM      8  C14 ZIN A   1      19.623  -0.672   9.419  0.00  0.00     0.060 A 
ATOM      9  C21 ZIN A   1      19.360  -0.828   8.066  0.00  0.00     0.054 A 
ENDROOT
BRANCH   8  10
ATOM     10  N15 ZIN A   1      19.982  -1.779  10.192  0.00  0.00    -0.316 N 
ATOM     11  C16 ZIN A   1      19.029  -2.589  10.695  0.00  0.00     0.322 C 
ATOM     12  O17 ZIN A   1      17.858  -2.302  10.562  0.00  0.00    -0.261 OA
ATOM     13  H24 ZIN A   1      20.919  -1.966  10.366  0.00  0.00     0.169 HD
BRANCH  11  14
ATOM     14  C18 ZIN A   1      19.415  -3.841  11.416  0.00  0.00     0.270 C 
ATOM     15  O19 ZIN A   1      20.587  -4.054  11.682  0.00  0.00    -0.640 OA
ATOM     16  O20 ZIN A   1      18.560  -4.648  11.740  0.00  0.00    -0.640 OA
ENDBRANCH  11  14
ENDBRANCH   8  10
BRANCH   5  17
ATOM     17  N6  ZIN A   1      19.068   2.947   9.836  0.00  0.00    -0.316 N 
ATOM     18  C7  ZIN A   1      17.935   3.306  10.471  0.00  0.00     0.322 C 
ATOM     19  O8  ZIN A   1      17.039   2.501  10.614  0.00  0.00    -0.261 OA
ATOM     20  H23 ZIN A   1      19.816   3.564   9.791  0.00  0.00     0.169 HD
BRANCH  18  21
ATOM     21  C9  ZIN A   1      17.783   4.697  11.000  0.00  0.00     0.270 C 
ATOM     22  O10 ZIN A   1      18.149   4.962  12.134  0.00  0.00    -0.640 OA
ATOM     23  O11 ZIN A   1      17.291   5.567  10.299  0.00  0.00    -0.640 OA
ENDBRANCH  18  21
ENDBRANCH   5  17
TORSDOF 4
ENDMDL
MODEL 3
REMARK VINA RESULT:      -7.0      0.179      6.219
REMARK  4 active torsions:
REMARK  status: ('A' for Active; 'I' for Inactive)
REMARK    1  A    between atoms: C5_5  and  N6_6 
REMARK       I    between atoms: N6_6  and  C7_7 
REMARK    2  A    between atoms: C7_7  and  C9_9 
REMARK    3  A    between atoms: C14_14  and  N15_15 
REMARK       I    between atoms: N15_15  and  C16_16 
REMARK    4  A    between atoms: C16_16  and  C18_18 
ROOT
ATOM      1  N1  ZIN A   1      17.467   5.488  10.019  0.00  0.00    -0.191 NA
ATOM      2  C2  ZIN A   1      17.739   4.386  10.057  0.00  0.00     0.099 C 
ATOM      3  C3  ZIN A   1      18.080   2.997  10.105  0.00  0.00     0.049 A 
ATOM      4  C4  ZIN A   1      17.877   2.266  11.277  0.00  0.00     0.054 A 
ATOM      5  C5  ZIN A   1      18.210   0.920  11.320  0.00  0.00     0.060 A 
ATOM      6  C12 ZIN A   1      18.745   0.299  10.197  0.00  0.00     0.087 A 
ATOM      7 Cl13 ZIN A   1      19.158  -1.386  10.255  0.00  0.00    -0.079 Cl
ATOM      8  C14 ZIN A   1      18.948   1.024   9.029  0.00  0.00     0.060 A 
ATOM      9  C21 ZIN A   1      18.613   2.369   8.978  0.00  0.00     0.054 A 
ENDROOT
BRANCH   8  10
ATOM     10  N15 ZIN A   1      19.485   0.396   7.902  0.00  0.00    -0.316 N 
ATOM     11  C16 ZIN A   1      18.669  -0.064   6.933  0.00  0.00     0.322 C 
ATOM     12  O17 ZIN A   1      17.466  -0.023   7.083  0.00  0.00    -0.261 OA
ATOM     13  H24 ZIN A   1      20.446   0.291   7.817  0.00  0.00     0.169 HD
BRANCH  11  14
ATOM     14  C18 ZIN A   1      19.247  -0.624   5.672  0.00  0.00     0.270 C 
ATOM     15  O19 ZIN A   1      19.596  -1.792   5.627  0.00  0.00    -0.640 OA
ATOM     16  O20 ZIN A   1      19.369   0.087   4.688  0.00  0.00    -0.640 OA
ENDBRANCH  11  14
ENDBRANCH   8  10
BRANCH   5  17
ATOM     17  N6  ZIN A   1      18.007   0.188  12.493  0.00  0.00    -0.316 N 
ATOM     18  C7  ZIN A   1      18.990   0.100  13.410  0.00  0.00     0.322 C 
ATOM     19  O8  ZIN A   1      20.012   0.736  13.267  0.00  0.00    -0.261 OA
ATOM     20  H23 ZIN A   1      17.158  -0.256  12.646  0.00  0.00     0.169 HD
BRANCH  18  21
ATOM     21  C9  ZIN A   1      18.819  -0.783  14.606  0.00  0.00     0.270 C 
ATOM     22  O10 ZIN A   1      17.797  -0.719  15.271  0.00  0.00    -0.640 OA
ATOM     23  O11 ZIN A   1      19.702  -1.565  14.919  0.00  0.00    -0.640 OA
ENDBRANCH  18  21
ENDBRANCH   5  17
TORSDOF 4
ENDMDL
MODEL 4
REMARK VINA RESULT:      -6.9      3.379      5.048
REMARK  4 active torsions:
REMARK  status: ('A' for Active; 'I' for Inactive)
REMARK    1  A    between atoms: C5_5  and  N6_6 
REMARK       I    between atoms: N6_6  and  C7_7 
REMARK    2  A    between atoms: C7_7  and  C9_9 
REMARK    3  A    between atoms: C14_14  and  N15_15 
REMARK       I    between atoms: N15_15  and  C16_16 
REMARK    4  A    between atoms: C16_16  and  C18_18 
ROOT
ATOM      1  N1  ZIN A   1      18.304   0.216   4.895  0.00  0.00    -0.191 NA
ATOM      2  C2  ZIN A   1      18.585   0.206   5.996  0.00  0.00     0.099 C 
ATOM      3  C3  ZIN A   1      18.940   0.194   7.382  0.00  0.00     0.049 A 
ATOM      4  C4  ZIN A   1      19.184  -1.018   8.031  0.00  0.00     0.054 A 
ATOM      5  C5  ZIN A   1      19.528  -1.027   9.375  0.00  0.00     0.060 A 
ATOM      6  C12 ZIN A   1      19.629   0.169  10.076  0.00  0.00     0.087 A 
ATOM      7 Cl13 ZIN A   1      20.061   0.154  11.756  0.00  0.00    -0.079 Cl
ATOM      8  C14 ZIN A   1      19.387   1.377   9.432  0.00  0.00     0.060 A 
ATOM      9  C21 ZIN A   1      19.048   1.393   8.087  0.00  0.00     0.054 A 
ENDROOT
BRANCH   8  10
ATOM     10  N15 ZIN A   1      19.491   2.578  10.139  0.00  0.00    -0.316 N 
ATOM     11  C16 ZIN A   1      18.413   3.085  10.770  0.00  0.00     0.322 C 
ATOM     12  O17 ZIN A   1      17.330   2.555  10.641  0.00  0.00    -0.261 OA
ATOM     13  H24 ZIN A   1      20.340   3.047  10.177  0.00  0.00     0.169 HD
BRANCH  11  14
ATOM     14  C18 ZIN A   1      18.552   4.302  11.628  0.00  0.00     0.270 C 
ATOM     15  O19 ZIN A   1      17.622   5.086  11.730  0.00  0.00    -0.640 OA
ATOM     16  O20 ZIN A   1      19.595   4.512  12.226  0.00  0.00    -0.640 OA
ENDBRANCH  11  14
ENDBRANCH   8  10
BRANCH   5  17
ATOM     17  N6  ZIN A   1      19.773  -2.240  10.024  0.00  0.00    -0.316 N 
ATOM     18  C7  ZIN A   1      18.757  -2.911  10.602  0.00  0.00     0.322 C 
ATOM     19  O8  ZIN A   1      17.617  -2.517  10.472  0.00  0.00    -0.261 OA
ATOM     20  H23 ZIN A   1      20.673  -2.597  10.060  0.00  0.00     0.169 HD
BRANCH  18  21
ATOM     21  C9  ZIN A   1      19.035  -4.144  11.402  0.00  0.00     0.270 C 
ATOM     22  O10 ZIN A   1      18.111  -4.786  11.875  0.00  0.00    -0.640 OA
ATOM     23  O11 ZIN A   1      20.186  -4.508  11.584  0.00  0.00    -0.640 OA
ENDBRANCH  18  21
ENDBRANCH   5  17
TORSDOF 4
ENDMDL
MODEL 5
REMARK VINA RESULT:      -6.9      3.498      5.425
REMARK  4 active torsions:
REMARK  status: ('A' for Active; 'I' for Inactive)
REMARK    1  A    between atoms: C5_5  and  N6_6 
REMARK       I    between atoms: N6_6  and  C7_7 
REMARK    2  A    between atoms: C7_7  and  C9_9 
REMARK    3  A    between atoms: C14_14  and  N15_15 
REMARK       I    between atoms: N15_15  and  C16_16 
REMARK    4  A    between atoms: C16_16  and  C18_18 
ROOT
ATOM      1  N1  ZIN A   1      19.010  -1.531  16.361  0.00  0.00    -0.191 NA
ATOM      2  C2  ZIN A   1      19.111  -1.393  15.238  0.00  0.00     0.099 C 
ATOM      3  C3  ZIN A   1      19.238  -1.220  13.823  0.00  0.00     0.049 A 
ATOM      4  C4  ZIN A   1      19.526  -2.315  13.006  0.00  0.00     0.054 A 
ATOM      5  C5  ZIN A   1      19.648  -2.144  11.636  0.00  0.00     0.060 A 
ATOM      6  C12 ZIN A   1      19.485  -0.883  11.074  0.00  0.00     0.087 A 
ATOM      7 Cl13 ZIN A   1      19.637  -0.673   9.358  0.00  0.00    -0.079 Cl
ATOM      8  C14 ZIN A   1      19.198   0.209  11.884  0.00  0.00     0.060 A 
ATOM      9  C21 ZIN A   1      19.069   0.043  13.255  0.00  0.00     0.054 A 
ENDROOT
BRANCH   8  10
ATOM     10  N15 ZIN A   1      19.032   1.475  11.316  0.00  0.00    -0.316 N 
ATOM     11  C16 ZIN A   1      17.797   1.929  11.027  0.00  0.00     0.322 C 
ATOM     12  O17 ZIN A   1      16.836   1.202  11.166  0.00  0.00    -0.261 OA
ATOM     13  H24 ZIN A   1      19.808   2.028  11.130  0.00  0.00     0.169 HD
BRANCH  11  14
ATOM     14  C18 ZIN A   1      17.610   3.330  10.535  0.00  0.00     0.270 C 
ATOM     15  O19 ZIN A   1      16.762   4.046  11.042  0.00  0.00    -0.640 OA
ATOM     16  O20 ZIN A   1      18.305   3.756   9.628  0.00  0.00    -0.640 OA
ENDBRANCH  11  14
ENDBRANCH   8  10
BRANCH   5  17
ATOM     17  N6  ZIN A   1      19.936  -3.240  10.818  0.00  0.00    -0.316 N 
ATOM     18  C7  ZIN A   1      18.934  -3.982  10.309  0.00  0.00     0.322 C 
ATOM     19  O8  ZIN A   1      17.781  -3.641  10.474  0.00  0.00    -0.261 OA
ATOM     20  H23 ZIN A   1      20.858  -3.467  10.619  0.00  0.00     0.169 HD
BRANCH  18  21
ATOM     21  C9  ZIN A   1      19.242  -5.226   9.536  0.00  0.00     0.270 C 
ATOM     22  O10 ZIN A   1      18.420  -6.126   9.475  0.00  0.00    -0.640 OA
ATOM     23  O11 ZIN A   1      20.316  -5.341   8.968  0.00  0.00    -0.640 OA
ENDBRANCH  18  21
ENDBRANCH   5  17
TORSDOF 4
ENDMDL
MODEL 6
REMARK VINA RESULT:      -6.8      2.401      3.914
REMARK  4 active torsions:
REMARK  status: ('A' for Active; 'I' for Inactive)
REMARK    1  A    between atoms: C5_5  and  N6_6 
REMARK       I    between atoms: N6_6  and  C7_7 
REMARK    2  A    between atoms: C7_7  and  C9_9 
REMARK    3  A    between atoms: C14_14  and  N15_15 
REMARK       I    between atoms: N15_15  and  C16_16 
REMARK    4  A    between atoms: C16_16  and  C18_18 
ROOT
ATOM      1  N1  ZIN A   1      17.082  -3.713  11.651  0.00  0.00    -0.191 NA
ATOM      2  C2  ZIN A   1      17.402  -2.754  11.133  0.00  0.00     0.099 C 
ATOM      3  C3  ZIN A   1      17.804  -1.546  10.479  0.00  0.00     0.049 A 
ATOM      4  C4  ZIN A   1      18.330  -1.591   9.187  0.00  0.00     0.054 A 
ATOM      5  C5  ZIN A   1      18.719  -0.419   8.557  0.00  0.00     0.060 A 
ATOM      6  C12 ZIN A   1      18.586   0.801   9.211  0.00  0.00     0.087 A 
ATOM      7 Cl13 ZIN A   1      19.073   2.266   8.418  0.00  0.00    -0.079 Cl
ATOM      8  C14 ZIN A   1      18.062   0.849  10.497  0.00  0.00     0.060 A 
ATOM      9  C21 ZIN A   1      17.667  -0.319  11.131  0.00  0.00     0.054 A 
ENDROOT
BRANCH   8  10
ATOM     10  N15 ZIN A   1      17.929   2.077  11.151  0.00  0.00    -0.316 N 
ATOM     11  C16 ZIN A   1      18.945   2.561  11.891  0.00  0.00     0.322 C 
ATOM     12  O17 ZIN A   1      19.938   1.888  12.073  0.00  0.00    -0.261 OA
ATOM     13  H24 ZIN A   1      17.103   2.581  11.071  0.00  0.00     0.169 HD
BRANCH  11  14
ATOM     14  C18 ZIN A   1      18.850   3.930  12.488  0.00  0.00     0.270 C 
ATOM     15  O19 ZIN A   1      19.818   4.672  12.468  0.00  0.00    -0.640 OA
ATOM     16  O20 ZIN A   1      17.805   4.303  12.995  0.00  0.00    -0.640 OA
ENDBRANCH  11  14
ENDBRANCH   8  10
BRANCH   5  17
ATOM     17  N6  ZIN A   1      19.246  -0.463   7.263  0.00  0.00    -0.316 N 
ATOM     18  C7  ZIN A   1      18.422  -0.416   6.198  0.00  0.00     0.322 C 
ATOM     19  O8  ZIN A   1      17.234  -0.232   6.358  0.00  0.00    -0.261 OA
ATOM     20  H23 ZIN A   1      20.205  -0.529   7.133  0.00  0.00     0.169 HD
BRANCH  18  21
ATOM     21  C9  ZIN A   1      18.973  -0.587   4.818  0.00  0.00     0.270 C 
ATOM     22  O10 ZIN A   1      19.927  -1.323   4.629  0.00  0.00    -0.640 OA
ATOM     23  O11 ZIN A   1      18.469   0.011   3.881  0.00  0.00    -0.640 OA
ENDBRANCH  18  21
ENDBRANCH   5  17
TORSDOF 4
ENDMDL
MODEL 7
REMARK VINA RESULT:      -6.7      2.443      7.014
REMARK  4 active torsions:
REMARK  status: ('A' for Active; 'I' for Inactive)
REMARK    1  A    between atoms: C5_5  and  N6_6 
REMARK       I    between atoms: N6_6  and  C7_7 
REMARK    2  A    between atoms: C7_7  and  C9_9 
REMARK    3  A    between atoms: C14_14  and  N15_15 
REMARK       I    between atoms: N15_15  and  C16_16 
REMARK    4  A    between atoms: C16_16  and  C18_18 
ROOT
ATOM      1  N1  ZIN A   1      17.053  -3.757  11.764  0.00  0.00    -0.191 NA
ATOM      2  C2  ZIN A   1      17.395  -2.830  11.203  0.00  0.00     0.099 C 
ATOM      3  C3  ZIN A   1      17.827  -1.662  10.497  0.00  0.00     0.049 A 
ATOM      4  C4  ZIN A   1      17.740  -0.407  11.101  0.00  0.00     0.054 A 
ATOM      5  C5  ZIN A   1      18.160   0.722  10.414  0.00  0.00     0.060 A 
ATOM      6  C12 ZIN A   1      18.666   0.606   9.124  0.00  0.00     0.087 A 
ATOM      7 Cl13 ZIN A   1      19.191   2.021   8.269  0.00  0.00    -0.079 Cl
ATOM      8  C14 ZIN A   1      18.754  -0.643   8.520  0.00  0.00     0.060 A 
ATOM      9  C21 ZIN A   1      18.341  -1.777   9.204  0.00  0.00     0.054 A 
ENDROOT
BRANCH   8  10
ATOM     10  N15 ZIN A   1      19.265  -0.757   7.225  0.00  0.00    -0.316 N 
ATOM     11  C16 ZIN A   1      18.453  -0.593   6.162  0.00  0.00     0.322 C 
ATOM     12  O17 ZIN A   1      17.260  -0.446   6.328  0.00  0.00    -0.261 OA
ATOM     13  H24 ZIN A   1      20.206  -0.955   7.090  0.00  0.00     0.169 HD
BRANCH  11  14
ATOM     14  C18 ZIN A   1      19.021  -0.592   4.779  0.00  0.00     0.270 C 
ATOM     15  O19 ZIN A   1      18.546   0.140   3.925  0.00  0.00    -0.640 OA
ATOM     16  O20 ZIN A   1      19.959  -1.321   4.503  0.00  0.00    -0.640 OA
ENDBRANCH  11  14
ENDBRANCH   8  10
BRANCH   5  17
ATOM     17  N6  ZIN A   1      18.073   1.979  11.018  0.00  0.00    -0.316 N 
ATOM     18  C7  ZIN A   1      19.084   2.429  11.786  0.00  0.00     0.322 C 
ATOM     19  O8  ZIN A   1      20.112   1.789  11.872  0.00  0.00    -0.261 OA
ATOM     20  H23 ZIN A   1      17.284   2.527  10.885  0.00  0.00     0.169 HD
BRANCH  18  21
ATOM     21  C9  ZIN A   1      18.942   3.718  12.532  0.00  0.00     0.270 C 
ATOM     22  O10 ZIN A   1      19.800   4.579  12.433  0.00  0.00    -0.640 OA
ATOM     23  O11 ZIN A   1      17.967   3.908  13.242  0.00  0.00    -0.640 OA
ENDBRANCH  18  21
ENDBRANCH   5  17
TORSDOF 4
ENDMDL
MODEL 8
REMARK VINA RESULT:      -6.6      3.160      4.835
REMARK  4 active torsions:
REMARK  status: ('A' for Active; 'I' for Inactive)
REMARK    1  A    between atoms: C5_5  and  N6_6 
REMARK       I    between atoms: N6_6  and  C7_7 
REMARK    2  A    between atoms: C7_7  and  C9_9 
REMARK    3  A    between atoms: C14_14  and  N15_15 
REMARK       I    between atoms: N15_15  and  C16_16 
REMARK    4  A    between atoms: C16_16  and  C18_18 
ROOT
ATOM      1  N1  ZIN A   1      17.364  -5.801  12.069  0.00  0.00    -0.191 NA
ATOM      2  C2  ZIN A   1      17.534  -4.865  11.447  0.00  0.00     0.099 C 
ATOM      3  C3  ZIN A   1      17.746  -3.686  10.664  0.00  0.00     0.049 A 
ATOM      4  C4  ZIN A   1      17.725  -3.758   9.270  0.00  0.00     0.054 A 
ATOM      5  C5  ZIN A   1      17.932  -2.614   8.515  0.00  0.00     0.060 A 
ATOM      6  C12 ZIN A   1      18.160  -1.395   9.144  0.00  0.00     0.087 A 
ATOM      7 Cl13 ZIN A   1      18.417   0.034   8.194  0.00  0.00    -0.079 Cl
ATOM      8  C14 ZIN A   1      18.181  -1.320  10.532  0.00  0.00     0.060 A 
ATOM      9  C21 ZIN A   1      17.970  -2.460  11.293  0.00  0.00     0.054 A 
ENDROOT
BRANCH   8  10
ATOM     10  N15 ZIN A   1      18.409  -0.094  11.161  0.00  0.00    -0.316 N 
ATOM     11  C16 ZIN A   1      17.377   0.604  11.674  0.00  0.00     0.322 C 
ATOM     12  O17 ZIN A   1      16.240   0.218  11.503  0.00  0.00    -0.261 OA
ATOM     13  H24 ZIN A   1      19.313   0.256  11.229  0.00  0.00     0.169 HD
BRANCH  11  14
ATOM     14  C18 ZIN A   1      17.633   1.854  12.455  0.00  0.00     0.270 C 
ATOM     15  O19 ZIN A   1      17.517   2.943  11.917  0.00  0.00    -0.640 OA
ATOM     16  O20 ZIN A   1      17.957   1.785  13.629  0.00  0.00    -0.640 OA
ENDBRANCH  11  14
ENDBRANCH   8  10
BRANCH   5  17
ATOM     17  N6  ZIN A   1      17.911  -2.686   7.119  0.00  0.00    -0.316 N 
ATOM     18  C7  ZIN A   1      19.053  -2.905   6.439  0.00  0.00     0.322 C 
ATOM     19  O8  ZIN A   1      20.081  -3.140   7.039  0.00  0.00    -0.261 OA
ATOM     20  H23 ZIN A   1      17.074  -2.578   6.641  0.00  0.00     0.169 HD
BRANCH  18  21
ATOM     21  C9  ZIN A   1      19.053  -2.860   4.944  0.00  0.00     0.270 C 
ATOM     22  O10 ZIN A   1      19.624  -1.953   4.360  0.00  0.00    -0.640 OA
ATOM     23  O11 ZIN A   1      18.481  -3.730   4.307  0.00  0.00    -0.640 OA
ENDBRANCH  18  21
ENDBRANCH   5  17
TORSDOF 4
ENDMDL
MODEL 9
REMARK VINA RESULT:      -6.6      2.944      4.492
REMARK  4 active torsions:
REMARK  status: ('A' for Active; 'I' for Inactive)
REMARK    1  A    between atoms: C5_5  and  N6_6 
REMARK       I    between atoms: N6_6  and  C7_7 
REMARK    2  A    between atoms: C7_7  and  C9_9 
REMARK    3  A    between atoms: C14_14  and  N15_15 
REMARK       I    between atoms: N15_15  and  C16_16 
REMARK    4  A    between atoms: C16_16  and  C18_18 
ROOT
ATOM      1  N1  ZIN A   1      17.026  -6.313  10.350  0.00  0.00    -0.191 NA
ATOM      2  C2  ZIN A   1      17.572  -5.323  10.460  0.00  0.00     0.099 C 
ATOM      3  C3  ZIN A   1      18.260  -4.076  10.599  0.00  0.00     0.049 A 
ATOM      4  C4  ZIN A   1      18.575  -3.320   9.468  0.00  0.00     0.054 A 
ATOM      5  C5  ZIN A   1      19.242  -2.112   9.606  0.00  0.00     0.060 A 
ATOM      6  C12 ZIN A   1      19.598  -1.653  10.869  0.00  0.00     0.087 A 
ATOM      7 Cl13 ZIN A   1      20.431  -0.140  11.037  0.00  0.00    -0.079 Cl
ATOM      8  C14 ZIN A   1      19.285  -2.403  11.997  0.00  0.00     0.060 A 
ATOM      9  C21 ZIN A   1      18.614  -3.609  11.866  0.00  0.00     0.054 A 
ENDROOT
BRANCH   8  10
ATOM     10  N15 ZIN A   1      19.643  -1.938  13.265  0.00  0.00    -0.316 N 
ATOM     11  C16 ZIN A   1      18.786  -1.172  13.970  0.00  0.00     0.322 C 
ATOM     12  O17 ZIN A   1      17.747  -0.803  13.465  0.00  0.00    -0.261 OA
ATOM     13  H24 ZIN A   1      20.509  -2.167  13.639  0.00  0.00     0.169 HD
BRANCH  11  14
ATOM     14  C18 ZIN A   1      19.117  -0.778  15.374  0.00  0.00     0.270 C 
ATOM     15  O19 ZIN A   1      19.252  -1.635  16.232  0.00  0.00    -0.640 OA
ATOM     16  O20 ZIN A   1      19.250   0.400  15.662  0.00  0.00    -0.640 OA
ENDBRANCH  11  14
ENDBRANCH   8  10
BRANCH   5  17
ATOM     17  N6  ZIN A   1      19.557  -1.356   8.474  0.00  0.00    -0.316 N 
ATOM     18  C7  ZIN A   1      18.628  -0.552   7.921  0.00  0.00     0.322 C 
ATOM     19  O8  ZIN A   1      17.552  -0.406   8.462  0.00  0.00    -0.261 OA
ATOM     20  H23 ZIN A   1      20.444  -1.410   8.086  0.00  0.00     0.169 HD
BRANCH  18  21
ATOM     21  C9  ZIN A   1      18.924   0.163   6.641  0.00  0.00     0.270 C 
ATOM     22  O10 ZIN A   1      19.213  -0.472   5.640  0.00  0.00    -0.640 OA
ATOM     23  O11 ZIN A   1      18.877   1.382   6.597  0.00  0.00    -0.640 OA
ENDBRANCH  18  21
ENDBRANCH   5  17
TORSDOF 4
ENDMDL
