MODEL 1
REMARK VINA RESULT:      -7.9      0.000      0.000
REMARK  6 active torsions:
REMARK  status: ('A' for Active; 'I' for Inactive)
REMARK    1  A    between atoms: C2_2  and  C3_3 
REMARK    2  A    between atoms: C4_4  and  C5_5 
REMARK    3  A    between atoms: C11_11  and  N13_12 
REMARK       I    between atoms: N13_12  and  C14_13 
REMARK    4  A    between atoms: C14_13  and  C16_15 
REMARK    5  A    between atoms: C16_15  and  C19_18 
REMARK    6  A    between atoms: C22_21  and  N23_22 
ROOT
ATOM      1  N13 ZIN A   1      18.765  -1.822   7.370  0.00  0.00    -0.339 N 
ATOM      2  C14 ZIN A   1      19.258  -2.595   6.383  0.00  0.00     0.275 C 
ATOM      3  O15 ZIN A   1      20.178  -3.355   6.608  0.00  0.00    -0.266 OA
ATOM      4  H32 ZIN A   1      17.981  -1.272   7.210  0.00  0.00     0.163 HD
ENDROOT
BRANCH   1   5
ATOM      5  C11 ZIN A   1      19.409  -1.815   8.685  0.00  0.00     0.211 C 
ATOM      6  C9  ZIN A   1      18.450  -1.753   9.851  0.00  0.00     0.251 C 
ATOM      7  N8  ZIN A   1      18.579  -0.448  10.060  0.00  0.00    -0.293 N 
ATOM      8  O10 ZIN A   1      17.788  -2.605  10.406  0.00  0.00    -0.271 OA
ATOM      9  C4  ZIN A   1      17.951   0.649  10.658  0.00  0.00     0.122 C 
ATOM     10  C25 ZIN A   1      19.788  -0.433   9.192  0.00  0.00     0.187 C 
ATOM     11  C3  ZIN A   1      18.195   1.895  10.202  0.00  0.00    -0.016 C 
ATOM     12  C28 ZIN A   1      19.151   2.300   9.127  0.00  0.00     0.117 C 
ATOM     13  S27 ZIN A   1      19.567   0.926   7.996  0.00  0.00    -0.136 SA
BRANCH   9  14
ATOM     14  C5  ZIN A   1      17.027   0.446  11.776  0.00  0.00     0.227 C 
ATOM     15  O6  ZIN A   1      15.869   0.114  11.561  0.00  0.00    -0.643 OA
ATOM     16  O7  ZIN A   1      17.415   0.607  12.927  0.00  0.00    -0.643 OA
ENDBRANCH   9  14
BRANCH  11  17
ATOM     17  C2  ZIN A   1      17.433   2.974  10.828  0.00  0.00     0.000 C 
ATOM     18  C1  ZIN A   1      17.607   4.235  10.425  0.00  0.00     0.012 C 
ENDBRANCH  11  17
ENDBRANCH   1   5
BRANCH   2  19
ATOM     19  C16 ZIN A   1      18.678  -2.516   5.020  0.00  0.00     0.183 C 
ATOM     20  N17 ZIN A   1      19.028  -1.551   4.219  0.00  0.00    -0.090 NA
ATOM     21  O18 ZIN A   1      20.039  -0.638   4.607  0.00  0.00    -0.060 OA
BRANCH  19  22
ATOM     22  C19 ZIN A   1      17.706  -3.536   4.572  0.00  0.00     0.102 A 
ATOM     23  N24 ZIN A   1      16.924  -3.358   3.507  0.00  0.00    -0.222 NA
ATOM     24  C22 ZIN A   1      16.115  -4.325   3.207  0.00  0.00     0.164 A 
ATOM     25  S21 ZIN A   1      16.303  -5.634   4.369  0.00  0.00    -0.062 SA
ATOM     26  C20 ZIN A   1      17.544  -4.710   5.213  0.00  0.00     0.087 A 
BRANCH  24  27
ATOM     27  N23 ZIN A   1      15.232  -4.326   2.140  0.00  0.00    -0.378 N 
ATOM     28  H34 ZIN A   1      15.407  -4.882   1.365  0.00  0.00     0.158 HD
ATOM     29  H35 ZIN A   1      14.437  -3.769   2.168  0.00  0.00     0.158 HD
ENDBRANCH  24  27
ENDBRANCH  19  22
ENDBRANCH   2  19
TORSDOF 6
ENDMDL
MODEL 2
REMARK VINA RESULT:      -7.8      2.770      3.896
REMARK  6 active torsions:
REMARK  status: ('A' for Active; 'I' for Inactive)
REMARK    1  A    between atoms: C2_2  and  C3_3 
REMARK    2  A    between atoms: C4_4  and  C5_5 
REMARK    3  A    between atoms: C11_11  and  N13_12 
REMARK       I    between atoms: N13_12  and  C14_13 
REMARK    4  A    between atoms: C14_13  and  C16_15 
REMARK    5  A    between atoms: C16_15  and  C19_18 
REMARK    6  A    between atoms: C22_21  and  N23_22 
ROOT
ATOM      1  N13 ZIN A   1      18.488  -0.564   7.777  0.00  0.00    -0.339 N 
ATOM      2  C14 ZIN A   1      18.146  -0.934   6.528  0.00  0.00     0.275 C 
ATOM      3  O15 ZIN A   1      17.094  -0.558   6.049  0.00  0.00    -0.266 OA
ATOM      4  H32 ZIN A   1      19.361  -0.800   8.131  0.00  0.00     0.163 HD
ENDROOT
BRANCH   1   5
ATOM      5  C11 ZIN A   1      17.545   0.197   8.601  0.00  0.00     0.211 C 
ATOM      6  C9  ZIN A   1      18.186   1.242   9.483  0.00  0.00     0.251 C 
ATOM      7  N8  ZIN A   1      18.171   0.509  10.589  0.00  0.00    -0.293 N 
ATOM      8  O10 ZIN A   1      18.581   2.366   9.257  0.00  0.00    -0.271 OA
ATOM      9  C4  ZIN A   1      18.762   0.389  11.852  0.00  0.00     0.122 C 
ATOM     10  C25 ZIN A   1      17.225  -0.441   9.942  0.00  0.00     0.187 C 
ATOM     11  C3  ZIN A   1      18.793  -0.811  12.468  0.00  0.00    -0.016 C 
ATOM     12  C28 ZIN A   1      18.189  -2.093  11.996  0.00  0.00     0.117 C 
ATOM     13  S27 ZIN A   1      17.900  -2.117  10.192  0.00  0.00    -0.136 SA
BRANCH   9  14
ATOM     14  C5  ZIN A   1      19.349   1.562  12.501  0.00  0.00     0.227 C 
ATOM     15  O6  ZIN A   1      18.729   2.152  13.376  0.00  0.00    -0.643 OA
ATOM     16  O7  ZIN A   1      20.460   1.955  12.167  0.00  0.00    -0.643 OA
ENDBRANCH   9  14
BRANCH  11  17
ATOM     17  C2  ZIN A   1      19.504  -0.863  13.744  0.00  0.00     0.000 C 
ATOM     18  C1  ZIN A   1      18.861  -1.242  14.852  0.00  0.00     0.012 C 
ENDBRANCH  11  17
ENDBRANCH   1   5
BRANCH   2  19
ATOM     19  C16 ZIN A   1      19.051  -1.801   5.737  0.00  0.00     0.183 C 
ATOM     20  N17 ZIN A   1      19.675  -1.317   4.700  0.00  0.00    -0.090 NA
ATOM     21  O18 ZIN A   1      19.573   0.061   4.391  0.00  0.00    -0.060 OA
BRANCH  19  22
ATOM     22  C19 ZIN A   1      19.248  -3.214   6.127  0.00  0.00     0.102 A 
ATOM     23  N24 ZIN A   1      20.391  -3.658   6.648  0.00  0.00    -0.222 NA
ATOM     24  C22 ZIN A   1      20.444  -4.916   6.956  0.00  0.00     0.164 A 
ATOM     25  S21 ZIN A   1      18.912  -5.685   6.556  0.00  0.00    -0.062 SA
ATOM     26  C20 ZIN A   1      18.285  -4.144   5.976  0.00  0.00     0.087 A 
BRANCH  24  27
ATOM     27  N23 ZIN A   1      21.540  -5.559   7.509  0.00  0.00    -0.378 N 
ATOM     28  H34 ZIN A   1      21.781  -5.398   8.435  0.00  0.00     0.158 HD
ATOM     29  H35 ZIN A   1      22.067  -6.169   6.969  0.00  0.00     0.158 HD
ENDBRANCH  24  27
ENDBRANCH  19  22
ENDBRANCH   2  19
TORSDOF 6
ENDMDL
MODEL 3
REMARK VINA RESULT:      -7.7      5.478     10.033
REMARK  6 active torsions:
REMARK  status: ('A' for Active; 'I' for Inactive)
REMARK    1  A    between atoms: C2_2  and  C3_3 
REMARK    2  A    between atoms: C4_4  and  C5_5 
REMARK    3  A    between atoms: C11_11  and  N13_12 
REMARK       I    between atoms: N13_12  and  C14_13 
REMARK    4  A    between atoms: C14_13  and  C16_15 
REMARK    5  A    between atoms: C16_15  and  C19_18 
REMARK    6  A    between atoms: C22_21  and  N23_22 
ROOT
ATOM      1  N13 ZIN A   1      18.731   0.880  15.074  0.00  0.00    -0.339 N 
ATOM      2  C14 ZIN A   1      18.363   1.064  16.356  0.00  0.00     0.275 C 
ATOM      3  O15 ZIN A   1      17.397   0.476  16.802  0.00  0.00    -0.266 OA
ATOM      4  H32 ZIN A   1      19.546   1.290  14.740  0.00  0.00     0.163 HD
ENDROOT
BRANCH   1   5
ATOM      5  C11 ZIN A   1      17.905   0.061  14.184  0.00  0.00     0.211 C 
ATOM      6  C9  ZIN A   1      18.687  -0.775  13.199  0.00  0.00     0.251 C 
ATOM      7  N8  ZIN A   1      18.530   0.050  12.171  0.00  0.00    -0.293 N 
ATOM      8  O10 ZIN A   1      19.261  -1.838  13.309  0.00  0.00    -0.271 OA
ATOM      9  C4  ZIN A   1      19.068   0.387  10.924  0.00  0.00     0.122 C 
ATOM     10  C25 ZIN A   1      17.459   0.767  12.914  0.00  0.00     0.187 C 
ATOM     11  C3  ZIN A   1      18.892   1.630  10.429  0.00  0.00    -0.016 C 
ATOM     12  C28 ZIN A   1      18.101   2.746  11.030  0.00  0.00     0.117 C 
ATOM     13  S27 ZIN A   1      17.850   2.546  12.830  0.00  0.00    -0.136 SA
BRANCH   9  14
ATOM     14  C5  ZIN A   1      19.821  -0.608  10.157  0.00  0.00     0.227 C 
ATOM     15  O6  ZIN A   1      21.028  -0.722  10.323  0.00  0.00    -0.643 OA
ATOM     16  O7  ZIN A   1      19.243  -1.324   9.350  0.00  0.00    -0.643 OA
ENDBRANCH   9  14
BRANCH  11  17
ATOM     17  C2  ZIN A   1      19.558   1.921   9.161  0.00  0.00     0.000 C 
ATOM     18  C1  ZIN A   1      18.845   1.995   8.034  0.00  0.00     0.012 C 
ENDBRANCH  11  17
ENDBRANCH   1   5
BRANCH   2  19
ATOM     19  C16 ZIN A   1      19.134   1.985  17.226  0.00  0.00     0.183 C 
ATOM     20  N17 ZIN A   1      19.681   1.541  18.322  0.00  0.00    -0.090 NA
ATOM     21  O18 ZIN A   1      19.631   0.160  18.629  0.00  0.00    -0.060 OA
BRANCH  19  22
ATOM     22  C19 ZIN A   1      19.284   3.406  16.846  0.00  0.00     0.102 A 
ATOM     23  N24 ZIN A   1      20.429   3.904  16.379  0.00  0.00    -0.222 NA
ATOM     24  C22 ZIN A   1      20.439   5.163  16.074  0.00  0.00     0.164 A 
ATOM     25  S21 ZIN A   1      18.857   5.861  16.403  0.00  0.00    -0.062 SA
ATOM     26  C20 ZIN A   1      18.274   4.291  16.953  0.00  0.00     0.087 A 
BRANCH  24  27
ATOM     27  N23 ZIN A   1      21.528   5.856  15.574  0.00  0.00    -0.378 N 
ATOM     28  H34 ZIN A   1      22.127   5.428  14.942  0.00  0.00     0.158 HD
ATOM     29  H35 ZIN A   1      21.693   6.770  15.856  0.00  0.00     0.158 HD
ENDBRANCH  24  27
ENDBRANCH  19  22
ENDBRANCH   2  19
TORSDOF 6
ENDMDL
MODEL 4
REMARK VINA RESULT:      -7.2      3.351      3.869
REMARK  6 active torsions:
REMARK  status: ('A' for Active; 'I' for Inactive)
REMARK    1  A    between atoms: C2_2  and  C3_3 
REMARK    2  A    between atoms: C4_4  and  C5_5 
REMARK    3  A    between atoms: C11_11  and  N13_12 
REMARK       I    between atoms: N13_12  and  C14_13 
REMARK    4  A    between atoms: C14_13  and  C16_15 
REMARK    5  A    between atoms: C16_15  and  C19_18 
REMARK    6  A    between atoms: C22_21  and  N23_22 
ROOT
ATOM      1  N13 ZIN A   1      17.170  -4.397   8.549  0.00  0.00    -0.339 N 
ATOM      2  C14 ZIN A   1      17.072  -5.667   8.110  0.00  0.00     0.275 C 
ATOM      3  O15 ZIN A   1      17.711  -6.549   8.649  0.00  0.00    -0.266 OA
ATOM      4  H32 ZIN A   1      16.603  -3.707   8.169  0.00  0.00     0.163 HD
ENDROOT
BRANCH   1   5
ATOM      5  C11 ZIN A   1      18.130  -4.059   9.602  0.00  0.00     0.211 C 
ATOM      6  C9  ZIN A   1      17.562  -3.218  10.721  0.00  0.00     0.251 C 
ATOM      7  N8  ZIN A   1      18.032  -2.062  10.270  0.00  0.00    -0.293 N 
ATOM      8  O10 ZIN A   1      16.901  -3.503  11.697  0.00  0.00    -0.271 OA
ATOM      9  C4  ZIN A   1      17.852  -0.677  10.360  0.00  0.00     0.122 C 
ATOM     10  C25 ZIN A   1      18.933  -2.795   9.340  0.00  0.00     0.187 C 
ATOM     11  C3  ZIN A   1      18.237   0.119   9.341  0.00  0.00    -0.016 C 
ATOM     12  C28 ZIN A   1      18.932  -0.285   8.083  0.00  0.00     0.117 C 
ATOM     13  S27 ZIN A   1      18.707  -2.056   7.687  0.00  0.00    -0.136 SA
BRANCH   9  14
ATOM     14  C5  ZIN A   1      17.243  -0.094  11.558  0.00  0.00     0.227 C 
ATOM     15  O6  ZIN A   1      16.030   0.054  11.617  0.00  0.00    -0.643 OA
ATOM     16  O7  ZIN A   1      17.949   0.246  12.499  0.00  0.00    -0.643 OA
ENDBRANCH   9  14
BRANCH  11  17
ATOM     17  C2  ZIN A   1      17.935   1.542   9.483  0.00  0.00     0.000 C 
ATOM     18  C1  ZIN A   1      18.894   2.451   9.292  0.00  0.00     0.012 C 
ENDBRANCH  11  17
ENDBRANCH   1   5
BRANCH   2  19
ATOM     19  C16 ZIN A   1      16.185  -5.989   6.966  0.00  0.00     0.183 C 
ATOM     20  N17 ZIN A   1      16.620  -5.853   5.746  0.00  0.00    -0.090 NA
ATOM     21  O18 ZIN A   1      17.971  -5.502   5.511  0.00  0.00    -0.060 OA
BRANCH  19  22
ATOM     22  C19 ZIN A   1      14.807  -6.467   7.212  0.00  0.00     0.102 A 
ATOM     23  N24 ZIN A   1      13.954  -5.813   8.000  0.00  0.00    -0.222 NA
ATOM     24  C22 ZIN A   1      12.771  -6.325   8.136  0.00  0.00     0.164 A 
ATOM     25  S21 ZIN A   1      12.662  -7.810   7.196  0.00  0.00    -0.062 SA
ATOM     26  C20 ZIN A   1      14.326  -7.597   6.658  0.00  0.00     0.087 A 
BRANCH  24  27
ATOM     27  N23 ZIN A   1      11.752  -5.792   8.906  0.00  0.00    -0.378 N 
ATOM     28  H34 ZIN A   1      10.831  -5.863   8.610  0.00  0.00     0.158 HD
ATOM     29  H35 ZIN A   1      11.960  -5.345   9.743  0.00  0.00     0.158 HD
ENDBRANCH  24  27
ENDBRANCH  19  22
ENDBRANCH   2  19
TORSDOF 6
ENDMDL
MODEL 5
REMARK VINA RESULT:      -7.2      2.389      3.207
REMARK  6 active torsions:
REMARK  status: ('A' for Active; 'I' for Inactive)
REMARK    1  A    between atoms: C2_2  and  C3_3 
REMARK    2  A    between atoms: C4_4  and  C5_5 
REMARK    3  A    between atoms: C11_11  and  N13_12 
REMARK       I    between atoms: N13_12  and  C14_13 
REMARK    4  A    between atoms: C14_13  and  C16_15 
REMARK    5  A    between atoms: C16_15  and  C19_18 
REMARK    6  A    between atoms: C22_21  and  N23_22 
ROOT
ATOM      1  N13 ZIN A   1      17.435  -4.283   8.473  0.00  0.00    -0.339 N 
ATOM      2  C14 ZIN A   1      17.479  -5.506   7.911  0.00  0.00     0.275 C 
ATOM      3  O15 ZIN A   1      18.132  -6.391   8.428  0.00  0.00    -0.266 OA
ATOM      4  H32 ZIN A   1      16.853  -3.600   8.102  0.00  0.00     0.163 HD
ENDROOT
BRANCH   1   5
ATOM      5  C11 ZIN A   1      18.262  -3.984   9.644  0.00  0.00     0.211 C 
ATOM      6  C9  ZIN A   1      17.552  -3.214  10.732  0.00  0.00     0.251 C 
ATOM      7  N8  ZIN A   1      18.043  -2.028  10.397  0.00  0.00    -0.293 N 
ATOM      8  O10 ZIN A   1      16.792  -3.563  11.611  0.00  0.00    -0.271 OA
ATOM      9  C4  ZIN A   1      17.821  -0.653  10.536  0.00  0.00     0.122 C 
ATOM     10  C25 ZIN A   1      19.059  -2.695   9.538  0.00  0.00     0.187 C 
ATOM     11  C3  ZIN A   1      18.300   0.202   9.609  0.00  0.00    -0.016 C 
ATOM     12  C28 ZIN A   1      19.142  -0.122   8.419  0.00  0.00     0.117 C 
ATOM     13  S27 ZIN A   1      19.004  -1.873   7.911  0.00  0.00    -0.136 SA
BRANCH   9  14
ATOM     14  C5  ZIN A   1      17.069  -0.145  11.685  0.00  0.00     0.227 C 
ATOM     15  O6  ZIN A   1      15.861   0.036  11.594  0.00  0.00    -0.643 OA
ATOM     16  O7  ZIN A   1      17.648   0.099  12.736  0.00  0.00    -0.643 OA
ENDBRANCH   9  14
BRANCH  11  17
ATOM     17  C2  ZIN A   1      17.951   1.610   9.788  0.00  0.00     0.000 C 
ATOM     18  C1  ZIN A   1      18.812   2.564   9.425  0.00  0.00     0.012 C 
ENDBRANCH  11  17
ENDBRANCH   1   5
BRANCH   2  19
ATOM     19  C16 ZIN A   1      16.731  -5.775   6.659  0.00  0.00     0.183 C 
ATOM     20  N17 ZIN A   1      15.664  -6.522   6.685  0.00  0.00    -0.090 NA
ATOM     21  O18 ZIN A   1      15.157  -6.991   7.921  0.00  0.00    -0.060 OA
BRANCH  19  22
ATOM     22  C19 ZIN A   1      17.195  -5.191   5.382  0.00  0.00     0.102 A 
ATOM     23  N24 ZIN A   1      17.891  -4.056   5.326  0.00  0.00    -0.222 NA
ATOM     24  C22 ZIN A   1      18.248  -3.645   4.150  0.00  0.00     0.164 A 
ATOM     25  S21 ZIN A   1      17.659  -4.769   2.929  0.00  0.00    -0.062 SA
ATOM     26  C20 ZIN A   1      16.940  -5.768   4.190  0.00  0.00     0.087 A 
BRANCH  24  27
ATOM     27  N23 ZIN A   1      18.976  -2.495   3.891  0.00  0.00    -0.378 N 
ATOM     28  H34 ZIN A   1      19.901  -2.432   4.176  0.00  0.00     0.158 HD
ATOM     29  H35 ZIN A   1      18.559  -1.752   3.426  0.00  0.00     0.158 HD
ENDBRANCH  24  27
ENDBRANCH  19  22
ENDBRANCH   2  19
TORSDOF 6
ENDMDL
MODEL 6
REMARK VINA RESULT:      -7.1      4.289      8.914
REMARK  6 active torsions:
REMARK  status: ('A' for Active; 'I' for Inactive)
REMARK    1  A    between atoms: C2_2  and  C3_3 
REMARK    2  A    between atoms: C4_4  and  C5_5 
REMARK    3  A    between atoms: C11_11  and  N13_12 
REMARK       I    between atoms: N13_12  and  C14_13 
REMARK    4  A    between atoms: C14_13  and  C16_15 
REMARK    5  A    between atoms: C16_15  and  C19_18 
REMARK    6  A    between atoms: C22_21  and  N23_22 
ROOT
ATOM      1  N13 ZIN A   1      19.134   0.944  12.035  0.00  0.00    -0.339 N 
ATOM      2  C14 ZIN A   1      19.275   2.277  12.173  0.00  0.00     0.275 C 
ATOM      3  O15 ZIN A   1      20.229   2.843  11.677  0.00  0.00    -0.266 OA
ATOM      4  H32 ZIN A   1      18.334   0.504  12.366  0.00  0.00     0.163 HD
ENDROOT
BRANCH   1   5
ATOM      5  C11 ZIN A   1      20.187   0.160  11.386  0.00  0.00     0.211 C 
ATOM      6  C9  ZIN A   1      19.914  -0.177   9.939  0.00  0.00     0.251 C 
ATOM      7  N8  ZIN A   1      19.485  -1.412  10.168  0.00  0.00    -0.293 N 
ATOM      8  O10 ZIN A   1      20.042   0.464   8.917  0.00  0.00    -0.271 OA
ATOM      9  C4  ZIN A   1      18.735  -2.450   9.607  0.00  0.00     0.122 C 
ATOM     10  C25 ZIN A   1      20.041  -1.344  11.548  0.00  0.00     0.187 C 
ATOM     11  C3  ZIN A   1      18.139  -3.359  10.407  0.00  0.00    -0.016 C 
ATOM     12  C28 ZIN A   1      18.228  -3.459  11.895  0.00  0.00     0.117 C 
ATOM     13  S27 ZIN A   1      18.718  -1.883  12.682  0.00  0.00    -0.136 SA
BRANCH   9  14
ATOM     14  C5  ZIN A   1      18.594  -2.549   8.153  0.00  0.00     0.227 C 
ATOM     15  O6  ZIN A   1      19.238  -3.384   7.531  0.00  0.00    -0.643 OA
ATOM     16  O7  ZIN A   1      17.831  -1.797   7.560  0.00  0.00    -0.643 OA
ENDBRANCH   9  14
BRANCH  11  17
ATOM     17  C2  ZIN A   1      17.307  -4.359   9.742  0.00  0.00     0.000 C 
ATOM     18  C1  ZIN A   1      16.506  -5.148  10.463  0.00  0.00     0.012 C 
ENDBRANCH  11  17
ENDBRANCH   1   5
BRANCH   2  19
ATOM     19  C16 ZIN A   1      18.266   3.055  12.931  0.00  0.00     0.183 C 
ATOM     20  N17 ZIN A   1      17.243   3.573  12.312  0.00  0.00    -0.090 NA
ATOM     21  O18 ZIN A   1      17.037   3.305  10.938  0.00  0.00    -0.060 OA
BRANCH  19  22
ATOM     22  C19 ZIN A   1      18.420   3.240  14.390  0.00  0.00     0.102 A 
ATOM     23  N24 ZIN A   1      18.806   2.253  15.199  0.00  0.00    -0.222 NA
ATOM     24  C22 ZIN A   1      18.910   2.535  16.459  0.00  0.00     0.164 A 
ATOM     25  S21 ZIN A   1      18.474   4.220  16.723  0.00  0.00    -0.062 SA
ATOM     26  C20 ZIN A   1      18.175   4.418  14.998  0.00  0.00     0.087 A 
BRANCH  24  27
ATOM     27  N23 ZIN A   1      19.299   1.647  17.448  0.00  0.00    -0.378 N 
ATOM     28  H34 ZIN A   1      18.632   1.121  17.917  0.00  0.00     0.158 HD
ATOM     29  H35 ZIN A   1      20.238   1.552  17.672  0.00  0.00     0.158 HD
ENDBRANCH  24  27
ENDBRANCH  19  22
ENDBRANCH   2  19
TORSDOF 6
ENDMDL
MODEL 7
REMARK VINA RESULT:      -7.0      4.798      9.516
REMARK  6 active torsions:
REMARK  status: ('A' for Active; 'I' for Inactive)
REMARK    1  A    between atoms: C2_2  and  C3_3 
REMARK    2  A    between atoms: C4_4  and  C5_5 
REMARK    3  A    between atoms: C11_11  and  N13_12 
REMARK       I    between atoms: N13_12  and  C14_13 
REMARK    4  A    between atoms: C14_13  and  C16_15 
REMARK    5  A    between atoms: C16_15  and  C19_18 
REMARK    6  A    between atoms: C22_21  and  N23_22 
ROOT
ATOM      1  N13 ZIN A   1      18.404   2.938  11.965  0.00  0.00    -0.339 N 
ATOM      2  C14 ZIN A   1      18.549   4.145  12.545  0.00  0.00     0.275 C 
ATOM      3  O15 ZIN A   1      19.623   4.713  12.509  0.00  0.00    -0.266 OA
ATOM      4  H32 ZIN A   1      17.528   2.520  11.928  0.00  0.00     0.163 HD
ENDROOT
BRANCH   1   5
ATOM      5  C11 ZIN A   1      19.566   2.258  11.389  0.00  0.00     0.211 C 
ATOM      6  C9  ZIN A   1      19.301   1.579  10.066  0.00  0.00     0.251 C 
ATOM      7  N8  ZIN A   1      19.154   0.360  10.570  0.00  0.00    -0.293 N 
ATOM      8  O10 ZIN A   1      19.242   2.003   8.931  0.00  0.00    -0.271 OA
ATOM      9  C4  ZIN A   1      18.615  -0.901  10.293  0.00  0.00     0.122 C 
ATOM     10  C25 ZIN A   1      19.749   0.823  11.853  0.00  0.00     0.187 C 
ATOM     11  C3  ZIN A   1      18.264  -1.720  11.305  0.00  0.00    -0.016 C 
ATOM     12  C28 ZIN A   1      18.444  -1.487  12.770  0.00  0.00     0.117 C 
ATOM     13  S27 ZIN A   1      18.627   0.284  13.187  0.00  0.00    -0.136 SA
BRANCH   9  14
ATOM     14  C5  ZIN A   1      18.428  -1.329   8.905  0.00  0.00     0.227 C 
ATOM     15  O6  ZIN A   1      17.457  -0.939   8.269  0.00  0.00    -0.643 OA
ATOM     16  O7  ZIN A   1      19.244  -2.077   8.380  0.00  0.00    -0.643 OA
ENDBRANCH   9  14
BRANCH  11  17
ATOM     17  C2  ZIN A   1      17.631  -2.982  10.926  0.00  0.00     0.000 C 
ATOM     18  C1  ZIN A   1      17.968  -4.113  11.551  0.00  0.00     0.012 C 
ENDBRANCH  11  17
ENDBRANCH   1   5
BRANCH   2  19
ATOM     19  C16 ZIN A   1      17.398   4.782  13.230  0.00  0.00     0.183 C 
ATOM     20  N17 ZIN A   1      16.343   5.126  12.547  0.00  0.00    -0.090 NA
ATOM     21  O18 ZIN A   1      16.250   4.797  11.174  0.00  0.00    -0.060 OA
BRANCH  19  22
ATOM     22  C19 ZIN A   1      17.447   5.023  14.688  0.00  0.00     0.102 A 
ATOM     23  N24 ZIN A   1      18.212   4.300  15.507  0.00  0.00    -0.222 NA
ATOM     24  C22 ZIN A   1      18.176   4.608  16.765  0.00  0.00     0.164 A 
ATOM     25  S21 ZIN A   1      17.060   5.946  17.013  0.00  0.00    -0.062 SA
ATOM     26  C20 ZIN A   1      16.718   5.987  15.285  0.00  0.00     0.087 A 
BRANCH  24  27
ATOM     27  N23 ZIN A   1      18.900   3.976  17.763  0.00  0.00    -0.378 N 
ATOM     28  H34 ZIN A   1      18.448   3.647  18.556  0.00  0.00     0.158 HD
ATOM     29  H35 ZIN A   1      19.859   3.863  17.669  0.00  0.00     0.158 HD
ENDBRANCH  24  27
ENDBRANCH  19  22
ENDBRANCH   2  19
TORSDOF 6
ENDMDL
MODEL 8
REMARK VINA RESULT:      -6.9      2.870      3.898
REMARK  6 active torsions:
REMARK  status: ('A' for Active; 'I' for Inactive)
REMARK    1  A    between atoms: C2_2  and  C3_3 
REMARK    2  A    between atoms: C4_4  and  C5_5 
REMARK    3  A    between atoms: C11_11  and  N13_12 
REMARK       I    between atoms: N13_12  and  C14_13 
REMARK    4  A    between atoms: C14_13  and  C16_15 
REMARK    5  A    between atoms: C16_15  and  C19_18 
REMARK    6  A    between atoms: C22_21  and  N23_22 
ROOT
ATOM      1  N13 ZIN A   1      19.060  -2.512  10.607  0.00  0.00    -0.339 N 
ATOM      2  C14 ZIN A   1      19.253  -3.845  10.610  0.00  0.00     0.275 C 
ATOM      3  O15 ZIN A   1      20.241  -4.315  11.138  0.00  0.00    -0.266 OA
ATOM      4  H32 ZIN A   1      18.235  -2.142  10.253  0.00  0.00     0.163 HD
ENDROOT
BRANCH   1   5
ATOM      5  C11 ZIN A   1      20.092  -1.621  11.142  0.00  0.00     0.211 C 
ATOM      6  C9  ZIN A   1      19.662  -0.816  12.345  0.00  0.00     0.251 C 
ATOM      7  N8  ZIN A   1      19.404   0.300  11.674  0.00  0.00    -0.293 N 
ATOM      8  O10 ZIN A   1      19.581  -1.095  13.523  0.00  0.00    -0.271 OA
ATOM      9  C4  ZIN A   1      18.700   1.506  11.752  0.00  0.00     0.122 C 
ATOM     10  C25 ZIN A   1      20.132  -0.246  10.496  0.00  0.00     0.187 C 
ATOM     11  C3  ZIN A   1      18.321   2.137  10.621  0.00  0.00    -0.016 C 
ATOM     12  C28 ZIN A   1      18.621   1.742   9.213  0.00  0.00     0.117 C 
ATOM     13  S27 ZIN A   1      19.042  -0.029   9.049  0.00  0.00    -0.136 SA
BRANCH   9  14
ATOM     14  C5  ZIN A   1      18.374   2.082  13.058  0.00  0.00     0.227 C 
ATOM     15  O6  ZIN A   1      19.006   3.043  13.479  0.00  0.00    -0.643 OA
ATOM     16  O7  ZIN A   1      17.470   1.601  13.730  0.00  0.00    -0.643 OA
ENDBRANCH   9  14
BRANCH  11  17
ATOM     17  C2  ZIN A   1      17.518   3.346  10.795  0.00  0.00     0.000 C 
ATOM     18  C1  ZIN A   1      17.825   4.456  10.118  0.00  0.00     0.012 C 
ENDBRANCH  11  17
ENDBRANCH   1   5
BRANCH   2  19
ATOM     19  C16 ZIN A   1      18.261  -4.739   9.965  0.00  0.00     0.183 C 
ATOM     20  N17 ZIN A   1      17.285  -5.242  10.667  0.00  0.00    -0.090 NA
ATOM     21  O18 ZIN A   1      17.108  -4.851  12.016  0.00  0.00    -0.060 OA
BRANCH  19  22
ATOM     22  C19 ZIN A   1      18.379  -5.057   8.526  0.00  0.00     0.102 A 
ATOM     23  N24 ZIN A   1      18.758  -4.153   7.623  0.00  0.00    -0.222 NA
ATOM     24  C22 ZIN A   1      18.830  -4.551   6.391  0.00  0.00     0.164 A 
ATOM     25  S21 ZIN A   1      18.369  -6.247   6.292  0.00  0.00    -0.062 SA
ATOM     26  C20 ZIN A   1      18.107  -6.282   8.034  0.00  0.00     0.087 A 
BRANCH  24  27
ATOM     27  N23 ZIN A   1      19.206  -3.761   5.317  0.00  0.00    -0.378 N 
ATOM     28  H34 ZIN A   1      18.860  -2.859   5.233  0.00  0.00     0.158 HD
ATOM     29  H35 ZIN A   1      19.815  -4.112   4.648  0.00  0.00     0.158 HD
ENDBRANCH  24  27
ENDBRANCH  19  22
ENDBRANCH   2  19
TORSDOF 6
ENDMDL
MODEL 9
REMARK VINA RESULT:      -6.8      3.481      8.140
REMARK  6 active torsions:
REMARK  status: ('A' for Active; 'I' for Inactive)
REMARK    1  A    between atoms: C2_2  and  C3_3 
REMARK    2  A    between atoms: C4_4  and  C5_5 
REMARK    3  A    between atoms: C11_11  and  N13_12 
REMARK       I    between atoms: N13_12  and  C14_13 
REMARK    4  A    between atoms: C14_13  and  C16_15 
REMARK    5  A    between atoms: C16_15  and  C19_18 
REMARK    6  A    between atoms: C22_21  and  N23_22 
ROOT
ATOM      1  N13 ZIN A   1      18.746  -1.936  11.244  0.00  0.00    -0.339 N 
ATOM      2  C14 ZIN A   1      18.284  -1.162  12.245  0.00  0.00     0.275 C 
ATOM      3  O15 ZIN A   1      17.094  -1.131  12.490  0.00  0.00    -0.266 OA
ATOM      4  H32 ZIN A   1      19.702  -2.020  11.098  0.00  0.00     0.163 HD
ENDROOT
BRANCH   1   5
ATOM      5  C11 ZIN A   1      17.807  -2.650  10.377  0.00  0.00     0.211 C 
ATOM      6  C9  ZIN A   1      18.460  -3.538   9.344  0.00  0.00     0.251 C 
ATOM      7  N8  ZIN A   1      18.344  -2.680   8.338  0.00  0.00    -0.293 N 
ATOM      8  O10 ZIN A   1      18.930  -4.654   9.412  0.00  0.00    -0.271 OA
ATOM      9  C4  ZIN A   1      18.859  -2.371   7.075  0.00  0.00     0.122 C 
ATOM     10  C25 ZIN A   1      17.380  -1.878   9.140  0.00  0.00     0.187 C 
ATOM     11  C3  ZIN A   1      18.788  -1.107   6.610  0.00  0.00    -0.016 C 
ATOM     12  C28 ZIN A   1      18.137   0.068   7.263  0.00  0.00     0.117 C 
ATOM     13  S27 ZIN A   1      17.942  -0.144   9.069  0.00  0.00    -0.136 SA
BRANCH   9  14
ATOM     14  C5  ZIN A   1      19.478  -3.418   6.260  0.00  0.00     0.227 C 
ATOM     15  O6  ZIN A   1      18.863  -3.906   5.320  0.00  0.00    -0.643 OA
ATOM     16  O7  ZIN A   1      20.610  -3.806   6.519  0.00  0.00    -0.643 OA
ENDBRANCH   9  14
BRANCH  11  17
ATOM     17  C2  ZIN A   1      19.426  -0.856   5.319  0.00  0.00     0.000 C 
ATOM     18  C1  ZIN A   1      18.812  -0.098   4.407  0.00  0.00     0.012 C 
ENDBRANCH  11  17
ENDBRANCH   1   5
BRANCH   2  19
ATOM     19  C16 ZIN A   1      19.227  -0.349  13.050  0.00  0.00     0.183 C 
ATOM     20  N17 ZIN A   1      20.261   0.203  12.480  0.00  0.00    -0.090 NA
ATOM     21  O18 ZIN A   1      20.427   0.115  11.077  0.00  0.00    -0.060 OA
BRANCH  19  22
ATOM     22  C19 ZIN A   1      18.992  -0.161  14.497  0.00  0.00     0.102 A 
ATOM     23  N24 ZIN A   1      18.623   1.010  15.015  0.00  0.00    -0.222 NA
ATOM     24  C22 ZIN A   1      18.441   1.052  16.298  0.00  0.00     0.164 A 
ATOM     25  S21 ZIN A   1      18.768  -0.533  16.991  0.00  0.00    -0.062 SA
ATOM     26  C20 ZIN A   1      19.140  -1.162  15.388  0.00  0.00     0.087 A 
BRANCH  24  27
ATOM     27  N23 ZIN A   1      18.055   2.172  17.015  0.00  0.00    -0.378 N 
ATOM     28  H34 ZIN A   1      18.700   2.641  17.567  0.00  0.00     0.158 HD
ATOM     29  H35 ZIN A   1      17.139   2.488  16.964  0.00  0.00     0.158 HD
ENDBRANCH  24  27
ENDBRANCH  19  22
ENDBRANCH   2  19
TORSDOF 6
ENDMDL
