MODEL 1
REMARK VINA RESULT:      -6.9      0.000      0.000
REMARK  9 active torsions:
REMARK  status: ('A' for Active; 'I' for Inactive)
REMARK    1  A    between atoms: C2_2  and  O4_4 
REMARK    2  A    between atoms: O4_4  and  C5_5 
REMARK    3  A    between atoms: C9_9  and  O10_10 
REMARK    4  A    between atoms: O10_10  and  C11_11 
REMARK    5  A    between atoms: C11_11  and  C12_12 
REMARK    6  A    between atoms: C12_12  and  O14_13 
REMARK    7  A    between atoms: C12_12  and  C15_14 
REMARK    8  A    between atoms: C15_14  and  N16_15 
REMARK    9  A    between atoms: N16_15  and  C19_18 
ROOT
ATOM      1  C5  ZIN A   1      18.472  -1.574   6.729  0.00  0.00     0.091 A 
ATOM      2  C6  ZIN A   1      18.946  -2.500   7.645  0.00  0.00    -0.025 A 
ATOM      3  C7  ZIN A   1      18.781  -3.975   7.381  0.00  0.00     0.051 C 
ATOM      4  C8  ZIN A   1      19.571  -2.072   8.800  0.00  0.00     0.047 A 
ATOM      5  C9  ZIN A   1      19.724  -0.715   9.044  0.00  0.00     0.075 A 
ATOM      6  C22 ZIN A   1      19.250   0.212   8.128  0.00  0.00    -0.020 A 
ATOM      7  C23 ZIN A   1      19.415   1.686   8.392  0.00  0.00     0.052 C 
ATOM      8  C24 ZIN A   1      18.630  -0.217   6.970  0.00  0.00    -0.019 A 
ATOM      9  C25 ZIN A   1      18.114   0.790   5.974  0.00  0.00     0.052 C 
ENDROOT
BRANCH   5  10
ATOM     10  O10 ZIN A   1      20.339  -0.294  10.181  0.00  0.00    -0.348 OA
BRANCH  10  11
ATOM     11  C11 ZIN A   1      19.607  -0.422  11.402  0.00  0.00     0.209 C 
BRANCH  11  12
ATOM     12  C12 ZIN A   1      20.260   0.445  12.480  0.00  0.00     0.168 C 
BRANCH  12  13
ATOM     13  O14 ZIN A   1      21.642   0.632  12.169  0.00  0.00    -0.392 OA
ATOM     14  H35 ZIN A   1      21.826   1.435  11.662  0.00  0.00     0.210 HD
ENDBRANCH  12  13
BRANCH  12  15
ATOM     15  C15 ZIN A   1      19.560   1.805  12.534  0.00  0.00     0.266 C 
BRANCH  15  16
ATOM     16  N16 ZIN A   1      20.370   2.800  11.820  0.00  0.00    -0.069 N 
ATOM     17  H17 ZIN A   1      21.215   2.982  12.340  0.00  0.00     0.277 HD
ATOM     18  H18 ZIN A   1      20.609   2.447  10.904  0.00  0.00     0.277 HD
BRANCH  16  19
ATOM     19  C19 ZIN A   1      19.605   4.046  11.680  0.00  0.00     0.178 C 
ATOM     20  C20 ZIN A   1      18.171   3.718  11.258  0.00  0.00     0.039 C 
ATOM     21  C21 ZIN A   1      19.586   4.787  13.018  0.00  0.00     0.039 C 
ENDBRANCH  16  19
ENDBRANCH  15  16
ENDBRANCH  12  15
ENDBRANCH  11  12
ENDBRANCH  10  11
ENDBRANCH   5  10
BRANCH   1  22
ATOM     22  O4  ZIN A   1      17.858  -1.996   5.591  0.00  0.00    -0.278 OA
BRANCH  22  23
ATOM     23  C2  ZIN A   1      18.649  -2.418   4.592  0.00  0.00     0.260 C 
ATOM     24  C1  ZIN A   1      18.308  -3.680   3.843  0.00  0.00     0.126 C 
ATOM     25  O3  ZIN A   1      19.635  -1.786   4.294  0.00  0.00    -0.265 OA
ENDBRANCH  22  23
ENDBRANCH   1  22
TORSDOF 9
ENDMDL
MODEL 2
REMARK VINA RESULT:      -6.8      3.541      8.123
REMARK  9 active torsions:
REMARK  status: ('A' for Active; 'I' for Inactive)
REMARK    1  A    between atoms: C2_2  and  O4_4 
REMARK    2  A    between atoms: O4_4  and  C5_5 
REMARK    3  A    between atoms: C9_9  and  O10_10 
REMARK    4  A    between atoms: O10_10  and  C11_11 
REMARK    5  A    between atoms: C11_11  and  C12_12 
REMARK    6  A    between atoms: C12_12  and  O14_13 
REMARK    7  A    between atoms: C12_12  and  C15_14 
REMARK    8  A    between atoms: C15_14  and  N16_15 
REMARK    9  A    between atoms: N16_15  and  C19_18 
ROOT
ATOM      1  C5  ZIN A   1      18.018   0.858  16.039  0.00  0.00     0.091 A 
ATOM      2  C6  ZIN A   1      17.925  -0.477  15.677  0.00  0.00    -0.025 A 
ATOM      3  C7  ZIN A   1      17.657  -1.526  16.726  0.00  0.00     0.051 C 
ATOM      4  C8  ZIN A   1      18.079  -0.846  14.355  0.00  0.00     0.047 A 
ATOM      5  C9  ZIN A   1      18.325   0.119  13.390  0.00  0.00     0.075 A 
ATOM      6  C22 ZIN A   1      18.418   1.454  13.752  0.00  0.00    -0.020 A 
ATOM      7  C23 ZIN A   1      18.686   2.503  12.703  0.00  0.00     0.052 C 
ATOM      8  C24 ZIN A   1      18.258   1.824  15.073  0.00  0.00    -0.019 A 
ATOM      9  C25 ZIN A   1      18.359   3.276  15.467  0.00  0.00     0.052 C 
ENDROOT
BRANCH   5  10
ATOM     10  O10 ZIN A   1      18.476  -0.245  12.088  0.00  0.00    -0.348 OA
BRANCH  10  11
ATOM     11  C11 ZIN A   1      19.604  -1.061  11.768  0.00  0.00     0.209 C 
BRANCH  11  12
ATOM     12  C12 ZIN A   1      20.507  -0.317  10.782  0.00  0.00     0.168 C 
BRANCH  12  13
ATOM     13  O14 ZIN A   1      21.862  -0.730  10.972  0.00  0.00    -0.392 OA
ATOM     14  H35 ZIN A   1      22.217  -0.525  11.848  0.00  0.00     0.210 HD
ENDBRANCH  12  13
BRANCH  12  15
ATOM     15  C15 ZIN A   1      20.071  -0.638   9.351  0.00  0.00     0.266 C 
BRANCH  15  16
ATOM     16  N16 ZIN A   1      18.906   0.184   8.999  0.00  0.00    -0.069 N 
ATOM     17  H17 ZIN A   1      18.281  -0.351   8.415  0.00  0.00     0.277 HD
ATOM     18  H18 ZIN A   1      18.423   0.462   9.841  0.00  0.00     0.277 HD
BRANCH  16  19
ATOM     19  C19 ZIN A   1      19.351   1.380   8.272  0.00  0.00     0.178 C 
ATOM     20  C20 ZIN A   1      18.757   1.370   6.862  0.00  0.00     0.039 C 
ATOM     21  C21 ZIN A   1      18.881   2.633   9.014  0.00  0.00     0.039 C 
ENDBRANCH  16  19
ENDBRANCH  15  16
ENDBRANCH  12  15
ENDBRANCH  11  12
ENDBRANCH  10  11
ENDBRANCH   5  10
BRANCH   1  22
ATOM     22  O4  ZIN A   1      17.865   1.222  17.341  0.00  0.00    -0.278 OA
BRANCH  22  23
ATOM     23  C2  ZIN A   1      18.978   1.543  18.019  0.00  0.00     0.260 C 
ATOM     24  C1  ZIN A   1      19.091   2.888  18.689  0.00  0.00     0.126 C 
ATOM     25  O3  ZIN A   1      19.890   0.754  18.091  0.00  0.00    -0.265 OA
ENDBRANCH  22  23
ENDBRANCH   1  22
TORSDOF 9
ENDMDL
MODEL 3
REMARK VINA RESULT:      -6.7      0.853      2.287
REMARK  9 active torsions:
REMARK  status: ('A' for Active; 'I' for Inactive)
REMARK    1  A    between atoms: C2_2  and  O4_4 
REMARK    2  A    between atoms: O4_4  and  C5_5 
REMARK    3  A    between atoms: C9_9  and  O10_10 
REMARK    4  A    between atoms: O10_10  and  C11_11 
REMARK    5  A    between atoms: C11_11  and  C12_12 
REMARK    6  A    between atoms: C12_12  and  O14_13 
REMARK    7  A    between atoms: C12_12  and  C15_14 
REMARK    8  A    between atoms: C15_14  and  N16_15 
REMARK    9  A    between atoms: N16_15  and  C19_18 
ROOT
ATOM      1  C5  ZIN A   1      18.637  -1.314   7.350  0.00  0.00     0.091 A 
ATOM      2  C6  ZIN A   1      19.115  -0.130   7.891  0.00  0.00    -0.025 A 
ATOM      3  C7  ZIN A   1      19.030   1.149   7.098  0.00  0.00     0.051 C 
ATOM      4  C8  ZIN A   1      19.667  -0.122   9.156  0.00  0.00     0.047 A 
ATOM      5  C9  ZIN A   1      19.745  -1.299   9.887  0.00  0.00     0.075 A 
ATOM      6  C22 ZIN A   1      19.268  -2.483   9.346  0.00  0.00    -0.020 A 
ATOM      7  C23 ZIN A   1      19.352  -3.762  10.139  0.00  0.00     0.052 C 
ATOM      8  C24 ZIN A   1      18.710  -2.490   8.083  0.00  0.00    -0.019 A 
ATOM      9  C25 ZIN A   1      18.191  -3.777   7.495  0.00  0.00     0.052 C 
ENDROOT
BRANCH   5  10
ATOM     10  O10 ZIN A   1      20.289  -1.290  11.133  0.00  0.00    -0.348 OA
BRANCH  10  11
ATOM     11  C11 ZIN A   1      19.515  -0.693  12.176  0.00  0.00     0.209 C 
BRANCH  11  12
ATOM     12  C12 ZIN A   1      20.296   0.471  12.787  0.00  0.00     0.168 C 
BRANCH  12  13
ATOM     13  O14 ZIN A   1      21.587   0.550  12.180  0.00  0.00    -0.392 OA
ATOM     14  H35 ZIN A   1      21.685   0.001  11.391  0.00  0.00     0.210 HD
ENDBRANCH  12  13
BRANCH  12  15
ATOM     15  C15 ZIN A   1      19.537   1.777  12.544  0.00  0.00     0.266 C 
BRANCH  15  16
ATOM     16  N16 ZIN A   1      20.366   2.681  11.735  0.00  0.00    -0.069 N 
ATOM     17  H17 ZIN A   1      21.235   2.860  12.215  0.00  0.00     0.277 HD
ATOM     18  H18 ZIN A   1      20.557   2.254  10.841  0.00  0.00     0.277 HD
BRANCH  16  19
ATOM     19  C19 ZIN A   1      19.652   3.949  11.529  0.00  0.00     0.178 C 
ATOM     20  C20 ZIN A   1      18.394   3.694  10.695  0.00  0.00     0.039 C 
ATOM     21  C21 ZIN A   1      19.255   4.537  12.884  0.00  0.00     0.039 C 
ENDBRANCH  16  19
ENDBRANCH  15  16
ENDBRANCH  12  15
ENDBRANCH  11  12
ENDBRANCH  10  11
ENDBRANCH   5  10
BRANCH   1  22
ATOM     22  O4  ZIN A   1      18.091  -1.321   6.105  0.00  0.00    -0.278 OA
BRANCH  22  23
ATOM     23  C2  ZIN A   1      18.875  -1.739   5.098  0.00  0.00     0.260 C 
ATOM     24  C1  ZIN A   1      18.462  -2.925   4.264  0.00  0.00     0.126 C 
ATOM     25  O3  ZIN A   1      19.911  -1.165   4.861  0.00  0.00    -0.265 OA
ENDBRANCH  22  23
ENDBRANCH   1  22
TORSDOF 9
ENDMDL
MODEL 4
REMARK VINA RESULT:      -6.7      2.106      3.472
REMARK  9 active torsions:
REMARK  status: ('A' for Active; 'I' for Inactive)
REMARK    1  A    between atoms: C2_2  and  O4_4 
REMARK    2  A    between atoms: O4_4  and  C5_5 
REMARK    3  A    between atoms: C9_9  and  O10_10 
REMARK    4  A    between atoms: O10_10  and  C11_11 
REMARK    5  A    between atoms: C11_11  and  C12_12 
REMARK    6  A    between atoms: C12_12  and  O14_13 
REMARK    7  A    between atoms: C12_12  and  C15_14 
REMARK    8  A    between atoms: C15_14  and  N16_15 
REMARK    9  A    between atoms: N16_15  and  C19_18 
ROOT
ATOM      1  C5  ZIN A   1      18.156  -1.136   7.591  0.00  0.00     0.091 A 
ATOM      2  C6  ZIN A   1      18.418   0.225   7.628  0.00  0.00    -0.025 A 
ATOM      3  C7  ZIN A   1      18.675   0.979   6.348  0.00  0.00     0.051 C 
ATOM      4  C8  ZIN A   1      18.443   0.890   8.838  0.00  0.00     0.047 A 
ATOM      5  C9  ZIN A   1      18.205   0.197  10.016  0.00  0.00     0.075 A 
ATOM      6  C22 ZIN A   1      17.943  -1.164   9.979  0.00  0.00    -0.020 A 
ATOM      7  C23 ZIN A   1      17.686  -1.917  11.258  0.00  0.00     0.052 C 
ATOM      8  C24 ZIN A   1      17.913  -1.828   8.769  0.00  0.00    -0.019 A 
ATOM      9  C25 ZIN A   1      17.629  -3.308   8.728  0.00  0.00     0.052 C 
ENDROOT
BRANCH   5  10
ATOM     10  O10 ZIN A   1      18.229   0.854  11.207  0.00  0.00    -0.348 OA
BRANCH  10  11
ATOM     11  C11 ZIN A   1      19.478   1.418  11.613  0.00  0.00     0.209 C 
BRANCH  11  12
ATOM     12  C12 ZIN A   1      20.328   0.339  12.287  0.00  0.00     0.168 C 
BRANCH  12  13
ATOM     13  O14 ZIN A   1      21.713   0.650  12.119  0.00  0.00    -0.392 OA
ATOM     14  H35 ZIN A   1      22.260   0.437  12.887  0.00  0.00     0.210 HD
ENDBRANCH  12  13
BRANCH  12  15
ATOM     15  C15 ZIN A   1      19.995   0.286  13.779  0.00  0.00     0.266 C 
BRANCH  15  16
ATOM     16  N16 ZIN A   1      18.552   0.489  13.965  0.00  0.00    -0.069 N 
ATOM     17  H17 ZIN A   1      18.387   1.407  14.348  0.00  0.00     0.277 HD
ATOM     18  H18 ZIN A   1      18.082   0.407  13.075  0.00  0.00     0.277 HD
BRANCH  16  19
ATOM     19  C19 ZIN A   1      18.029  -0.527  14.889  0.00  0.00     0.178 C 
ATOM     20  C20 ZIN A   1      19.160  -1.470  15.302  0.00  0.00     0.039 C 
ATOM     21  C21 ZIN A   1      17.457   0.159  16.131  0.00  0.00     0.039 C 
ENDBRANCH  16  19
ENDBRANCH  15  16
ENDBRANCH  12  15
ENDBRANCH  11  12
ENDBRANCH  10  11
ENDBRANCH   5  10
BRANCH   1  22
ATOM     22  O4  ZIN A   1      18.130  -1.791   6.399  0.00  0.00    -0.278 OA
BRANCH  22  23
ATOM     23  C2  ZIN A   1      19.307  -2.214   5.910  0.00  0.00     0.260 C 
ATOM     24  C1  ZIN A   1      19.971  -3.434   6.494  0.00  0.00     0.126 C 
ATOM     25  O3  ZIN A   1      19.832  -1.616   5.002  0.00  0.00    -0.265 OA
ENDBRANCH  22  23
ENDBRANCH   1  22
TORSDOF 9
ENDMDL
MODEL 5
REMARK VINA RESULT:      -6.6      2.784      3.931
REMARK  9 active torsions:
REMARK  status: ('A' for Active; 'I' for Inactive)
REMARK    1  A    between atoms: C2_2  and  O4_4 
REMARK    2  A    between atoms: O4_4  and  C5_5 
REMARK    3  A    between atoms: C9_9  and  O10_10 
REMARK    4  A    between atoms: O10_10  and  C11_11 
REMARK    5  A    between atoms: C11_11  and  C12_12 
REMARK    6  A    between atoms: C12_12  and  O14_13 
REMARK    7  A    between atoms: C12_12  and  C15_14 
REMARK    8  A    between atoms: C15_14  and  N16_15 
REMARK    9  A    between atoms: N16_15  and  C19_18 
ROOT
ATOM      1  C5  ZIN A   1      18.002  -4.727   9.868  0.00  0.00     0.091 A 
ATOM      2  C6  ZIN A   1      17.947  -4.368  11.206  0.00  0.00    -0.025 A 
ATOM      3  C7  ZIN A   1      17.486  -5.367  12.237  0.00  0.00     0.051 C 
ATOM      4  C8  ZIN A   1      18.316  -3.096  11.595  0.00  0.00     0.047 A 
ATOM      5  C9  ZIN A   1      18.741  -2.176  10.647  0.00  0.00     0.075 A 
ATOM      6  C22 ZIN A   1      18.795  -2.535   9.309  0.00  0.00    -0.020 A 
ATOM      7  C23 ZIN A   1      19.256  -1.536   8.279  0.00  0.00     0.052 C 
ATOM      8  C24 ZIN A   1      18.432  -3.809   8.921  0.00  0.00    -0.019 A 
ATOM      9  C25 ZIN A   1      18.491  -4.200   7.466  0.00  0.00     0.052 C 
ENDROOT
BRANCH   5  10
ATOM     10  O10 ZIN A   1      19.104  -0.923  11.031  0.00  0.00    -0.348 OA
BRANCH  10  11
ATOM     11  C11 ZIN A   1      19.390  -0.726  12.417  0.00  0.00     0.209 C 
BRANCH  11  12
ATOM     12  C12 ZIN A   1      20.343   0.460  12.577  0.00  0.00     0.168 C 
BRANCH  12  13
ATOM     13  O14 ZIN A   1      21.516   0.238  11.792  0.00  0.00    -0.392 OA
ATOM     14  H35 ZIN A   1      21.938  -0.618  11.947  0.00  0.00     0.210 HD
ENDBRANCH  12  13
BRANCH  12  15
ATOM     15  C15 ZIN A   1      19.648   1.739  12.105  0.00  0.00     0.266 C 
BRANCH  15  16
ATOM     16  N16 ZIN A   1      20.112   2.077  10.753  0.00  0.00    -0.069 N 
ATOM     17  H17 ZIN A   1      20.852   2.759  10.812  0.00  0.00     0.277 HD
ATOM     18  H18 ZIN A   1      20.457   1.245  10.297  0.00  0.00     0.277 HD
BRANCH  16  19
ATOM     19  C19 ZIN A   1      18.995   2.633   9.977  0.00  0.00     0.178 C 
ATOM     20  C20 ZIN A   1      19.059   2.105   8.543  0.00  0.00     0.039 C 
ATOM     21  C21 ZIN A   1      17.670   2.214  10.617  0.00  0.00     0.039 C 
ENDBRANCH  16  19
ENDBRANCH  15  16
ENDBRANCH  12  15
ENDBRANCH  11  12
ENDBRANCH  10  11
ENDBRANCH   5  10
BRANCH   1  22
ATOM     22  O4  ZIN A   1      17.640  -5.981   9.485  0.00  0.00    -0.278 OA
BRANCH  22  23
ATOM     23  C2  ZIN A   1      16.415  -6.128   8.956  0.00  0.00     0.260 C 
ATOM     24  C1  ZIN A   1      16.161  -7.202   7.930  0.00  0.00     0.126 C 
ATOM     25  O3  ZIN A   1      15.517  -5.399   9.303  0.00  0.00    -0.265 OA
ENDBRANCH  22  23
ENDBRANCH   1  22
TORSDOF 9
ENDMDL
MODEL 6
REMARK VINA RESULT:      -6.5      2.845      4.448
REMARK  9 active torsions:
REMARK  status: ('A' for Active; 'I' for Inactive)
REMARK    1  A    between atoms: C2_2  and  O4_4 
REMARK    2  A    between atoms: O4_4  and  C5_5 
REMARK    3  A    between atoms: C9_9  and  O10_10 
REMARK    4  A    between atoms: O10_10  and  C11_11 
REMARK    5  A    between atoms: C11_11  and  C12_12 
REMARK    6  A    between atoms: C12_12  and  O14_13 
REMARK    7  A    between atoms: C12_12  and  C15_14 
REMARK    8  A    between atoms: C15_14  and  N16_15 
REMARK    9  A    between atoms: N16_15  and  C19_18 
ROOT
ATOM      1  C5  ZIN A   1      19.543   0.260   9.744  0.00  0.00     0.091 A 
ATOM      2  C6  ZIN A   1      19.517  -0.158  11.066  0.00  0.00    -0.025 A 
ATOM      3  C7  ZIN A   1      20.014  -1.533  11.432  0.00  0.00     0.051 C 
ATOM      4  C8  ZIN A   1      19.036   0.687  12.048  0.00  0.00     0.047 A 
ATOM      5  C9  ZIN A   1      18.579   1.952  11.711  0.00  0.00     0.075 A 
ATOM      6  C22 ZIN A   1      18.605   2.370  10.389  0.00  0.00    -0.020 A 
ATOM      7  C23 ZIN A   1      18.108   3.745  10.023  0.00  0.00     0.052 C 
ATOM      8  C24 ZIN A   1      19.092   1.528   9.409  0.00  0.00    -0.019 A 
ATOM      9  C25 ZIN A   1      19.120   1.982   7.971  0.00  0.00     0.052 C 
ENDROOT
BRANCH   5  10
ATOM     10  O10 ZIN A   1      18.106   2.783  12.678  0.00  0.00    -0.348 OA
BRANCH  10  11
ATOM     11  C11 ZIN A   1      19.073   3.447  13.495  0.00  0.00     0.209 C 
BRANCH  11  12
ATOM     12  C12 ZIN A   1      18.605   3.434  14.951  0.00  0.00     0.168 C 
BRANCH  12  13
ATOM     13  O14 ZIN A   1      17.259   3.908  15.023  0.00  0.00    -0.392 OA
ATOM     14  H35 ZIN A   1      16.781   3.864  14.184  0.00  0.00     0.210 HD
ENDBRANCH  12  13
BRANCH  12  15
ATOM     15  C15 ZIN A   1      18.673   2.005  15.495  0.00  0.00     0.266 C 
BRANCH  15  16
ATOM     16  N16 ZIN A   1      17.435   1.292  15.152  0.00  0.00    -0.069 N 
ATOM     17  H17 ZIN A   1      16.653   1.736  15.610  0.00  0.00     0.277 HD
ATOM     18  H18 ZIN A   1      17.297   1.317  14.152  0.00  0.00     0.277 HD
BRANCH  16  19
ATOM     19  C19 ZIN A   1      17.534  -0.104  15.598  0.00  0.00     0.178 C 
ATOM     20  C20 ZIN A   1      18.979  -0.584  15.451  0.00  0.00     0.039 C 
ATOM     21  C21 ZIN A   1      17.108  -0.204  17.064  0.00  0.00     0.039 C 
ENDBRANCH  16  19
ENDBRANCH  15  16
ENDBRANCH  12  15
ENDBRANCH  11  12
ENDBRANCH  10  11
ENDBRANCH   5  10
BRANCH   1  22
ATOM     22  O4  ZIN A   1      20.018  -0.571   8.778  0.00  0.00    -0.278 OA
BRANCH  22  23
ATOM     23  C2  ZIN A   1      19.114  -1.155   7.977  0.00  0.00     0.260 C 
ATOM     24  C1  ZIN A   1      17.846  -1.725   8.561  0.00  0.00     0.126 C 
ATOM     25  O3  ZIN A   1      19.315  -1.224   6.788  0.00  0.00    -0.265 OA
ENDBRANCH  22  23
ENDBRANCH   1  22
TORSDOF 9
ENDMDL
MODEL 7
REMARK VINA RESULT:      -6.4      2.020      2.595
REMARK  9 active torsions:
REMARK  status: ('A' for Active; 'I' for Inactive)
REMARK    1  A    between atoms: C2_2  and  O4_4 
REMARK    2  A    between atoms: O4_4  and  C5_5 
REMARK    3  A    between atoms: C9_9  and  O10_10 
REMARK    4  A    between atoms: O10_10  and  C11_11 
REMARK    5  A    between atoms: C11_11  and  C12_12 
REMARK    6  A    between atoms: C12_12  and  O14_13 
REMARK    7  A    between atoms: C12_12  and  C15_14 
REMARK    8  A    between atoms: C15_14  and  N16_15 
REMARK    9  A    between atoms: N16_15  and  C19_18 
ROOT
ATOM      1  C5  ZIN A   1      19.190  -1.382   6.661  0.00  0.00     0.091 A 
ATOM      2  C6  ZIN A   1      19.252  -2.665   7.183  0.00  0.00    -0.025 A 
ATOM      3  C7  ZIN A   1      19.766  -3.800   6.335  0.00  0.00     0.051 C 
ATOM      4  C8  ZIN A   1      18.844  -2.902   8.481  0.00  0.00     0.047 A 
ATOM      5  C9  ZIN A   1      18.372  -1.858   9.262  0.00  0.00     0.075 A 
ATOM      6  C22 ZIN A   1      18.310  -0.575   8.740  0.00  0.00    -0.020 A 
ATOM      7  C23 ZIN A   1      17.796   0.561   9.588  0.00  0.00     0.052 C 
ATOM      8  C24 ZIN A   1      18.723  -0.336   7.444  0.00  0.00    -0.019 A 
ATOM      9  C25 ZIN A   1      18.655   1.059   6.876  0.00  0.00     0.052 C 
ENDROOT
BRANCH   5  10
ATOM     10  O10 ZIN A   1      17.970  -2.092  10.540  0.00  0.00    -0.348 OA
BRANCH  10  11
ATOM     11  C11 ZIN A   1      18.343  -3.345  11.118  0.00  0.00     0.209 C 
BRANCH  11  12
ATOM     12  C12 ZIN A   1      19.469  -3.124  12.130  0.00  0.00     0.168 C 
BRANCH  12  13
ATOM     13  O14 ZIN A   1      20.714  -3.004  11.439  0.00  0.00    -0.392 OA
ATOM     14  H35 ZIN A   1      20.847  -2.147  11.013  0.00  0.00     0.210 HD
ENDBRANCH  12  13
BRANCH  12  15
ATOM     15  C15 ZIN A   1      19.199  -1.842  12.920  0.00  0.00     0.266 C 
BRANCH  15  16
ATOM     16  N16 ZIN A   1      20.046  -0.760  12.401  0.00  0.00    -0.069 N 
ATOM     17  H17 ZIN A   1      21.011  -0.953  12.620  0.00  0.00     0.277 HD
ATOM     18  H18 ZIN A   1      19.935  -0.695  11.399  0.00  0.00     0.277 HD
BRANCH  16  19
ATOM     19  C19 ZIN A   1      19.650   0.513  13.020  0.00  0.00     0.178 C 
ATOM     20  C20 ZIN A   1      20.000   1.667  12.079  0.00  0.00     0.039 C 
ATOM     21  C21 ZIN A   1      18.143   0.506  13.281  0.00  0.00     0.039 C 
ENDBRANCH  16  19
ENDBRANCH  15  16
ENDBRANCH  12  15
ENDBRANCH  11  12
ENDBRANCH  10  11
ENDBRANCH   5  10
BRANCH   1  22
ATOM     22  O4  ZIN A   1      19.594  -1.147   5.384  0.00  0.00    -0.278 OA
BRANCH  22  23
ATOM     23  C2  ZIN A   1      18.636  -0.893   4.478  0.00  0.00     0.260 C 
ATOM     24  C1  ZIN A   1      17.474  -1.840   4.323  0.00  0.00     0.126 C 
ATOM     25  O3  ZIN A   1      18.705   0.096   3.788  0.00  0.00    -0.265 OA
ENDBRANCH  22  23
ENDBRANCH   1  22
TORSDOF 9
ENDMDL
MODEL 8
REMARK VINA RESULT:      -6.4      3.667      5.686
REMARK  9 active torsions:
REMARK  status: ('A' for Active; 'I' for Inactive)
REMARK    1  A    between atoms: C2_2  and  O4_4 
REMARK    2  A    between atoms: O4_4  and  C5_5 
REMARK    3  A    between atoms: C9_9  and  O10_10 
REMARK    4  A    between atoms: O10_10  and  C11_11 
REMARK    5  A    between atoms: C11_11  and  C12_12 
REMARK    6  A    between atoms: C12_12  and  O14_13 
REMARK    7  A    between atoms: C12_12  and  C15_14 
REMARK    8  A    between atoms: C15_14  and  N16_15 
REMARK    9  A    between atoms: N16_15  and  C19_18 
ROOT
ATOM      1  C5  ZIN A   1      17.692   1.405  10.621  0.00  0.00     0.091 A 
ATOM      2  C6  ZIN A   1      17.485   0.576  11.713  0.00  0.00    -0.025 A 
ATOM      3  C7  ZIN A   1      17.191  -0.888  11.503  0.00  0.00     0.051 C 
ATOM      4  C8  ZIN A   1      17.549   1.091  12.993  0.00  0.00     0.047 A 
ATOM      5  C9  ZIN A   1      17.820   2.437  13.186  0.00  0.00     0.075 A 
ATOM      6  C22 ZIN A   1      18.027   3.266  12.094  0.00  0.00    -0.020 A 
ATOM      7  C23 ZIN A   1      18.321   4.730  12.303  0.00  0.00     0.052 C 
ATOM      8  C24 ZIN A   1      17.969   2.750  10.815  0.00  0.00    -0.019 A 
ATOM      9  C25 ZIN A   1      18.194   3.652   9.627  0.00  0.00     0.052 C 
ENDROOT
BRANCH   5  10
ATOM     10  O10 ZIN A   1      17.883   2.944  14.447  0.00  0.00    -0.348 OA
BRANCH  10  11
ATOM     11  C11 ZIN A   1      18.937   2.467  15.286  0.00  0.00     0.209 C 
BRANCH  11  12
ATOM     12  C12 ZIN A   1      18.808   3.098  16.673  0.00  0.00     0.168 C 
BRANCH  12  13
ATOM     13  O14 ZIN A   1      17.872   4.176  16.622  0.00  0.00    -0.392 OA
ATOM     14  H35 ZIN A   1      18.006   4.778  15.876  0.00  0.00     0.210 HD
ENDBRANCH  12  13
BRANCH  12  15
ATOM     15  C15 ZIN A   1      18.316   2.043  17.668  0.00  0.00     0.266 C 
BRANCH  15  16
ATOM     16  N16 ZIN A   1      17.580   0.997  16.947  0.00  0.00    -0.069 N 
ATOM     17  H17 ZIN A   1      16.589   1.141  17.064  0.00  0.00     0.277 HD
ATOM     18  H18 ZIN A   1      17.811   1.037  15.964  0.00  0.00     0.277 HD
BRANCH  16  19
ATOM     19  C19 ZIN A   1      17.950  -0.321  17.482  0.00  0.00     0.178 C 
ATOM     20  C20 ZIN A   1      18.034  -1.331  16.336  0.00  0.00     0.039 C 
ATOM     21  C21 ZIN A   1      19.308  -0.225  18.179  0.00  0.00     0.039 C 
ENDBRANCH  16  19
ENDBRANCH  15  16
ENDBRANCH  12  15
ENDBRANCH  11  12
ENDBRANCH  10  11
ENDBRANCH   5  10
BRANCH   1  22
ATOM     22  O4  ZIN A   1      17.631   0.897   9.361  0.00  0.00    -0.278 OA
BRANCH  22  23
ATOM     23  C2  ZIN A   1      18.796   0.701   8.724  0.00  0.00     0.260 C 
ATOM     24  C1  ZIN A   1      18.925   1.045   7.263  0.00  0.00     0.126 C 
ATOM     25  O3  ZIN A   1      19.743   0.249   9.324  0.00  0.00    -0.265 OA
ENDBRANCH  22  23
ENDBRANCH   1  22
TORSDOF 9
ENDMDL
MODEL 9
REMARK VINA RESULT:      -6.4      3.701      6.257
REMARK  9 active torsions:
REMARK  status: ('A' for Active; 'I' for Inactive)
REMARK    1  A    between atoms: C2_2  and  O4_4 
REMARK    2  A    between atoms: O4_4  and  C5_5 
REMARK    3  A    between atoms: C9_9  and  O10_10 
REMARK    4  A    between atoms: O10_10  and  C11_11 
REMARK    5  A    between atoms: C11_11  and  C12_12 
REMARK    6  A    between atoms: C12_12  and  O14_13 
REMARK    7  A    between atoms: C12_12  and  C15_14 
REMARK    8  A    between atoms: C15_14  and  N16_15 
REMARK    9  A    between atoms: N16_15  and  C19_18 
ROOT
ATOM      1  C5  ZIN A   1      17.740   1.520  11.036  0.00  0.00     0.091 A 
ATOM      2  C6  ZIN A   1      17.959   2.869  11.270  0.00  0.00    -0.025 A 
ATOM      3  C7  ZIN A   1      18.085   3.824  10.111  0.00  0.00     0.051 C 
ATOM      4  C8  ZIN A   1      18.060   3.338  12.565  0.00  0.00     0.047 A 
ATOM      5  C9  ZIN A   1      17.943   2.460  13.632  0.00  0.00     0.075 A 
ATOM      6  C22 ZIN A   1      17.724   1.111  13.398  0.00  0.00    -0.020 A 
ATOM      7  C23 ZIN A   1      17.597   0.156  14.558  0.00  0.00     0.052 C 
ATOM      8  C24 ZIN A   1      17.617   0.643  12.104  0.00  0.00    -0.019 A 
ATOM      9  C25 ZIN A   1      17.379  -0.824  11.850  0.00  0.00     0.052 C 
ENDROOT
BRANCH   5  10
ATOM     10  O10 ZIN A   1      18.042   2.923  14.907  0.00  0.00    -0.348 OA
BRANCH  10  11
ATOM     11  C11 ZIN A   1      18.569   4.240  15.081  0.00  0.00     0.209 C 
BRANCH  11  12
ATOM     12  C12 ZIN A   1      19.639   4.220  16.173  0.00  0.00     0.168 C 
BRANCH  12  13
ATOM     13  O14 ZIN A   1      19.930   5.559  16.579  0.00  0.00    -0.392 OA
ATOM     14  H35 ZIN A   1      20.849   5.699  16.844  0.00  0.00     0.210 HD
ENDBRANCH  12  13
BRANCH  12  15
ATOM     15  C15 ZIN A   1      19.127   3.422  17.374  0.00  0.00     0.266 C 
BRANCH  15  16
ATOM     16  N16 ZIN A   1      19.405   1.995  17.167  0.00  0.00    -0.069 N 
ATOM     17  H17 ZIN A   1      18.880   1.661  16.373  0.00  0.00     0.277 HD
ATOM     18  H18 ZIN A   1      20.392   1.865  16.996  0.00  0.00     0.277 HD
BRANCH  16  19
ATOM     19  C19 ZIN A   1      19.013   1.241  18.365  0.00  0.00     0.178 C 
ATOM     20  C20 ZIN A   1      17.529   1.477  18.653  0.00  0.00     0.039 C 
ATOM     21  C21 ZIN A   1      19.257  -0.251  18.131  0.00  0.00     0.039 C 
ENDBRANCH  16  19
ENDBRANCH  15  16
ENDBRANCH  12  15
ENDBRANCH  11  12
ENDBRANCH  10  11
ENDBRANCH   5  10
BRANCH   1  22
ATOM     22  O4  ZIN A   1      17.638   1.059   9.761  0.00  0.00    -0.278 OA
BRANCH  22  23
ATOM     23  C2  ZIN A   1      18.784   0.868   9.089  0.00  0.00     0.260 C 
ATOM     24  C1  ZIN A   1      18.876   1.246   7.633  0.00  0.00     0.126 C 
ATOM     25  O3  ZIN A   1      19.742   0.392   9.651  0.00  0.00    -0.265 OA
ENDBRANCH  22  23
ENDBRANCH   1  22
TORSDOF 9
ENDMDL
