MODEL 1
REMARK VINA RESULT:      -7.9      0.000      0.000
REMARK  8 active torsions:
REMARK  status: ('A' for Active; 'I' for Inactive)
REMARK    1  A    between atoms: C2_2  and  C3_3 
REMARK    2  A    between atoms: C3_3  and  N4_4 
REMARK    3  A    between atoms: C7_7  and  C9_8 
REMARK       I    between atoms: C9_8  and  N11_10 
REMARK    4  A    between atoms: N11_10  and  C12_11 
REMARK       I    between atoms: N11_10  and  C19_18 
REMARK    5  A    between atoms: C12_11  and  C13_12 
REMARK    6  A    between atoms: C13_12  and  C14_13 
REMARK    7  A    between atoms: C14_13  and  N15_14 
REMARK       I    between atoms: C19_18  and  N21_20 
REMARK    8  A    between atoms: N21_20  and  C22_21 
ROOT
ATOM      1  N4  <0> d   1      19.983   0.076   9.933  0.00  0.00    -0.062 N 
ATOM      2  H5  <0> d   1      20.818   0.193   9.379  0.00  0.00     0.280 HD
ATOM      3  C6  <0> d   1      20.261   0.461  11.322  0.00  0.00     0.249 C 
ATOM      4  C7  <0> d   1      18.974   0.366  12.145  0.00  0.00     0.105 C 
ATOM      5  C24 <0> d   1      18.464  -1.078  12.111  0.00  0.00     0.027 C 
ATOM      6  C25 <0> d   1      18.250  -1.503  10.654  0.00  0.00     0.051 C 
ATOM      7  C27 <0> d   1      17.808  -2.934  10.612  0.00  0.00    -0.039 A 
ATOM      8  C28 <0> d   1      18.183  -3.669   9.485  0.00  0.00     0.005 A 
ATOM      9  C29 <0> d   1      18.977  -3.166   8.363  0.00  0.00    -0.028 A 
ATOM     10  C30 <0> d   1      19.090  -4.184   7.524  0.00  0.00     0.096 A 
ATOM     11  N31 <0> d   1      18.434  -5.298   8.028  0.00  0.00    -0.365 N 
ATOM     12  C32 <0> d   1      17.873  -5.011   9.236  0.00  0.00     0.043 A 
ATOM     13  C33 <0> d   1      17.125  -5.683  10.202  0.00  0.00     0.030 A 
ATOM     14  C34 <0> d   1      16.755  -4.957  11.325  0.00  0.00     0.003 A 
ATOM     15  C35 <0> d   1      17.082  -3.617  11.536  0.00  0.00     0.008 A 
ATOM     16  C36 <0> d   1      19.454  -1.737   8.400  0.00  0.00     0.075 C 
ATOM     17  C37 <0> d   1      19.555  -1.329   9.880  0.00  0.00     0.201 C 
ATOM     18  H67 <0> d   1      18.382  -6.158   7.584  0.00  0.00     0.165 HD
ENDROOT
BRANCH   4  19
ATOM     19  C9  <0> d   1      19.257   0.767  13.570  0.00  0.00     0.233 C 
ATOM     20  O10 <0> d   1      19.628  -0.064  14.371  0.00  0.00    -0.272 OA
ATOM     21  N11 <0> d   1      19.099   2.049  13.952  0.00  0.00    -0.270 N 
ATOM     22  C19 <0> d   1      18.504   2.931  13.126  0.00  0.00     0.325 C 
ATOM     23  O20 <0> d   1      18.728   4.120  13.241  0.00  0.00    -0.247 OA
ATOM     24  N21 <0> d   1      17.659   2.494  12.171  0.00  0.00    -0.343 N 
ATOM     25  H58 <0> d   1      17.466   1.548  12.089  0.00  0.00     0.164 HD
BRANCH  21  26
ATOM     26  C12 <0> d   1      19.574   2.485  15.268  0.00  0.00     0.138 C 
BRANCH  26  27
ATOM     27  C13 <0> d   1      18.377   2.727  16.190  0.00  0.00     0.048 C 
BRANCH  27  28
ATOM     28  C14 <0> d   1      18.541   1.901  17.467  0.00  0.00     0.235 C 
BRANCH  28  29
ATOM     29  N15 <0> d   1      18.597   0.475  17.125  0.00  0.00    -0.079 N 
ATOM     30  H16 <0> d   1      19.087   0.357  16.250  0.00  0.00     0.278 HD
ATOM     31  C17 <0> d   1      19.306  -0.256  18.183  0.00  0.00     0.269 C 
ATOM     32  C18 <0> d   1      17.232  -0.053  16.997  0.00  0.00     0.269 C 
ENDBRANCH  28  29
ENDBRANCH  27  28
ENDBRANCH  26  27
ENDBRANCH  21  26
BRANCH  24  33
ATOM     33  C22 <0> d   1      17.032   3.451  11.254  0.00  0.00     0.120 C 
ATOM     34  C23 <0> d   1      18.112   4.130  10.409  0.00  0.00     0.026 C 
ENDBRANCH  24  33
ENDBRANCH   4  19
BRANCH   1  35
ATOM     35  C3  <0> d   1      18.916   0.931   9.394  0.00  0.00     0.262 C 
BRANCH  35  36
ATOM     36  C2  <0> d   1      19.450   1.725   8.229  0.00  0.00    -0.010 C 
ATOM     37  C1  <0> d   1      18.999   1.498   7.021  0.00  0.00     0.008 C 
ENDBRANCH  35  36
ENDBRANCH   1  35
TORSDOF 8
ENDMDL
MODEL 2
REMARK VINA RESULT:      -7.8      3.434      9.237
REMARK  8 active torsions:
REMARK  status: ('A' for Active; 'I' for Inactive)
REMARK    1  A    between atoms: C2_2  and  C3_3 
REMARK    2  A    between atoms: C3_3  and  N4_4 
REMARK    3  A    between atoms: C7_7  and  C9_8 
REMARK       I    between atoms: C9_8  and  N11_10 
REMARK    4  A    between atoms: N11_10  and  C12_11 
REMARK       I    between atoms: N11_10  and  C19_18 
REMARK    5  A    between atoms: C12_11  and  C13_12 
REMARK    6  A    between atoms: C13_12  and  C14_13 
REMARK    7  A    between atoms: C14_13  and  N15_14 
REMARK       I    between atoms: C19_18  and  N21_20 
REMARK    8  A    between atoms: N21_20  and  C22_21 
ROOT
ATOM      1  N4  <0> d   1      19.057  -3.723  10.627  0.00  0.00    -0.062 N 
ATOM      2  H5  <0> d   1      19.656  -4.195  11.286  0.00  0.00     0.280 HD
ATOM      3  C6  <0> d   1      19.311  -4.242   9.278  0.00  0.00     0.249 C 
ATOM      4  C7  <0> d   1      18.344  -3.588   8.289  0.00  0.00     0.105 C 
ATOM      5  C24 <0> d   1      18.565  -2.072   8.300  0.00  0.00     0.027 C 
ATOM      6  C25 <0> d   1      18.376  -1.546   9.726  0.00  0.00     0.051 C 
ATOM      7  C27 <0> d   1      18.650  -0.073   9.754  0.00  0.00    -0.039 A 
ATOM      8  C28 <0> d   1      19.165   0.443  10.946  0.00  0.00     0.005 A 
ATOM      9  C29 <0> d   1      19.470  -0.332  12.150  0.00  0.00    -0.028 A 
ATOM     10  C30 <0> d   1      19.928   0.546  13.029  0.00  0.00     0.096 A 
ATOM     11  N31 <0> d   1      19.943   1.817  12.477  0.00  0.00    -0.365 N 
ATOM     12  C32 <0> d   1      19.485   1.783  11.194  0.00  0.00     0.043 A 
ATOM     13  C33 <0> d   1      19.277   2.691  10.157  0.00  0.00     0.030 A 
ATOM     14  C34 <0> d   1      18.769   2.181   8.970  0.00  0.00     0.003 A 
ATOM     15  C35 <0> d   1      18.460   0.837   8.763  0.00  0.00     0.008 A 
ATOM     16  C36 <0> d   1      19.228  -1.820  12.131  0.00  0.00     0.075 C 
ATOM     17  C37 <0> d   1      19.329  -2.280  10.667  0.00  0.00     0.201 C 
ATOM     18  H67 <0> d   1      20.236   2.619  12.938  0.00  0.00     0.165 HD
ENDROOT
BRANCH   4  19
ATOM     19  C9  <0> d   1      18.600  -4.124   6.904  0.00  0.00     0.233 C 
ATOM     20  O10 <0> d   1      19.342  -3.530   6.151  0.00  0.00    -0.272 OA
ATOM     21  N11 <0> d   1      18.006  -5.266   6.503  0.00  0.00    -0.270 N 
ATOM     22  C19 <0> d   1      17.037  -5.821   7.256  0.00  0.00     0.325 C 
ATOM     23  O20 <0> d   1      16.802  -7.010   7.164  0.00  0.00    -0.247 OA
ATOM     24  N21 <0> d   1      16.327  -5.059   8.111  0.00  0.00    -0.343 N 
ATOM     25  H58 <0> d   1      16.503  -4.107   8.172  0.00  0.00     0.164 HD
BRANCH  21  26
ATOM     26  C12 <0> d   1      18.415  -5.903   5.249  0.00  0.00     0.138 C 
BRANCH  26  27
ATOM     27  C13 <0> d   1      17.382  -5.599   4.162  0.00  0.00     0.048 C 
BRANCH  27  28
ATOM     28  C14 <0> d   1      17.975  -4.611   3.156  0.00  0.00     0.235 C 
BRANCH  28  29
ATOM     29  N15 <0> d   1      16.963  -3.609   2.798  0.00  0.00    -0.079 N 
ATOM     30  H16 <0> d   1      17.227  -3.156   1.937  0.00  0.00     0.278 HD
ATOM     31  C17 <0> d   1      15.662  -4.269   2.625  0.00  0.00     0.269 C 
ATOM     32  C18 <0> d   1      16.865  -2.607   3.869  0.00  0.00     0.269 C 
ENDBRANCH  28  29
ENDBRANCH  27  28
ENDBRANCH  26  27
ENDBRANCH  21  26
BRANCH  24  33
ATOM     33  C22 <0> d   1      15.291  -5.667   8.949  0.00  0.00     0.120 C 
ATOM     34  C23 <0> d   1      14.066  -5.990   8.091  0.00  0.00     0.026 C 
ENDBRANCH  24  33
ENDBRANCH   4  19
BRANCH   1  35
ATOM     35  C3  <0> d   1      17.652  -3.963  10.985  0.00  0.00     0.262 C 
BRANCH  35  36
ATOM     36  C2  <0> d   1      17.582  -5.017  12.061  0.00  0.00    -0.010 C 
ATOM     37  C1  <0> d   1      17.383  -6.271  11.736  0.00  0.00     0.008 C 
ENDBRANCH  35  36
ENDBRANCH   1  35
TORSDOF 8
ENDMDL
MODEL 3
REMARK VINA RESULT:      -7.7      2.273      4.597
REMARK  8 active torsions:
REMARK  status: ('A' for Active; 'I' for Inactive)
REMARK    1  A    between atoms: C2_2  and  C3_3 
REMARK    2  A    between atoms: C3_3  and  N4_4 
REMARK    3  A    between atoms: C7_7  and  C9_8 
REMARK       I    between atoms: C9_8  and  N11_10 
REMARK    4  A    between atoms: N11_10  and  C12_11 
REMARK       I    between atoms: N11_10  and  C19_18 
REMARK    5  A    between atoms: C12_11  and  C13_12 
REMARK    6  A    between atoms: C13_12  and  C14_13 
REMARK    7  A    between atoms: C14_13  and  N15_14 
REMARK       I    between atoms: C19_18  and  N21_20 
REMARK    8  A    between atoms: N21_20  and  C22_21 
ROOT
ATOM      1  N4  <0> d   1      17.678  -1.407  10.600  0.00  0.00    -0.062 N 
ATOM      2  H5  <0> d   1      17.028  -2.133  10.861  0.00  0.00     0.280 HD
ATOM      3  C6  <0> d   1      17.198  -0.117  11.111  0.00  0.00     0.249 C 
ATOM      4  C7  <0> d   1      18.224   0.972  10.790  0.00  0.00     0.105 C 
ATOM      5  C24 <0> d   1      18.403   1.061   9.271  0.00  0.00     0.027 C 
ATOM      6  C25 <0> d   1      18.827  -0.309   8.732  0.00  0.00     0.051 C 
ATOM      7  C27 <0> d   1      18.944  -0.243   7.239  0.00  0.00    -0.039 A 
ATOM      8  C28 <0> d   1      18.669  -1.421   6.540  0.00  0.00     0.005 A 
ATOM      9  C29 <0> d   1      18.266  -2.694   7.138  0.00  0.00    -0.028 A 
ATOM     10  C30 <0> d   1      18.116  -3.531   6.123  0.00  0.00     0.096 A 
ATOM     11  N31 <0> d   1      18.388  -2.887   4.925  0.00  0.00    -0.365 N 
ATOM     12  C32 <0> d   1      18.725  -1.587   5.151  0.00  0.00     0.043 A 
ATOM     13  C33 <0> d   1      19.082  -0.474   4.390  0.00  0.00     0.030 A 
ATOM     14  C34 <0> d   1      19.350   0.699   5.082  0.00  0.00     0.003 A 
ATOM     15  C35 <0> d   1      19.287   0.823   6.470  0.00  0.00     0.008 A 
ATOM     16  C36 <0> d   1      18.116  -2.773   8.636  0.00  0.00     0.075 C 
ATOM     17  C37 <0> d   1      17.790  -1.355   9.136  0.00  0.00     0.201 C 
ATOM     18  H67 <0> d   1      18.346  -3.303   4.050  0.00  0.00     0.165 HD
ENDROOT
BRANCH   4  19
ATOM     19  C9  <0> d   1      17.736   2.296  11.318  0.00  0.00     0.233 C 
ATOM     20  O10 <0> d   1      17.156   3.066  10.583  0.00  0.00    -0.272 OA
ATOM     21  N11 <0> d   1      17.942   2.623  12.610  0.00  0.00    -0.270 N 
ATOM     22  C19 <0> d   1      18.751   1.866  13.375  0.00  0.00     0.325 C 
ATOM     23  O20 <0> d   1      18.621   1.867  14.584  0.00  0.00    -0.247 OA
ATOM     24  N21 <0> d   1      19.706   1.106  12.802  0.00  0.00    -0.343 N 
ATOM     25  H58 <0> d   1      19.822   1.118  11.840  0.00  0.00     0.164 HD
BRANCH  21  26
ATOM     26  C12 <0> d   1      17.287   3.803  13.180  0.00  0.00     0.138 C 
BRANCH  26  27
ATOM     27  C13 <0> d   1      18.266   4.979  13.184  0.00  0.00     0.048 C 
BRANCH  27  28
ATOM     28  C14 <0> d   1      18.549   5.403  14.627  0.00  0.00     0.235 C 
BRANCH  28  29
ATOM     29  N15 <0> d   1      19.864   4.894  15.038  0.00  0.00    -0.079 N 
ATOM     30  H16 <0> d   1      20.149   4.155  14.413  0.00  0.00     0.278 HD
ATOM     31  C17 <0> d   1      20.847   5.984  14.989  0.00  0.00     0.269 C 
ATOM     32  C18 <0> d   1      19.781   4.371  16.409  0.00  0.00     0.269 C 
ENDBRANCH  28  29
ENDBRANCH  27  28
ENDBRANCH  26  27
ENDBRANCH  21  26
BRANCH  24  33
ATOM     33  C22 <0> d   1      20.568   0.262  13.634  0.00  0.00     0.120 C 
ATOM     34  C23 <0> d   1      19.712  -0.766  14.377  0.00  0.00     0.026 C 
ENDBRANCH  24  33
ENDBRANCH   4  19
BRANCH   1  35
ATOM     35  C3  <0> d   1      18.996  -1.701  11.179  0.00  0.00     0.262 C 
BRANCH  35  36
ATOM     36  C2  <0> d   1      18.961  -3.051  11.848  0.00  0.00    -0.010 C 
ATOM     37  C1  <0> d   1      19.913  -3.921  11.618  0.00  0.00     0.008 C 
ENDBRANCH  35  36
ENDBRANCH   1  35
TORSDOF 8
ENDMDL
MODEL 4
REMARK VINA RESULT:      -7.7      2.503      8.391
REMARK  8 active torsions:
REMARK  status: ('A' for Active; 'I' for Inactive)
REMARK    1  A    between atoms: C2_2  and  C3_3 
REMARK    2  A    between atoms: C3_3  and  N4_4 
REMARK    3  A    between atoms: C7_7  and  C9_8 
REMARK       I    between atoms: C9_8  and  N11_10 
REMARK    4  A    between atoms: N11_10  and  C12_11 
REMARK       I    between atoms: N11_10  and  C19_18 
REMARK    5  A    between atoms: C12_11  and  C13_12 
REMARK    6  A    between atoms: C13_12  and  C14_13 
REMARK    7  A    between atoms: C14_13  and  N15_14 
REMARK       I    between atoms: C19_18  and  N21_20 
REMARK    8  A    between atoms: N21_20  and  C22_21 
ROOT
ATOM      1  N4  <0> d   1      19.796   0.020  12.874  0.00  0.00    -0.062 N 
ATOM      2  H5  <0> d   1      20.611  -0.083  13.459  0.00  0.00     0.280 HD
ATOM      3  C6  <0> d   1      20.119  -0.408  11.508  0.00  0.00     0.249 C 
ATOM      4  C7  <0> d   1      18.862  -0.333  10.639  0.00  0.00     0.105 C 
ATOM      5  C24 <0> d   1      18.357   1.113  10.612  0.00  0.00     0.027 C 
ATOM      6  C25 <0> d   1      18.096   1.582  12.047  0.00  0.00     0.051 C 
ATOM      7  C27 <0> d   1      17.659   3.016  12.031  0.00  0.00    -0.039 A 
ATOM      8  C28 <0> d   1      17.999   3.783  13.148  0.00  0.00     0.005 A 
ATOM      9  C29 <0> d   1      18.752   3.312  14.311  0.00  0.00    -0.028 A 
ATOM     10  C30 <0> d   1      18.841   4.355  15.122  0.00  0.00     0.096 A 
ATOM     11  N31 <0> d   1      18.208   5.454  14.562  0.00  0.00    -0.365 N 
ATOM     12  C32 <0> d   1      17.686   5.134  13.346  0.00  0.00     0.043 A 
ATOM     13  C33 <0> d   1      16.974   5.779  12.334  0.00  0.00     0.030 A 
ATOM     14  C34 <0> d   1      16.640   5.020  11.222  0.00  0.00     0.003 A 
ATOM     15  C35 <0> d   1      16.967   3.673  11.063  0.00  0.00     0.008 A 
ATOM     16  C36 <0> d   1      19.224   1.880  14.333  0.00  0.00     0.075 C 
ATOM     17  C37 <0> d   1      19.373   1.427  12.870  0.00  0.00     0.201 C 
ATOM     18  H67 <0> d   1      18.144   6.328  14.979  0.00  0.00     0.165 HD
ENDROOT
BRANCH   4  19
ATOM     19  C9  <0> d   1      19.191  -0.778   9.237  0.00  0.00     0.233 C 
ATOM     20  O10 <0> d   1      19.430   0.046   8.380  0.00  0.00    -0.272 OA
ATOM     21  N11 <0> d   1      19.220  -2.091   8.937  0.00  0.00    -0.270 N 
ATOM     22  C19 <0> d   1      18.766  -2.996   9.826  0.00  0.00     0.325 C 
ATOM     23  O20 <0> d   1      19.162  -4.144   9.781  0.00  0.00    -0.247 OA
ATOM     24  N21 <0> d   1      17.873  -2.628  10.766  0.00  0.00    -0.343 N 
ATOM     25  H58 <0> d   1      17.544  -1.716  10.792  0.00  0.00     0.164 HD
BRANCH  21  26
ATOM     26  C12 <0> d   1      19.746  -2.535   7.644  0.00  0.00     0.138 C 
BRANCH  26  27
ATOM     27  C13 <0> d   1      18.584  -2.923   6.726  0.00  0.00     0.048 C 
BRANCH  27  28
ATOM     28  C14 <0> d   1      18.674  -2.127   5.423  0.00  0.00     0.235 C 
BRANCH  28  29
ATOM     29  N15 <0> d   1      18.582  -0.692   5.719  0.00  0.00    -0.079 N 
ATOM     30  H16 <0> d   1      19.079  -0.492   6.574  0.00  0.00     0.278 HD
ATOM     31  C17 <0> d   1      19.177   0.075   4.617  0.00  0.00     0.269 C 
ATOM     32  C18 <0> d   1      17.171  -0.312   5.873  0.00  0.00     0.269 C 
ENDBRANCH  28  29
ENDBRANCH  27  28
ENDBRANCH  26  27
ENDBRANCH  21  26
BRANCH  24  33
ATOM     33  C22 <0> d   1      17.399  -3.606  11.750  0.00  0.00     0.120 C 
ATOM     34  C23 <0> d   1      16.519  -4.645  11.052  0.00  0.00     0.026 C 
ENDBRANCH  24  33
ENDBRANCH   4  19
BRANCH   1  35
ATOM     35  C3  <0> d   1      18.708  -0.814  13.402  0.00  0.00     0.262 C 
BRANCH  35  36
ATOM     36  C2  <0> d   1      19.182  -1.533  14.640  0.00  0.00    -0.010 C 
ATOM     37  C1  <0> d   1      18.513  -1.419  15.760  0.00  0.00     0.008 C 
ENDBRANCH  35  36
ENDBRANCH   1  35
TORSDOF 8
ENDMDL
MODEL 5
REMARK VINA RESULT:      -7.6      2.083      7.701
REMARK  8 active torsions:
REMARK  status: ('A' for Active; 'I' for Inactive)
REMARK    1  A    between atoms: C2_2  and  C3_3 
REMARK    2  A    between atoms: C3_3  and  N4_4 
REMARK    3  A    between atoms: C7_7  and  C9_8 
REMARK       I    between atoms: C9_8  and  N11_10 
REMARK    4  A    between atoms: N11_10  and  C12_11 
REMARK       I    between atoms: N11_10  and  C19_18 
REMARK    5  A    between atoms: C12_11  and  C13_12 
REMARK    6  A    between atoms: C13_12  and  C14_13 
REMARK    7  A    between atoms: C14_13  and  N15_14 
REMARK       I    between atoms: C19_18  and  N21_20 
REMARK    8  A    between atoms: N21_20  and  C22_21 
ROOT
ATOM      1  N4  <0> d   1      17.499   1.047  12.173  0.00  0.00    -0.062 N 
ATOM      2  H5  <0> d   1      16.830   1.781  11.996  0.00  0.00     0.280 HD
ATOM      3  C6  <0> d   1      16.992  -0.217  11.625  0.00  0.00     0.249 C 
ATOM      4  C7  <0> d   1      18.042  -1.313  11.817  0.00  0.00     0.105 C 
ATOM      5  C24 <0> d   1      18.320  -1.485  13.313  0.00  0.00     0.027 C 
ATOM      6  C25 <0> d   1      18.773  -0.143  13.898  0.00  0.00     0.051 C 
ATOM      7  C27 <0> d   1      18.988  -0.290  15.374  0.00  0.00    -0.039 A 
ATOM      8  C28 <0> d   1      18.755   0.846  16.154  0.00  0.00     0.005 A 
ATOM      9  C29 <0> d   1      18.308   2.147  15.655  0.00  0.00    -0.028 A 
ATOM     10  C30 <0> d   1      18.222   2.925  16.723  0.00  0.00     0.096 A 
ATOM     11  N31 <0> d   1      18.575   2.218  17.863  0.00  0.00    -0.365 N 
ATOM     12  C32 <0> d   1      18.902   0.935  17.544  0.00  0.00     0.043 A 
ATOM     13  C33 <0> d   1      19.313  -0.215  18.217  0.00  0.00     0.030 A 
ATOM     14  C34 <0> d   1      19.540  -1.345  17.445  0.00  0.00     0.003 A 
ATOM     15  C35 <0> d   1      19.386  -1.394  16.060  0.00  0.00     0.008 A 
ATOM     16  C36 <0> d   1      18.059   2.306  14.177  0.00  0.00     0.075 C 
ATOM     17  C37 <0> d   1      17.707   0.915  13.622  0.00  0.00     0.201 C 
ATOM     18  H67 <0> d   1      18.589   2.585  18.761  0.00  0.00     0.165 HD
ENDROOT
BRANCH   4  19
ATOM     19  C9  <0> d   1      17.526  -2.610  11.249  0.00  0.00     0.233 C 
ATOM     20  O10 <0> d   1      16.945  -3.398  11.966  0.00  0.00    -0.272 OA
ATOM     21  N11 <0> d   1      17.707  -2.894   9.944  0.00  0.00    -0.270 N 
ATOM     22  C19 <0> d   1      18.515  -2.121   9.193  0.00  0.00     0.325 C 
ATOM     23  O20 <0> d   1      18.366  -2.077   7.987  0.00  0.00    -0.247 OA
ATOM     24  N21 <0> d   1      19.490  -1.397   9.778  0.00  0.00    -0.343 N 
ATOM     25  H58 <0> d   1      19.620  -1.444  10.737  0.00  0.00     0.164 HD
BRANCH  21  26
ATOM     26  C12 <0> d   1      17.025  -4.042   9.342  0.00  0.00     0.138 C 
BRANCH  26  27
ATOM     27  C13 <0> d   1      17.956  -5.257   9.364  0.00  0.00     0.048 C 
BRANCH  27  28
ATOM     28  C14 <0> d   1      18.017  -5.878   7.967  0.00  0.00     0.235 C 
BRANCH  28  29
ATOM     29  N15 <0> d   1      18.658  -4.937   7.040  0.00  0.00    -0.079 N 
ATOM     30  H16 <0> d   1      18.453  -3.991   7.326  0.00  0.00     0.278 HD
ATOM     31  C17 <0> d   1      20.111  -5.149   7.055  0.00  0.00     0.269 C 
ATOM     32  C18 <0> d   1      18.144  -5.160   5.682  0.00  0.00     0.269 C 
ENDBRANCH  28  29
ENDBRANCH  27  28
ENDBRANCH  26  27
ENDBRANCH  21  26
BRANCH  24  33
ATOM     33  C22 <0> d   1      20.352  -0.535   8.964  0.00  0.00     0.120 C 
ATOM     34  C23 <0> d   1      19.511   0.574   8.329  0.00  0.00     0.026 C 
ENDBRANCH  24  33
ENDBRANCH   4  19
BRANCH   1  35
ATOM     35  C3  <0> d   1      18.774   1.383  11.527  0.00  0.00     0.262 C 
BRANCH  35  36
ATOM     36  C2  <0> d   1      18.708   2.788  10.986  0.00  0.00    -0.010 C 
ATOM     37  C1  <0> d   1      17.563   3.284  10.589  0.00  0.00     0.008 C 
ENDBRANCH  35  36
ENDBRANCH   1  35
TORSDOF 8
ENDMDL
MODEL 6
REMARK VINA RESULT:      -7.3      2.338      3.537
REMARK  8 active torsions:
REMARK  status: ('A' for Active; 'I' for Inactive)
REMARK    1  A    between atoms: C2_2  and  C3_3 
REMARK    2  A    between atoms: C3_3  and  N4_4 
REMARK    3  A    between atoms: C7_7  and  C9_8 
REMARK       I    between atoms: C9_8  and  N11_10 
REMARK    4  A    between atoms: N11_10  and  C12_11 
REMARK       I    between atoms: N11_10  and  C19_18 
REMARK    5  A    between atoms: C12_11  and  C13_12 
REMARK    6  A    between atoms: C13_12  and  C14_13 
REMARK    7  A    between atoms: C14_13  and  N15_14 
REMARK       I    between atoms: C19_18  and  N21_20 
REMARK    8  A    between atoms: N21_20  and  C22_21 
ROOT
ATOM      1  N4  <0> d   1      18.826   3.136  11.364  0.00  0.00    -0.062 N 
ATOM      2  H5  <0> d   1      19.447   3.668  10.773  0.00  0.00     0.280 HD
ATOM      3  C6  <0> d   1      19.306   3.192  12.750  0.00  0.00     0.249 C 
ATOM      4  C7  <0> d   1      18.320   2.457  13.661  0.00  0.00     0.105 C 
ATOM      5  C24 <0> d   1      18.221   0.995  13.217  0.00  0.00     0.027 C 
ATOM      6  C25 <0> d   1      17.797   0.943  11.745  0.00  0.00     0.051 C 
ATOM      7  C27 <0> d   1      17.757  -0.484  11.288  0.00  0.00    -0.039 A 
ATOM      8  C28 <0> d   1      18.043  -0.715   9.940  0.00  0.00     0.005 A 
ATOM      9  C29 <0> d   1      18.389   0.310   8.954  0.00  0.00    -0.028 A 
ATOM     10  C30 <0> d   1      18.573  -0.343   7.816  0.00  0.00     0.096 A 
ATOM     11  N31 <0> d   1      18.376  -1.702   8.004  0.00  0.00    -0.365 N 
ATOM     12  C32 <0> d   1      18.054  -1.960   9.302  0.00  0.00     0.043 A 
ATOM     13  C33 <0> d   1      17.760  -3.079  10.081  0.00  0.00     0.030 A 
ATOM     14  C34 <0> d   1      17.480  -2.853  11.421  0.00  0.00     0.003 A 
ATOM     15  C35 <0> d   1      17.476  -1.594  12.020  0.00  0.00     0.008 A 
ATOM     16  C36 <0> d   1      18.462   1.747   9.401  0.00  0.00     0.075 C 
ATOM     17  C37 <0> d   1      18.791   1.741  10.904  0.00  0.00     0.201 C 
ATOM     18  H67 <0> d   1      18.454  -2.374   7.309  0.00  0.00     0.165 HD
ENDROOT
BRANCH   4  19
ATOM     19  C9  <0> d   1      18.808   2.519  15.086  0.00  0.00     0.233 C 
ATOM     20  O10 <0> d   1      19.298   1.537  15.602  0.00  0.00    -0.272 OA
ATOM     21  N11 <0> d   1      18.701   3.666  15.785  0.00  0.00    -0.270 N 
ATOM     22  C19 <0> d   1      17.985   4.693  15.289  0.00  0.00     0.325 C 
ATOM     23  O20 <0> d   1      18.217   5.829  15.655  0.00  0.00    -0.247 OA
ATOM     24  N21 <0> d   1      17.010   4.462  14.387  0.00  0.00    -0.343 N 
ATOM     25  H58 <0> d   1      16.813   3.555  14.107  0.00  0.00     0.164 HD
BRANCH  21  26
ATOM     26  C12 <0> d   1      19.363   3.795  17.086  0.00  0.00     0.138 C 
BRANCH  26  27
ATOM     27  C13 <0> d   1      18.450   3.240  18.181  0.00  0.00     0.048 C 
BRANCH  27  28
ATOM     28  C14 <0> d   1      17.839   4.399  18.972  0.00  0.00     0.235 C 
BRANCH  28  29
ATOM     29  N15 <0> d   1      16.375   4.286  18.952  0.00  0.00    -0.079 N 
ATOM     30  H16 <0> d   1      16.107   3.468  18.426  0.00  0.00     0.278 HD
ATOM     31  C17 <0> d   1      15.874   4.170  20.328  0.00  0.00     0.269 C 
ATOM     32  C18 <0> d   1      15.800   5.483  18.322  0.00  0.00     0.269 C 
ENDBRANCH  28  29
ENDBRANCH  27  28
ENDBRANCH  26  27
ENDBRANCH  21  26
BRANCH  24  33
ATOM     33  C22 <0> d   1      16.249   5.583  13.827  0.00  0.00     0.120 C 
ATOM     34  C23 <0> d   1      15.046   5.881  14.724  0.00  0.00     0.026 C 
ENDBRANCH  24  33
ENDBRANCH   4  19
BRANCH   1  35
ATOM     35  C3  <0> d   1      17.475   3.708  11.292  0.00  0.00     0.262 C 
BRANCH  35  36
ATOM     36  C2  <0> d   1      17.430   4.753  10.207  0.00  0.00    -0.010 C 
ATOM     37  C1  <0> d   1      17.471   6.024  10.521  0.00  0.00     0.008 C 
ENDBRANCH  35  36
ENDBRANCH   1  35
TORSDOF 8
ENDMDL
MODEL 7
REMARK VINA RESULT:      -7.2      3.256      8.632
REMARK  8 active torsions:
REMARK  status: ('A' for Active; 'I' for Inactive)
REMARK    1  A    between atoms: C2_2  and  C3_3 
REMARK    2  A    between atoms: C3_3  and  N4_4 
REMARK    3  A    between atoms: C7_7  and  C9_8 
REMARK       I    between atoms: C9_8  and  N11_10 
REMARK    4  A    between atoms: N11_10  and  C12_11 
REMARK       I    between atoms: N11_10  and  C19_18 
REMARK    5  A    between atoms: C12_11  and  C13_12 
REMARK    6  A    between atoms: C13_12  and  C14_13 
REMARK    7  A    between atoms: C14_13  and  N15_14 
REMARK       I    between atoms: C19_18  and  N21_20 
REMARK    8  A    between atoms: N21_20  and  C22_21 
ROOT
ATOM      1  N4  <0> d   1      18.190  -1.514   8.251  0.00  0.00    -0.062 N 
ATOM      2  H5  <0> d   1      17.745  -0.848   7.639  0.00  0.00     0.280 HD
ATOM      3  C6  <0> d   1      17.349  -2.712   8.364  0.00  0.00     0.249 C 
ATOM      4  C7  <0> d   1      18.062  -3.757   9.225  0.00  0.00     0.105 C 
ATOM      5  C24 <0> d   1      18.306  -3.175  10.620  0.00  0.00     0.027 C 
ATOM      6  C25 <0> d   1      19.117  -1.881  10.492  0.00  0.00     0.051 C 
ATOM      7  C27 <0> d   1      19.308  -1.275  11.850  0.00  0.00    -0.039 A 
ATOM      8  C28 <0> d   1      19.406   0.117  11.902  0.00  0.00     0.005 A 
ATOM      9  C29 <0> d   1      19.323   1.023  10.755  0.00  0.00    -0.028 A 
ATOM     10  C30 <0> d   1      19.470   2.240  11.254  0.00  0.00     0.096 A 
ATOM     11  N31 <0> d   1      19.635   2.180  12.630  0.00  0.00    -0.365 N 
ATOM     12  C32 <0> d   1      19.593   0.887  13.056  0.00  0.00     0.043 A 
ATOM     13  C33 <0> d   1      19.685   0.206  14.270  0.00  0.00     0.030 A 
ATOM     14  C34 <0> d   1      19.583  -1.177  14.221  0.00  0.00     0.003 A 
ATOM     15  C35 <0> d   1      19.399  -1.910  13.048  0.00  0.00     0.008 A 
ATOM     16  C36 <0> d   1      19.104   0.434   9.385  0.00  0.00     0.075 C 
ATOM     17  C37 <0> d   1      18.377  -0.909   9.577  0.00  0.00     0.201 C 
ATOM     18  H67 <0> d   1      19.762   2.949  13.207  0.00  0.00     0.165 HD
ENDROOT
BRANCH   4  19
ATOM     19  C9  <0> d   1      17.202  -4.989   9.336  0.00  0.00     0.233 C 
ATOM     20  O10 <0> d   1      16.325  -5.043  10.172  0.00  0.00    -0.272 OA
ATOM     21  N11 <0> d   1      17.407  -6.031   8.506  0.00  0.00    -0.270 N 
ATOM     22  C19 <0> d   1      18.496  -6.057   7.714  0.00  0.00     0.325 C 
ATOM     23  O20 <0> d   1      18.490  -6.717   6.693  0.00  0.00    -0.247 OA
ATOM     24  N21 <0> d   1      19.593  -5.352   8.054  0.00  0.00    -0.343 N 
ATOM     25  H58 <0> d   1      19.605  -4.839   8.876  0.00  0.00     0.164 HD
BRANCH  21  26
ATOM     26  C12 <0> d   1      16.444  -7.135   8.465  0.00  0.00     0.138 C 
BRANCH  26  27
ATOM     27  C13 <0> d   1      15.315  -6.792   7.491  0.00  0.00     0.048 C 
BRANCH  27  28
ATOM     28  C14 <0> d   1      15.257  -7.846   6.384  0.00  0.00     0.235 C 
BRANCH  28  29
ATOM     29  N15 <0> d   1      15.738  -7.262   5.126  0.00  0.00    -0.079 N 
ATOM     30  H16 <0> d   1      16.730  -7.424   5.038  0.00  0.00     0.278 HD
ATOM     31  C17 <0> d   1      15.037  -7.886   3.997  0.00  0.00     0.269 C 
ATOM     32  C18 <0> d   1      15.477  -5.816   5.126  0.00  0.00     0.269 C 
ENDBRANCH  28  29
ENDBRANCH  27  28
ENDBRANCH  26  27
ENDBRANCH  21  26
BRANCH  24  33
ATOM     33  C22 <0> d   1      20.769  -5.359   7.179  0.00  0.00     0.120 C 
ATOM     34  C23 <0> d   1      22.001  -5.779   7.984  0.00  0.00     0.026 C 
ENDBRANCH  24  33
ENDBRANCH   4  19
BRANCH   1  35
ATOM     35  C3  <0> d   1      19.499  -1.887   7.698  0.00  0.00     0.262 C 
BRANCH  35  36
ATOM     36  C2  <0> d   1      19.384  -2.049   6.203  0.00  0.00    -0.010 C 
ATOM     37  C1  <0> d   1      19.261  -0.992   5.439  0.00  0.00     0.008 C 
ENDBRANCH  35  36
ENDBRANCH   1  35
TORSDOF 8
ENDMDL
MODEL 8
REMARK VINA RESULT:      -6.4      2.119      3.344
REMARK  8 active torsions:
REMARK  status: ('A' for Active; 'I' for Inactive)
REMARK    1  A    between atoms: C2_2  and  C3_3 
REMARK    2  A    between atoms: C3_3  and  N4_4 
REMARK    3  A    between atoms: C7_7  and  C9_8 
REMARK       I    between atoms: C9_8  and  N11_10 
REMARK    4  A    between atoms: N11_10  and  C12_11 
REMARK       I    between atoms: N11_10  and  C19_18 
REMARK    5  A    between atoms: C12_11  and  C13_12 
REMARK    6  A    between atoms: C13_12  and  C14_13 
REMARK    7  A    between atoms: C14_13  and  N15_14 
REMARK       I    between atoms: C19_18  and  N21_20 
REMARK    8  A    between atoms: N21_20  and  C22_21 
ROOT
ATOM      1  N4  <0> d   1      19.515   1.785  10.353  0.00  0.00    -0.062 N 
ATOM      2  H5  <0> d   1      20.173   2.534  10.200  0.00  0.00     0.280 HD
ATOM      3  C6  <0> d   1      19.913   1.023  11.543  0.00  0.00     0.249 C 
ATOM      4  C7  <0> d   1      18.870  -0.060  11.828  0.00  0.00     0.105 C 
ATOM      5  C24 <0> d   1      18.788  -1.004  10.624  0.00  0.00     0.027 C 
ATOM      6  C25 <0> d   1      18.450  -0.193   9.369  0.00  0.00     0.051 C 
ATOM      7  C27 <0> d   1      18.428  -1.103   8.178  0.00  0.00    -0.039 A 
ATOM      8  C28 <0> d   1      18.790  -0.536   6.954  0.00  0.00     0.005 A 
ATOM      9  C29 <0> d   1      19.200   0.854   6.745  0.00  0.00    -0.028 A 
ATOM     10  C30 <0> d   1      19.446   0.959   5.448  0.00  0.00     0.096 A 
ATOM     11  N31 <0> d   1      19.229  -0.257   4.817  0.00  0.00    -0.365 N 
ATOM     12  C32 <0> d   1      18.830  -1.196   5.720  0.00  0.00     0.043 A 
ATOM     13  C33 <0> d   1      18.483  -2.546   5.707  0.00  0.00     0.030 A 
ATOM     14  C34 <0> d   1      18.127  -3.113   6.923  0.00  0.00     0.003 A 
ATOM     15  C35 <0> d   1      18.096  -2.420   8.133  0.00  0.00     0.008 A 
ATOM     16  C36 <0> d   1      19.256   1.777   7.935  0.00  0.00     0.075 C 
ATOM     17  C37 <0> d   1      19.497   0.903   9.179  0.00  0.00     0.201 C 
ATOM     18  H67 <0> d   1      19.342  -0.417   3.867  0.00  0.00     0.165 HD
ENDROOT
BRANCH   4  19
ATOM     19  C9  <0> d   1      19.274  -0.840  13.052  0.00  0.00     0.233 C 
ATOM     20  O10 <0> d   1      19.505  -2.027  12.967  0.00  0.00    -0.272 OA
ATOM     21  N11 <0> d   1      19.381  -0.216  14.243  0.00  0.00    -0.270 N 
ATOM     22  C19 <0> d   1      18.940   1.049  14.382  0.00  0.00     0.325 C 
ATOM     23  O20 <0> d   1      19.394   1.758  15.259  0.00  0.00    -0.247 OA
ATOM     24  N21 <0> d   1      17.994   1.528  13.551  0.00  0.00    -0.343 N 
ATOM     25  H58 <0> d   1      17.619   0.958  12.862  0.00  0.00     0.164 HD
BRANCH  21  26
ATOM     26  C12 <0> d   1      19.977  -0.914  15.384  0.00  0.00     0.138 C 
BRANCH  26  27
ATOM     27  C13 <0> d   1      18.875  -1.335  16.359  0.00  0.00     0.048 C 
BRANCH  27  28
ATOM     28  C14 <0> d   1      19.047  -0.584  17.680  0.00  0.00     0.235 C 
BRANCH  28  29
ATOM     29  N15 <0> d   1      17.745  -0.073  18.127  0.00  0.00    -0.079 N 
ATOM     30  H16 <0> d   1      17.484  -0.526  18.990  0.00  0.00     0.278 HD
ATOM     31  C17 <0> d   1      17.835   1.376  18.343  0.00  0.00     0.269 C 
ATOM     32  C18 <0> d   1      16.731  -0.353  17.102  0.00  0.00     0.269 C 
ENDBRANCH  28  29
ENDBRANCH  27  28
ENDBRANCH  26  27
ENDBRANCH  21  26
BRANCH  24  33
ATOM     33  C22 <0> d   1      17.532   2.913  13.686  0.00  0.00     0.120 C 
ATOM     34  C23 <0> d   1      18.741   3.849  13.751  0.00  0.00     0.026 C 
ENDBRANCH  24  33
ENDBRANCH   4  19
BRANCH   1  35
ATOM     35  C3  <0> d   1      18.174   2.348  10.561  0.00  0.00     0.262 C 
BRANCH  35  36
ATOM     36  C2  <0> d   1      18.120   3.740   9.984  0.00  0.00    -0.010 C 
ATOM     37  C1  <0> d   1      17.328   4.638  10.516  0.00  0.00     0.008 C 
ENDBRANCH  35  36
ENDBRANCH   1  35
TORSDOF 8
ENDMDL
MODEL 9
REMARK VINA RESULT:      -6.3      2.826      7.934
REMARK  8 active torsions:
REMARK  status: ('A' for Active; 'I' for Inactive)
REMARK    1  A    between atoms: C2_2  and  C3_3 
REMARK    2  A    between atoms: C3_3  and  N4_4 
REMARK    3  A    between atoms: C7_7  and  C9_8 
REMARK       I    between atoms: C9_8  and  N11_10 
REMARK    4  A    between atoms: N11_10  and  C12_11 
REMARK       I    between atoms: N11_10  and  C19_18 
REMARK    5  A    between atoms: C12_11  and  C13_12 
REMARK    6  A    between atoms: C13_12  and  C14_13 
REMARK    7  A    between atoms: C14_13  and  N15_14 
REMARK       I    between atoms: C19_18  and  N21_20 
REMARK    8  A    between atoms: N21_20  and  C22_21 
ROOT
ATOM      1  N4  <0> d   1      17.362  -0.284  10.224  0.00  0.00    -0.062 N 
ATOM      2  H5  <0> d   1      16.692   0.332   9.788  0.00  0.00     0.280 HD
ATOM      3  C6  <0> d   1      16.908  -1.673  10.085  0.00  0.00     0.249 C 
ATOM      4  C7  <0> d   1      17.963  -2.614  10.670  0.00  0.00     0.105 C 
ATOM      5  C24 <0> d   1      18.158  -2.289  12.154  0.00  0.00     0.027 C 
ATOM      6  C25 <0> d   1      18.555  -0.816  12.299  0.00  0.00     0.051 C 
ATOM      7  C27 <0> d   1      18.688  -0.476  13.753  0.00  0.00    -0.039 A 
ATOM      8  C28 <0> d   1      18.392   0.840  14.115  0.00  0.00     0.005 A 
ATOM      9  C29 <0> d   1      17.953   1.898  13.204  0.00  0.00    -0.028 A 
ATOM     10  C30 <0> d   1      17.793   2.973  13.960  0.00  0.00     0.096 A 
ATOM     11  N31 <0> d   1      18.092   2.680  15.282  0.00  0.00    -0.365 N 
ATOM     12  C32 <0> d   1      18.458   1.374  15.407  0.00  0.00     0.043 A 
ATOM     13  C33 <0> d   1      18.848   0.514  16.434  0.00  0.00     0.030 A 
ATOM     14  C34 <0> d   1      19.138  -0.795  16.077  0.00  0.00     0.003 A 
ATOM     15  C35 <0> d   1      19.064  -1.289  14.775  0.00  0.00     0.008 A 
ATOM     16  C36 <0> d   1      17.786   1.568  11.742  0.00  0.00     0.075 C 
ATOM     17  C37 <0> d   1      17.489   0.061  11.646  0.00  0.00     0.201 C 
ATOM     18  H67 <0> d   1      18.049   3.315  16.014  0.00  0.00     0.165 HD
ENDROOT
BRANCH   4  19
ATOM     19  C9  <0> d   1      17.502  -4.041  10.524  0.00  0.00     0.233 C 
ATOM     20  O10 <0> d   1      17.032  -4.628  11.476  0.00  0.00    -0.272 OA
ATOM     21  N11 <0> d   1      17.609  -4.665   9.334  0.00  0.00    -0.270 N 
ATOM     22  C19 <0> d   1      18.304  -4.092   8.333  0.00  0.00     0.325 C 
ATOM     23  O20 <0> d   1      18.066  -4.390   7.179  0.00  0.00    -0.247 OA
ATOM     24  N21 <0> d   1      19.264  -3.187   8.610  0.00  0.00    -0.343 N 
ATOM     25  H58 <0> d   1      19.466  -2.961   9.531  0.00  0.00     0.164 HD
BRANCH  21  26
ATOM     26  C12 <0> d   1      16.970  -5.968   9.130  0.00  0.00     0.138 C 
BRANCH  26  27
ATOM     27  C13 <0> d   1      15.585  -5.766   8.511  0.00  0.00     0.048 C 
BRANCH  27  28
ATOM     28  C14 <0> d   1      15.370  -6.790   7.396  0.00  0.00     0.235 C 
BRANCH  28  29
ATOM     29  N15 <0> d   1      13.932  -6.942   7.141  0.00  0.00    -0.079 N 
ATOM     30  H16 <0> d   1      13.673  -7.913   7.237  0.00  0.00     0.278 HD
ATOM     31  C17 <0> d   1      13.176  -6.136   8.108  0.00  0.00     0.269 C 
ATOM     32  C18 <0> d   1      13.625  -6.487   5.778  0.00  0.00     0.269 C 
ENDBRANCH  28  29
ENDBRANCH  27  28
ENDBRANCH  26  27
ENDBRANCH  21  26
BRANCH  24  33
ATOM     33  C22 <0> d   1      20.001  -2.543   7.520  0.00  0.00     0.120 C 
ATOM     34  C23 <0> d   1      19.011  -1.933   6.525  0.00  0.00     0.026 C 
ENDBRANCH  24  33
ENDBRANCH   4  19
BRANCH   1  35
ATOM     35  C3  <0> d   1      18.667  -0.129   9.566  0.00  0.00     0.262 C 
BRANCH  35  36
ATOM     36  C2  <0> d   1      18.551   0.878   8.451  0.00  0.00    -0.010 C 
ATOM     37  C1  <0> d   1      19.541   1.701   8.206  0.00  0.00     0.008 C 
ENDBRANCH  35  36
ENDBRANCH   1  35
TORSDOF 8
ENDMDL
