MODEL 1
REMARK VINA RESULT:      -7.9      0.000      0.000
REMARK  6 active torsions:
REMARK  status: ('A' for Active; 'I' for Inactive)
REMARK    1  A    between atoms: C5_5  and  C6_6 
REMARK    2  A    between atoms: C6_6  and  O7_7 
REMARK    3  A    between atoms: O7_7  and  C8_8 
REMARK    4  A    between atoms: C8_8  and  C10_9 
REMARK    5  A    between atoms: C8_8  and  C16_15 
REMARK    6  A    between atoms: C10_9  and  N11_10 
ROOT
ATOM      1  C8  RES d   1      19.116   1.327  10.904  0.00  0.00     0.174 C 
ENDROOT
BRANCH   1   2
ATOM      2  O7  RES d   1      20.210   0.517  11.339  0.00  0.00    -0.375 OA
BRANCH   2   3
ATOM      3  C6  RES d   1      20.723   0.873  12.624  0.00  0.00     0.207 C 
BRANCH   3   4
ATOM      4  C5  RES d   1      19.781   0.386  13.694  0.00  0.00    -0.035 A 
ATOM      5  C4  RES d   1      19.222   1.285  14.585  0.00  0.00     0.011 A 
ATOM      6  C3  RES d   1      18.358   0.839  15.567  0.00  0.00     0.024 A 
ATOM      7  C2  RES d   1      18.053  -0.508  15.658  0.00  0.00     0.034 A 
ATOM      8 Cl1  RES d   1      16.966  -1.069  16.891  0.00  0.00    -0.084 Cl
ATOM      9  C25 RES d   1      18.616  -1.407  14.771  0.00  0.00     0.024 A 
ATOM     10  C24 RES d   1      19.476  -0.959  13.787  0.00  0.00     0.011 A 
ENDBRANCH   3   4
ENDBRANCH   2   3
ENDBRANCH   1   2
BRANCH   1  11
ATOM     11  C10 RES d   1      19.547   2.793  10.873  0.00  0.00     0.166 C 
BRANCH  11  12
ATOM     12  N11 RES d   1      18.444   3.638  11.336  0.00  0.00    -0.347 N 
ATOM     13  C15 RES d   1      17.323   3.941  10.647  0.00  0.00     0.209 A 
ATOM     14  N14 RES d   1      16.574   4.715  11.385  0.00  0.00    -0.255 NA
ATOM     15  C13 RES d   1      17.189   4.938  12.557  0.00  0.00     0.135 A 
ATOM     16  C12 RES d   1      18.359   4.273  12.547  0.00  0.00     0.111 A 
ENDBRANCH  11  12
ENDBRANCH   1  11
BRANCH   1  17
ATOM     17  C16 RES d   1      18.691   0.899   9.523  0.00  0.00    -0.006 A 
ATOM     18  C22 RES d   1      17.780  -0.131   9.367  0.00  0.00     0.044 A 
ATOM     19  C21 RES d   1      17.386  -0.520   8.100  0.00  0.00     0.048 A 
ATOM     20 Cl23 RES d   1      17.121  -0.925  10.763  0.00  0.00    -0.084 Cl
ATOM     21  C19 RES d   1      17.913   0.113   6.987  0.00  0.00     0.035 A 
ATOM     22  C18 RES d   1      18.829   1.138   7.145  0.00  0.00     0.024 A 
ATOM     23 Cl20 RES d   1      17.425  -0.380   5.396  0.00  0.00    -0.084 Cl
ATOM     24  C17 RES d   1      19.218   1.530   8.412  0.00  0.00     0.013 A 
ENDBRANCH   1  17
TORSDOF 6
ENDMDL
MODEL 2
REMARK VINA RESULT:      -7.8      2.703      5.721
REMARK  6 active torsions:
REMARK  status: ('A' for Active; 'I' for Inactive)
REMARK    1  A    between atoms: C5_5  and  C6_6 
REMARK    2  A    between atoms: C6_6  and  O7_7 
REMARK    3  A    between atoms: O7_7  and  C8_8 
REMARK    4  A    between atoms: C8_8  and  C10_9 
REMARK    5  A    between atoms: C8_8  and  C16_15 
REMARK    6  A    between atoms: C10_9  and  N11_10 
ROOT
ATOM      1  C8  RES d   1      18.101   0.690  13.016  0.00  0.00     0.174 C 
ENDROOT
BRANCH   1   2
ATOM      2  O7  RES d   1      17.100   1.283  12.186  0.00  0.00    -0.375 OA
BRANCH   2   3
ATOM      3  C6  RES d   1      17.593   2.311  11.324  0.00  0.00     0.207 C 
BRANCH   3   4
ATOM      4  C5  RES d   1      17.961   1.714   9.991  0.00  0.00    -0.035 A 
ATOM      5  C4  RES d   1      19.013   2.242   9.264  0.00  0.00     0.011 A 
ATOM      6  C3  RES d   1      19.351   1.696   8.040  0.00  0.00     0.024 A 
ATOM      7  C2  RES d   1      18.637   0.620   7.543  0.00  0.00     0.034 A 
ATOM      8 Cl1  RES d   1      19.063  -0.068   6.006  0.00  0.00    -0.084 Cl
ATOM      9  C25 RES d   1      17.582   0.096   8.267  0.00  0.00     0.024 A 
ATOM     10  C24 RES d   1      17.248   0.641   9.493  0.00  0.00     0.011 A 
ENDBRANCH   3   4
ENDBRANCH   2   3
ENDBRANCH   1   2
BRANCH   1  11
ATOM     11  C10 RES d   1      17.550   0.513  14.431  0.00  0.00     0.166 C 
BRANCH  11  12
ATOM     12  N11 RES d   1      18.333   1.325  15.366  0.00  0.00    -0.347 N 
ATOM     13  C15 RES d   1      18.754   0.951  16.593  0.00  0.00     0.209 A 
ATOM     14  N14 RES d   1      19.422   1.939  17.125  0.00  0.00    -0.255 NA
ATOM     15  C13 RES d   1      19.444   2.970  16.267  0.00  0.00     0.135 A 
ATOM     16  C12 RES d   1      18.769   2.606  15.161  0.00  0.00     0.111 A 
ENDBRANCH  11  12
ENDBRANCH   1  11
BRANCH   1  17
ATOM     17  C16 RES d   1      18.488  -0.654  12.455  0.00  0.00    -0.006 A 
ATOM     18  C22 RES d   1      19.765  -0.858  11.964  0.00  0.00     0.044 A 
ATOM     19  C21 RES d   1      20.122  -2.092  11.454  0.00  0.00     0.048 A 
ATOM     20 Cl23 RES d   1      20.925   0.434  12.000  0.00  0.00    -0.084 Cl
ATOM     21  C19 RES d   1      19.197  -3.122  11.425  0.00  0.00     0.035 A 
ATOM     22  C18 RES d   1      17.918  -2.915  11.910  0.00  0.00     0.024 A 
ATOM     23 Cl20 RES d   1      19.641  -4.670  10.779  0.00  0.00    -0.084 Cl
ATOM     24  C17 RES d   1      17.563  -1.682  12.425  0.00  0.00     0.013 A 
ENDBRANCH   1  17
TORSDOF 6
ENDMDL
MODEL 3
REMARK VINA RESULT:      -7.7      2.802      4.396
REMARK  6 active torsions:
REMARK  status: ('A' for Active; 'I' for Inactive)
REMARK    1  A    between atoms: C5_5  and  C6_6 
REMARK    2  A    between atoms: C6_6  and  O7_7 
REMARK    3  A    between atoms: O7_7  and  C8_8 
REMARK    4  A    between atoms: C8_8  and  C10_9 
REMARK    5  A    between atoms: C8_8  and  C16_15 
REMARK    6  A    between atoms: C10_9  and  N11_10 
ROOT
ATOM      1  C8  RES d   1      19.682  -0.381  10.742  0.00  0.00     0.174 C 
ENDROOT
BRANCH   1   2
ATOM      2  O7  RES d   1      20.688  -0.026  11.692  0.00  0.00    -0.375 OA
BRANCH   2   3
ATOM      3  C6  RES d   1      20.307   1.027  12.578  0.00  0.00     0.207 C 
BRANCH   3   4
ATOM      4  C5  RES d   1      19.443   0.471  13.679  0.00  0.00    -0.035 A 
ATOM      5  C4  RES d   1      18.298   1.142  14.067  0.00  0.00     0.011 A 
ATOM      6  C3  RES d   1      17.505   0.631  15.078  0.00  0.00     0.024 A 
ATOM      7  C2  RES d   1      17.859  -0.552  15.702  0.00  0.00     0.034 A 
ATOM      8 Cl1  RES d   1      16.863  -1.194  16.971  0.00  0.00    -0.084 Cl
ATOM      9  C25 RES d   1      19.008  -1.220  15.318  0.00  0.00     0.024 A 
ATOM     10  C24 RES d   1      19.796  -0.711  14.304  0.00  0.00     0.011 A 
ENDBRANCH   3   4
ENDBRANCH   2   3
ENDBRANCH   1   2
BRANCH   1  11
ATOM     11  C10 RES d   1      20.290  -0.402   9.339  0.00  0.00     0.166 C 
BRANCH  11  12
ATOM     12  N11 RES d   1      19.221  -0.509   8.343  0.00  0.00    -0.347 N 
ATOM     13  C15 RES d   1      19.090  -1.475   7.409  0.00  0.00     0.209 A 
ATOM     14  N14 RES d   1      18.016  -1.236   6.707  0.00  0.00    -0.255 NA
ATOM     15  C13 RES d   1      17.433  -0.115   7.159  0.00  0.00     0.135 A 
ATOM     16  C12 RES d   1      18.170   0.354   8.183  0.00  0.00     0.111 A 
ENDBRANCH  11  12
ENDBRANCH   1  11
BRANCH   1  17
ATOM     17  C16 RES d   1      19.136  -1.746  11.073  0.00  0.00    -0.006 A 
ATOM     18  C22 RES d   1      17.794  -1.900  11.373  0.00  0.00     0.044 A 
ATOM     19  C21 RES d   1      17.292  -3.153  11.672  0.00  0.00     0.048 A 
ATOM     20 Cl23 RES d   1      16.738  -0.522  11.361  0.00  0.00    -0.084 Cl
ATOM     21  C19 RES d   1      18.134  -4.252  11.682  0.00  0.00     0.035 A 
ATOM     22  C18 RES d   1      19.477  -4.095  11.389  0.00  0.00     0.024 A 
ATOM     23 Cl20 RES d   1      17.506  -5.824  12.064  0.00  0.00    -0.084 Cl
ATOM     24  C17 RES d   1      19.978  -2.843  11.085  0.00  0.00     0.013 A 
ENDBRANCH   1  17
TORSDOF 6
ENDMDL
MODEL 4
REMARK VINA RESULT:      -7.6      1.851      2.586
REMARK  6 active torsions:
REMARK  status: ('A' for Active; 'I' for Inactive)
REMARK    1  A    between atoms: C5_5  and  C6_6 
REMARK    2  A    between atoms: C6_6  and  O7_7 
REMARK    3  A    between atoms: O7_7  and  C8_8 
REMARK    4  A    between atoms: C8_8  and  C10_9 
REMARK    5  A    between atoms: C8_8  and  C16_15 
REMARK    6  A    between atoms: C10_9  and  N11_10 
ROOT
ATOM      1  C8  RES d   1      18.735   2.012  10.844  0.00  0.00     0.174 C 
ENDROOT
BRANCH   1   2
ATOM      2  O7  RES d   1      20.060   1.684  11.269  0.00  0.00    -0.375 OA
BRANCH   2   3
ATOM      3  C6  RES d   1      20.115   0.981  12.512  0.00  0.00     0.207 C 
BRANCH   3   4
ATOM      4  C5  RES d   1      19.714  -0.455  12.296  0.00  0.00    -0.035 A 
ATOM      5  C4  RES d   1      20.233  -1.165  11.228  0.00  0.00     0.011 A 
ATOM      6  C3  RES d   1      19.865  -2.482  11.030  0.00  0.00     0.024 A 
ATOM      7  C2  RES d   1      18.977  -3.090  11.899  0.00  0.00     0.034 A 
ATOM      8 Cl1  RES d   1      18.515  -4.745  11.651  0.00  0.00    -0.084 Cl
ATOM      9  C25 RES d   1      18.453  -2.378  12.963  0.00  0.00     0.024 A 
ATOM     10  C24 RES d   1      18.826  -1.062  13.163  0.00  0.00     0.011 A 
ENDBRANCH   3   4
ENDBRANCH   2   3
ENDBRANCH   1   2
BRANCH   1  11
ATOM     11  C10 RES d   1      18.590   3.531  10.754  0.00  0.00     0.166 C 
BRANCH  11  12
ATOM     12  N11 RES d   1      18.661   4.111  12.097  0.00  0.00    -0.347 N 
ATOM     13  C15 RES d   1      19.699   4.798  12.619  0.00  0.00     0.209 A 
ATOM     14  N14 RES d   1      19.394   5.156  13.837  0.00  0.00    -0.255 NA
ATOM     15  C13 RES d   1      18.165   4.707  14.135  0.00  0.00     0.135 A 
ATOM     16  C12 RES d   1      17.689   4.051  13.060  0.00  0.00     0.111 A 
ENDBRANCH  11  12
ENDBRANCH   1  11
BRANCH   1  17
ATOM     17  C16 RES d   1      18.476   1.400   9.491  0.00  0.00    -0.006 A 
ATOM     18  C22 RES d   1      17.500   0.431   9.346  0.00  0.00     0.044 A 
ATOM     19  C21 RES d   1      17.257  -0.127   8.104  0.00  0.00     0.048 A 
ATOM     20 Cl23 RES d   1      16.570  -0.078  10.722  0.00  0.00    -0.084 Cl
ATOM     21  C19 RES d   1      17.999   0.279   7.008  0.00  0.00     0.035 A 
ATOM     22  C18 RES d   1      18.980   1.244   7.156  0.00  0.00     0.024 A 
ATOM     23 Cl20 RES d   1      17.701  -0.425   5.450  0.00  0.00    -0.084 Cl
ATOM     24  C17 RES d   1      19.217   1.804   8.397  0.00  0.00     0.013 A 
ENDBRANCH   1  17
TORSDOF 6
ENDMDL
MODEL 5
REMARK VINA RESULT:      -7.5      3.309      6.842
REMARK  6 active torsions:
REMARK  status: ('A' for Active; 'I' for Inactive)
REMARK    1  A    between atoms: C5_5  and  C6_6 
REMARK    2  A    between atoms: C6_6  and  O7_7 
REMARK    3  A    between atoms: O7_7  and  C8_8 
REMARK    4  A    between atoms: C8_8  and  C10_9 
REMARK    5  A    between atoms: C8_8  and  C16_15 
REMARK    6  A    between atoms: C10_9  and  N11_10 
ROOT
ATOM      1  C8  RES d   1      19.209  -1.580  11.915  0.00  0.00     0.174 C 
ENDROOT
BRANCH   1   2
ATOM      2  O7  RES d   1      20.372  -0.842  11.535  0.00  0.00    -0.375 OA
BRANCH   2   3
ATOM      3  C6  RES d   1      20.298  -0.269  10.228  0.00  0.00     0.207 C 
BRANCH   3   4
ATOM      4  C5  RES d   1      19.638   1.082  10.309  0.00  0.00    -0.035 A 
ATOM      5  C4  RES d   1      19.800   1.866  11.437  0.00  0.00     0.011 A 
ATOM      6  C3  RES d   1      19.194   3.106  11.511  0.00  0.00     0.024 A 
ATOM      7  C2  RES d   1      18.424   3.563  10.456  0.00  0.00     0.034 A 
ATOM      8 Cl1  RES d   1      17.664   5.121  10.549  0.00  0.00    -0.084 Cl
ATOM      9  C25 RES d   1      18.257   2.777   9.330  0.00  0.00     0.024 A 
ATOM     10  C24 RES d   1      18.868   1.539   9.256  0.00  0.00     0.011 A 
ENDBRANCH   3   4
ENDBRANCH   2   3
ENDBRANCH   1   2
BRANCH   1  11
ATOM     11  C10 RES d   1      19.535  -3.074  11.929  0.00  0.00     0.166 C 
BRANCH  11  12
ATOM     12  N11 RES d   1      18.885  -3.728  10.791  0.00  0.00    -0.347 N 
ATOM     13  C15 RES d   1      19.258  -4.891  10.215  0.00  0.00     0.209 A 
ATOM     14  N14 RES d   1      18.439  -5.153   9.232  0.00  0.00    -0.255 NA
ATOM     15  C13 RES d   1      17.527  -4.172   9.143  0.00  0.00     0.135 A 
ATOM     16  C12 RES d   1      17.788  -3.272  10.110  0.00  0.00     0.111 A 
ENDBRANCH  11  12
ENDBRANCH   1  11
BRANCH   1  17
ATOM     17  C16 RES d   1      18.766  -1.148  13.289  0.00  0.00    -0.006 A 
ATOM     18  C22 RES d   1      17.638  -0.361  13.437  0.00  0.00     0.044 A 
ATOM     19  C21 RES d   1      17.228   0.031  14.698  0.00  0.00     0.048 A 
ATOM     20 Cl23 RES d   1      16.728   0.124  12.039  0.00  0.00    -0.084 Cl
ATOM     21  C19 RES d   1      17.954  -0.356  15.811  0.00  0.00     0.035 A 
ATOM     22  C18 RES d   1      19.086  -1.138  15.661  0.00  0.00     0.024 A 
ATOM     23 Cl20 RES d   1      17.445   0.141  17.395  0.00  0.00    -0.084 Cl
ATOM     24  C17 RES d   1      19.491  -1.533  14.401  0.00  0.00     0.013 A 
ENDBRANCH   1  17
TORSDOF 6
ENDMDL
MODEL 6
REMARK VINA RESULT:      -7.4      1.966      6.287
REMARK  6 active torsions:
REMARK  status: ('A' for Active; 'I' for Inactive)
REMARK    1  A    between atoms: C5_5  and  C6_6 
REMARK    2  A    between atoms: C6_6  and  O7_7 
REMARK    3  A    between atoms: O7_7  and  C8_8 
REMARK    4  A    between atoms: C8_8  and  C10_9 
REMARK    5  A    between atoms: C8_8  and  C16_15 
REMARK    6  A    between atoms: C10_9  and  N11_10 
ROOT
ATOM      1  C8  RES d   1      18.685   2.590  12.614  0.00  0.00     0.174 C 
ENDROOT
BRANCH   1   2
ATOM      2  O7  RES d   1      18.129   2.172  11.366  0.00  0.00    -0.375 OA
BRANCH   2   3
ATOM      3  C6  RES d   1      18.865   2.614  10.224  0.00  0.00     0.207 C 
BRANCH   3   4
ATOM      4  C5  RES d   1      18.560   1.719   9.051  0.00  0.00    -0.035 A 
ATOM      5  C4  RES d   1      17.648   0.688   9.187  0.00  0.00     0.011 A 
ATOM      6  C3  RES d   1      17.369  -0.134   8.111  0.00  0.00     0.024 A 
ATOM      7  C2  RES d   1      18.002   0.075   6.899  0.00  0.00     0.034 A 
ATOM      8 Cl1  RES d   1      17.650  -0.957   5.548  0.00  0.00    -0.084 Cl
ATOM      9  C25 RES d   1      18.918   1.102   6.765  0.00  0.00     0.024 A 
ATOM     10  C24 RES d   1      19.193   1.927   7.840  0.00  0.00     0.011 A 
ENDBRANCH   3   4
ENDBRANCH   2   3
ENDBRANCH   1   2
BRANCH   1  11
ATOM     11  C10 RES d   1      17.850   3.737  13.185  0.00  0.00     0.166 C 
BRANCH  11  12
ATOM     12  N11 RES d   1      18.725   4.675  13.892  0.00  0.00    -0.347 N 
ATOM     13  C15 RES d   1      19.860   5.228  13.413  0.00  0.00     0.209 A 
ATOM     14  N14 RES d   1      20.362   6.011  14.329  0.00  0.00    -0.255 NA
ATOM     15  C13 RES d   1      19.577   5.980  15.417  0.00  0.00     0.135 A 
ATOM     16  C12 RES d   1      18.547   5.151  15.164  0.00  0.00     0.111 A 
ENDBRANCH  11  12
ENDBRANCH   1  11
BRANCH   1  17
ATOM     17  C16 RES d   1      18.679   1.434  13.580  0.00  0.00    -0.006 A 
ATOM     18  C22 RES d   1      19.662   0.463  13.504  0.00  0.00     0.044 A 
ATOM     19  C21 RES d   1      19.659  -0.595  14.394  0.00  0.00     0.048 A 
ATOM     20 Cl23 RES d   1      20.907   0.581  12.299  0.00  0.00    -0.084 Cl
ATOM     21  C19 RES d   1      18.667  -0.689  15.354  0.00  0.00     0.035 A 
ATOM     22  C18 RES d   1      17.680   0.279  15.425  0.00  0.00     0.024 A 
ATOM     23 Cl20 RES d   1      18.658  -2.021  16.466  0.00  0.00    -0.084 Cl
ATOM     24  C17 RES d   1      17.687   1.339  14.538  0.00  0.00     0.013 A 
ENDBRANCH   1  17
TORSDOF 6
ENDMDL
MODEL 7
REMARK VINA RESULT:      -7.2      3.264      7.545
REMARK  6 active torsions:
REMARK  status: ('A' for Active; 'I' for Inactive)
REMARK    1  A    between atoms: C5_5  and  C6_6 
REMARK    2  A    between atoms: C6_6  and  O7_7 
REMARK    3  A    between atoms: O7_7  and  C8_8 
REMARK    4  A    between atoms: C8_8  and  C10_9 
REMARK    5  A    between atoms: C8_8  and  C16_15 
REMARK    6  A    between atoms: C10_9  and  N11_10 
ROOT
ATOM      1  C8  RES d   1      18.822  -1.818  11.564  0.00  0.00     0.174 C 
ENDROOT
BRANCH   1   2
ATOM      2  O7  RES d   1      19.961  -1.210  10.951  0.00  0.00    -0.375 OA
BRANCH   2   3
ATOM      3  C6  RES d   1      19.731   0.122  10.487  0.00  0.00     0.207 C 
BRANCH   3   4
ATOM      4  C5  RES d   1      19.460   0.099   9.006  0.00  0.00    -0.035 A 
ATOM      5  C4  RES d   1      19.419  -1.107   8.328  0.00  0.00     0.011 A 
ATOM      6  C3  RES d   1      19.171  -1.128   6.969  0.00  0.00     0.024 A 
ATOM      7  C2  RES d   1      18.964   0.057   6.286  0.00  0.00     0.034 A 
ATOM      8 Cl1  RES d   1      18.652   0.031   4.578  0.00  0.00    -0.084 Cl
ATOM      9  C25 RES d   1      19.011   1.263   6.962  0.00  0.00     0.024 A 
ATOM     10  C24 RES d   1      19.254   1.282   8.322  0.00  0.00     0.011 A 
ENDBRANCH   3   4
ENDBRANCH   2   3
ENDBRANCH   1   2
BRANCH   1  11
ATOM     11  C10 RES d   1      19.055  -3.324  11.692  0.00  0.00     0.166 C 
BRANCH  11  12
ATOM     12  N11 RES d   1      18.055  -4.043  10.899  0.00  0.00    -0.347 N 
ATOM     13  C15 RES d   1      16.954  -4.666  11.372  0.00  0.00     0.209 A 
ATOM     14  N14 RES d   1      16.307  -5.191  10.367  0.00  0.00    -0.255 NA
ATOM     15  C13 RES d   1      16.968  -4.930   9.230  0.00  0.00     0.135 A 
ATOM     16  C12 RES d   1      18.064  -4.213   9.540  0.00  0.00     0.111 A 
ENDBRANCH  11  12
ENDBRANCH   1  11
BRANCH   1  17
ATOM     17  C16 RES d   1      18.611  -1.224  12.933  0.00  0.00    -0.006 A 
ATOM     18  C22 RES d   1      17.548  -0.368  13.160  0.00  0.00     0.044 A 
ATOM     19  C21 RES d   1      17.351   0.173  14.417  0.00  0.00     0.048 A 
ATOM     20 Cl23 RES d   1      16.453   0.018  11.868  0.00  0.00    -0.084 Cl
ATOM     21  C19 RES d   1      18.224  -0.135  15.446  0.00  0.00     0.035 A 
ATOM     22  C18 RES d   1      19.291  -0.986  15.216  0.00  0.00     0.024 A 
ATOM     23 Cl20 RES d   1      17.983   0.549  17.023  0.00  0.00    -0.084 Cl
ATOM     24  C17 RES d   1      19.484  -1.530  13.960  0.00  0.00     0.013 A 
ENDBRANCH   1  17
TORSDOF 6
ENDMDL
MODEL 8
REMARK VINA RESULT:      -7.2      2.868      4.835
REMARK  6 active torsions:
REMARK  status: ('A' for Active; 'I' for Inactive)
REMARK    1  A    between atoms: C5_5  and  C6_6 
REMARK    2  A    between atoms: C6_6  and  O7_7 
REMARK    3  A    between atoms: O7_7  and  C8_8 
REMARK    4  A    between atoms: C8_8  and  C10_9 
REMARK    5  A    between atoms: C8_8  and  C16_15 
REMARK    6  A    between atoms: C10_9  and  N11_10 
ROOT
ATOM      1  C8  RES d   1      19.004  -0.136   9.766  0.00  0.00     0.174 C 
ENDROOT
BRANCH   1   2
ATOM      2  O7  RES d   1      18.879  -1.187  10.726  0.00  0.00    -0.375 OA
BRANCH   2   3
ATOM      3  C6  RES d   1      17.653  -1.164  11.458  0.00  0.00     0.207 C 
BRANCH   3   4
ATOM      4  C5  RES d   1      17.940  -0.895  12.912  0.00  0.00    -0.035 A 
ATOM      5  C4  RES d   1      17.308   0.150  13.560  0.00  0.00     0.011 A 
ATOM      6  C3  RES d   1      17.571   0.398  14.894  0.00  0.00     0.024 A 
ATOM      7  C2  RES d   1      18.468  -0.401  15.581  0.00  0.00     0.034 A 
ATOM      8 Cl1  RES d   1      18.798  -0.092  17.257  0.00  0.00    -0.084 Cl
ATOM      9  C25 RES d   1      19.104  -1.443  14.932  0.00  0.00     0.024 A 
ATOM     10  C24 RES d   1      18.836  -1.692  13.599  0.00  0.00     0.011 A 
ENDBRANCH   3   4
ENDBRANCH   2   3
ENDBRANCH   1   2
BRANCH   1  11
ATOM     11  C10 RES d   1      17.910  -0.280   8.707  0.00  0.00     0.166 C 
BRANCH  11  12
ATOM     12  N11 RES d   1      18.524  -0.529   7.400  0.00  0.00    -0.347 N 
ATOM     13  C15 RES d   1      19.112  -1.675   6.997  0.00  0.00     0.209 A 
ATOM     14  N14 RES d   1      19.539  -1.518   5.773  0.00  0.00    -0.255 NA
ATOM     15  C13 RES d   1      19.248  -0.275   5.359  0.00  0.00     0.135 A 
ATOM     16  C12 RES d   1      18.612   0.359   6.362  0.00  0.00     0.111 A 
ENDBRANCH  11  12
ENDBRANCH   1  11
BRANCH   1  17
ATOM     17  C16 RES d   1      18.863   1.196  10.457  0.00  0.00    -0.006 A 
ATOM     18  C22 RES d   1      19.784   1.579  11.415  0.00  0.00     0.044 A 
ATOM     19  C21 RES d   1      19.658   2.803  12.046  0.00  0.00     0.048 A 
ATOM     20 Cl23 RES d   1      21.106   0.527  11.819  0.00  0.00    -0.084 Cl
ATOM     21  C19 RES d   1      18.604   3.640  11.724  0.00  0.00     0.035 A 
ATOM     22  C18 RES d   1      17.680   3.253  10.770  0.00  0.00     0.024 A 
ATOM     23 Cl20 RES d   1      18.441   5.174  12.520  0.00  0.00    -0.084 Cl
ATOM     24  C17 RES d   1      17.810   2.031  10.137  0.00  0.00     0.013 A 
ENDBRANCH   1  17
TORSDOF 6
ENDMDL
MODEL 9
REMARK VINA RESULT:      -7.1      2.628      5.730
REMARK  6 active torsions:
REMARK  status: ('A' for Active; 'I' for Inactive)
REMARK    1  A    between atoms: C5_5  and  C6_6 
REMARK    2  A    between atoms: C6_6  and  O7_7 
REMARK    3  A    between atoms: O7_7  and  C8_8 
REMARK    4  A    between atoms: C8_8  and  C10_9 
REMARK    5  A    between atoms: C8_8  and  C16_15 
REMARK    6  A    between atoms: C10_9  and  N11_10 
ROOT
ATOM      1  C8  RES d   1      17.690   0.795  11.061  0.00  0.00     0.174 C 
ENDROOT
BRANCH   1   2
ATOM      2  O7  RES d   1      17.027   2.041  11.286  0.00  0.00    -0.375 OA
BRANCH   2   3
ATOM      3  C6  RES d   1      17.747   3.178  10.807  0.00  0.00     0.207 C 
BRANCH   3   4
ATOM      4  C5  RES d   1      18.030   4.114  11.953  0.00  0.00    -0.035 A 
ATOM      5  C4  RES d   1      16.993   4.802  12.558  0.00  0.00     0.011 A 
ATOM      6  C3  RES d   1      17.253   5.660  13.609  0.00  0.00     0.024 A 
ATOM      7  C2  RES d   1      18.552   5.831  14.057  0.00  0.00     0.034 A 
ATOM      8 Cl1  RES d   1      18.878   6.908  15.379  0.00  0.00    -0.084 Cl
ATOM      9  C25 RES d   1      19.589   5.147  13.449  0.00  0.00     0.024 A 
ATOM     10  C24 RES d   1      19.326   4.285  12.401  0.00  0.00     0.011 A 
ENDBRANCH   3   4
ENDBRANCH   2   3
ENDBRANCH   1   2
BRANCH   1  11
ATOM     11  C10 RES d   1      18.945   1.030  10.219  0.00  0.00     0.166 C 
BRANCH  11  12
ATOM     12  N11 RES d   1      18.645   0.771   8.809  0.00  0.00    -0.347 N 
ATOM     13  C15 RES d   1      17.723  -0.093   8.332  0.00  0.00     0.209 A 
ATOM     14  N14 RES d   1      17.744  -0.048   7.028  0.00  0.00    -0.255 NA
ATOM     15  C13 RES d   1      18.675   0.833   6.630  0.00  0.00     0.135 A 
ATOM     16  C12 RES d   1      19.249   1.357   7.729  0.00  0.00     0.111 A 
ENDBRANCH  11  12
ENDBRANCH   1  11
BRANCH   1  17
ATOM     17  C16 RES d   1      18.078   0.186  12.383  0.00  0.00    -0.006 A 
ATOM     18  C22 RES d   1      18.140  -1.190  12.519  0.00  0.00     0.044 A 
ATOM     19  C21 RES d   1      18.501  -1.750  13.731  0.00  0.00     0.048 A 
ATOM     20 Cl23 RES d   1      17.776  -2.214  11.165  0.00  0.00    -0.084 Cl
ATOM     21  C19 RES d   1      18.791  -0.933  14.810  0.00  0.00     0.035 A 
ATOM     22  C18 RES d   1      18.722   0.442  14.675  0.00  0.00     0.024 A 
ATOM     23 Cl20 RES d   1      19.237  -1.635  16.334  0.00  0.00    -0.084 Cl
ATOM     24  C17 RES d   1      18.366   1.001  13.462  0.00  0.00     0.013 A 
ENDBRANCH   1  17
TORSDOF 6
ENDMDL
