MODEL 1
REMARK VINA RESULT:      -7.4      0.000      0.000
REMARK  4 active torsions:
REMARK  status: ('A' for Active; 'I' for Inactive)
REMARK    1  A    between atoms: O2_2  and  C3_3 
REMARK    2  A    between atoms: C8_8  and  O9_9 
REMARK    3  A    between atoms: C16_15  and  C18_16 
REMARK    4  A    between atoms: C18_16  and  C19_17 
ROOT
ATOM      1  C3  ZIN A   1      18.888   0.380   7.842  0.00  0.00     0.102 A 
ATOM      2  C4  ZIN A   1      18.701   1.538   8.578  0.00  0.00     0.047 A 
ATOM      3  C5  ZIN A   1      18.978   1.557   9.937  0.00  0.00    -0.045 A 
ATOM      4  C6  ZIN A   1      19.442   0.420  10.562  0.00  0.00    -0.018 A 
ATOM      5  C7  ZIN A   1      19.629  -0.743   9.829  0.00  0.00     0.049 A 
ATOM      6  C8  ZIN A   1      19.349  -0.770   8.475  0.00  0.00     0.102 A 
ATOM      7  C11 ZIN A   1      19.760   0.397  12.034  0.00  0.00     0.228 C 
ATOM      8  C13 ZIN A   1      19.247  -0.915  12.642  0.00  0.00     0.116 C 
ATOM      9  C14 ZIN A   1      19.500  -0.873  14.135  0.00  0.00     0.135 C 
ATOM     10  O15 ZIN A   1      20.017  -1.802  14.707  0.00  0.00    -0.297 OA
ATOM     11  C16 ZIN A   1      19.080   0.376  14.884  0.00  0.00     0.081 C 
ATOM     12  C22 ZIN A   1      19.606   1.594  14.115  0.00  0.00     0.247 C 
ATOM     13  N23 ZIN A   1      19.125   1.520  12.727  0.00  0.00    -0.061 N 
ATOM     14  H24 ZIN A   1      18.123   1.408  12.725  0.00  0.00     0.280 HD
ATOM     15  C25 ZIN A   1      19.480   2.761  12.023  0.00  0.00     0.240 C 
ATOM     16  C26 ZIN A   1      18.757   2.837  10.700  0.00  0.00     0.067 C 
ENDROOT
BRANCH  11  17
ATOM     17  C18 ZIN A   1      17.554   0.438  14.969  0.00  0.00     0.017 C 
BRANCH  17  18
ATOM     18  C19 ZIN A   1      17.115   0.219  16.418  0.00  0.00    -0.022 C 
ATOM     19  C20 ZIN A   1      17.154  -1.276  16.742  0.00  0.00     0.009 C 
ATOM     20  C21 ZIN A   1      18.063   0.969  17.357  0.00  0.00     0.009 C 
ENDBRANCH  17  18
ENDBRANCH  11  17
BRANCH   6  21
ATOM     21  O9  ZIN A   1      19.534  -1.913   7.762  0.00  0.00    -0.353 OA
ATOM     22  C10 ZIN A   1      18.815  -3.070   8.192  0.00  0.00     0.210 C 
ENDBRANCH   6  21
BRANCH   1  23
ATOM     23  O2  ZIN A   1      18.616   0.367   6.510  0.00  0.00    -0.353 OA
ATOM     24  C1  ZIN A   1      17.275   0.060   6.124  0.00  0.00     0.210 C 
ENDBRANCH   1  23
TORSDOF 4
ENDMDL
MODEL 2
REMARK VINA RESULT:      -7.3      1.944      7.327
REMARK  4 active torsions:
REMARK  status: ('A' for Active; 'I' for Inactive)
REMARK    1  A    between atoms: O2_2  and  C3_3 
REMARK    2  A    between atoms: C8_8  and  O9_9 
REMARK    3  A    between atoms: C16_15  and  C18_16 
REMARK    4  A    between atoms: C18_16  and  C19_17 
ROOT
ATOM      1  C3  ZIN A   1      18.347  -0.152  15.478  0.00  0.00     0.102 A 
ATOM      2  C4  ZIN A   1      18.640  -1.233  14.663  0.00  0.00     0.047 A 
ATOM      3  C5  ZIN A   1      19.004  -1.033  13.340  0.00  0.00    -0.045 A 
ATOM      4  C6  ZIN A   1      19.077   0.244  12.829  0.00  0.00    -0.018 A 
ATOM      5  C7  ZIN A   1      18.782   1.330  13.641  0.00  0.00     0.049 A 
ATOM      6  C8  ZIN A   1      18.413   1.137  14.961  0.00  0.00     0.102 A 
ATOM      7  C11 ZIN A   1      19.473   0.507  11.400  0.00  0.00     0.228 C 
ATOM      8  C13 ZIN A   1      18.571   1.604  10.819  0.00  0.00     0.116 C 
ATOM      9  C14 ZIN A   1      18.931   1.785   9.359  0.00  0.00     0.135 C 
ATOM     10  O15 ZIN A   1      19.123   2.882   8.894  0.00  0.00    -0.297 OA
ATOM     11  C16 ZIN A   1      19.041   0.539   8.503  0.00  0.00     0.081 C 
ATOM     12  C22 ZIN A   1      19.909  -0.480   9.250  0.00  0.00     0.247 C 
ATOM     13  N23 ZIN A   1      19.333  -0.702  10.585  0.00  0.00    -0.061 N 
ATOM     14  H24 ZIN A   1      18.360  -0.949  10.494  0.00  0.00     0.280 HD
ATOM     15  C25 ZIN A   1      20.054  -1.797  11.250  0.00  0.00     0.240 C 
ATOM     16  C26 ZIN A   1      19.312  -2.237  12.488  0.00  0.00     0.067 C 
ENDROOT
BRANCH  11  17
ATOM     17  C18 ZIN A   1      17.648  -0.046   8.262  0.00  0.00     0.017 C 
BRANCH  17  18
ATOM     18  C19 ZIN A   1      17.478  -0.364   6.776  0.00  0.00    -0.022 C 
ATOM     19  C20 ZIN A   1      18.151   0.728   5.941  0.00  0.00     0.009 C 
ATOM     20  C21 ZIN A   1      18.125  -1.715   6.465  0.00  0.00     0.009 C 
ENDBRANCH  17  18
ENDBRANCH  11  17
BRANCH   6  21
ATOM     21  O9  ZIN A   1      18.124   2.206  15.752  0.00  0.00    -0.353 OA
ATOM     22  C10 ZIN A   1      19.229   2.975  16.230  0.00  0.00     0.210 C 
ENDBRANCH   6  21
BRANCH   1  23
ATOM     23  O2  ZIN A   1      17.991  -0.352  16.775  0.00  0.00    -0.353 OA
ATOM     24  C1  ZIN A   1      19.050  -0.483  17.726  0.00  0.00     0.210 C 
ENDBRANCH   1  23
TORSDOF 4
ENDMDL
MODEL 3
REMARK VINA RESULT:      -7.1      2.251      7.186
REMARK  4 active torsions:
REMARK  status: ('A' for Active; 'I' for Inactive)
REMARK    1  A    between atoms: O2_2  and  C3_3 
REMARK    2  A    between atoms: C8_8  and  O9_9 
REMARK    3  A    between atoms: C16_15  and  C18_16 
REMARK    4  A    between atoms: C18_16  and  C19_17 
ROOT
ATOM      1  C3  ZIN A   1      19.122   2.310  16.794  0.00  0.00     0.102 A 
ATOM      2  C4  ZIN A   1      19.363   3.362  15.926  0.00  0.00     0.047 A 
ATOM      3  C5  ZIN A   1      18.899   3.313  14.621  0.00  0.00    -0.045 A 
ATOM      4  C6  ZIN A   1      18.194   2.215  14.179  0.00  0.00    -0.018 A 
ATOM      5  C7  ZIN A   1      17.952   1.157  15.044  0.00  0.00     0.049 A 
ATOM      6  C8  ZIN A   1      18.417   1.198  16.347  0.00  0.00     0.102 A 
ATOM      7  C11 ZIN A   1      17.668   2.122  12.772  0.00  0.00     0.228 C 
ATOM      8  C13 ZIN A   1      17.898   0.702  12.238  0.00  0.00     0.116 C 
ATOM      9  C14 ZIN A   1      17.442   0.661  10.794  0.00  0.00     0.135 C 
ATOM     10  O15 ZIN A   1      16.722  -0.221  10.391  0.00  0.00    -0.297 OA
ATOM     11  C16 ZIN A   1      17.921   1.766   9.874  0.00  0.00     0.081 C 
ATOM     12  C22 ZIN A   1      17.689   3.108  10.577  0.00  0.00     0.247 C 
ATOM     13  N23 ZIN A   1      18.349   3.074  11.892  0.00  0.00    -0.061 N 
ATOM     14  H24 ZIN A   1      19.315   2.810  11.775  0.00  0.00     0.280 HD
ATOM     15  C25 ZIN A   1      18.277   4.407  12.506  0.00  0.00     0.240 C 
ATOM     16  C26 ZIN A   1      19.186   4.478  13.709  0.00  0.00     0.067 C 
ENDROOT
BRANCH  11  17
ATOM     17  C18 ZIN A   1      19.413   1.585   9.585  0.00  0.00     0.017 C 
BRANCH  17  18
ATOM     18  C19 ZIN A   1      19.589   0.845   8.259  0.00  0.00    -0.022 C 
ATOM     19  C20 ZIN A   1      19.608  -0.664   8.515  0.00  0.00     0.009 C 
ATOM     20  C21 ZIN A   1      18.427   1.189   7.324  0.00  0.00     0.009 C 
ENDBRANCH  17  18
ENDBRANCH  11  17
BRANCH   6  21
ATOM     21  O9  ZIN A   1      18.177   0.157  17.190  0.00  0.00    -0.353 OA
ATOM     22  C10 ZIN A   1      17.251  -0.836  16.747  0.00  0.00     0.210 C 
ENDBRANCH   6  21
BRANCH   1  23
ATOM     23  O2  ZIN A   1      19.578   2.363  18.074  0.00  0.00    -0.353 OA
ATOM     24  C1  ZIN A   1      18.846   3.178  18.991  0.00  0.00     0.210 C 
ENDBRANCH   1  23
TORSDOF 4
ENDMDL
MODEL 4
REMARK VINA RESULT:      -7.1      2.921      6.797
REMARK  4 active torsions:
REMARK  status: ('A' for Active; 'I' for Inactive)
REMARK    1  A    between atoms: O2_2  and  C3_3 
REMARK    2  A    between atoms: C8_8  and  O9_9 
REMARK    3  A    between atoms: C16_15  and  C18_16 
REMARK    4  A    between atoms: C18_16  and  C19_17 
ROOT
ATOM      1  C3  ZIN A   1      18.352   2.663  10.524  0.00  0.00     0.102 A 
ATOM      2  C4  ZIN A   1      18.819   2.575   9.224  0.00  0.00     0.047 A 
ATOM      3  C5  ZIN A   1      18.607   1.424   8.480  0.00  0.00    -0.045 A 
ATOM      4  C6  ZIN A   1      17.930   0.359   9.034  0.00  0.00    -0.018 A 
ATOM      5  C7  ZIN A   1      17.463   0.441  10.338  0.00  0.00     0.049 A 
ATOM      6  C8  ZIN A   1      17.676   1.585  11.087  0.00  0.00     0.102 A 
ATOM      7  C11 ZIN A   1      17.674  -0.908   8.261  0.00  0.00     0.228 C 
ATOM      8  C13 ZIN A   1      17.911  -2.115   9.178  0.00  0.00     0.116 C 
ATOM      9  C14 ZIN A   1      17.733  -3.374   8.353  0.00  0.00     0.135 C 
ATOM     10  O15 ZIN A   1      17.048  -4.287   8.747  0.00  0.00    -0.297 OA
ATOM     11  C16 ZIN A   1      18.447  -3.446   7.018  0.00  0.00     0.081 C 
ATOM     12  C22 ZIN A   1      18.171  -2.143   6.258  0.00  0.00     0.247 C 
ATOM     13  N23 ZIN A   1      18.568  -1.008   7.106  0.00  0.00    -0.061 N 
ATOM     14  H24 ZIN A   1      19.520  -1.136   7.412  0.00  0.00     0.280 HD
ATOM     15  C25 ZIN A   1      18.466   0.237   6.330  0.00  0.00     0.240 C 
ATOM     16  C26 ZIN A   1      19.134   1.370   7.070  0.00  0.00     0.067 C 
ENDROOT
BRANCH  11  17
ATOM     17  C18 ZIN A   1      19.952  -3.603   7.245  0.00  0.00     0.017 C 
BRANCH  17  18
ATOM     18  C19 ZIN A   1      20.329  -5.082   7.154  0.00  0.00    -0.022 C 
ATOM     19  C20 ZIN A   1      20.475  -5.660   8.564  0.00  0.00     0.009 C 
ATOM     20  C21 ZIN A   1      19.234  -5.843   6.403  0.00  0.00     0.009 C 
ENDBRANCH  17  18
ENDBRANCH  11  17
BRANCH   6  21
ATOM     21  O9  ZIN A   1      17.215   1.660  12.365  0.00  0.00    -0.353 OA
ATOM     22  C10 ZIN A   1      17.942   0.936  13.359  0.00  0.00     0.210 C 
ENDBRANCH   6  21
BRANCH   1  23
ATOM     23  O2  ZIN A   1      18.561   3.794  11.250  0.00  0.00    -0.353 OA
ATOM     24  C1  ZIN A   1      19.814   3.910  11.927  0.00  0.00     0.210 C 
ENDBRANCH   1  23
TORSDOF 4
ENDMDL
MODEL 5
REMARK VINA RESULT:      -7.0      3.234      8.125
REMARK  4 active torsions:
REMARK  status: ('A' for Active; 'I' for Inactive)
REMARK    1  A    between atoms: O2_2  and  C3_3 
REMARK    2  A    between atoms: C8_8  and  O9_9 
REMARK    3  A    between atoms: C16_15  and  C18_16 
REMARK    4  A    between atoms: C18_16  and  C19_17 
ROOT
ATOM      1  C3  ZIN A   1      17.219  -0.055  11.229  0.00  0.00     0.102 A 
ATOM      2  C4  ZIN A   1      17.417  -1.426  11.204  0.00  0.00     0.047 A 
ATOM      3  C5  ZIN A   1      18.035  -2.024  10.117  0.00  0.00    -0.045 A 
ATOM      4  C6  ZIN A   1      18.456  -1.256   9.053  0.00  0.00    -0.018 A 
ATOM      5  C7  ZIN A   1      18.258   0.118   9.072  0.00  0.00     0.049 A 
ATOM      6  C8  ZIN A   1      17.637   0.720  10.152  0.00  0.00     0.102 A 
ATOM      7  C11 ZIN A   1      19.136  -1.863   7.854  0.00  0.00     0.228 C 
ATOM      8  C13 ZIN A   1      18.593  -1.206   6.579  0.00  0.00     0.116 C 
ATOM      9  C14 ZIN A   1      19.226  -1.896   5.387  0.00  0.00     0.135 C 
ATOM     10  O15 ZIN A   1      19.717  -1.260   4.486  0.00  0.00    -0.297 OA
ATOM     11  C16 ZIN A   1      19.221  -3.411   5.368  0.00  0.00     0.081 C 
ATOM     12  C22 ZIN A   1      19.719  -3.909   6.730  0.00  0.00     0.247 C 
ATOM     13  N23 ZIN A   1      18.891  -3.305   7.785  0.00  0.00    -0.061 N 
ATOM     14  H24 ZIN A   1      17.917  -3.484   7.591  0.00  0.00     0.280 HD
ATOM     15  C25 ZIN A   1      19.246  -3.899   9.082  0.00  0.00     0.240 C 
ATOM     16  C26 ZIN A   1      18.228  -3.518  10.129  0.00  0.00     0.067 C 
ENDROOT
BRANCH  11  17
ATOM     17  C18 ZIN A   1      17.799  -3.919   5.121  0.00  0.00     0.017 C 
BRANCH  17  18
ATOM     18  C19 ZIN A   1      17.644  -4.306   3.649  0.00  0.00    -0.022 C 
ATOM     19  C20 ZIN A   1      17.464  -5.821   3.536  0.00  0.00     0.009 C 
ATOM     20  C21 ZIN A   1      16.419  -3.601   3.062  0.00  0.00     0.009 C 
ENDBRANCH  17  18
ENDBRANCH  11  17
BRANCH   6  21
ATOM     21  O9  ZIN A   1      17.445   2.067  10.165  0.00  0.00    -0.353 OA
ATOM     22  C10 ZIN A   1      18.596   2.883  10.385  0.00  0.00     0.210 C 
ENDBRANCH   6  21
BRANCH   1  23
ATOM     23  O2  ZIN A   1      16.614   0.528  12.298  0.00  0.00    -0.353 OA
ATOM     24  C1  ZIN A   1      17.399   0.687  13.482  0.00  0.00     0.210 C 
ENDBRANCH   1  23
TORSDOF 4
ENDMDL
MODEL 6
REMARK VINA RESULT:      -6.9      3.176      6.197
REMARK  4 active torsions:
REMARK  status: ('A' for Active; 'I' for Inactive)
REMARK    1  A    between atoms: O2_2  and  C3_3 
REMARK    2  A    between atoms: C8_8  and  O9_9 
REMARK    3  A    between atoms: C16_15  and  C18_16 
REMARK    4  A    between atoms: C18_16  and  C19_17 
ROOT
ATOM      1  C3  ZIN A   1      18.232   1.661   9.907  0.00  0.00     0.102 A 
ATOM      2  C4  ZIN A   1      17.796   0.926  10.997  0.00  0.00     0.047 A 
ATOM      3  C5  ZIN A   1      17.963  -0.450  11.024  0.00  0.00    -0.045 A 
ATOM      4  C6  ZIN A   1      18.565  -1.094   9.965  0.00  0.00    -0.018 A 
ATOM      5  C7  ZIN A   1      19.002  -0.362   8.870  0.00  0.00     0.049 A 
ATOM      6  C8  ZIN A   1      18.833   1.011   8.835  0.00  0.00     0.102 A 
ATOM      7  C11 ZIN A   1      18.771  -2.586   9.956  0.00  0.00     0.228 C 
ATOM      8  C13 ZIN A   1      18.444  -3.132   8.560  0.00  0.00     0.116 C 
ATOM      9  C14 ZIN A   1      18.573  -4.641   8.603  0.00  0.00     0.135 C 
ATOM     10  O15 ZIN A   1      19.196  -5.239   7.759  0.00  0.00    -0.297 OA
ATOM     11  C16 ZIN A   1      17.892  -5.373   9.742  0.00  0.00     0.081 C 
ATOM     12  C22 ZIN A   1      18.260  -4.665  11.052  0.00  0.00     0.247 C 
ATOM     13  N23 ZIN A   1      17.904  -3.242  10.936  0.00  0.00    -0.061 N 
ATOM     14  H24 ZIN A   1      16.939  -3.160  10.657  0.00  0.00     0.280 HD
ATOM     15  C25 ZIN A   1      18.095  -2.586  12.238  0.00  0.00     0.240 C 
ATOM     16  C26 ZIN A   1      17.471  -1.212  12.228  0.00  0.00     0.067 C 
ENDROOT
BRANCH  11  17
ATOM     17  C18 ZIN A   1      16.376  -5.338   9.544  0.00  0.00     0.017 C 
BRANCH  17  18
ATOM     18  C19 ZIN A   1      16.012  -6.095   8.265  0.00  0.00    -0.022 C 
ATOM     19  C20 ZIN A   1      16.540  -7.528   8.352  0.00  0.00     0.009 C 
ATOM     20  C21 ZIN A   1      14.490  -6.121   8.104  0.00  0.00     0.009 C 
ENDBRANCH  17  18
ENDBRANCH  11  17
BRANCH   6  21
ATOM     21  O9  ZIN A   1      19.263   1.724   7.759  0.00  0.00    -0.353 OA
ATOM     22  C10 ZIN A   1      18.937   1.208   6.467  0.00  0.00     0.210 C 
ENDBRANCH   6  21
BRANCH   1  23
ATOM     23  O2  ZIN A   1      18.068   3.011   9.885  0.00  0.00    -0.353 OA
ATOM     24  C1  ZIN A   1      18.455   3.732  11.056  0.00  0.00     0.210 C 
ENDBRANCH   1  23
TORSDOF 4
ENDMDL
MODEL 7
REMARK VINA RESULT:      -6.9      3.215      5.615
REMARK  4 active torsions:
REMARK  status: ('A' for Active; 'I' for Inactive)
REMARK    1  A    between atoms: O2_2  and  C3_3 
REMARK    2  A    between atoms: C8_8  and  O9_9 
REMARK    3  A    between atoms: C16_15  and  C18_16 
REMARK    4  A    between atoms: C18_16  and  C19_17 
ROOT
ATOM      1  C3  ZIN A   1      18.061  -4.617   5.143  0.00  0.00     0.102 A 
ATOM      2  C4  ZIN A   1      17.698  -3.348   4.724  0.00  0.00     0.047 A 
ATOM      3  C5  ZIN A   1      18.149  -2.230   5.408  0.00  0.00    -0.045 A 
ATOM      4  C6  ZIN A   1      18.964  -2.376   6.511  0.00  0.00    -0.018 A 
ATOM      5  C7  ZIN A   1      19.328  -3.646   6.936  0.00  0.00     0.049 A 
ATOM      6  C8  ZIN A   1      18.876  -4.766   6.261  0.00  0.00     0.102 A 
ATOM      7  C11 ZIN A   1      19.480  -1.189   7.280  0.00  0.00     0.228 C 
ATOM      8  C13 ZIN A   1      19.398  -1.486   8.783  0.00  0.00     0.116 C 
ATOM      9  C14 ZIN A   1      19.839  -0.245   9.533  0.00  0.00     0.135 C 
ATOM     10  O15 ZIN A   1      20.645  -0.311  10.430  0.00  0.00    -0.297 OA
ATOM     11  C16 ZIN A   1      19.233   1.080   9.117  0.00  0.00     0.081 C 
ATOM     12  C22 ZIN A   1      19.328   1.192   7.591  0.00  0.00     0.247 C 
ATOM     13  N23 ZIN A   1      18.691   0.010   6.990  0.00  0.00    -0.061 N 
ATOM     14  H24 ZIN A   1      17.758  -0.091   7.357  0.00  0.00     0.280 HD
ATOM     15  C25 ZIN A   1      18.626   0.181   5.531  0.00  0.00     0.240 C 
ATOM     16  C26 ZIN A   1      17.729  -0.867   4.920  0.00  0.00     0.067 C 
ENDROOT
BRANCH  11  17
ATOM     17  C18 ZIN A   1      17.766   1.134   9.548  0.00  0.00     0.017 C 
BRANCH  17  18
ATOM     18  C19 ZIN A   1      17.597   2.185  10.647  0.00  0.00    -0.022 C 
ATOM     19  C20 ZIN A   1      17.698   1.511  12.017  0.00  0.00     0.009 C 
ATOM     20  C21 ZIN A   1      18.697   3.242  10.516  0.00  0.00     0.009 C 
ENDBRANCH  17  18
ENDBRANCH  11  17
BRANCH   6  21
ATOM     21  O9  ZIN A   1      19.236  -6.008   6.682  0.00  0.00    -0.353 OA
ATOM     22  C10 ZIN A   1      18.509  -6.555   7.784  0.00  0.00     0.210 C 
ENDBRANCH   6  21
BRANCH   1  23
ATOM     23  O2  ZIN A   1      17.617  -5.711   4.469  0.00  0.00    -0.353 OA
ATOM     24  C1  ZIN A   1      16.209  -5.808   4.243  0.00  0.00     0.210 C 
ENDBRANCH   1  23
TORSDOF 4
ENDMDL
MODEL 8
REMARK VINA RESULT:      -6.8      2.279      6.932
REMARK  4 active torsions:
REMARK  status: ('A' for Active; 'I' for Inactive)
REMARK    1  A    between atoms: O2_2  and  C3_3 
REMARK    2  A    between atoms: C8_8  and  O9_9 
REMARK    3  A    between atoms: C16_15  and  C18_16 
REMARK    4  A    between atoms: C18_16  and  C19_17 
ROOT
ATOM      1  C3  ZIN A   1      19.129   2.355  16.258  0.00  0.00     0.102 A 
ATOM      2  C4  ZIN A   1      19.049   3.046  15.060  0.00  0.00     0.047 A 
ATOM      3  C5  ZIN A   1      18.534   2.430  13.930  0.00  0.00    -0.045 A 
ATOM      4  C6  ZIN A   1      18.097   1.124  13.994  0.00  0.00    -0.018 A 
ATOM      5  C7  ZIN A   1      18.176   0.428  15.191  0.00  0.00     0.049 A 
ATOM      6  C8  ZIN A   1      18.695   1.035  16.321  0.00  0.00     0.102 A 
ATOM      7  C11 ZIN A   1      17.526   0.418  12.793  0.00  0.00     0.228 C 
ATOM      8  C13 ZIN A   1      18.067  -1.016  12.745  0.00  0.00     0.116 C 
ATOM      9  C14 ZIN A   1      17.548  -1.673  11.482  0.00  0.00     0.135 C 
ATOM     10  O15 ZIN A   1      17.046  -2.771  11.510  0.00  0.00    -0.297 OA
ATOM     11  C16 ZIN A   1      17.684  -0.904  10.183  0.00  0.00     0.081 C 
ATOM     12  C22 ZIN A   1      17.170   0.521  10.416  0.00  0.00     0.247 C 
ATOM     13  N23 ZIN A   1      17.896   1.106  11.554  0.00  0.00    -0.061 N 
ATOM     14  H24 ZIN A   1      18.888   1.026  11.395  0.00  0.00     0.280 HD
ATOM     15  C25 ZIN A   1      17.534   2.525  11.684  0.00  0.00     0.240 C 
ATOM     16  C26 ZIN A   1      18.468   3.216  12.647  0.00  0.00     0.067 C 
ENDROOT
BRANCH  11  17
ATOM     17  C18 ZIN A   1      19.154  -0.861   9.760  0.00  0.00     0.017 C 
BRANCH  17  18
ATOM     18  C19 ZIN A   1      19.269  -1.229   8.280  0.00  0.00    -0.022 C 
ATOM     19  C20 ZIN A   1      18.256  -2.328   7.947  0.00  0.00     0.009 C 
ATOM     20  C21 ZIN A   1      18.981   0.006   7.423  0.00  0.00     0.009 C 
ENDBRANCH  17  18
ENDBRANCH  11  17
BRANCH   6  21
ATOM     21  O9  ZIN A   1      18.771   0.347  17.492  0.00  0.00    -0.353 OA
ATOM     22  C10 ZIN A   1      19.220  -1.007  17.421  0.00  0.00     0.210 C 
ENDBRANCH   6  21
BRANCH   1  23
ATOM     23  O2  ZIN A   1      19.634   2.964  17.364  0.00  0.00    -0.353 OA
ATOM     24  C1  ZIN A   1      18.698   3.589  18.246  0.00  0.00     0.210 C 
ENDBRANCH   1  23
TORSDOF 4
ENDMDL
MODEL 9
REMARK VINA RESULT:      -6.8      3.318      4.574
REMARK  4 active torsions:
REMARK  status: ('A' for Active; 'I' for Inactive)
REMARK    1  A    between atoms: O2_2  and  C3_3 
REMARK    2  A    between atoms: C8_8  and  O9_9 
REMARK    3  A    between atoms: C16_15  and  C18_16 
REMARK    4  A    between atoms: C18_16  and  C19_17 
ROOT
ATOM      1  C3  ZIN A   1      18.290  -3.311   6.262  0.00  0.00     0.102 A 
ATOM      2  C4  ZIN A   1      18.140  -2.010   5.811  0.00  0.00     0.047 A 
ATOM      3  C5  ZIN A   1      18.549  -0.945   6.599  0.00  0.00    -0.045 A 
ATOM      4  C6  ZIN A   1      19.110  -1.177   7.837  0.00  0.00    -0.018 A 
ATOM      5  C7  ZIN A   1      19.261  -2.479   8.293  0.00  0.00     0.049 A 
ATOM      6  C8  ZIN A   1      18.849  -3.545   7.514  0.00  0.00     0.102 A 
ATOM      7  C11 ZIN A   1      19.573  -0.051   8.723  0.00  0.00     0.228 C 
ATOM      8  C13 ZIN A   1      19.165  -0.346  10.171  0.00  0.00     0.116 C 
ATOM      9  C14 ZIN A   1      19.563   0.840  11.025  0.00  0.00     0.135 C 
ATOM     10  O15 ZIN A   1      20.164   0.691  12.061  0.00  0.00    -0.297 OA
ATOM     11  C16 ZIN A   1      19.179   2.221  10.531  0.00  0.00     0.081 C 
ATOM     12  C22 ZIN A   1      19.587   2.332   9.057  0.00  0.00     0.247 C 
ATOM     13  N23 ZIN A   1      18.973   1.221   8.313  0.00  0.00    -0.061 N 
ATOM     14  H24 ZIN A   1      17.980   1.209   8.486  0.00  0.00     0.280 HD
ATOM     15  C25 ZIN A   1      19.216   1.407   6.875  0.00  0.00     0.240 C 
ATOM     16  C26 ZIN A   1      18.364   0.454   6.072  0.00  0.00     0.067 C 
ENDROOT
BRANCH  11  17
ATOM     17  C18 ZIN A   1      17.668   2.415  10.665  0.00  0.00     0.017 C 
BRANCH  17  18
ATOM     18  C19 ZIN A   1      17.387   3.695  11.455  0.00  0.00    -0.022 C 
ATOM     19  C20 ZIN A   1      18.615   4.058  12.292  0.00  0.00     0.009 C 
ATOM     20  C21 ZIN A   1      17.075   4.836  10.484  0.00  0.00     0.009 C 
ENDBRANCH  17  18
ENDBRANCH  11  17
BRANCH   6  21
ATOM     21  O9  ZIN A   1      18.999  -4.819   7.967  0.00  0.00    -0.353 OA
ATOM     22  C10 ZIN A   1      20.308  -5.386   7.886  0.00  0.00     0.210 C 
ENDBRANCH   6  21
BRANCH   1  23
ATOM     23  O2  ZIN A   1      17.888  -4.353   5.486  0.00  0.00    -0.353 OA
ATOM     24  C1  ZIN A   1      17.793  -4.116   4.079  0.00  0.00     0.210 C 
ENDBRANCH   1  23
TORSDOF 4
ENDMDL
