MODEL 1
REMARK VINA RESULT:      -7.2      0.000      0.000
REMARK  2 active torsions:
REMARK  status: ('A' for Active; 'I' for Inactive)
REMARK    1  A    between atoms: N1_1  and  S2_2 
REMARK    2  A    between atoms: S2_2  and  C5_5 
ROOT
ATOM      1  C5  ZIN A   1      19.196  -1.138   6.626  0.00  0.00     0.102 A 
ATOM      2  C6  ZIN A   1      19.447  -1.164   7.986  0.00  0.00     0.054 A 
ATOM      3  C7  ZIN A   1      19.395   0.002   8.721  0.00  0.00     0.107 A 
ATOM      4  C8  ZIN A   1      19.098   1.212   8.107  0.00  0.00     0.054 A 
ATOM      5  C9  ZIN A   1      18.836   1.229   6.739  0.00  0.00     0.056 A 
ATOM      6  C10 ZIN A   1      18.892   0.062   6.005  0.00  0.00     0.059 A 
ATOM      7 Cl11 ZIN A   1      18.567   0.094   4.300  0.00  0.00    -0.083 Cl
ATOM      8  N12 ZIN A   1      19.078   2.413   8.810  0.00  0.00    -0.372 N 
ATOM      9  C13 ZIN A   1      18.892   2.495  10.257  0.00  0.00     0.255 C 
ATOM     10  N14 ZIN A   1      19.834   1.561  10.909  0.00  0.00    -0.299 N 
ATOM     11  S15 ZIN A   1      19.699  -0.040  10.461  0.00  0.00     0.262 S 
ATOM     12  O16 ZIN A   1      18.516  -0.538  11.072  0.00  0.00    -0.200 OA
ATOM     13  O17 ZIN A   1      20.981  -0.625  10.640  0.00  0.00    -0.200 OA
ATOM     14  H22 ZIN A   1      19.193   3.239   8.314  0.00  0.00     0.161 HD
ATOM     15  H25 ZIN A   1      20.489   1.861  11.557  0.00  0.00     0.174 HD
ENDROOT
BRANCH   1  16
ATOM     16  S2  ZIN A   1      19.270  -2.625   5.685  0.00  0.00     0.258 S 
ATOM     17  O3  ZIN A   1      20.046  -3.542   6.444  0.00  0.00    -0.201 OA
ATOM     18  O4  ZIN A   1      19.598  -2.244   4.356  0.00  0.00    -0.201 OA
BRANCH  16  19
ATOM     19  N1  ZIN A   1      17.736  -3.247   5.628  0.00  0.00    -0.324 N 
ATOM     20  H18 ZIN A   1      17.157  -3.182   6.404  0.00  0.00     0.169 HD
ATOM     21  H19 ZIN A   1      17.416  -3.672   4.818  0.00  0.00     0.169 HD
ENDBRANCH  16  19
ENDBRANCH   1  16
TORSDOF 2
ENDMDL
MODEL 2
REMARK VINA RESULT:      -7.0      1.435      1.562
REMARK  2 active torsions:
REMARK  status: ('A' for Active; 'I' for Inactive)
REMARK    1  A    between atoms: N1_1  and  S2_2 
REMARK    2  A    between atoms: S2_2  and  C5_5 
ROOT
ATOM      1  C5  ZIN A   1      18.568  -1.007   7.304  0.00  0.00     0.102 A 
ATOM      2  C6  ZIN A   1      18.156  -1.031   8.625  0.00  0.00     0.054 A 
ATOM      3  C7  ZIN A   1      18.136   0.134   9.363  0.00  0.00     0.107 A 
ATOM      4  C8  ZIN A   1      18.535   1.337   8.797  0.00  0.00     0.054 A 
ATOM      5  C9  ZIN A   1      18.938   1.356   7.463  0.00  0.00     0.056 A 
ATOM      6  C10 ZIN A   1      18.960   0.188   6.728  0.00  0.00     0.059 A 
ATOM      7 Cl11 ZIN A   1      19.468   0.221   5.067  0.00  0.00    -0.083 Cl
ATOM      8  N12 ZIN A   1      18.567   2.523   9.525  0.00  0.00    -0.372 N 
ATOM      9  C13 ZIN A   1      17.782   2.744  10.737  0.00  0.00     0.255 C 
ATOM     10  N14 ZIN A   1      17.992   1.602  11.651  0.00  0.00    -0.299 N 
ATOM     11  S15 ZIN A   1      17.591   0.101  11.044  0.00  0.00     0.262 S 
ATOM     12  O16 ZIN A   1      16.172   0.036  11.014  0.00  0.00    -0.200 OA
ATOM     13  O17 ZIN A   1      18.407  -0.846  11.721  0.00  0.00    -0.200 OA
ATOM     14  H22 ZIN A   1      19.140   3.240   9.211  0.00  0.00     0.161 HD
ATOM     15  H25 ZIN A   1      18.340   1.719  12.549  0.00  0.00     0.174 HD
ENDROOT
BRANCH   1  16
ATOM     16  S2  ZIN A   1      18.600  -2.496   6.362  0.00  0.00     0.258 S 
ATOM     17  O3  ZIN A   1      19.966  -2.871   6.252  0.00  0.00    -0.201 OA
ATOM     18  O4  ZIN A   1      17.761  -2.277   5.236  0.00  0.00    -0.201 OA
BRANCH  16  19
ATOM     19  N1  ZIN A   1      17.865  -3.668   7.272  0.00  0.00    -0.324 N 
ATOM     20  H18 ZIN A   1      18.201  -4.578   7.253  0.00  0.00     0.169 HD
ATOM     21  H19 ZIN A   1      17.102  -3.443   7.827  0.00  0.00     0.169 HD
ENDBRANCH  16  19
ENDBRANCH   1  16
TORSDOF 2
ENDMDL
MODEL 3
REMARK VINA RESULT:      -7.0      7.686      9.415
REMARK  2 active torsions:
REMARK  status: ('A' for Active; 'I' for Inactive)
REMARK    1  A    between atoms: N1_1  and  S2_2 
REMARK    2  A    between atoms: S2_2  and  C5_5 
ROOT
ATOM      1  C5  ZIN A   1      18.814   1.862  16.491  0.00  0.00     0.102 A 
ATOM      2  C6  ZIN A   1      18.907   3.132  15.953  0.00  0.00     0.054 A 
ATOM      3  C7  ZIN A   1      18.912   3.304  14.584  0.00  0.00     0.107 A 
ATOM      4  C8  ZIN A   1      18.833   2.210  13.734  0.00  0.00     0.054 A 
ATOM      5  C9  ZIN A   1      18.729   0.933  14.283  0.00  0.00     0.056 A 
ATOM      6  C10 ZIN A   1      18.727   0.764  15.652  0.00  0.00     0.059 A 
ATOM      7 Cl11 ZIN A   1      18.601  -0.831  16.327  0.00  0.00    -0.083 Cl
ATOM      8  N12 ZIN A   1      18.878   2.344  12.349  0.00  0.00    -0.372 N 
ATOM      9  C13 ZIN A   1      18.543   3.582  11.650  0.00  0.00     0.255 C 
ATOM     10  N14 ZIN A   1      19.287   4.695  12.275  0.00  0.00    -0.299 N 
ATOM     11  S15 ZIN A   1      19.012   4.932  13.903  0.00  0.00     0.262 S 
ATOM     12  O16 ZIN A   1      17.718   5.507  14.021  0.00  0.00    -0.200 OA
ATOM     13  O17 ZIN A   1      20.188   5.527  14.434  0.00  0.00    -0.200 OA
ATOM     14  H22 ZIN A   1      19.145   1.575  11.821  0.00  0.00     0.161 HD
ATOM     15  H25 ZIN A   1      19.897   5.253  11.769  0.00  0.00     0.174 HD
ENDROOT
BRANCH   1  16
ATOM     16  S2  ZIN A   1      18.814   1.640  18.239  0.00  0.00     0.258 S 
ATOM     17  O3  ZIN A   1      19.971   0.874  18.546  0.00  0.00    -0.201 OA
ATOM     18  O4  ZIN A   1      17.499   1.236  18.593  0.00  0.00    -0.201 OA
BRANCH  16  19
ATOM     19  N1  ZIN A   1      19.046   3.131  18.922  0.00  0.00    -0.324 N 
ATOM     20  H18 ZIN A   1      18.358   3.810  18.849  0.00  0.00     0.169 HD
ATOM     21  H19 ZIN A   1      19.869   3.323  19.398  0.00  0.00     0.169 HD
ENDBRANCH  16  19
ENDBRANCH   1  16
TORSDOF 2
ENDMDL
MODEL 4
REMARK VINA RESULT:      -6.9      2.565      5.281
REMARK  2 active torsions:
REMARK  status: ('A' for Active; 'I' for Inactive)
REMARK    1  A    between atoms: N1_1  and  S2_2 
REMARK    2  A    between atoms: S2_2  and  C5_5 
ROOT
ATOM      1  C5  ZIN A   1      18.984  -0.995   9.669  0.00  0.00     0.102 A 
ATOM      2  C6  ZIN A   1      19.106  -2.007   8.734  0.00  0.00     0.054 A 
ATOM      3  C7  ZIN A   1      18.495  -1.889   7.503  0.00  0.00     0.107 A 
ATOM      4  C8  ZIN A   1      17.748  -0.761   7.190  0.00  0.00     0.054 A 
ATOM      5  C9  ZIN A   1      17.638   0.260   8.132  0.00  0.00     0.056 A 
ATOM      6  C10 ZIN A   1      18.247   0.137   9.364  0.00  0.00     0.059 A 
ATOM      7 Cl11 ZIN A   1      18.101   1.414  10.533  0.00  0.00    -0.083 Cl
ATOM      8  N12 ZIN A   1      17.084  -0.628   5.974  0.00  0.00    -0.372 N 
ATOM      9  C13 ZIN A   1      17.456  -1.367   4.770  0.00  0.00     0.255 C 
ATOM     10  N14 ZIN A   1      17.571  -2.800   5.110  0.00  0.00    -0.299 N 
ATOM     11  S15 ZIN A   1      18.670  -3.178   6.307  0.00  0.00     0.262 S 
ATOM     12  O16 ZIN A   1      19.963  -3.035   5.736  0.00  0.00    -0.200 OA
ATOM     13  O17 ZIN A   1      18.210  -4.374   6.922  0.00  0.00    -0.200 OA
ATOM     14  H22 ZIN A   1      16.336  -0.012   5.923  0.00  0.00     0.161 HD
ATOM     15  H25 ZIN A   1      17.040  -3.478   4.665  0.00  0.00     0.174 HD
ENDROOT
BRANCH   1  16
ATOM     16  S2  ZIN A   1      19.757  -1.148  11.244  0.00  0.00     0.258 S 
ATOM     17  O3  ZIN A   1      18.709  -1.252  12.197  0.00  0.00    -0.201 OA
ATOM     18  O4  ZIN A   1      20.760  -0.143  11.299  0.00  0.00    -0.201 OA
BRANCH  16  19
ATOM     19  N1  ZIN A   1      20.551  -2.602  11.261  0.00  0.00    -0.324 N 
ATOM     20  H18 ZIN A   1      21.081  -2.855  12.032  0.00  0.00     0.169 HD
ATOM     21  H19 ZIN A   1      20.482  -3.200  10.500  0.00  0.00     0.169 HD
ENDBRANCH  16  19
ENDBRANCH   1  16
TORSDOF 2
ENDMDL
MODEL 5
REMARK VINA RESULT:      -6.9      5.888      7.868
REMARK  2 active torsions:
REMARK  status: ('A' for Active; 'I' for Inactive)
REMARK    1  A    between atoms: N1_1  and  S2_2 
REMARK    2  A    between atoms: S2_2  and  C5_5 
ROOT
ATOM      1  C5  ZIN A   1      19.118   0.931  13.541  0.00  0.00     0.102 A 
ATOM      2  C6  ZIN A   1      19.173   1.968  14.455  0.00  0.00     0.054 A 
ATOM      3  C7  ZIN A   1      18.583   1.830  15.694  0.00  0.00     0.107 A 
ATOM      4  C8  ZIN A   1      17.923   0.657  16.035  0.00  0.00     0.054 A 
ATOM      5  C9  ZIN A   1      17.880  -0.388  15.114  0.00  0.00     0.056 A 
ATOM      6  C10 ZIN A   1      18.469  -0.245  13.874  0.00  0.00     0.059 A 
ATOM      7 Cl11 ZIN A   1      18.407  -1.551  12.731  0.00  0.00    -0.083 Cl
ATOM      8  N12 ZIN A   1      17.281   0.499  17.261  0.00  0.00    -0.372 N 
ATOM      9  C13 ZIN A   1      17.608   1.287  18.447  0.00  0.00     0.255 C 
ATOM     10  N14 ZIN A   1      17.615   2.717  18.078  0.00  0.00    -0.299 N 
ATOM     11  S15 ZIN A   1      18.673   3.151  16.864  0.00  0.00     0.262 S 
ATOM     12  O16 ZIN A   1      19.978   3.114  17.425  0.00  0.00    -0.200 OA
ATOM     13  O17 ZIN A   1      18.122   4.298  16.231  0.00  0.00    -0.200 OA
ATOM     14  H22 ZIN A   1      16.581  -0.169  17.330  0.00  0.00     0.161 HD
ATOM     15  H25 ZIN A   1      17.040   3.364  18.516  0.00  0.00     0.174 HD
ENDROOT
BRANCH   1  16
ATOM     16  S2  ZIN A   1      19.865   1.110  11.956  0.00  0.00     0.258 S 
ATOM     17  O3  ZIN A   1      18.809   1.063  11.007  0.00  0.00    -0.201 OA
ATOM     18  O4  ZIN A   1      20.973   0.220  11.931  0.00  0.00    -0.201 OA
BRANCH  16  19
ATOM     19  N1  ZIN A   1      20.493   2.641  11.879  0.00  0.00    -0.324 N 
ATOM     20  H18 ZIN A   1      20.048   3.322  11.352  0.00  0.00     0.169 HD
ATOM     21  H19 ZIN A   1      21.304   2.856  12.366  0.00  0.00     0.169 HD
ENDBRANCH  16  19
ENDBRANCH   1  16
TORSDOF 2
ENDMDL
MODEL 6
REMARK VINA RESULT:      -6.9      5.785      8.580
REMARK  2 active torsions:
REMARK  status: ('A' for Active; 'I' for Inactive)
REMARK    1  A    between atoms: N1_1  and  S2_2 
REMARK    2  A    between atoms: S2_2  and  C5_5 
ROOT
ATOM      1  C5  ZIN A   1      18.825   0.829  15.749  0.00  0.00     0.102 A 
ATOM      2  C6  ZIN A   1      18.719   1.750  14.722  0.00  0.00     0.054 A 
ATOM      3  C7  ZIN A   1      18.992   1.371  13.424  0.00  0.00     0.107 A 
ATOM      4  C8  ZIN A   1      19.381   0.071  13.134  0.00  0.00     0.054 A 
ATOM      5  C9  ZIN A   1      19.475  -0.855  14.172  0.00  0.00     0.056 A 
ATOM      6  C10 ZIN A   1      19.205  -0.472  15.470  0.00  0.00     0.059 A 
ATOM      7 Cl11 ZIN A   1      19.328  -1.631  16.757  0.00  0.00    -0.083 Cl
ATOM      8  N12 ZIN A   1      19.704  -0.335  11.842  0.00  0.00    -0.372 N 
ATOM      9  C13 ZIN A   1      19.239   0.359  10.643  0.00  0.00     0.255 C 
ATOM     10  N14 ZIN A   1      19.523   1.801  10.789  0.00  0.00    -0.299 N 
ATOM     11  S15 ZIN A   1      18.837   2.547  12.114  0.00  0.00     0.262 S 
ATOM     12  O16 ZIN A   1      17.449   2.675  11.839  0.00  0.00    -0.200 OA
ATOM     13  O17 ZIN A   1      19.677   3.644  12.447  0.00  0.00    -0.200 OA
ATOM     14  H22 ZIN A   1      20.265  -1.118  11.732  0.00  0.00     0.161 HD
ATOM     15  H25 ZIN A   1      20.074   2.283  10.154  0.00  0.00     0.174 HD
ENDROOT
BRANCH   1  16
ATOM     16  S2  ZIN A   1      18.485   1.314  17.409  0.00  0.00     0.258 S 
ATOM     17  O3  ZIN A   1      19.720   1.247  18.108  0.00  0.00    -0.201 OA
ATOM     18  O4  ZIN A   1      17.326   0.594  17.807  0.00  0.00    -0.201 OA
BRANCH  16  19
ATOM     19  N1  ZIN A   1      18.053   2.912  17.374  0.00  0.00    -0.324 N 
ATOM     20  H18 ZIN A   1      17.377   3.219  16.750  0.00  0.00     0.169 HD
ATOM     21  H19 ZIN A   1      18.475   3.541  17.981  0.00  0.00     0.169 HD
ENDBRANCH  16  19
ENDBRANCH   1  16
TORSDOF 2
ENDMDL
MODEL 7
REMARK VINA RESULT:      -6.9      3.308      5.925
REMARK  2 active torsions:
REMARK  status: ('A' for Active; 'I' for Inactive)
REMARK    1  A    between atoms: N1_1  and  S2_2 
REMARK    2  A    between atoms: S2_2  and  C5_5 
ROOT
ATOM      1  C5  ZIN A   1      18.822   1.424  10.149  0.00  0.00     0.102 A 
ATOM      2  C6  ZIN A   1      18.604   1.340   8.786  0.00  0.00     0.054 A 
ATOM      3  C7  ZIN A   1      18.882   0.168   8.112  0.00  0.00     0.107 A 
ATOM      4  C8  ZIN A   1      19.389  -0.933   8.789  0.00  0.00     0.054 A 
ATOM      5  C9  ZIN A   1      19.596  -0.845  10.164  0.00  0.00     0.056 A 
ATOM      6  C10 ZIN A   1      19.321   0.329  10.834  0.00  0.00     0.059 A 
ATOM      7 Cl11 ZIN A   1      19.586   0.431  12.548  0.00  0.00    -0.083 Cl
ATOM      8  N12 ZIN A   1      19.720  -2.116   8.134  0.00  0.00    -0.372 N 
ATOM      9  C13 ZIN A   1      19.162  -2.501   6.839  0.00  0.00     0.255 C 
ATOM     10  N14 ZIN A   1      19.308  -1.366   5.905  0.00  0.00    -0.299 N 
ATOM     11  S15 ZIN A   1      18.583   0.061   6.373  0.00  0.00     0.262 S 
ATOM     12  O16 ZIN A   1      17.183  -0.116   6.208  0.00  0.00    -0.200 OA
ATOM     13  O17 ZIN A   1      19.320   1.113   5.765  0.00  0.00    -0.200 OA
ATOM     14  H22 ZIN A   1      20.352  -2.716   8.559  0.00  0.00     0.161 HD
ATOM     15  H25 ZIN A   1      19.795  -1.447   5.070  0.00  0.00     0.174 HD
ENDROOT
BRANCH   1  16
ATOM     16  S2  ZIN A   1      18.475   2.922  11.008  0.00  0.00     0.258 S 
ATOM     17  O3  ZIN A   1      19.712   3.378  11.536  0.00  0.00    -0.201 OA
ATOM     18  O4  ZIN A   1      17.333   2.666  11.815  0.00  0.00    -0.201 OA
BRANCH  16  19
ATOM     19  N1  ZIN A   1      18.008   4.039   9.878  0.00  0.00    -0.324 N 
ATOM     20  H18 ZIN A   1      17.110   4.404   9.899  0.00  0.00     0.169 HD
ATOM     21  H19 ZIN A   1      18.635   4.330   9.198  0.00  0.00     0.169 HD
ENDBRANCH  16  19
ENDBRANCH   1  16
TORSDOF 2
ENDMDL
MODEL 8
REMARK VINA RESULT:      -6.8      6.454      8.142
REMARK  2 active torsions:
REMARK  status: ('A' for Active; 'I' for Inactive)
REMARK    1  A    between atoms: N1_1  and  S2_2 
REMARK    2  A    between atoms: S2_2  and  C5_5 
ROOT
ATOM      1  C5  ZIN A   1      19.238   1.357  14.235  0.00  0.00     0.102 A 
ATOM      2  C6  ZIN A   1      19.159   1.052  15.582  0.00  0.00     0.054 A 
ATOM      3  C7  ZIN A   1      18.856   2.038  16.497  0.00  0.00     0.107 A 
ATOM      4  C8  ZIN A   1      18.635   3.344  16.082  0.00  0.00     0.054 A 
ATOM      5  C9  ZIN A   1      18.705   3.643  14.722  0.00  0.00     0.056 A 
ATOM      6  C10 ZIN A   1      19.012   2.655  13.809  0.00  0.00     0.059 A 
ATOM      7 Cl11 ZIN A   1      19.101   3.036  12.117  0.00  0.00    -0.083 Cl
ATOM      8  N12 ZIN A   1      18.368   4.372  16.982  0.00  0.00    -0.372 N 
ATOM      9  C13 ZIN A   1      17.838   4.148  18.324  0.00  0.00     0.255 C 
ATOM     10  N14 ZIN A   1      18.657   3.114  18.990  0.00  0.00    -0.299 N 
ATOM     11  S15 ZIN A   1      18.739   1.639  18.215  0.00  0.00     0.262 S 
ATOM     12  O16 ZIN A   1      17.481   1.006  18.404  0.00  0.00    -0.200 OA
ATOM     13  O17 ZIN A   1      19.978   1.050  18.585  0.00  0.00    -0.200 OA
ATOM     14  H22 ZIN A   1      18.543   5.285  16.703  0.00  0.00     0.161 HD
ATOM     15  H25 ZIN A   1      19.118   3.283  19.826  0.00  0.00     0.174 HD
ENDROOT
BRANCH   1  16
ATOM     16  S2  ZIN A   1      19.633   0.099  13.066  0.00  0.00     0.258 S 
ATOM     17  O3  ZIN A   1      20.834   0.508  12.428  0.00  0.00    -0.201 OA
ATOM     18  O4  ZIN A   1      18.433  -0.182  12.358  0.00  0.00    -0.201 OA
BRANCH  16  19
ATOM     19  N1  ZIN A   1      20.001  -1.269  13.924  0.00  0.00    -0.324 N 
ATOM     20  H18 ZIN A   1      20.758  -1.272  14.530  0.00  0.00     0.169 HD
ATOM     21  H19 ZIN A   1      19.458  -2.066  13.821  0.00  0.00     0.169 HD
ENDBRANCH  16  19
ENDBRANCH   1  16
TORSDOF 2
ENDMDL
MODEL 9
REMARK VINA RESULT:      -6.8      1.837      2.087
REMARK  2 active torsions:
REMARK  status: ('A' for Active; 'I' for Inactive)
REMARK    1  A    between atoms: N1_1  and  S2_2 
REMARK    2  A    between atoms: S2_2  and  C5_5 
ROOT
ATOM      1  C5  ZIN A   1      18.881  -1.207   7.338  0.00  0.00     0.102 A 
ATOM      2  C6  ZIN A   1      18.877  -1.907   8.532  0.00  0.00     0.054 A 
ATOM      3  C7  ZIN A   1      19.241  -1.277   9.703  0.00  0.00     0.107 A 
ATOM      4  C8  ZIN A   1      19.622   0.058   9.700  0.00  0.00     0.054 A 
ATOM      5  C9  ZIN A   1      19.614   0.760   8.496  0.00  0.00     0.056 A 
ATOM      6  C10 ZIN A   1      19.253   0.126   7.325  0.00  0.00     0.059 A 
ATOM      7 Cl11 ZIN A   1      19.249   1.008   5.829  0.00  0.00    -0.083 Cl
ATOM      8  N12 ZIN A   1      20.035   0.713  10.857  0.00  0.00    -0.372 N 
ATOM      9  C13 ZIN A   1      19.681   0.267  12.202  0.00  0.00     0.255 C 
ATOM     10  N14 ZIN A   1      19.986  -1.173  12.320  0.00  0.00    -0.299 N 
ATOM     11  S15 ZIN A   1      19.215  -2.172  11.228  0.00  0.00     0.262 S 
ATOM     12  O16 ZIN A   1      17.856  -2.252  11.634  0.00  0.00    -0.200 OA
ATOM     13  O17 ZIN A   1      20.051  -3.307  11.051  0.00  0.00    -0.200 OA
ATOM     14  H22 ZIN A   1      20.586   1.506  10.764  0.00  0.00     0.161 HD
ATOM     15  H25 ZIN A   1      20.595  -1.517  12.991  0.00  0.00     0.174 HD
ENDROOT
BRANCH   1  16
ATOM     16  S2  ZIN A   1      18.424  -2.013   5.840  0.00  0.00     0.258 S 
ATOM     17  O3  ZIN A   1      19.632  -2.279   5.142  0.00  0.00    -0.201 OA
ATOM     18  O4  ZIN A   1      17.357  -1.254   5.286  0.00  0.00    -0.201 OA
BRANCH  16  19
ATOM     19  N1  ZIN A   1      17.786  -3.485   6.250  0.00  0.00    -0.324 N 
ATOM     20  H18 ZIN A   1      16.831  -3.580   6.384  0.00  0.00     0.169 HD
ATOM     21  H19 ZIN A   1      18.369  -4.254   6.352  0.00  0.00     0.169 HD
ENDBRANCH  16  19
ENDBRANCH   1  16
TORSDOF 2
ENDMDL
