MODEL 1
REMARK VINA RESULT:      -8.9      0.000      0.000
REMARK  9 active torsions:
REMARK  status: ('A' for Active; 'I' for Inactive)
REMARK    1  A    between atoms: C5_5  and  C6_6 
REMARK    2  A    between atoms: C9_8  and  C11_9 
REMARK    3  A    between atoms: C11_9  and  O12_10 
REMARK    4  A    between atoms: C13_11  and  O15_12 
REMARK    5  A    between atoms: C16_13  and  O18_14 
REMARK    6  A    between atoms: C19_15  and  O21_16 
REMARK    7  A    between atoms: C23_18  and  C24_19 
REMARK    8  A    between atoms: C24_19  and  C25_20 
REMARK    9  A    between atoms: C28_23  and  C29_24 
ROOT
ATOM      1  C1  ZIN A   1      19.232   2.095   9.086  0.00  0.00     0.049 C 
ATOM      2  C2  ZIN A   1      18.967   0.681   8.638  0.00  0.00    -0.055 A 
ATOM      3  C3  ZIN A   1      18.033   0.432   7.650  0.00  0.00     0.008 A 
ATOM      4  C4  ZIN A   1      17.790  -0.865   7.238  0.00  0.00     0.010 A 
ATOM      5  C5  ZIN A   1      18.482  -1.913   7.815  0.00  0.00    -0.026 A 
ATOM      6  C22 ZIN A   1      19.418  -1.665   8.801  0.00  0.00     0.017 A 
ATOM      7  C23 ZIN A   1      19.664  -0.368   9.210  0.00  0.00    -0.047 A 
ENDROOT
BRANCH   5   8
ATOM      8  C6  ZIN A   1      18.217  -3.327   7.366  0.00  0.00     0.186 C 
ATOM      9  C19 ZIN A   1      19.548  -4.032   7.086  0.00  0.00     0.182 C 
ATOM     10  C16 ZIN A   1      19.273  -5.486   6.689  0.00  0.00     0.181 C 
ATOM     11  C13 ZIN A   1      18.480  -6.168   7.808  0.00  0.00     0.180 C 
ATOM     12  C9  ZIN A   1      17.191  -5.381   8.061  0.00  0.00     0.177 C 
ATOM     13  O8  ZIN A   1      17.516  -4.030   8.394  0.00  0.00    -0.368 OA
BRANCH   9  14
ATOM     14  O21 ZIN A   1      20.226  -3.366   6.019  0.00  0.00    -0.390 OA
ATOM     15  H47 ZIN A   1      20.247  -3.869   5.192  0.00  0.00     0.210 HD
ENDBRANCH   9  14
BRANCH  10  16
ATOM     16  O18 ZIN A   1      20.511  -6.172   6.496  0.00  0.00    -0.390 OA
ATOM     17  H46 ZIN A   1      21.292  -5.646   6.717  0.00  0.00     0.210 HD
ENDBRANCH  10  16
BRANCH  11  18
ATOM     18  O15 ZIN A   1      18.155  -7.504   7.419  0.00  0.00    -0.390 OA
ATOM     19  H45 ZIN A   1      17.761  -7.572   6.539  0.00  0.00     0.210 HD
ENDBRANCH  11  18
BRANCH  12  20
ATOM     20  C11 ZIN A   1      16.420  -6.021   9.217  0.00  0.00     0.198 C 
BRANCH  20  21
ATOM     21  O12 ZIN A   1      17.343  -6.502  10.197  0.00  0.00    -0.398 OA
ATOM     22  H44 ZIN A   1      18.007  -7.111   9.847  0.00  0.00     0.209 HD
ENDBRANCH  20  21
ENDBRANCH  12  20
ENDBRANCH   5   8
BRANCH   7  23
ATOM     23  C24 ZIN A   1      20.683  -0.097  10.287  0.00  0.00     0.085 C 
BRANCH  23  24
ATOM     24  C25 ZIN A   1      20.047  -0.282  11.640  0.00  0.00    -0.013 A 
ATOM     25  S36 ZIN A   1      19.876   0.975  12.858  0.00  0.00    -0.094 SA
ATOM     26  C28 ZIN A   1      19.085  -0.151  13.953  0.00  0.00     0.015 A 
ATOM     27  C27 ZIN A   1      19.002  -1.363  13.370  0.00  0.00     0.021 A 
ATOM     28  C26 ZIN A   1      19.533  -1.427  12.097  0.00  0.00     0.016 A 
BRANCH  26  29
ATOM     29  C29 ZIN A   1      18.593   0.180  15.308  0.00  0.00    -0.019 A 
ATOM     30  C35 ZIN A   1      19.085   1.301  15.977  0.00  0.00     0.016 A 
ATOM     31  C34 ZIN A   1      18.618   1.607  17.239  0.00  0.00     0.043 A 
ATOM     32  C32 ZIN A   1      17.670   0.798  17.845  0.00  0.00     0.116 A 
ATOM     33  C31 ZIN A   1      17.183  -0.320  17.187  0.00  0.00     0.043 A 
ATOM     34  F33 ZIN A   1      17.222   1.100  19.083  0.00  0.00    -0.206 F 
ATOM     35  C30 ZIN A   1      17.638  -0.632  15.923  0.00  0.00     0.016 A 
ENDBRANCH  26  29
ENDBRANCH  23  24
ENDBRANCH   7  23
TORSDOF 9
ENDMDL
MODEL 2
REMARK VINA RESULT:      -8.7      5.750     10.056
REMARK  9 active torsions:
REMARK  status: ('A' for Active; 'I' for Inactive)
REMARK    1  A    between atoms: C5_5  and  C6_6 
REMARK    2  A    between atoms: C9_8  and  C11_9 
REMARK    3  A    between atoms: C11_9  and  O12_10 
REMARK    4  A    between atoms: C13_11  and  O15_12 
REMARK    5  A    between atoms: C16_13  and  O18_14 
REMARK    6  A    between atoms: C19_15  and  O21_16 
REMARK    7  A    between atoms: C23_18  and  C24_19 
REMARK    8  A    between atoms: C24_19  and  C25_20 
REMARK    9  A    between atoms: C28_23  and  C29_24 
ROOT
ATOM      1  C1  ZIN A   1      18.226  -2.426  16.668  0.00  0.00     0.049 C 
ATOM      2  C2  ZIN A   1      18.269  -0.930  16.493  0.00  0.00    -0.055 A 
ATOM      3  C3  ZIN A   1      17.688  -0.106  17.439  0.00  0.00     0.008 A 
ATOM      4  C4  ZIN A   1      17.729   1.266  17.279  0.00  0.00     0.010 A 
ATOM      5  C5  ZIN A   1      18.351   1.815  16.173  0.00  0.00    -0.026 A 
ATOM      6  C22 ZIN A   1      18.934   0.992  15.228  0.00  0.00     0.017 A 
ATOM      7  C23 ZIN A   1      18.897  -0.380  15.390  0.00  0.00    -0.047 A 
ENDROOT
BRANCH   5   8
ATOM      8  C6  ZIN A   1      18.394   3.311  15.999  0.00  0.00     0.186 C 
ATOM      9  C19 ZIN A   1      19.795   3.825  16.345  0.00  0.00     0.182 C 
ATOM     10  C16 ZIN A   1      19.848   5.337  16.107  0.00  0.00     0.181 C 
ATOM     11  C13 ZIN A   1      19.466   5.629  14.652  0.00  0.00     0.180 C 
ATOM     12  C9  ZIN A   1      18.079   5.045  14.372  0.00  0.00     0.177 C 
ATOM     13  O8  ZIN A   1      18.090   3.642  14.642  0.00  0.00    -0.368 OA
BRANCH   9  14
ATOM     14  O21 ZIN A   1      20.080   3.548  17.717  0.00  0.00    -0.390 OA
ATOM     15  H47 ZIN A   1      19.318   3.229  18.221  0.00  0.00     0.210 HD
ENDBRANCH   9  14
BRANCH  10  16
ATOM     16  O18 ZIN A   1      21.171   5.816  16.358  0.00  0.00    -0.390 OA
ATOM     17  H46 ZIN A   1      21.755   5.782  15.587  0.00  0.00     0.210 HD
ENDBRANCH  10  16
BRANCH  11  18
ATOM     18  O15 ZIN A   1      19.443   7.041  14.437  0.00  0.00    -0.390 OA
ATOM     19  H45 ZIN A   1      18.568   7.391  14.221  0.00  0.00     0.210 HD
ENDBRANCH  11  18
BRANCH  12  20
ATOM     20  C11 ZIN A   1      17.714   5.279  12.904  0.00  0.00     0.198 C 
BRANCH  20  21
ATOM     21  O12 ZIN A   1      18.824   4.930  12.075  0.00  0.00    -0.398 OA
ATOM     22  H44 ZIN A   1      18.757   5.259  11.168  0.00  0.00     0.209 HD
ENDBRANCH  20  21
ENDBRANCH  12  20
ENDBRANCH   5   8
BRANCH   7  23
ATOM     23  C24 ZIN A   1      19.533  -1.278  14.360  0.00  0.00     0.085 C 
BRANCH  23  24
ATOM     24  C25 ZIN A   1      18.947  -0.981  13.004  0.00  0.00    -0.013 A 
ATOM     25  S36 ZIN A   1      19.870  -0.497  11.587  0.00  0.00    -0.094 SA
ATOM     26  C28 ZIN A   1      18.403  -0.405  10.623  0.00  0.00     0.015 A 
ATOM     27  C27 ZIN A   1      17.341  -0.723  11.390  0.00  0.00     0.021 A 
ATOM     28  C26 ZIN A   1      17.648  -1.040  12.698  0.00  0.00     0.016 A 
BRANCH  26  29
ATOM     29  C29 ZIN A   1      18.342  -0.030   9.194  0.00  0.00    -0.019 A 
ATOM     30  C35 ZIN A   1      17.442  -0.668   8.340  0.00  0.00     0.016 A 
ATOM     31  C34 ZIN A   1      17.386  -0.310   7.009  0.00  0.00     0.043 A 
ATOM     32  C32 ZIN A   1      18.230   0.674   6.518  0.00  0.00     0.116 A 
ATOM     33  C31 ZIN A   1      19.130   1.306   7.360  0.00  0.00     0.043 A 
ATOM     34  F33 ZIN A   1      18.175   1.015   5.212  0.00  0.00    -0.206 F 
ATOM     35  C30 ZIN A   1      19.190   0.960   8.694  0.00  0.00     0.016 A 
ENDBRANCH  26  29
ENDBRANCH  23  24
ENDBRANCH   7  23
TORSDOF 9
ENDMDL
MODEL 3
REMARK VINA RESULT:      -8.7      5.146      8.573
REMARK  9 active torsions:
REMARK  status: ('A' for Active; 'I' for Inactive)
REMARK    1  A    between atoms: C5_5  and  C6_6 
REMARK    2  A    between atoms: C9_8  and  C11_9 
REMARK    3  A    between atoms: C11_9  and  O12_10 
REMARK    4  A    between atoms: C13_11  and  O15_12 
REMARK    5  A    between atoms: C16_13  and  O18_14 
REMARK    6  A    between atoms: C19_15  and  O21_16 
REMARK    7  A    between atoms: C23_18  and  C24_19 
REMARK    8  A    between atoms: C24_19  and  C25_20 
REMARK    9  A    between atoms: C28_23  and  C29_24 
ROOT
ATOM      1  C1  ZIN A   1      16.895   5.198  10.934  0.00  0.00     0.049 C 
ATOM      2  C2  ZIN A   1      17.476   4.328  12.018  0.00  0.00    -0.055 A 
ATOM      3  C3  ZIN A   1      17.298   4.667  13.347  0.00  0.00     0.008 A 
ATOM      4  C4  ZIN A   1      17.830   3.868  14.341  0.00  0.00     0.010 A 
ATOM      5  C5  ZIN A   1      18.540   2.731  14.008  0.00  0.00    -0.026 A 
ATOM      6  C22 ZIN A   1      18.717   2.390  12.680  0.00  0.00     0.017 A 
ATOM      7  C23 ZIN A   1      18.182   3.186  11.685  0.00  0.00    -0.047 A 
ENDROOT
BRANCH   5   8
ATOM      8  C6  ZIN A   1      19.121   1.860  15.092  0.00  0.00     0.186 C 
ATOM      9  C19 ZIN A   1      19.100   2.619  16.422  0.00  0.00     0.182 C 
ATOM     10  C16 ZIN A   1      19.636   1.707  17.530  0.00  0.00     0.181 C 
ATOM     11  C13 ZIN A   1      18.792   0.429  17.577  0.00  0.00     0.180 C 
ATOM     12  C9  ZIN A   1      18.825  -0.245  16.203  0.00  0.00     0.177 C 
ATOM     13  O8  ZIN A   1      18.343   0.667  15.215  0.00  0.00    -0.368 OA
BRANCH   9  14
ATOM     14  O21 ZIN A   1      19.924   3.782  16.322  0.00  0.00    -0.390 OA
ATOM     15  H47 ZIN A   1      20.814   3.606  15.985  0.00  0.00     0.210 HD
ENDBRANCH   9  14
BRANCH  10  16
ATOM     16  O18 ZIN A   1      19.554   2.380  18.787  0.00  0.00    -0.390 OA
ATOM     17  H46 ZIN A   1      18.670   2.712  18.999  0.00  0.00     0.210 HD
ENDBRANCH  10  16
BRANCH  11  18
ATOM     18  O15 ZIN A   1      19.326  -0.461  18.559  0.00  0.00    -0.390 OA
ATOM     19  H45 ZIN A   1      19.890  -0.030  19.215  0.00  0.00     0.210 HD
ENDBRANCH  11  18
BRANCH  12  20
ATOM     20  C11 ZIN A   1      17.936  -1.490  16.224  0.00  0.00     0.198 C 
BRANCH  20  21
ATOM     21  O12 ZIN A   1      16.759  -1.224  16.989  0.00  0.00    -0.398 OA
ATOM     22  H44 ZIN A   1      16.398  -0.336  16.861  0.00  0.00     0.209 HD
ENDBRANCH  20  21
ENDBRANCH  12  20
ENDBRANCH   5   8
BRANCH   7  23
ATOM     23  C24 ZIN A   1      18.374   2.815  10.237  0.00  0.00     0.085 C 
BRANCH  23  24
ATOM     24  C25 ZIN A   1      18.496   1.319  10.113  0.00  0.00    -0.013 A 
ATOM     25  S36 ZIN A   1      17.239   0.163  10.535  0.00  0.00    -0.094 SA
ATOM     26  C28 ZIN A   1      18.273  -1.180  10.067  0.00  0.00     0.015 A 
ATOM     27  C27 ZIN A   1      19.461  -0.706   9.643  0.00  0.00     0.021 A 
ATOM     28  C26 ZIN A   1      19.576   0.669   9.669  0.00  0.00     0.016 A 
BRANCH  26  29
ATOM     29  C29 ZIN A   1      17.899  -2.609  10.135  0.00  0.00    -0.019 A 
ATOM     30  C35 ZIN A   1      17.951  -3.402   8.988  0.00  0.00     0.016 A 
ATOM     31  C34 ZIN A   1      17.606  -4.736   9.059  0.00  0.00     0.043 A 
ATOM     32  C32 ZIN A   1      17.199  -5.286  10.263  0.00  0.00     0.116 A 
ATOM     33  C31 ZIN A   1      17.139  -4.501  11.404  0.00  0.00     0.043 A 
ATOM     34  F33 ZIN A   1      16.856  -6.591  10.325  0.00  0.00    -0.206 F 
ATOM     35  C30 ZIN A   1      17.487  -3.168  11.346  0.00  0.00     0.016 A 
ENDBRANCH  26  29
ENDBRANCH  23  24
ENDBRANCH   7  23
TORSDOF 9
ENDMDL
MODEL 4
REMARK VINA RESULT:      -8.6      6.418     10.512
REMARK  9 active torsions:
REMARK  status: ('A' for Active; 'I' for Inactive)
REMARK    1  A    between atoms: C5_5  and  C6_6 
REMARK    2  A    between atoms: C9_8  and  C11_9 
REMARK    3  A    between atoms: C11_9  and  O12_10 
REMARK    4  A    between atoms: C13_11  and  O15_12 
REMARK    5  A    between atoms: C16_13  and  O18_14 
REMARK    6  A    between atoms: C19_15  and  O21_16 
REMARK    7  A    between atoms: C23_18  and  C24_19 
REMARK    8  A    between atoms: C24_19  and  C25_20 
REMARK    9  A    between atoms: C28_23  and  C29_24 
ROOT
ATOM      1  C1  ZIN A   1      18.999  -1.518  17.425  0.00  0.00     0.049 C 
ATOM      2  C2  ZIN A   1      18.946  -0.019  17.274  0.00  0.00    -0.055 A 
ATOM      3  C3  ZIN A   1      19.541   0.792  18.222  0.00  0.00     0.008 A 
ATOM      4  C4  ZIN A   1      19.492   2.167  18.084  0.00  0.00     0.010 A 
ATOM      5  C5  ZIN A   1      18.850   2.730  16.997  0.00  0.00    -0.026 A 
ATOM      6  C22 ZIN A   1      18.256   1.919  16.048  0.00  0.00     0.017 A 
ATOM      7  C23 ZIN A   1      18.308   0.544  16.184  0.00  0.00    -0.047 A 
ENDROOT
BRANCH   5   8
ATOM      8  C6  ZIN A   1      18.796   4.228  16.847  0.00  0.00     0.186 C 
ATOM      9  C19 ZIN A   1      19.918   4.687  15.911  0.00  0.00     0.182 C 
ATOM     10  C16 ZIN A   1      19.820   6.204  15.715  0.00  0.00     0.181 C 
ATOM     11  C13 ZIN A   1      18.431   6.549  15.169  0.00  0.00     0.180 C 
ATOM     12  C9  ZIN A   1      17.367   6.017  16.134  0.00  0.00     0.177 C 
ATOM     13  O8  ZIN A   1      17.533   4.608  16.295  0.00  0.00    -0.368 OA
BRANCH   9  14
ATOM     14  O21 ZIN A   1      21.184   4.362  16.487  0.00  0.00    -0.390 OA
ATOM     15  H47 ZIN A   1      21.644   5.117  16.879  0.00  0.00     0.210 HD
ENDBRANCH   9  14
BRANCH  10  16
ATOM     16  O18 ZIN A   1      20.817   6.633  14.787  0.00  0.00    -0.390 OA
ATOM     17  H46 ZIN A   1      21.251   5.910  14.313  0.00  0.00     0.210 HD
ENDBRANCH  10  16
BRANCH  11  18
ATOM     18  O15 ZIN A   1      18.302   7.967  15.050  0.00  0.00    -0.390 OA
ATOM     19  H45 ZIN A   1      19.105   8.410  14.746  0.00  0.00     0.210 HD
ENDBRANCH  11  18
BRANCH  12  20
ATOM     20  C11 ZIN A   1      15.975   6.305  15.567  0.00  0.00     0.198 C 
BRANCH  20  21
ATOM     21  O12 ZIN A   1      16.046   6.380  14.142  0.00  0.00    -0.398 OA
ATOM     22  H44 ZIN A   1      16.783   5.885  13.758  0.00  0.00     0.209 HD
ENDBRANCH  20  21
ENDBRANCH  12  20
ENDBRANCH   5   8
BRANCH   7  23
ATOM     23  C24 ZIN A   1      17.661  -0.341  15.150  0.00  0.00     0.085 C 
BRANCH  23  24
ATOM     24  C25 ZIN A   1      18.256  -0.051  13.797  0.00  0.00    -0.013 A 
ATOM     25  S36 ZIN A   1      17.346   0.079  12.297  0.00  0.00    -0.094 SA
ATOM     26  C28 ZIN A   1      18.819   0.405  11.394  0.00  0.00     0.015 A 
ATOM     27  C27 ZIN A   1      19.873   0.392  12.234  0.00  0.00     0.021 A 
ATOM     28  C26 ZIN A   1      19.556   0.142  13.554  0.00  0.00     0.016 A 
BRANCH  26  29
ATOM     29  C29 ZIN A   1      18.891   0.648   9.938  0.00  0.00    -0.019 A 
ATOM     30  C35 ZIN A   1      19.124   1.936   9.454  0.00  0.00     0.016 A 
ATOM     31  C34 ZIN A   1      19.195   2.156   8.094  0.00  0.00     0.043 A 
ATOM     32  C32 ZIN A   1      19.026   1.103   7.209  0.00  0.00     0.116 A 
ATOM     33  C31 ZIN A   1      18.789  -0.177   7.684  0.00  0.00     0.043 A 
ATOM     34  F33 ZIN A   1      19.091   1.326   5.878  0.00  0.00    -0.206 F 
ATOM     35  C30 ZIN A   1      18.721  -0.409   9.042  0.00  0.00     0.016 A 
ENDBRANCH  26  29
ENDBRANCH  23  24
ENDBRANCH   7  23
TORSDOF 9
ENDMDL
MODEL 5
REMARK VINA RESULT:      -8.5      6.292     10.464
REMARK  9 active torsions:
REMARK  status: ('A' for Active; 'I' for Inactive)
REMARK    1  A    between atoms: C5_5  and  C6_6 
REMARK    2  A    between atoms: C9_8  and  C11_9 
REMARK    3  A    between atoms: C11_9  and  O12_10 
REMARK    4  A    between atoms: C13_11  and  O15_12 
REMARK    5  A    between atoms: C16_13  and  O18_14 
REMARK    6  A    between atoms: C19_15  and  O21_16 
REMARK    7  A    between atoms: C23_18  and  C24_19 
REMARK    8  A    between atoms: C24_19  and  C25_20 
REMARK    9  A    between atoms: C28_23  and  C29_24 
ROOT
ATOM      1  C1  ZIN A   1      18.895  -1.709  13.502  0.00  0.00     0.049 C 
ATOM      2  C2  ZIN A   1      18.731  -0.305  14.026  0.00  0.00    -0.055 A 
ATOM      3  C3  ZIN A   1      17.794  -0.039  15.007  0.00  0.00     0.008 A 
ATOM      4  C4  ZIN A   1      17.644   1.248  15.489  0.00  0.00     0.010 A 
ATOM      5  C5  ZIN A   1      18.431   2.268  14.990  0.00  0.00    -0.026 A 
ATOM      6  C22 ZIN A   1      19.370   2.002  14.011  0.00  0.00     0.017 A 
ATOM      7  C23 ZIN A   1      19.523   0.715  13.531  0.00  0.00    -0.047 A 
ENDROOT
BRANCH   5   8
ATOM      8  C6  ZIN A   1      18.267   3.672  15.514  0.00  0.00     0.186 C 
ATOM      9  C19 ZIN A   1      19.647   4.289  15.761  0.00  0.00     0.182 C 
ATOM     10  C16 ZIN A   1      19.473   5.735  16.236  0.00  0.00     0.181 C 
ATOM     11  C13 ZIN A   1      18.667   6.512  15.189  0.00  0.00     0.180 C 
ATOM     12  C9  ZIN A   1      17.326   5.808  14.965  0.00  0.00     0.177 C 
ATOM     13  O8  ZIN A   1      17.559   4.460  14.555  0.00  0.00    -0.368 OA
BRANCH   9  14
ATOM     14  O21 ZIN A   1      20.335   3.537  16.762  0.00  0.00    -0.390 OA
ATOM     15  H47 ZIN A   1      21.263   3.788  16.873  0.00  0.00     0.210 HD
ENDBRANCH   9  14
BRANCH  10  16
ATOM     16  O18 ZIN A   1      20.755   6.343  16.399  0.00  0.00    -0.390 OA
ATOM     17  H46 ZIN A   1      20.882   7.143  15.870  0.00  0.00     0.210 HD
ENDBRANCH  10  16
BRANCH  11  18
ATOM     18  O15 ZIN A   1      18.437   7.843  15.654  0.00  0.00    -0.390 OA
ATOM     19  H45 ZIN A   1      17.707   8.294  15.209  0.00  0.00     0.210 HD
ENDBRANCH  11  18
BRANCH  12  20
ATOM     20  C11 ZIN A   1      16.539   6.544  13.878  0.00  0.00     0.198 C 
BRANCH  20  21
ATOM     21  O12 ZIN A   1      16.279   5.652  12.792  0.00  0.00    -0.398 OA
ATOM     22  H44 ZIN A   1      15.660   4.941  13.006  0.00  0.00     0.209 HD
ENDBRANCH  20  21
ENDBRANCH  12  20
ENDBRANCH   5   8
BRANCH   7  23
ATOM     23  C24 ZIN A   1      20.545   0.424  12.463  0.00  0.00     0.085 C 
BRANCH  23  24
ATOM     24  C25 ZIN A   1      19.925   0.628  11.105  0.00  0.00    -0.013 A 
ATOM     25  S36 ZIN A   1      20.046  -0.496   9.758  0.00  0.00    -0.094 SA
ATOM     26  C28 ZIN A   1      19.078   0.565   8.744  0.00  0.00     0.015 A 
ATOM     27  C27 ZIN A   1      18.737   1.666   9.443  0.00  0.00     0.021 A 
ATOM     28  C26 ZIN A   1      19.205   1.693  10.741  0.00  0.00     0.016 A 
BRANCH  26  29
ATOM     29  C29 ZIN A   1      18.703   0.296   7.340  0.00  0.00    -0.019 A 
ATOM     30  C35 ZIN A   1      17.480  -0.310   7.046  0.00  0.00     0.016 A 
ATOM     31  C34 ZIN A   1      17.133  -0.554   5.733  0.00  0.00     0.043 A 
ATOM     32  C32 ZIN A   1      18.000  -0.210   4.709  0.00  0.00     0.116 A 
ATOM     33  C31 ZIN A   1      19.219   0.386   4.996  0.00  0.00     0.043 A 
ATOM     34  F33 ZIN A   1      17.658  -0.458   3.426  0.00  0.00    -0.206 F 
ATOM     35  C30 ZIN A   1      19.573   0.640   6.304  0.00  0.00     0.016 A 
ENDBRANCH  26  29
ENDBRANCH  23  24
ENDBRANCH   7  23
TORSDOF 9
ENDMDL
MODEL 6
REMARK VINA RESULT:      -8.4      1.836      2.560
REMARK  9 active torsions:
REMARK  status: ('A' for Active; 'I' for Inactive)
REMARK    1  A    between atoms: C5_5  and  C6_6 
REMARK    2  A    between atoms: C9_8  and  C11_9 
REMARK    3  A    between atoms: C11_9  and  O12_10 
REMARK    4  A    between atoms: C13_11  and  O15_12 
REMARK    5  A    between atoms: C16_13  and  O18_14 
REMARK    6  A    between atoms: C19_15  and  O21_16 
REMARK    7  A    between atoms: C23_18  and  C24_19 
REMARK    8  A    between atoms: C24_19  and  C25_20 
REMARK    9  A    between atoms: C28_23  and  C29_24 
ROOT
ATOM      1  C1  ZIN A   1      18.915   1.982   6.767  0.00  0.00     0.049 C 
ATOM      2  C2  ZIN A   1      18.829   0.550   7.229  0.00  0.00    -0.055 A 
ATOM      3  C3  ZIN A   1      19.208  -0.474   6.381  0.00  0.00     0.008 A 
ATOM      4  C4  ZIN A   1      19.129  -1.788   6.805  0.00  0.00     0.010 A 
ATOM      5  C5  ZIN A   1      18.671  -2.077   8.075  0.00  0.00    -0.026 A 
ATOM      6  C22 ZIN A   1      18.293  -1.054   8.925  0.00  0.00     0.017 A 
ATOM      7  C23 ZIN A   1      18.376   0.260   8.503  0.00  0.00    -0.047 A 
ENDROOT
BRANCH   5   8
ATOM      8  C6  ZIN A   1      18.584  -3.509   8.537  0.00  0.00     0.186 C 
ATOM      9  C19 ZIN A   1      18.675  -3.560  10.065  0.00  0.00     0.182 C 
ATOM     10  C16 ZIN A   1      18.525  -5.012  10.529  0.00  0.00     0.181 C 
ATOM     11  C13 ZIN A   1      17.197  -5.570  10.008  0.00  0.00     0.180 C 
ATOM     12  C9  ZIN A   1      17.163  -5.441   8.483  0.00  0.00     0.177 C 
ATOM     13  O8  ZIN A   1      17.339  -4.071   8.117  0.00  0.00    -0.368 OA
BRANCH   9  14
ATOM     14  O21 ZIN A   1      19.943  -3.053  10.485  0.00  0.00    -0.390 OA
ATOM     15  H47 ZIN A   1      20.474  -2.678   9.769  0.00  0.00     0.210 HD
ENDBRANCH   9  14
BRANCH  10  16
ATOM     16  O18 ZIN A   1      18.536  -5.062  11.957  0.00  0.00    -0.390 OA
ATOM     17  H46 ZIN A   1      19.422  -5.123  12.342  0.00  0.00     0.210 HD
ENDBRANCH  10  16
BRANCH  11  18
ATOM     18  O15 ZIN A   1      17.079  -6.945  10.374  0.00  0.00    -0.390 OA
ATOM     19  H45 ZIN A   1      16.718  -7.508   9.676  0.00  0.00     0.210 HD
ENDBRANCH  11  18
BRANCH  12  20
ATOM     20  C11 ZIN A   1      15.816  -5.941   7.958  0.00  0.00     0.198 C 
BRANCH  20  21
ATOM     21  O12 ZIN A   1      14.765  -5.435   8.784  0.00  0.00    -0.398 OA
ATOM     22  H44 ZIN A   1      15.060  -4.803   9.454  0.00  0.00     0.209 HD
ENDBRANCH  20  21
ENDBRANCH  12  20
ENDBRANCH   5   8
BRANCH   7  23
ATOM     23  C24 ZIN A   1      17.963   1.376   9.428  0.00  0.00     0.085 C 
BRANCH  23  24
ATOM     24  C25 ZIN A   1      18.502   1.109  10.809  0.00  0.00    -0.013 A 
ATOM     25  S36 ZIN A   1      17.524   0.735  12.222  0.00  0.00    -0.094 SA
ATOM     26  C28 ZIN A   1      18.963   0.610  13.225  0.00  0.00     0.015 A 
ATOM     27  C27 ZIN A   1      20.055   0.854  12.474  0.00  0.00     0.021 A 
ATOM     28  C26 ZIN A   1      19.794   1.127  11.147  0.00  0.00     0.016 A 
BRANCH  26  29
ATOM     29  C29 ZIN A   1      18.972   0.293  14.669  0.00  0.00    -0.019 A 
ATOM     30  C35 ZIN A   1      18.865  -1.031  15.096  0.00  0.00     0.016 A 
ATOM     31  C34 ZIN A   1      18.879  -1.320  16.445  0.00  0.00     0.043 A 
ATOM     32  C32 ZIN A   1      18.989  -0.299  17.374  0.00  0.00     0.116 A 
ATOM     33  C31 ZIN A   1      19.090   1.018  16.955  0.00  0.00     0.043 A 
ATOM     34  F33 ZIN A   1      18.997  -0.588  18.694  0.00  0.00    -0.206 F 
ATOM     35  C30 ZIN A   1      19.082   1.319  15.610  0.00  0.00     0.016 A 
ENDBRANCH  26  29
ENDBRANCH  23  24
ENDBRANCH   7  23
TORSDOF 9
ENDMDL
MODEL 7
REMARK VINA RESULT:      -8.3      6.722     10.002
REMARK  9 active torsions:
REMARK  status: ('A' for Active; 'I' for Inactive)
REMARK    1  A    between atoms: C5_5  and  C6_6 
REMARK    2  A    between atoms: C9_8  and  C11_9 
REMARK    3  A    between atoms: C11_9  and  O12_10 
REMARK    4  A    between atoms: C13_11  and  O15_12 
REMARK    5  A    between atoms: C16_13  and  O18_14 
REMARK    6  A    between atoms: C19_15  and  O21_16 
REMARK    7  A    between atoms: C23_18  and  C24_19 
REMARK    8  A    between atoms: C24_19  and  C25_20 
REMARK    9  A    between atoms: C28_23  and  C29_24 
ROOT
ATOM      1  C1  ZIN A   1      18.493   3.396   9.263  0.00  0.00     0.049 C 
ATOM      2  C2  ZIN A   1      18.100   3.936  10.613  0.00  0.00    -0.055 A 
ATOM      3  C3  ZIN A   1      16.966   4.717  10.742  0.00  0.00     0.008 A 
ATOM      4  C4  ZIN A   1      16.605   5.212  11.981  0.00  0.00     0.010 A 
ATOM      5  C5  ZIN A   1      17.376   4.925  13.091  0.00  0.00    -0.026 A 
ATOM      6  C22 ZIN A   1      18.508   4.143  12.964  0.00  0.00     0.017 A 
ATOM      7  C23 ZIN A   1      18.868   3.645  11.726  0.00  0.00    -0.047 A 
ENDROOT
BRANCH   5   8
ATOM      8  C6  ZIN A   1      16.982   5.465  14.442  0.00  0.00     0.186 C 
ATOM      9  C19 ZIN A   1      17.773   6.745  14.731  0.00  0.00     0.182 C 
ATOM     10  C16 ZIN A   1      17.324   7.320  16.078  0.00  0.00     0.181 C 
ATOM     11  C13 ZIN A   1      15.812   7.568  16.036  0.00  0.00     0.180 C 
ATOM     12  C9  ZIN A   1      15.098   6.258  15.697  0.00  0.00     0.177 C 
ATOM     13  O8  ZIN A   1      15.584   5.761  14.448  0.00  0.00    -0.368 OA
BRANCH   9  14
ATOM     14  O21 ZIN A   1      19.169   6.443  14.783  0.00  0.00    -0.390 OA
ATOM     15  H47 ZIN A   1      19.724   7.193  15.037  0.00  0.00     0.210 HD
ENDBRANCH   9  14
BRANCH  10  16
ATOM     16  O18 ZIN A   1      18.003   8.552  16.323  0.00  0.00    -0.390 OA
ATOM     17  H46 ZIN A   1      18.875   8.447  16.729  0.00  0.00     0.210 HD
ENDBRANCH  10  16
BRANCH  11  18
ATOM     18  O15 ZIN A   1      15.370   8.038  17.311  0.00  0.00    -0.390 OA
ATOM     19  H45 ZIN A   1      14.788   8.809  17.265  0.00  0.00     0.210 HD
ENDBRANCH  11  18
BRANCH  12  20
ATOM     20  C11 ZIN A   1      13.592   6.509  15.594  0.00  0.00     0.198 C 
BRANCH  20  21
ATOM     21  O12 ZIN A   1      13.043   5.697  14.554  0.00  0.00    -0.398 OA
ATOM     22  H44 ZIN A   1      12.684   6.200  13.811  0.00  0.00     0.209 HD
ENDBRANCH  20  21
ENDBRANCH  12  20
ENDBRANCH   5   8
BRANCH   7  23
ATOM     23  C24 ZIN A   1      20.103   2.792  11.586  0.00  0.00     0.085 C 
BRANCH  23  24
ATOM     24  C25 ZIN A   1      19.758   1.355  11.880  0.00  0.00    -0.013 A 
ATOM     25  S36 ZIN A   1      19.298   0.158  10.676  0.00  0.00    -0.094 SA
ATOM     26  C28 ZIN A   1      19.122  -1.072  11.920  0.00  0.00     0.015 A 
ATOM     27  C27 ZIN A   1      19.400  -0.535  13.125  0.00  0.00     0.021 A 
ATOM     28  C26 ZIN A   1      19.750   0.800  13.095  0.00  0.00     0.016 A 
BRANCH  26  29
ATOM     29  C29 ZIN A   1      18.723  -2.475  11.683  0.00  0.00    -0.019 A 
ATOM     30  C35 ZIN A   1      17.375  -2.806  11.540  0.00  0.00     0.016 A 
ATOM     31  C34 ZIN A   1      17.009  -4.116  11.313  0.00  0.00     0.043 A 
ATOM     32  C32 ZIN A   1      17.977  -5.105  11.238  0.00  0.00     0.116 A 
ATOM     33  C31 ZIN A   1      19.317  -4.784  11.386  0.00  0.00     0.043 A 
ATOM     34  F33 ZIN A   1      17.612  -6.388  11.022  0.00  0.00    -0.206 F 
ATOM     35  C30 ZIN A   1      19.694  -3.476  11.607  0.00  0.00     0.016 A 
ENDBRANCH  26  29
ENDBRANCH  23  24
ENDBRANCH   7  23
TORSDOF 9
ENDMDL
MODEL 8
REMARK VINA RESULT:      -8.3      1.859      2.330
REMARK  9 active torsions:
REMARK  status: ('A' for Active; 'I' for Inactive)
REMARK    1  A    between atoms: C5_5  and  C6_6 
REMARK    2  A    between atoms: C9_8  and  C11_9 
REMARK    3  A    between atoms: C11_9  and  O12_10 
REMARK    4  A    between atoms: C13_11  and  O15_12 
REMARK    5  A    between atoms: C16_13  and  O18_14 
REMARK    6  A    between atoms: C19_15  and  O21_16 
REMARK    7  A    between atoms: C23_18  and  C24_19 
REMARK    8  A    between atoms: C24_19  and  C25_20 
REMARK    9  A    between atoms: C28_23  and  C29_24 
ROOT
ATOM      1  C1  ZIN A   1      18.721   2.442   6.235  0.00  0.00     0.049 C 
ATOM      2  C2  ZIN A   1      18.760   0.984   6.617  0.00  0.00    -0.055 A 
ATOM      3  C3  ZIN A   1      18.362   0.021   5.709  0.00  0.00     0.008 A 
ATOM      4  C4  ZIN A   1      18.399  -1.316   6.059  0.00  0.00     0.010 A 
ATOM      5  C5  ZIN A   1      18.833  -1.689   7.317  0.00  0.00    -0.026 A 
ATOM      6  C22 ZIN A   1      19.233  -0.726   8.224  0.00  0.00     0.017 A 
ATOM      7  C23 ZIN A   1      19.201   0.610   7.873  0.00  0.00    -0.047 A 
ENDROOT
BRANCH   5   8
ATOM      8  C6  ZIN A   1      18.872  -3.146   7.699  0.00  0.00     0.186 C 
ATOM      9  C19 ZIN A   1      19.907  -3.873   6.834  0.00  0.00     0.182 C 
ATOM     10  C16 ZIN A   1      19.984  -5.340   7.270  0.00  0.00     0.181 C 
ATOM     11  C13 ZIN A   1      20.328  -5.401   8.761  0.00  0.00     0.180 C 
ATOM     12  C9  ZIN A   1      19.278  -4.615   9.551  0.00  0.00     0.177 C 
ATOM     13  O8  ZIN A   1      19.235  -3.269   9.076  0.00  0.00    -0.368 OA
BRANCH   9  14
ATOM     14  O21 ZIN A   1      19.517  -3.803   5.462  0.00  0.00    -0.390 OA
ATOM     15  H47 ZIN A   1      19.014  -3.008   5.236  0.00  0.00     0.210 HD
ENDBRANCH   9  14
BRANCH  10  16
ATOM     16  O18 ZIN A   1      20.997  -6.010   6.518  0.00  0.00    -0.390 OA
ATOM     17  H46 ZIN A   1      21.129  -6.934   6.772  0.00  0.00     0.210 HD
ENDBRANCH  10  16
BRANCH  11  18
ATOM     18  O15 ZIN A   1      20.332  -6.762   9.196  0.00  0.00    -0.390 OA
ATOM     19  H45 ZIN A   1      19.627  -7.300   8.810  0.00  0.00     0.210 HD
ENDBRANCH  11  18
BRANCH  12  20
ATOM     20  C11 ZIN A   1      19.646  -4.621  11.036  0.00  0.00     0.198 C 
BRANCH  20  21
ATOM     21  O12 ZIN A   1      20.612  -3.600  11.292  0.00  0.00    -0.398 OA
ATOM     22  H44 ZIN A   1      20.278  -2.868  11.828  0.00  0.00     0.209 HD
ENDBRANCH  20  21
ENDBRANCH  12  20
ENDBRANCH   5   8
BRANCH   7  23
ATOM     23  C24 ZIN A   1      19.636   1.661   8.862  0.00  0.00     0.085 C 
BRANCH  23  24
ATOM     24  C25 ZIN A   1      19.048   1.353  10.215  0.00  0.00    -0.013 A 
ATOM     25  S36 ZIN A   1      19.896   0.546  11.527  0.00  0.00    -0.094 SA
ATOM     26  C28 ZIN A   1      18.476   0.661  12.558  0.00  0.00     0.015 A 
ATOM     27  C27 ZIN A   1      17.479   1.268  11.883  0.00  0.00     0.021 A 
ATOM     28  C26 ZIN A   1      17.802   1.647  10.595  0.00  0.00     0.016 A 
BRANCH  26  29
ATOM     29  C29 ZIN A   1      18.386   0.161  13.946  0.00  0.00    -0.019 A 
ATOM     30  C35 ZIN A   1      19.137  -0.946  14.342  0.00  0.00     0.016 A 
ATOM     31  C34 ZIN A   1      19.054  -1.404  15.640  0.00  0.00     0.043 A 
ATOM     32  C32 ZIN A   1      18.218  -0.773  16.548  0.00  0.00     0.116 A 
ATOM     33  C31 ZIN A   1      17.465   0.323  16.158  0.00  0.00     0.043 A 
ATOM     34  F33 ZIN A   1      18.135  -1.231  17.816  0.00  0.00    -0.206 F 
ATOM     35  C30 ZIN A   1      17.545   0.793  14.864  0.00  0.00     0.016 A 
ENDBRANCH  26  29
ENDBRANCH  23  24
ENDBRANCH   7  23
TORSDOF 9
ENDMDL
MODEL 9
REMARK VINA RESULT:      -8.1      5.353      9.124
REMARK  9 active torsions:
REMARK  status: ('A' for Active; 'I' for Inactive)
REMARK    1  A    between atoms: C5_5  and  C6_6 
REMARK    2  A    between atoms: C9_8  and  C11_9 
REMARK    3  A    between atoms: C11_9  and  O12_10 
REMARK    4  A    between atoms: C13_11  and  O15_12 
REMARK    5  A    between atoms: C16_13  and  O18_14 
REMARK    6  A    between atoms: C19_15  and  O21_16 
REMARK    7  A    between atoms: C23_18  and  C24_19 
REMARK    8  A    between atoms: C24_19  and  C25_20 
REMARK    9  A    between atoms: C28_23  and  C29_24 
ROOT
ATOM      1  C1  ZIN A   1      18.879   1.699   8.234  0.00  0.00     0.049 C 
ATOM      2  C2  ZIN A   1      18.754   2.009   9.703  0.00  0.00    -0.055 A 
ATOM      3  C3  ZIN A   1      17.868   2.979  10.133  0.00  0.00     0.008 A 
ATOM      4  C4  ZIN A   1      17.754   3.262  11.481  0.00  0.00     0.010 A 
ATOM      5  C5  ZIN A   1      18.525   2.576  12.399  0.00  0.00    -0.026 A 
ATOM      6  C22 ZIN A   1      19.410   1.604  11.971  0.00  0.00     0.017 A 
ATOM      7  C23 ZIN A   1      19.522   1.318  10.623  0.00  0.00    -0.047 A 
ENDROOT
BRANCH   5   8
ATOM      8  C6  ZIN A   1      18.400   2.885  13.869  0.00  0.00     0.186 C 
ATOM      9  C19 ZIN A   1      18.816   1.658  14.686  0.00  0.00     0.182 C 
ATOM     10  C16 ZIN A   1      18.745   2.001  16.178  0.00  0.00     0.181 C 
ATOM     11  C13 ZIN A   1      19.638   3.213  16.456  0.00  0.00     0.180 C 
ATOM     12  C9  ZIN A   1      19.191   4.379  15.570  0.00  0.00     0.177 C 
ATOM     13  O8  ZIN A   1      19.252   3.985  14.199  0.00  0.00    -0.368 OA
BRANCH   9  14
ATOM     14  O21 ZIN A   1      17.931   0.573  14.403  0.00  0.00    -0.390 OA
ATOM     15  H47 ZIN A   1      17.059   0.849  14.088  0.00  0.00     0.210 HD
ENDBRANCH   9  14
BRANCH  10  16
ATOM     16  O18 ZIN A   1      19.199   0.886  16.947  0.00  0.00    -0.390 OA
ATOM     17  H46 ZIN A   1      19.566   0.165  16.417  0.00  0.00     0.210 HD
ENDBRANCH  10  16
BRANCH  11  18
ATOM     18  O15 ZIN A   1      19.524   3.586  17.830  0.00  0.00    -0.390 OA
ATOM     19  H45 ZIN A   1      18.667   3.378  18.224  0.00  0.00     0.210 HD
ENDBRANCH  11  18
BRANCH  12  20
ATOM     20  C11 ZIN A   1      20.116   5.577  15.798  0.00  0.00     0.198 C 
BRANCH  20  21
ATOM     21  O12 ZIN A   1      21.456   5.117  15.983  0.00  0.00    -0.398 OA
ATOM     22  H44 ZIN A   1      21.972   5.070  15.167  0.00  0.00     0.209 HD
ENDBRANCH  20  21
ENDBRANCH  12  20
ENDBRANCH   5   8
BRANCH   7  23
ATOM     23  C24 ZIN A   1      20.487   0.259  10.155  0.00  0.00     0.085 C 
BRANCH  23  24
ATOM     24  C25 ZIN A   1      19.828  -1.093  10.235  0.00  0.00    -0.013 A 
ATOM     25  S36 ZIN A   1      19.192  -1.992   8.863  0.00  0.00    -0.094 SA
ATOM     26  C28 ZIN A   1      18.688  -3.306   9.917  0.00  0.00     0.015 A 
ATOM     27  C27 ZIN A   1      19.006  -3.006  11.192  0.00  0.00     0.021 A 
ATOM     28  C26 ZIN A   1      19.634  -1.788  11.359  0.00  0.00     0.016 A 
BRANCH  26  29
ATOM     29  C29 ZIN A   1      18.013  -4.545   9.474  0.00  0.00    -0.019 A 
ATOM     30  C35 ZIN A   1      18.759  -5.595   8.939  0.00  0.00     0.016 A 
ATOM     31  C34 ZIN A   1      18.125  -6.751   8.532  0.00  0.00     0.043 A 
ATOM     32  C32 ZIN A   1      16.749  -6.865   8.644  0.00  0.00     0.116 A 
ATOM     33  C31 ZIN A   1      16.002  -5.822   9.169  0.00  0.00     0.043 A 
ATOM     34  F33 ZIN A   1      16.132  -7.996   8.238  0.00  0.00    -0.206 F 
ATOM     35  C30 ZIN A   1      16.626  -4.664   9.584  0.00  0.00     0.016 A 
ENDBRANCH  26  29
ENDBRANCH  23  24
ENDBRANCH   7  23
TORSDOF 9
ENDMDL
