MODEL 1
REMARK VINA RESULT:      -7.2      0.000      0.000
REMARK  11 active torsions:
REMARK  status: ('A' for Active; 'I' for Inactive)
REMARK    1  A    between atoms: C2_2  and  C3_3 
REMARK    2  A    between atoms: C3_3  and  C4_4 
REMARK    3  A    between atoms: C7_6  and  C9_7 
REMARK       I    between atoms: C9_7  and  N11_9 
REMARK    4  A    between atoms: N11_9  and  C12_10 
REMARK    5  A    between atoms: C12_10  and  C14_11 
REMARK    6  A    between atoms: C12_10  and  C18_14 
REMARK    7  A    between atoms: C14_11  and  O17_13 
REMARK    8  A    between atoms: C21_16  and  S23_17 
REMARK    9  A    between atoms: C25_19  and  O27_20 
REMARK   10  A    between atoms: C28_21  and  O30_22 
REMARK   11  A    between atoms: C31_23  and  O33_24 
ROOT
ATOM      1  C12 ZIN A   1      18.991  -1.851   6.776  0.00  0.00     0.144 C 
ENDROOT
BRANCH   1   2
ATOM      2  N11 ZIN A   1      18.256  -0.803   7.488  0.00  0.00    -0.350 N 
ATOM      3  C9  ZIN A   1      18.860  -0.103   8.468  0.00  0.00     0.251 C 
ATOM      4  O10 ZIN A   1      20.013  -0.340   8.761  0.00  0.00    -0.271 OA
ATOM      5  H46 ZIN A   1      17.334  -0.614   7.254  0.00  0.00     0.163 HD
BRANCH   3   6
ATOM      6  C7  ZIN A   1      18.103   0.974   9.201  0.00  0.00     0.314 C 
ATOM      7  C6  ZIN A   1      18.814   2.335   9.043  0.00  0.00     0.052 C 
ATOM      8  C4  ZIN A   1      18.642   3.038  10.405  0.00  0.00     0.016 C 
ATOM      9  C36 ZIN A   1      17.843   2.044  11.274  0.00  0.00     0.277 C 
ATOM     10  N34 ZIN A   1      18.112   0.715  10.664  0.00  0.00     0.098 N 
ATOM     11  C35 ZIN A   1      17.073  -0.256  11.033  0.00  0.00     0.310 C 
BRANCH   8  12
ATOM     12  C3  ZIN A   1      17.861   4.343  10.236  0.00  0.00     0.006 C 
BRANCH  12  13
ATOM     13  C2  ZIN A   1      16.719   4.389  11.253  0.00  0.00    -0.004 C 
ATOM     14  C1  ZIN A   1      16.875   5.627  12.138  0.00  0.00     0.005 C 
ENDBRANCH  12  13
ENDBRANCH   8  12
ENDBRANCH   3   6
ENDBRANCH   1   2
BRANCH   1  15
ATOM     15  C14 ZIN A   1      18.580  -1.851   5.302  0.00  0.00     0.139 C 
ATOM     16  C16 ZIN A   1      18.161  -0.438   4.890  0.00  0.00     0.041 C 
BRANCH  15  17
ATOM     17  O17 ZIN A   1      19.683  -2.274   4.499  0.00  0.00    -0.394 OA
ATOM     18  H50 ZIN A   1      20.059  -3.125   4.764  0.00  0.00     0.210 HD
ENDBRANCH  15  17
ENDBRANCH   1  15
BRANCH   1  19
ATOM     19  C18 ZIN A   1      18.670  -3.212   7.395  0.00  0.00     0.179 C 
ATOM     20  C31 ZIN A   1      19.974  -3.938   7.736  0.00  0.00     0.180 C 
ATOM     21  C28 ZIN A   1      19.645  -5.325   8.300  0.00  0.00     0.181 C 
ATOM     22  C25 ZIN A   1      18.801  -6.092   7.278  0.00  0.00     0.188 C 
ATOM     23  C21 ZIN A   1      17.542  -5.283   6.955  0.00  0.00     0.214 C 
ATOM     24  O20 ZIN A   1      17.920  -3.994   6.464  0.00  0.00    -0.363 OA
BRANCH  20  25
ATOM     25  O33 ZIN A   1      20.765  -4.079   6.556  0.00  0.00    -0.390 OA
ATOM     26  H56 ZIN A   1      20.388  -3.650   5.775  0.00  0.00     0.210 HD
ENDBRANCH  20  25
BRANCH  21  27
ATOM     27  O30 ZIN A   1      20.855  -6.039   8.554  0.00  0.00    -0.390 OA
ATOM     28  H55 ZIN A   1      20.934  -6.868   8.062  0.00  0.00     0.210 HD
ENDBRANCH  21  27
BRANCH  22  29
ATOM     29  O27 ZIN A   1      18.426  -7.359   7.822  0.00  0.00    -0.389 OA
ATOM     30  H54 ZIN A   1      18.336  -8.060   7.161  0.00  0.00     0.210 HD
ENDBRANCH  22  29
BRANCH  23  31
ATOM     31  S23 ZIN A   1      16.545  -5.089   8.458  0.00  0.00    -0.139 SA
ATOM     32  C24 ZIN A   1      15.068  -6.080   8.098  0.00  0.00     0.092 C 
ENDBRANCH  23  31
ENDBRANCH   1  19
TORSDOF 11
ENDMDL
MODEL 2
REMARK VINA RESULT:      -7.1      6.145     10.977
REMARK  11 active torsions:
REMARK  status: ('A' for Active; 'I' for Inactive)
REMARK    1  A    between atoms: C2_2  and  C3_3 
REMARK    2  A    between atoms: C3_3  and  C4_4 
REMARK    3  A    between atoms: C7_6  and  C9_7 
REMARK       I    between atoms: C9_7  and  N11_9 
REMARK    4  A    between atoms: N11_9  and  C12_10 
REMARK    5  A    between atoms: C12_10  and  C14_11 
REMARK    6  A    between atoms: C12_10  and  C18_14 
REMARK    7  A    between atoms: C14_11  and  O17_13 
REMARK    8  A    between atoms: C21_16  and  S23_17 
REMARK    9  A    between atoms: C25_19  and  O27_20 
REMARK   10  A    between atoms: C28_21  and  O30_22 
REMARK   11  A    between atoms: C31_23  and  O33_24 
ROOT
ATOM      1  C12 ZIN A   1      18.993   2.119  16.229  0.00  0.00     0.144 C 
ENDROOT
BRANCH   1   2
ATOM      2  N11 ZIN A   1      18.253   1.222  15.339  0.00  0.00    -0.350 N 
ATOM      3  C9  ZIN A   1      18.885   0.620  14.312  0.00  0.00     0.251 C 
ATOM      4  O10 ZIN A   1      20.066   0.821  14.125  0.00  0.00    -0.271 OA
ATOM      5  H46 ZIN A   1      17.308   1.060  15.489  0.00  0.00     0.163 HD
BRANCH   3   6
ATOM      6  C7  ZIN A   1      18.123  -0.304  13.397  0.00  0.00     0.314 C 
ATOM      7  C6  ZIN A   1      18.685  -1.738  13.489  0.00  0.00     0.052 C 
ATOM      8  C4  ZIN A   1      18.610  -2.292  12.051  0.00  0.00     0.016 C 
ATOM      9  C36 ZIN A   1      18.010  -1.147  11.208  0.00  0.00     0.277 C 
ATOM     10  N34 ZIN A   1      18.326   0.087  11.977  0.00  0.00     0.098 N 
ATOM     11  C35 ZIN A   1      17.428   1.187  11.601  0.00  0.00     0.310 C 
BRANCH   8  12
ATOM     12  C3  ZIN A   1      17.700  -3.521  12.002  0.00  0.00     0.006 C 
BRANCH  12  13
ATOM     13  C2  ZIN A   1      18.430  -4.668  11.301  0.00  0.00    -0.004 C 
ATOM     14  C1  ZIN A   1      19.934  -4.386  11.294  0.00  0.00     0.005 C 
ENDBRANCH  12  13
ENDBRANCH   8  12
ENDBRANCH   3   6
ENDBRANCH   1   2
BRANCH   1  15
ATOM     15  C14 ZIN A   1      18.612   1.826  17.682  0.00  0.00     0.139 C 
ATOM     16  C16 ZIN A   1      18.281   0.339  17.831  0.00  0.00     0.041 C 
BRANCH  15  17
ATOM     17  O17 ZIN A   1      19.706   2.157  18.538  0.00  0.00    -0.394 OA
ATOM     18  H50 ZIN A   1      19.481   2.162  19.479  0.00  0.00     0.210 HD
ENDBRANCH  15  17
ENDBRANCH   1  15
BRANCH   1  19
ATOM     19  C18 ZIN A   1      18.645   3.571  15.895  0.00  0.00     0.179 C 
ATOM     20  C31 ZIN A   1      19.922   4.329  15.522  0.00  0.00     0.180 C 
ATOM     21  C28 ZIN A   1      19.575   5.796  15.247  0.00  0.00     0.181 C 
ATOM     22  C25 ZIN A   1      18.886   6.386  16.482  0.00  0.00     0.188 C 
ATOM     23  C21 ZIN A   1      17.649   5.549  16.816  0.00  0.00     0.214 C 
ATOM     24  O20 ZIN A   1      18.039   4.190  17.031  0.00  0.00    -0.363 OA
BRANCH  20  25
ATOM     25  O33 ZIN A   1      20.855   4.254  16.602  0.00  0.00    -0.390 OA
ATOM     26  H56 ZIN A   1      21.774   4.404  16.339  0.00  0.00     0.210 HD
ENDBRANCH  20  25
BRANCH  21  27
ATOM     27  O30 ZIN A   1      20.769   6.528  14.969  0.00  0.00    -0.390 OA
ATOM     28  H55 ZIN A   1      21.568   6.137  15.349  0.00  0.00     0.210 HD
ENDBRANCH  21  27
BRANCH  22  29
ATOM     29  O27 ZIN A   1      18.492   7.732  16.212  0.00  0.00    -0.389 OA
ATOM     30  H54 ZIN A   1      18.072   8.178  16.961  0.00  0.00     0.210 HD
ENDBRANCH  22  29
BRANCH  23  31
ATOM     31  S23 ZIN A   1      16.472   5.630  15.439  0.00  0.00    -0.139 SA
ATOM     32  C24 ZIN A   1      14.992   6.342  16.208  0.00  0.00     0.092 C 
ENDBRANCH  23  31
ENDBRANCH   1  19
TORSDOF 11
ENDMDL
MODEL 3
REMARK VINA RESULT:      -7.0      1.385      1.682
REMARK  11 active torsions:
REMARK  status: ('A' for Active; 'I' for Inactive)
REMARK    1  A    between atoms: C2_2  and  C3_3 
REMARK    2  A    between atoms: C3_3  and  C4_4 
REMARK    3  A    between atoms: C7_6  and  C9_7 
REMARK       I    between atoms: C9_7  and  N11_9 
REMARK    4  A    between atoms: N11_9  and  C12_10 
REMARK    5  A    between atoms: C12_10  and  C14_11 
REMARK    6  A    between atoms: C12_10  and  C18_14 
REMARK    7  A    between atoms: C14_11  and  O17_13 
REMARK    8  A    between atoms: C21_16  and  S23_17 
REMARK    9  A    between atoms: C25_19  and  O27_20 
REMARK   10  A    between atoms: C28_21  and  O30_22 
REMARK   11  A    between atoms: C31_23  and  O33_24 
ROOT
ATOM      1  C12 ZIN A   1      18.981  -1.490   6.696  0.00  0.00     0.144 C 
ENDROOT
BRANCH   1   2
ATOM      2  N11 ZIN A   1      18.191  -0.606   7.557  0.00  0.00    -0.350 N 
ATOM      3  C9  ZIN A   1      18.793   0.090   8.542  0.00  0.00     0.251 C 
ATOM      4  O10 ZIN A   1      19.989  -0.016   8.715  0.00  0.00    -0.271 OA
ATOM      5  H46 ZIN A   1      17.235  -0.520   7.418  0.00  0.00     0.163 HD
BRANCH   3   6
ATOM      6  C7  ZIN A   1      17.981   0.999   9.427  0.00  0.00     0.314 C 
ATOM      7  C6  ZIN A   1      18.518   2.444   9.352  0.00  0.00     0.052 C 
ATOM      8  C4  ZIN A   1      18.379   2.999  10.786  0.00  0.00     0.016 C 
ATOM      9  C36 ZIN A   1      17.772   1.842  11.608  0.00  0.00     0.277 C 
ATOM     10  N34 ZIN A   1      18.139   0.615  10.854  0.00  0.00     0.098 N 
ATOM     11  C35 ZIN A   1      17.250  -0.503  11.199  0.00  0.00     0.310 C 
BRANCH   8  12
ATOM     12  C3  ZIN A   1      17.443   4.209  10.800  0.00  0.00     0.006 C 
BRANCH  12  13
ATOM     13  C2  ZIN A   1      17.645   4.994  12.097  0.00  0.00    -0.004 C 
ATOM     14  C1  ZIN A   1      16.289   5.473  12.619  0.00  0.00     0.005 C 
ENDBRANCH  12  13
ENDBRANCH   8  12
ENDBRANCH   3   6
ENDBRANCH   1   2
BRANCH   1  15
ATOM     15  C14 ZIN A   1      18.820  -1.058   5.237  0.00  0.00     0.139 C 
ATOM     16  C16 ZIN A   1      19.241   0.406   5.089  0.00  0.00     0.041 C 
BRANCH  15  17
ATOM     17  O17 ZIN A   1      19.643  -1.875   4.404  0.00  0.00    -0.394 OA
ATOM     18  H50 ZIN A   1      19.806  -1.503   3.526  0.00  0.00     0.210 HD
ENDBRANCH  15  17
ENDBRANCH   1  15
BRANCH   1  19
ATOM     19  C18 ZIN A   1      18.492  -2.930   6.858  0.00  0.00     0.179 C 
ATOM     20  C31 ZIN A   1      18.362  -3.260   8.347  0.00  0.00     0.180 C 
ATOM     21  C28 ZIN A   1      17.930  -4.722   8.503  0.00  0.00     0.181 C 
ATOM     22  C25 ZIN A   1      18.947  -5.621   7.793  0.00  0.00     0.188 C 
ATOM     23  C21 ZIN A   1      19.054  -5.200   6.326  0.00  0.00     0.214 C 
ATOM     24  O20 ZIN A   1      19.429  -3.822   6.253  0.00  0.00    -0.363 OA
BRANCH  20  25
ATOM     25  O33 ZIN A   1      19.621  -3.063   8.992  0.00  0.00    -0.390 OA
ATOM     26  H56 ZIN A   1      19.647  -3.372   9.908  0.00  0.00     0.210 HD
ENDBRANCH  20  25
BRANCH  21  27
ATOM     27  O30 ZIN A   1      17.876  -5.062   9.889  0.00  0.00    -0.390 OA
ATOM     28  H55 ZIN A   1      17.820  -4.298  10.479  0.00  0.00     0.210 HD
ENDBRANCH  21  27
BRANCH  22  29
ATOM     29  O27 ZIN A   1      18.518  -6.982   7.869  0.00  0.00    -0.389 OA
ATOM     30  H54 ZIN A   1      18.137  -7.321   7.046  0.00  0.00     0.210 HD
ENDBRANCH  22  29
BRANCH  23  31
ATOM     31  S23 ZIN A   1      17.450  -5.434   5.511  0.00  0.00    -0.139 SA
ATOM     32  C24 ZIN A   1      17.755  -4.826   3.828  0.00  0.00     0.092 C 
ENDBRANCH  23  31
ENDBRANCH   1  19
TORSDOF 11
ENDMDL
MODEL 4
REMARK VINA RESULT:      -7.0      2.196      3.757
REMARK  11 active torsions:
REMARK  status: ('A' for Active; 'I' for Inactive)
REMARK    1  A    between atoms: C2_2  and  C3_3 
REMARK    2  A    between atoms: C3_3  and  C4_4 
REMARK    3  A    between atoms: C7_6  and  C9_7 
REMARK       I    between atoms: C9_7  and  N11_9 
REMARK    4  A    between atoms: N11_9  and  C12_10 
REMARK    5  A    between atoms: C12_10  and  C14_11 
REMARK    6  A    between atoms: C12_10  and  C18_14 
REMARK    7  A    between atoms: C14_11  and  O17_13 
REMARK    8  A    between atoms: C21_16  and  S23_17 
REMARK    9  A    between atoms: C25_19  and  O27_20 
REMARK   10  A    between atoms: C28_21  and  O30_22 
REMARK   11  A    between atoms: C31_23  and  O33_24 
ROOT
ATOM      1  C12 ZIN A   1      18.307  -2.627  10.289  0.00  0.00     0.144 C 
ENDROOT
BRANCH   1   2
ATOM      2  N11 ZIN A   1      18.503  -1.188  10.484  0.00  0.00    -0.350 N 
ATOM      3  C9  ZIN A   1      17.657  -0.493  11.271  0.00  0.00     0.251 C 
ATOM      4  O10 ZIN A   1      16.734  -1.059  11.817  0.00  0.00    -0.271 OA
ATOM      5  H46 ZIN A   1      19.241  -0.735  10.047  0.00  0.00     0.163 HD
BRANCH   3   6
ATOM      6  C7  ZIN A   1      17.859   0.987  11.471  0.00  0.00     0.314 C 
ATOM      7  C6  ZIN A   1      17.633   1.745  10.146  0.00  0.00     0.052 C 
ATOM      8  C4  ZIN A   1      18.683   2.876  10.146  0.00  0.00     0.016 C 
ATOM      9  C36 ZIN A   1      19.457   2.707  11.471  0.00  0.00     0.277 C 
ATOM     10  N34 ZIN A   1      19.272   1.276  11.831  0.00  0.00     0.098 N 
ATOM     11  C35 ZIN A   1      19.504   1.058  13.265  0.00  0.00     0.310 C 
BRANCH   8  12
ATOM     12  C3  ZIN A   1      17.993   4.242  10.105  0.00  0.00     0.006 C 
BRANCH  12  13
ATOM     13  C2  ZIN A   1      17.925   4.821  11.519  0.00  0.00    -0.004 C 
ATOM     14  C1  ZIN A   1      16.474   5.168  11.858  0.00  0.00     0.005 C 
ENDBRANCH  12  13
ENDBRANCH   8  12
ENDBRANCH   3   6
ENDBRANCH   1   2
BRANCH   1  15
ATOM     15  C14 ZIN A   1      19.042  -3.395  11.389  0.00  0.00     0.139 C 
ATOM     16  C16 ZIN A   1      18.324  -4.721  11.652  0.00  0.00     0.041 C 
BRANCH  15  17
ATOM     17  O17 ZIN A   1      20.384  -3.655  10.974  0.00  0.00    -0.394 OA
ATOM     18  H50 ZIN A   1      20.999  -3.807  11.705  0.00  0.00     0.210 HD
ENDBRANCH  15  17
ENDBRANCH   1  15
BRANCH   1  19
ATOM     19  C18 ZIN A   1      18.860  -3.037   8.923  0.00  0.00     0.179 C 
ATOM     20  C31 ZIN A   1      18.830  -1.833   7.978  0.00  0.00     0.180 C 
ATOM     21  C28 ZIN A   1      19.328  -2.266   6.596  0.00  0.00     0.181 C 
ATOM     22  C25 ZIN A   1      18.461  -3.424   6.092  0.00  0.00     0.188 C 
ATOM     23  C21 ZIN A   1      18.506  -4.566   7.110  0.00  0.00     0.214 C 
ATOM     24  O20 ZIN A   1      18.059  -4.087   8.380  0.00  0.00    -0.363 OA
BRANCH  20  25
ATOM     25  O33 ZIN A   1      17.492  -1.343   7.871  0.00  0.00    -0.390 OA
ATOM     26  H56 ZIN A   1      17.192  -0.847   8.646  0.00  0.00     0.210 HD
ENDBRANCH  20  25
BRANCH  21  27
ATOM     27  O30 ZIN A   1      19.236  -1.168   5.687  0.00  0.00    -0.390 OA
ATOM     28  H55 ZIN A   1      19.934  -0.508   5.795  0.00  0.00     0.210 HD
ENDBRANCH  21  27
BRANCH  22  29
ATOM     29  O27 ZIN A   1      18.961  -3.884   4.835  0.00  0.00    -0.389 OA
ATOM     30  H54 ZIN A   1      19.861  -3.588   4.637  0.00  0.00     0.210 HD
ENDBRANCH  22  29
BRANCH  23  31
ATOM     31  S23 ZIN A   1      20.208  -5.177   7.259  0.00  0.00    -0.139 SA
ATOM     32  C24 ZIN A   1      20.137  -6.227   8.737  0.00  0.00     0.092 C 
ENDBRANCH  23  31
ENDBRANCH   1  19
TORSDOF 11
ENDMDL
MODEL 5
REMARK VINA RESULT:      -7.0      5.293      9.441
REMARK  11 active torsions:
REMARK  status: ('A' for Active; 'I' for Inactive)
REMARK    1  A    between atoms: C2_2  and  C3_3 
REMARK    2  A    between atoms: C3_3  and  C4_4 
REMARK    3  A    between atoms: C7_6  and  C9_7 
REMARK       I    between atoms: C9_7  and  N11_9 
REMARK    4  A    between atoms: N11_9  and  C12_10 
REMARK    5  A    between atoms: C12_10  and  C14_11 
REMARK    6  A    between atoms: C12_10  and  C18_14 
REMARK    7  A    between atoms: C14_11  and  O17_13 
REMARK    8  A    between atoms: C21_16  and  S23_17 
REMARK    9  A    between atoms: C25_19  and  O27_20 
REMARK   10  A    between atoms: C28_21  and  O30_22 
REMARK   11  A    between atoms: C31_23  and  O33_24 
ROOT
ATOM      1  C12 ZIN A   1      17.832   2.364  13.155  0.00  0.00     0.144 C 
ENDROOT
BRANCH   1   2
ATOM      2  N11 ZIN A   1      18.398   1.156  12.550  0.00  0.00    -0.350 N 
ATOM      3  C9  ZIN A   1      17.594   0.280  11.915  0.00  0.00     0.251 C 
ATOM      4  O10 ZIN A   1      16.402   0.492  11.845  0.00  0.00    -0.271 OA
ATOM      5  H46 ZIN A   1      19.351   0.986  12.606  0.00  0.00     0.163 HD
BRANCH   3   6
ATOM      6  C7  ZIN A   1      18.177  -0.963  11.293  0.00  0.00     0.314 C 
ATOM      7  C6  ZIN A   1      18.149  -2.133  12.299  0.00  0.00     0.052 C 
ATOM      8  C4  ZIN A   1      19.458  -2.910  12.047  0.00  0.00     0.016 C 
ATOM      9  C36 ZIN A   1      20.168  -2.145  10.910  0.00  0.00     0.277 C 
ATOM     10  N34 ZIN A   1      19.618  -0.766  10.988  0.00  0.00     0.098 N 
ATOM     11  C35 ZIN A   1      19.793  -0.055   9.714  0.00  0.00     0.310 C 
BRANCH   8  12
ATOM     12  C3  ZIN A   1      19.149  -4.344  11.610  0.00  0.00     0.006 C 
BRANCH  12  13
ATOM     13  C2  ZIN A   1      17.664  -4.636  11.834  0.00  0.00    -0.004 C 
ATOM     14  C1  ZIN A   1      17.236  -5.809  10.951  0.00  0.00     0.005 C 
ENDBRANCH  12  13
ENDBRANCH   8  12
ENDBRANCH   3   6
ENDBRANCH   1   2
BRANCH   1  15
ATOM     15  C14 ZIN A   1      17.967   3.534  12.179  0.00  0.00     0.139 C 
ATOM     16  C16 ZIN A   1      19.372   3.532  11.572  0.00  0.00     0.041 C 
BRANCH  15  17
ATOM     17  O17 ZIN A   1      16.999   3.401  11.137  0.00  0.00    -0.394 OA
ATOM     18  H50 ZIN A   1      17.363   3.507  10.247  0.00  0.00     0.210 HD
ENDBRANCH  15  17
ENDBRANCH   1  15
BRANCH   1  19
ATOM     19  C18 ZIN A   1      18.584   2.688  14.448  0.00  0.00     0.179 C 
ATOM     20  C31 ZIN A   1      18.647   1.437  15.328  0.00  0.00     0.180 C 
ATOM     21  C28 ZIN A   1      19.348   1.785  16.646  0.00  0.00     0.181 C 
ATOM     22  C25 ZIN A   1      18.597   2.936  17.322  0.00  0.00     0.188 C 
ATOM     23  C21 ZIN A   1      18.537   4.129  16.364  0.00  0.00     0.214 C 
ATOM     24  O20 ZIN A   1      17.900   3.729  15.148  0.00  0.00    -0.363 OA
BRANCH  20  25
ATOM     25  O33 ZIN A   1      17.322   0.976  15.599  0.00  0.00    -0.390 OA
ATOM     26  H56 ZIN A   1      17.084   0.992  16.537  0.00  0.00     0.210 HD
ENDBRANCH  20  25
BRANCH  21  27
ATOM     27  O30 ZIN A   1      19.348   0.644  17.505  0.00  0.00    -0.390 OA
ATOM     28  H55 ZIN A   1      19.313   0.860  18.446  0.00  0.00     0.210 HD
ENDBRANCH  21  27
BRANCH  22  29
ATOM     29  O27 ZIN A   1      19.283   3.318  18.516  0.00  0.00    -0.389 OA
ATOM     30  H54 ZIN A   1      19.026   4.186  18.857  0.00  0.00     0.210 HD
ENDBRANCH  22  29
BRANCH  23  31
ATOM     31  S23 ZIN A   1      20.219   4.704  16.006  0.00  0.00    -0.139 SA
ATOM     32  C24 ZIN A   1      19.941   6.123  14.911  0.00  0.00     0.092 C 
ENDBRANCH  23  31
ENDBRANCH   1  19
TORSDOF 11
ENDMDL
MODEL 6
REMARK VINA RESULT:      -6.7      2.861      3.628
REMARK  11 active torsions:
REMARK  status: ('A' for Active; 'I' for Inactive)
REMARK    1  A    between atoms: C2_2  and  C3_3 
REMARK    2  A    between atoms: C3_3  and  C4_4 
REMARK    3  A    between atoms: C7_6  and  C9_7 
REMARK       I    between atoms: C9_7  and  N11_9 
REMARK    4  A    between atoms: N11_9  and  C12_10 
REMARK    5  A    between atoms: C12_10  and  C14_11 
REMARK    6  A    between atoms: C12_10  and  C18_14 
REMARK    7  A    between atoms: C14_11  and  O17_13 
REMARK    8  A    between atoms: C21_16  and  S23_17 
REMARK    9  A    between atoms: C25_19  and  O27_20 
REMARK   10  A    between atoms: C28_21  and  O30_22 
REMARK   11  A    between atoms: C31_23  and  O33_24 
ROOT
ATOM      1  C12 ZIN A   1      18.656  -1.108   8.076  0.00  0.00     0.144 C 
ENDROOT
BRANCH   1   2
ATOM      2  N11 ZIN A   1      18.235  -1.162   9.479  0.00  0.00    -0.350 N 
ATOM      3  C9  ZIN A   1      18.999  -0.594  10.433  0.00  0.00     0.251 C 
ATOM      4  O10 ZIN A   1      20.034  -0.039  10.131  0.00  0.00    -0.271 OA
ATOM      5  H46 ZIN A   1      17.407  -1.605   9.720  0.00  0.00     0.163 HD
BRANCH   3   6
ATOM      6  C7  ZIN A   1      18.566  -0.649  11.876  0.00  0.00     0.314 C 
ATOM      7  C6  ZIN A   1      19.114   0.568  12.649  0.00  0.00     0.052 C 
ATOM      8  C4  ZIN A   1      19.481   0.024  14.046  0.00  0.00     0.016 C 
ATOM      9  C36 ZIN A   1      19.125  -1.477  14.000  0.00  0.00     0.277 C 
ATOM     10  N34 ZIN A   1      19.166  -1.826  12.555  0.00  0.00     0.098 N 
ATOM     11  C35 ZIN A   1      18.389  -3.043  12.284  0.00  0.00     0.310 C 
BRANCH   8  12
ATOM     12  C3  ZIN A   1      18.659   0.733  15.125  0.00  0.00     0.006 C 
BRANCH  12  13
ATOM     13  C2  ZIN A   1      17.581  -0.217  15.651  0.00  0.00    -0.004 C 
ATOM     14  C1  ZIN A   1      17.544  -0.150  17.179  0.00  0.00     0.005 C 
ENDBRANCH  12  13
ENDBRANCH   8  12
ENDBRANCH   3   6
ENDBRANCH   1   2
BRANCH   1  15
ATOM     15  C14 ZIN A   1      17.852  -0.032   7.344  0.00  0.00     0.139 C 
ATOM     16  C16 ZIN A   1      18.812   0.972   6.702  0.00  0.00     0.041 C 
BRANCH  15  17
ATOM     17  O17 ZIN A   1      17.053  -0.641   6.328  0.00  0.00    -0.394 OA
ATOM     18  H50 ZIN A   1      16.544  -1.405   6.634  0.00  0.00     0.210 HD
ENDBRANCH  15  17
ENDBRANCH   1  15
BRANCH   1  19
ATOM     19  C18 ZIN A   1      18.408  -2.466   7.417  0.00  0.00     0.179 C 
ATOM     20  C31 ZIN A   1      18.520  -3.572   8.470  0.00  0.00     0.180 C 
ATOM     21  C28 ZIN A   1      18.331  -4.933   7.792  0.00  0.00     0.181 C 
ATOM     22  C25 ZIN A   1      19.369  -5.084   6.677  0.00  0.00     0.188 C 
ATOM     23  C21 ZIN A   1      19.225  -3.920   5.693  0.00  0.00     0.214 C 
ATOM     24  O20 ZIN A   1      19.382  -2.684   6.394  0.00  0.00    -0.363 OA
BRANCH  20  25
ATOM     25  O33 ZIN A   1      19.808  -3.520   9.084  0.00  0.00    -0.390 OA
ATOM     26  H56 ZIN A   1      20.485  -3.092   8.541  0.00  0.00     0.210 HD
ENDBRANCH  20  25
BRANCH  21  27
ATOM     27  O30 ZIN A   1      18.504  -5.976   8.752  0.00  0.00    -0.390 OA
ATOM     28  H55 ZIN A   1      18.738  -5.662   9.637  0.00  0.00     0.210 HD
ENDBRANCH  21  27
BRANCH  22  29
ATOM     29  O27 ZIN A   1      19.157  -6.319   5.989  0.00  0.00    -0.389 OA
ATOM     30  H54 ZIN A   1      18.965  -7.066   6.573  0.00  0.00     0.210 HD
ENDBRANCH  22  29
BRANCH  23  31
ATOM     31  S23 ZIN A   1      17.582  -3.976   4.926  0.00  0.00    -0.139 SA
ATOM     32  C24 ZIN A   1      17.946  -4.456   3.215  0.00  0.00     0.092 C 
ENDBRANCH  23  31
ENDBRANCH   1  19
TORSDOF 11
ENDMDL
MODEL 7
REMARK VINA RESULT:      -6.7      2.587      3.554
REMARK  11 active torsions:
REMARK  status: ('A' for Active; 'I' for Inactive)
REMARK    1  A    between atoms: C2_2  and  C3_3 
REMARK    2  A    between atoms: C3_3  and  C4_4 
REMARK    3  A    between atoms: C7_6  and  C9_7 
REMARK       I    between atoms: C9_7  and  N11_9 
REMARK    4  A    between atoms: N11_9  and  C12_10 
REMARK    5  A    between atoms: C12_10  and  C14_11 
REMARK    6  A    between atoms: C12_10  and  C18_14 
REMARK    7  A    between atoms: C14_11  and  O17_13 
REMARK    8  A    between atoms: C21_16  and  S23_17 
REMARK    9  A    between atoms: C25_19  and  O27_20 
REMARK   10  A    between atoms: C28_21  and  O30_22 
REMARK   11  A    between atoms: C31_23  and  O33_24 
ROOT
ATOM      1  C12 ZIN A   1      18.823  -1.389   8.094  0.00  0.00     0.144 C 
ENDROOT
BRANCH   1   2
ATOM      2  N11 ZIN A   1      18.546  -0.970   9.471  0.00  0.00    -0.350 N 
ATOM      3  C9  ZIN A   1      19.525  -0.424  10.219  0.00  0.00     0.251 C 
ATOM      4  O10 ZIN A   1      20.636  -0.281   9.754  0.00  0.00    -0.271 OA
ATOM      5  H46 ZIN A   1      17.657  -1.084   9.843  0.00  0.00     0.163 HD
BRANCH   3   6
ATOM      6  C7  ZIN A   1      19.239   0.007  11.634  0.00  0.00     0.314 C 
ATOM      7  C6  ZIN A   1      19.408  -1.182  12.604  0.00  0.00     0.052 C 
ATOM      8  C4  ZIN A   1      18.294  -1.002  13.657  0.00  0.00     0.016 C 
ATOM      9  C36 ZIN A   1      17.544   0.279  13.235  0.00  0.00     0.277 C 
ATOM     10  N34 ZIN A   1      17.816   0.409  11.779  0.00  0.00     0.098 N 
ATOM     11  C35 ZIN A   1      17.612   1.791  11.325  0.00  0.00     0.310 C 
BRANCH   8  12
ATOM     12  C3  ZIN A   1      18.903  -0.828  15.050  0.00  0.00     0.006 C 
BRANCH  12  13
ATOM     13  C2  ZIN A   1      18.077  -1.617  16.069  0.00  0.00    -0.004 C 
ATOM     14  C1  ZIN A   1      17.160  -0.659  16.832  0.00  0.00     0.005 C 
ENDBRANCH  12  13
ENDBRANCH   8  12
ENDBRANCH   3   6
ENDBRANCH   1   2
BRANCH   1  15
ATOM     15  C14 ZIN A   1      17.998  -0.539   7.126  0.00  0.00     0.139 C 
ATOM     16  C16 ZIN A   1      18.860   0.608   6.594  0.00  0.00     0.041 C 
BRANCH  15  17
ATOM     17  O17 ZIN A   1      17.559  -1.350   6.035  0.00  0.00    -0.394 OA
ATOM     18  H50 ZIN A   1      17.444  -0.864   5.206  0.00  0.00     0.210 HD
ENDBRANCH  15  17
ENDBRANCH   1  15
BRANCH   1  19
ATOM     19  C18 ZIN A   1      18.449  -2.863   7.925  0.00  0.00     0.179 C 
ATOM     20  C31 ZIN A   1      18.525  -3.568   9.282  0.00  0.00     0.180 C 
ATOM     21  C28 ZIN A   1      18.209  -5.055   9.094  0.00  0.00     0.181 C 
ATOM     22  C25 ZIN A   1      19.185  -5.649   8.074  0.00  0.00     0.188 C 
ATOM     23  C21 ZIN A   1      19.083  -4.864   6.764  0.00  0.00     0.214 C 
ATOM     24  O20 ZIN A   1      19.359  -3.484   7.015  0.00  0.00    -0.363 OA
BRANCH  20  25
ATOM     25  O33 ZIN A   1      19.840  -3.424   9.822  0.00  0.00    -0.390 OA
ATOM     26  H56 ZIN A   1      19.870  -3.425  10.789  0.00  0.00     0.210 HD
ENDBRANCH  20  25
BRANCH  21  27
ATOM     27  O30 ZIN A   1      18.348  -5.737  10.342  0.00  0.00    -0.390 OA
ATOM     28  H55 ZIN A   1      17.625  -6.348  10.539  0.00  0.00     0.210 HD
ENDBRANCH  21  27
BRANCH  22  29
ATOM     29  O27 ZIN A   1      18.854  -7.019   7.836  0.00  0.00    -0.389 OA
ATOM     30  H54 ZIN A   1      19.423  -7.454   7.186  0.00  0.00     0.210 HD
ENDBRANCH  22  29
BRANCH  23  31
ATOM     31  S23 ZIN A   1      17.408  -5.032   6.086  0.00  0.00    -0.139 SA
ATOM     32  C24 ZIN A   1      17.610  -4.499   4.364  0.00  0.00     0.092 C 
ENDBRANCH  23  31
ENDBRANCH   1  19
TORSDOF 11
ENDMDL
MODEL 8
REMARK VINA RESULT:      -6.6      4.025      7.866
REMARK  11 active torsions:
REMARK  status: ('A' for Active; 'I' for Inactive)
REMARK    1  A    between atoms: C2_2  and  C3_3 
REMARK    2  A    between atoms: C3_3  and  C4_4 
REMARK    3  A    between atoms: C7_6  and  C9_7 
REMARK       I    between atoms: C9_7  and  N11_9 
REMARK    4  A    between atoms: N11_9  and  C12_10 
REMARK    5  A    between atoms: C12_10  and  C14_11 
REMARK    6  A    between atoms: C12_10  and  C18_14 
REMARK    7  A    between atoms: C14_11  and  O17_13 
REMARK    8  A    between atoms: C21_16  and  S23_17 
REMARK    9  A    between atoms: C25_19  and  O27_20 
REMARK   10  A    between atoms: C28_21  and  O30_22 
REMARK   11  A    between atoms: C31_23  and  O33_24 
ROOT
ATOM      1  C12 ZIN A   1      19.277  -0.564  12.354  0.00  0.00     0.144 C 
ENDROOT
BRANCH   1   2
ATOM      2  N11 ZIN A   1      18.657  -0.106  11.108  0.00  0.00    -0.350 N 
ATOM      3  C9  ZIN A   1      19.382  -0.053   9.973  0.00  0.00     0.251 C 
ATOM      4  O10 ZIN A   1      20.549  -0.384   9.984  0.00  0.00    -0.271 OA
ATOM      5  H46 ZIN A   1      17.724   0.159  11.100  0.00  0.00     0.163 HD
BRANCH   3   6
ATOM      6  C7  ZIN A   1      18.743   0.418   8.692  0.00  0.00     0.314 C 
ATOM      7  C6  ZIN A   1      19.061  -0.559   7.541  0.00  0.00     0.052 C 
ATOM      8  C4  ZIN A   1      19.259   0.335   6.299  0.00  0.00     0.016 C 
ATOM      9  C36 ZIN A   1      19.046   1.778   6.803  0.00  0.00     0.277 C 
ATOM     10  N34 ZIN A   1      19.335   1.711   8.260  0.00  0.00     0.098 N 
ATOM     11  C35 ZIN A   1      18.717   2.837   8.973  0.00  0.00     0.310 C 
BRANCH   8  12
ATOM     12  C3  ZIN A   1      18.225  -0.011   5.225  0.00  0.00     0.006 C 
BRANCH  12  13
ATOM     13  C2  ZIN A   1      17.589  -1.365   5.547  0.00  0.00    -0.004 C 
ATOM     14  C1  ZIN A   1      17.514  -2.208   4.273  0.00  0.00     0.005 C 
ENDBRANCH  12  13
ENDBRANCH   8  12
ENDBRANCH   3   6
ENDBRANCH   1   2
BRANCH   1  15
ATOM     15  C14 ZIN A   1      19.021  -2.062  12.530  0.00  0.00     0.139 C 
ATOM     16  C16 ZIN A   1      17.735  -2.449  11.797  0.00  0.00     0.041 C 
BRANCH  15  17
ATOM     17  O17 ZIN A   1      20.118  -2.800  11.989  0.00  0.00    -0.394 OA
ATOM     18  H50 ZIN A   1      20.616  -2.323  11.311  0.00  0.00     0.210 HD
ENDBRANCH  15  17
ENDBRANCH   1  15
BRANCH   1  19
ATOM     19  C18 ZIN A   1      18.675   0.199  13.535  0.00  0.00     0.179 C 
ATOM     20  C31 ZIN A   1      18.451   1.661  13.137  0.00  0.00     0.180 C 
ATOM     21  C28 ZIN A   1      17.905   2.432  14.343  0.00  0.00     0.181 C 
ATOM     22  C25 ZIN A   1      18.884   2.289  15.512  0.00  0.00     0.188 C 
ATOM     23  C21 ZIN A   1      19.090   0.804  15.818  0.00  0.00     0.214 C 
ATOM     24  O20 ZIN A   1      19.570   0.141  14.646  0.00  0.00    -0.363 OA
BRANCH  20  25
ATOM     25  O33 ZIN A   1      19.691   2.238  12.723  0.00  0.00    -0.390 OA
ATOM     26  H56 ZIN A   1      20.190   1.692  12.100  0.00  0.00     0.210 HD
ENDBRANCH  20  25
BRANCH  21  27
ATOM     27  O30 ZIN A   1      17.761   3.812  14.005  0.00  0.00    -0.390 OA
ATOM     28  H55 ZIN A   1      17.011   4.246  14.435  0.00  0.00     0.210 HD
ENDBRANCH  21  27
BRANCH  22  29
ATOM     29  O27 ZIN A   1      18.350   2.944  16.665  0.00  0.00    -0.389 OA
ATOM     30  H54 ZIN A   1      19.014   3.167  17.333  0.00  0.00     0.210 HD
ENDBRANCH  22  29
BRANCH  23  31
ATOM     31  S23 ZIN A   1      17.513   0.066  16.328  0.00  0.00    -0.139 SA
ATOM     32  C24 ZIN A   1      17.919  -1.695  16.490  0.00  0.00     0.092 C 
ENDBRANCH  23  31
ENDBRANCH   1  19
TORSDOF 11
ENDMDL
MODEL 9
REMARK VINA RESULT:      -6.5      5.869     10.440
REMARK  11 active torsions:
REMARK  status: ('A' for Active; 'I' for Inactive)
REMARK    1  A    between atoms: C2_2  and  C3_3 
REMARK    2  A    between atoms: C3_3  and  C4_4 
REMARK    3  A    between atoms: C7_6  and  C9_7 
REMARK       I    between atoms: C9_7  and  N11_9 
REMARK    4  A    between atoms: N11_9  and  C12_10 
REMARK    5  A    between atoms: C12_10  and  C14_11 
REMARK    6  A    between atoms: C12_10  and  C18_14 
REMARK    7  A    between atoms: C14_11  and  O17_13 
REMARK    8  A    between atoms: C21_16  and  S23_17 
REMARK    9  A    between atoms: C25_19  and  O27_20 
REMARK   10  A    between atoms: C28_21  and  O30_22 
REMARK   11  A    between atoms: C31_23  and  O33_24 
ROOT
ATOM      1  C12 ZIN A   1      19.150   1.337  15.968  0.00  0.00     0.144 C 
ENDROOT
BRANCH   1   2
ATOM      2  N11 ZIN A   1      18.478   0.568  14.917  0.00  0.00    -0.350 N 
ATOM      3  C9  ZIN A   1      19.192   0.063  13.892  0.00  0.00     0.251 C 
ATOM      4  O10 ZIN A   1      20.390   0.245  13.838  0.00  0.00    -0.271 OA
ATOM      5  H46 ZIN A   1      17.521   0.422  14.960  0.00  0.00     0.163 HD
BRANCH   3   6
ATOM      6  C7  ZIN A   1      18.501  -0.728  12.811  0.00  0.00     0.314 C 
ATOM      7  C6  ZIN A   1      19.278  -2.028  12.515  0.00  0.00     0.052 C 
ATOM      8  C4  ZIN A   1      19.162  -2.227  10.989  0.00  0.00     0.016 C 
ATOM      9  C36 ZIN A   1      18.325  -1.030  10.490  0.00  0.00     0.277 C 
ATOM     10  N34 ZIN A   1      18.518   0.019  11.527  0.00  0.00     0.098 N 
ATOM     11  C35 ZIN A   1      17.436   1.011  11.482  0.00  0.00     0.310 C 
BRANCH   8  12
ATOM     12  C3  ZIN A   1      18.445  -3.543  10.677  0.00  0.00     0.006 C 
BRANCH  12  13
ATOM     13  C2  ZIN A   1      17.967  -4.184  11.981  0.00  0.00    -0.004 C 
ATOM     14  C1  ZIN A   1      17.329  -5.541  11.677  0.00  0.00     0.005 C 
ENDBRANCH  12  13
ENDBRANCH   8  12
ENDBRANCH   3   6
ENDBRANCH   1   2
BRANCH   1  15
ATOM     15  C14 ZIN A   1      18.912   0.667  17.322  0.00  0.00     0.139 C 
ATOM     16  C16 ZIN A   1      19.121  -0.843  17.188  0.00  0.00     0.041 C 
BRANCH  15  17
ATOM     17  O17 ZIN A   1      19.832   1.190  18.282  0.00  0.00    -0.394 OA
ATOM     18  H50 ZIN A   1      20.283   0.512  18.804  0.00  0.00     0.210 HD
ENDBRANCH  15  17
ENDBRANCH   1  15
BRANCH   1  19
ATOM     19  C18 ZIN A   1      18.588   2.760  15.998  0.00  0.00     0.179 C 
ATOM     20  C31 ZIN A   1      18.387   3.258  14.564  0.00  0.00     0.180 C 
ATOM     21  C28 ZIN A   1      17.881   4.704  14.601  0.00  0.00     0.181 C 
ATOM     22  C25 ZIN A   1      18.881   5.563  15.382  0.00  0.00     0.188 C 
ATOM     23  C21 ZIN A   1      19.063   4.976  16.783  0.00  0.00     0.214 C 
ATOM     24  O20 ZIN A   1      19.505   3.620  16.676  0.00  0.00    -0.363 OA
BRANCH  20  25
ATOM     25  O33 ZIN A   1      19.629   3.205  13.861  0.00  0.00    -0.390 OA
ATOM     26  H56 ZIN A   1      19.545   2.936  12.935  0.00  0.00     0.210 HD
ENDBRANCH  20  25
BRANCH  21  27
ATOM     27  O30 ZIN A   1      17.759   5.204  13.269  0.00  0.00    -0.390 OA
ATOM     28  H55 ZIN A   1      17.891   6.159  13.193  0.00  0.00     0.210 HD
ENDBRANCH  21  27
BRANCH  22  29
ATOM     29  O27 ZIN A   1      18.385   6.899  15.485  0.00  0.00    -0.389 OA
ATOM     30  H54 ZIN A   1      17.420   6.966  15.438  0.00  0.00     0.210 HD
ENDBRANCH  22  29
BRANCH  23  31
ATOM     31  S23 ZIN A   1      17.481   5.028  17.671  0.00  0.00    -0.139 SA
ATOM     32  C24 ZIN A   1      17.857   4.168  19.224  0.00  0.00     0.092 C 
ENDBRANCH  23  31
ENDBRANCH   1  19
TORSDOF 11
ENDMDL
