MODEL 1
REMARK VINA RESULT:      -8.2      0.000      0.000
REMARK  6 active torsions:
REMARK  status: ('A' for Active; 'I' for Inactive)
REMARK    1  A    between atoms: C2_2  and  O4_4 
REMARK    2  A    between atoms: O4_4  and  C5_5 
REMARK    3  A    between atoms: N11_11  and  C12_12 
REMARK    4  A    between atoms: C12_12  and  C14_13 
REMARK    5  A    between atoms: C12_12  and  C19_18 
REMARK    6  A    between atoms: C14_13  and  C16_15 
ROOT
ATOM      1  C5  ZIN A   1      18.657  -0.190  16.156  0.00  0.00     0.121 A 
ATOM      2  C6  ZIN A   1      18.561  -1.249  15.350  0.00  0.00     0.055 A 
ATOM      3  C7  ZIN A   1      18.909  -1.025  14.021  0.00  0.00    -0.014 A 
ATOM      4  C8  ZIN A   1      19.291   0.242  13.768  0.00  0.00    -0.005 A 
ATOM      5  C9  ZIN A   1      19.719   0.740  12.404  0.00  0.00     0.077 C 
ATOM      6  C10 ZIN A   1      20.009  -0.481  11.522  0.00  0.00     0.279 C 
ATOM      7  N11 ZIN A   1      18.888  -1.425  11.625  0.00  0.00     0.109 N 
ATOM      8  C26 ZIN A   1      18.870  -2.090  12.934  0.00  0.00     0.313 C 
ATOM      9  S27 ZIN A   1      19.209   1.203  15.236  0.00  0.00    -0.069 SA
ENDROOT
BRANCH   7  10
ATOM     10  C12 ZIN A   1      18.928  -2.410  10.536  0.00  0.00     0.328 C 
BRANCH  10  11
ATOM     11  C14 ZIN A   1      17.982  -3.542  10.846  0.00  0.00     0.169 C 
ATOM     12  O15 ZIN A   1      16.855  -3.303  11.209  0.00  0.00    -0.295 OA
BRANCH  11  13
ATOM     13  C16 ZIN A   1      18.442  -4.970  10.704  0.00  0.00     0.058 A 
ATOM     14  C18 ZIN A   1      18.074  -5.706   9.414  0.00  0.00     0.013 A 
ATOM     15  C17 ZIN A   1      17.373  -6.063  10.727  0.00  0.00     0.013 A 
ENDBRANCH  11  13
ENDBRANCH  10  11
BRANCH  10  16
ATOM     16  C19 ZIN A   1      18.514  -1.749   9.245  0.00  0.00     0.021 A 
ATOM     17  C24 ZIN A   1      18.959  -2.255   8.035  0.00  0.00     0.125 A 
ATOM     18  C23 ZIN A   1      18.572  -1.651   6.851  0.00  0.00     0.043 A 
ATOM     19  F25 ZIN A   1      19.758  -3.344   8.009  0.00  0.00    -0.205 F 
ATOM     20  C22 ZIN A   1      17.754  -0.537   6.878  0.00  0.00     0.003 A 
ATOM     21  C21 ZIN A   1      17.317  -0.029   8.087  0.00  0.00     0.001 A 
ATOM     22  C20 ZIN A   1      17.697  -0.636   9.270  0.00  0.00     0.013 A 
ENDBRANCH  10  16
ENDBRANCH   7  10
BRANCH   1  23
ATOM     23  O4  ZIN A   1      18.368  -0.186  17.484  0.00  0.00    -0.272 OA
BRANCH  23  24
ATOM     24  C2  ZIN A   1      18.780   0.875  18.195  0.00  0.00     0.260 C 
ATOM     25  C1  ZIN A   1      17.792   1.934  18.611  0.00  0.00     0.126 C 
ATOM     26  O3  ZIN A   1      19.948   0.981  18.504  0.00  0.00    -0.265 OA
ENDBRANCH  23  24
ENDBRANCH   1  23
TORSDOF 6
ENDMDL
MODEL 2
REMARK VINA RESULT:      -7.9      4.261      8.698
REMARK  6 active torsions:
REMARK  status: ('A' for Active; 'I' for Inactive)
REMARK    1  A    between atoms: C2_2  and  O4_4 
REMARK    2  A    between atoms: O4_4  and  C5_5 
REMARK    3  A    between atoms: N11_11  and  C12_12 
REMARK    4  A    between atoms: C12_12  and  C14_13 
REMARK    5  A    between atoms: C12_12  and  C19_18 
REMARK    6  A    between atoms: C14_13  and  C16_15 
ROOT
ATOM      1  C5  ZIN A   1      18.963   0.659   7.060  0.00  0.00     0.121 A 
ATOM      2  C6  ZIN A   1      19.042   1.665   7.933  0.00  0.00     0.055 A 
ATOM      3  C7  ZIN A   1      19.292   1.297   9.251  0.00  0.00    -0.014 A 
ATOM      4  C8  ZIN A   1      19.414  -0.033   9.429  0.00  0.00    -0.005 A 
ATOM      5  C9  ZIN A   1      19.687  -0.686  10.767  0.00  0.00     0.077 C 
ATOM      6  C10 ZIN A   1      20.174   0.399  11.735  0.00  0.00     0.279 C 
ATOM      7  N11 ZIN A   1      19.260   1.548  11.668  0.00  0.00     0.109 N 
ATOM      8  C26 ZIN A   1      19.418   2.282  10.406  0.00  0.00     0.313 C 
ATOM      9  S27 ZIN A   1      19.202  -0.868   7.899  0.00  0.00    -0.069 SA
ENDROOT
BRANCH   7  10
ATOM     10  C12 ZIN A   1      19.448   2.439  12.821  0.00  0.00     0.328 C 
BRANCH  10  11
ATOM     11  C14 ZIN A   1      18.783   3.763  12.548  0.00  0.00     0.169 C 
ATOM     12  O15 ZIN A   1      19.433   4.781  12.573  0.00  0.00    -0.295 OA
BRANCH  11  13
ATOM     13  C16 ZIN A   1      17.308   3.818  12.243  0.00  0.00     0.058 A 
ATOM     14  C18 ZIN A   1      16.870   4.617  11.014  0.00  0.00     0.013 A 
ATOM     15  C17 ZIN A   1      16.599   5.162  12.418  0.00  0.00     0.013 A 
ENDBRANCH  11  13
ENDBRANCH  10  11
BRANCH  10  16
ATOM     16  C19 ZIN A   1      18.832   1.811  14.046  0.00  0.00     0.021 A 
ATOM     17  C24 ZIN A   1      19.102   2.332  15.301  0.00  0.00     0.125 A 
ATOM     18  C23 ZIN A   1      18.531   1.759  16.423  0.00  0.00     0.043 A 
ATOM     19  F25 ZIN A   1      19.913   3.405  15.427  0.00  0.00    -0.205 F 
ATOM     20  C22 ZIN A   1      17.701   0.661  16.293  0.00  0.00     0.003 A 
ATOM     21  C21 ZIN A   1      17.437   0.138  15.041  0.00  0.00     0.001 A 
ATOM     22  C20 ZIN A   1      18.002   0.714  13.917  0.00  0.00     0.013 A 
ENDBRANCH  10  16
ENDBRANCH   7  10
BRANCH   1  23
ATOM     23  O4  ZIN A   1      18.727   0.792   5.728  0.00  0.00    -0.272 OA
BRANCH  23  24
ATOM     24  C2  ZIN A   1      18.888  -0.302   4.968  0.00  0.00     0.260 C 
ATOM     25  C1  ZIN A   1      17.689  -1.123   4.566  0.00  0.00     0.126 C 
ATOM     26  O3  ZIN A   1      19.997  -0.630   4.605  0.00  0.00    -0.265 OA
ENDBRANCH  23  24
ENDBRANCH   1  23
TORSDOF 6
ENDMDL
MODEL 3
REMARK VINA RESULT:      -7.8      4.062      8.047
REMARK  6 active torsions:
REMARK  status: ('A' for Active; 'I' for Inactive)
REMARK    1  A    between atoms: C2_2  and  O4_4 
REMARK    2  A    between atoms: O4_4  and  C5_5 
REMARK    3  A    between atoms: N11_11  and  C12_12 
REMARK    4  A    between atoms: C12_12  and  C14_13 
REMARK    5  A    between atoms: C12_12  and  C19_18 
REMARK    6  A    between atoms: C14_13  and  C16_15 
ROOT
ATOM      1  C5  ZIN A   1      19.302  -0.893   6.441  0.00  0.00     0.121 A 
ATOM      2  C6  ZIN A   1      19.259  -1.164   7.747  0.00  0.00     0.055 A 
ATOM      3  C7  ZIN A   1      19.024  -0.073   8.579  0.00  0.00    -0.014 A 
ATOM      4  C8  ZIN A   1      18.876   1.090   7.916  0.00  0.00    -0.005 A 
ATOM      5  C9  ZIN A   1      18.612   2.420   8.591  0.00  0.00     0.077 C 
ATOM      6  C10 ZIN A   1      18.165   2.142  10.031  0.00  0.00     0.279 C 
ATOM      7  N11 ZIN A   1      19.102   1.194  10.650  0.00  0.00     0.109 N 
ATOM      8  C26 ZIN A   1      18.939  -0.156  10.097  0.00  0.00     0.313 C 
ATOM      9  S27 ZIN A   1      19.044   0.827   6.188  0.00  0.00    -0.069 SA
ENDROOT
BRANCH   7  10
ATOM     10  C12 ZIN A   1      18.953   1.185  12.112  0.00  0.00     0.328 C 
BRANCH  10  11
ATOM     11  C14 ZIN A   1      20.051   0.355  12.724  0.00  0.00     0.169 C 
ATOM     12  O15 ZIN A   1      21.196   0.520  12.378  0.00  0.00    -0.295 OA
BRANCH  11  13
ATOM     13  C16 ZIN A   1      19.721  -0.681  13.768  0.00  0.00     0.058 A 
ATOM     14  C18 ZIN A   1      19.263  -2.056  13.278  0.00  0.00     0.013 A 
ATOM     15  C17 ZIN A   1      18.256  -1.096  13.914  0.00  0.00     0.013 A 
ENDBRANCH  11  13
ENDBRANCH  10  11
BRANCH  10  16
ATOM     16  C19 ZIN A   1      19.039   2.596  12.635  0.00  0.00     0.021 A 
ATOM     17  C24 ZIN A   1      18.319   2.963  13.759  0.00  0.00     0.125 A 
ATOM     18  C23 ZIN A   1      18.404   4.257  14.242  0.00  0.00     0.043 A 
ATOM     19  F25 ZIN A   1      17.544   2.055  14.393  0.00  0.00    -0.205 F 
ATOM     20  C22 ZIN A   1      19.197   5.186  13.594  0.00  0.00     0.003 A 
ATOM     21  C21 ZIN A   1      19.910   4.820  12.467  0.00  0.00     0.001 A 
ATOM     22  C20 ZIN A   1      19.831   3.525  11.988  0.00  0.00     0.013 A 
ENDBRANCH  10  16
ENDBRANCH   7  10
BRANCH   1  23
ATOM     23  O4  ZIN A   1      19.518  -1.806   5.458  0.00  0.00    -0.272 OA
BRANCH  23  24
ATOM     24  C2  ZIN A   1      18.471  -2.555   5.080  0.00  0.00     0.260 C 
ATOM     25  C1  ZIN A   1      17.357  -1.941   4.270  0.00  0.00     0.126 C 
ATOM     26  O3  ZIN A   1      18.420  -3.726   5.390  0.00  0.00    -0.265 OA
ENDBRANCH  23  24
ENDBRANCH   1  23
TORSDOF 6
ENDMDL
MODEL 4
REMARK VINA RESULT:      -7.8      3.316      7.996
REMARK  6 active torsions:
REMARK  status: ('A' for Active; 'I' for Inactive)
REMARK    1  A    between atoms: C2_2  and  O4_4 
REMARK    2  A    between atoms: O4_4  and  C5_5 
REMARK    3  A    between atoms: N11_11  and  C12_12 
REMARK    4  A    between atoms: C12_12  and  C14_13 
REMARK    5  A    between atoms: C12_12  and  C19_18 
REMARK    6  A    between atoms: C14_13  and  C16_15 
ROOT
ATOM      1  C5  ZIN A   1      19.123  -2.009   7.648  0.00  0.00     0.121 A 
ATOM      2  C6  ZIN A   1      19.687  -1.140   8.489  0.00  0.00     0.055 A 
ATOM      3  C7  ZIN A   1      19.199  -1.163   9.792  0.00  0.00    -0.014 A 
ATOM      4  C8  ZIN A   1      18.225  -2.072   9.989  0.00  0.00    -0.005 A 
ATOM      5  C9  ZIN A   1      17.531  -2.294  11.316  0.00  0.00     0.077 C 
ATOM      6  C10 ZIN A   1      18.373  -1.625  12.411  0.00  0.00     0.279 C 
ATOM      7  N11 ZIN A   1      18.705  -0.257  11.991  0.00  0.00     0.109 N 
ATOM      8  C26 ZIN A   1      19.697  -0.256  10.909  0.00  0.00     0.313 C 
ATOM      9  S27 ZIN A   1      17.891  -2.933   8.496  0.00  0.00    -0.069 SA
ENDROOT
BRANCH   7  10
ATOM     10  C12 ZIN A   1      19.170   0.545  13.132  0.00  0.00     0.328 C 
BRANCH  10  11
ATOM     11  C14 ZIN A   1      18.713   1.971  12.964  0.00  0.00     0.169 C 
ATOM     12  O15 ZIN A   1      19.169   2.838  13.670  0.00  0.00    -0.295 OA
BRANCH  11  13
ATOM     13  C16 ZIN A   1      17.687   2.315  11.915  0.00  0.00     0.058 A 
ATOM     14  C18 ZIN A   1      18.180   3.021  10.650  0.00  0.00     0.013 A 
ATOM     15  C17 ZIN A   1      17.372   3.795  11.693  0.00  0.00     0.013 A 
ENDBRANCH  11  13
ENDBRANCH  10  11
BRANCH  10  16
ATOM     16  C19 ZIN A   1      18.599  -0.018  14.408  0.00  0.00     0.021 A 
ATOM     17  C24 ZIN A   1      19.255  -1.045  15.067  0.00  0.00     0.125 A 
ATOM     18  C23 ZIN A   1      18.732  -1.556  16.242  0.00  0.00     0.043 A 
ATOM     19  F25 ZIN A   1      20.410  -1.538  14.569  0.00  0.00    -0.205 F 
ATOM     20  C22 ZIN A   1      17.550  -1.051  16.750  0.00  0.00     0.003 A 
ATOM     21  C21 ZIN A   1      16.893  -0.031  16.089  0.00  0.00     0.001 A 
ATOM     22  C20 ZIN A   1      17.418   0.486  14.918  0.00  0.00     0.013 A 
ENDBRANCH  10  16
ENDBRANCH   7  10
BRANCH   1  23
ATOM     23  O4  ZIN A   1      19.448  -2.155   6.337  0.00  0.00    -0.272 OA
BRANCH  23  24
ATOM     24  C2  ZIN A   1      19.126  -1.145   5.513  0.00  0.00     0.260 C 
ATOM     25  C1  ZIN A   1      17.740  -0.552   5.552  0.00  0.00     0.126 C 
ATOM     26  O3  ZIN A   1      19.949  -0.709   4.737  0.00  0.00    -0.265 OA
ENDBRANCH  23  24
ENDBRANCH   1  23
TORSDOF 6
ENDMDL
MODEL 5
REMARK VINA RESULT:      -7.6      1.978      3.857
REMARK  6 active torsions:
REMARK  status: ('A' for Active; 'I' for Inactive)
REMARK    1  A    between atoms: C2_2  and  O4_4 
REMARK    2  A    between atoms: O4_4  and  C5_5 
REMARK    3  A    between atoms: N11_11  and  C12_12 
REMARK    4  A    between atoms: C12_12  and  C14_13 
REMARK    5  A    between atoms: C12_12  and  C19_18 
REMARK    6  A    between atoms: C14_13  and  C16_15 
ROOT
ATOM      1  C5  ZIN A   1      18.960   2.102  16.078  0.00  0.00     0.121 A 
ATOM      2  C6  ZIN A   1      18.973   2.135  14.744  0.00  0.00     0.055 A 
ATOM      3  C7  ZIN A   1      18.773   0.912  14.111  0.00  0.00    -0.014 A 
ATOM      4  C8  ZIN A   1      18.596  -0.116  14.965  0.00  0.00    -0.005 A 
ATOM      5  C9  ZIN A   1      18.360  -1.546  14.528  0.00  0.00     0.077 C 
ATOM      6  C10 ZIN A   1      17.974  -1.533  13.043  0.00  0.00     0.279 C 
ATOM      7  N11 ZIN A   1      18.938  -0.705  12.305  0.00  0.00     0.109 N 
ATOM      8  C26 ZIN A   1      18.752   0.722  12.601  0.00  0.00     0.313 C 
ATOM      9  S27 ZIN A   1      18.690   0.452  16.623  0.00  0.00    -0.069 SA
ENDROOT
BRANCH   7  10
ATOM     10  C12 ZIN A   1      18.851  -0.958  10.860  0.00  0.00     0.328 C 
BRANCH  10  11
ATOM     11  C14 ZIN A   1      19.952  -0.211  10.152  0.00  0.00     0.169 C 
ATOM     12  O15 ZIN A   1      21.087  -0.285  10.556  0.00  0.00    -0.295 OA
BRANCH  11  13
ATOM     13  C16 ZIN A   1      19.636   0.628   8.941  0.00  0.00     0.058 A 
ATOM     14  C18 ZIN A   1      19.220   2.082   9.178  0.00  0.00     0.013 A 
ATOM     15  C17 ZIN A   1      18.180   1.051   8.734  0.00  0.00     0.013 A 
ENDBRANCH  11  13
ENDBRANCH  10  11
BRANCH  10  16
ATOM     16  C19 ZIN A   1      18.998  -2.435  10.599  0.00  0.00     0.021 A 
ATOM     17  C24 ZIN A   1      18.301  -3.027   9.558  0.00  0.00     0.125 A 
ATOM     18  C23 ZIN A   1      18.442  -4.382   9.316  0.00  0.00     0.043 A 
ATOM     19  F25 ZIN A   1      17.495  -2.279   8.773  0.00  0.00    -0.205 F 
ATOM     20  C22 ZIN A   1      19.267  -5.146  10.120  0.00  0.00     0.003 A 
ATOM     21  C21 ZIN A   1      19.956  -4.556  11.162  0.00  0.00     0.001 A 
ATOM     22  C20 ZIN A   1      19.822  -3.200  11.401  0.00  0.00     0.013 A 
ENDBRANCH  10  16
ENDBRANCH   7  10
BRANCH   1  23
ATOM     23  O4  ZIN A   1      19.135   3.177  16.891  0.00  0.00    -0.272 OA
BRANCH  23  24
ATOM     24  C2  ZIN A   1      18.902   2.996  18.200  0.00  0.00     0.260 C 
ATOM     25  C1  ZIN A   1      17.641   3.537  18.823  0.00  0.00     0.126 C 
ATOM     26  O3  ZIN A   1      19.706   2.396  18.881  0.00  0.00    -0.265 OA
ENDBRANCH  23  24
ENDBRANCH   1  23
TORSDOF 6
ENDMDL
MODEL 6
REMARK VINA RESULT:      -7.6      1.721      2.087
REMARK  6 active torsions:
REMARK  status: ('A' for Active; 'I' for Inactive)
REMARK    1  A    between atoms: C2_2  and  O4_4 
REMARK    2  A    between atoms: O4_4  and  C5_5 
REMARK    3  A    between atoms: N11_11  and  C12_12 
REMARK    4  A    between atoms: C12_12  and  C14_13 
REMARK    5  A    between atoms: C12_12  and  C19_18 
REMARK    6  A    between atoms: C14_13  and  C16_15 
ROOT
ATOM      1  C5  ZIN A   1      18.813   2.722  16.163  0.00  0.00     0.121 A 
ATOM      2  C6  ZIN A   1      19.019   1.509  15.645  0.00  0.00     0.055 A 
ATOM      3  C7  ZIN A   1      19.008   1.440  14.256  0.00  0.00    -0.014 A 
ATOM      4  C8  ZIN A   1      18.790   2.626  13.656  0.00  0.00    -0.005 A 
ATOM      5  C9  ZIN A   1      18.732   2.817  12.156  0.00  0.00     0.077 C 
ATOM      6  C10 ZIN A   1      19.338   1.573  11.494  0.00  0.00     0.279 C 
ATOM      7  N11 ZIN A   1      18.736   0.372  12.090  0.00  0.00     0.109 N 
ATOM      8  C26 ZIN A   1      19.219   0.158  13.461  0.00  0.00     0.313 C 
ATOM      9  S27 ZIN A   1      18.579   3.883  14.864  0.00  0.00    -0.069 SA
ENDROOT
BRANCH   7  10
ATOM     10  C12 ZIN A   1      18.984  -0.811  11.255  0.00  0.00     0.328 C 
BRANCH  10  11
ATOM     11  C14 ZIN A   1      18.118  -1.950  11.726  0.00  0.00     0.169 C 
ATOM     12  O15 ZIN A   1      16.955  -1.755  11.988  0.00  0.00    -0.295 OA
BRANCH  11  13
ATOM     13  C16 ZIN A   1      18.702  -3.332  11.873  0.00  0.00     0.058 A 
ATOM     14  C18 ZIN A   1      18.812  -4.189  10.610  0.00  0.00     0.013 A 
ATOM     15  C17 ZIN A   1      17.762  -4.522  11.672  0.00  0.00     0.013 A 
ENDBRANCH  11  13
ENDBRANCH  10  11
BRANCH  10  16
ATOM     16  C19 ZIN A   1      18.655  -0.490   9.819  0.00  0.00     0.021 A 
ATOM     17  C24 ZIN A   1      19.673  -0.250   8.912  0.00  0.00     0.125 A 
ATOM     18  C23 ZIN A   1      19.369   0.038   7.593  0.00  0.00     0.043 A 
ATOM     19  F25 ZIN A   1      20.963  -0.308   9.312  0.00  0.00    -0.205 F 
ATOM     20  C22 ZIN A   1      18.050   0.097   7.185  0.00  0.00     0.003 A 
ATOM     21  C21 ZIN A   1      17.034  -0.136   8.093  0.00  0.00     0.001 A 
ATOM     22  C20 ZIN A   1      17.337  -0.431   9.409  0.00  0.00     0.013 A 
ENDBRANCH  10  16
ENDBRANCH   7  10
BRANCH   1  23
ATOM     23  O4  ZIN A   1      18.783   3.014  17.489  0.00  0.00    -0.272 OA
BRANCH  23  24
ATOM     24  C2  ZIN A   1      18.762   1.977  18.342  0.00  0.00     0.260 C 
ATOM     25  C1  ZIN A   1      17.445   1.414  18.812  0.00  0.00     0.126 C 
ATOM     26  O3  ZIN A   1      19.802   1.494  18.734  0.00  0.00    -0.265 OA
ENDBRANCH  23  24
ENDBRANCH   1  23
TORSDOF 6
ENDMDL
MODEL 7
REMARK VINA RESULT:      -7.5      3.314      7.303
REMARK  6 active torsions:
REMARK  status: ('A' for Active; 'I' for Inactive)
REMARK    1  A    between atoms: C2_2  and  O4_4 
REMARK    2  A    between atoms: O4_4  and  C5_5 
REMARK    3  A    between atoms: N11_11  and  C12_12 
REMARK    4  A    between atoms: C12_12  and  C14_13 
REMARK    5  A    between atoms: C12_12  and  C19_18 
REMARK    6  A    between atoms: C14_13  and  C16_15 
ROOT
ATOM      1  C5  ZIN A   1      19.035  -4.121   9.840  0.00  0.00     0.121 A 
ATOM      2  C6  ZIN A   1      19.155  -3.575  11.053  0.00  0.00     0.055 A 
ATOM      3  C7  ZIN A   1      18.643  -2.288  11.184  0.00  0.00    -0.014 A 
ATOM      4  C8  ZIN A   1      18.104  -1.801  10.050  0.00  0.00    -0.005 A 
ATOM      5  C9  ZIN A   1      17.481  -0.426   9.932  0.00  0.00     0.077 C 
ATOM      6  C10 ZIN A   1      17.227   0.104  11.349  0.00  0.00     0.279 C 
ATOM      7  N11 ZIN A   1      18.446  -0.068  12.151  0.00  0.00     0.109 N 
ATOM      8  C26 ZIN A   1      18.677  -1.481  12.475  0.00  0.00     0.313 C 
ATOM      9  S27 ZIN A   1      18.242  -2.983   8.759  0.00  0.00    -0.069 SA
ENDROOT
BRANCH   7  10
ATOM     10  C12 ZIN A   1      18.393   0.750  13.371  0.00  0.00     0.328 C 
BRANCH  10  11
ATOM     11  C14 ZIN A   1      19.303   0.155  14.415  0.00  0.00     0.169 C 
ATOM     12  O15 ZIN A   1      20.437  -0.144  14.128  0.00  0.00    -0.295 OA
BRANCH  11  13
ATOM     13  C16 ZIN A   1      18.796  -0.069  15.817  0.00  0.00     0.058 A 
ATOM     14  C18 ZIN A   1      18.236  -1.453  16.153  0.00  0.00     0.013 A 
ATOM     15  C17 ZIN A   1      17.290  -0.260  16.002  0.00  0.00     0.013 A 
ENDBRANCH  11  13
ENDBRANCH  10  11
BRANCH  10  16
ATOM     16  C19 ZIN A   1      18.843   2.154  13.055  0.00  0.00     0.021 A 
ATOM     17  C24 ZIN A   1      18.459   3.204  13.871  0.00  0.00     0.125 A 
ATOM     18  C23 ZIN A   1      18.878   4.491  13.584  0.00  0.00     0.043 A 
ATOM     19  F25 ZIN A   1      17.686   2.970  14.955  0.00  0.00    -0.205 F 
ATOM     20  C22 ZIN A   1      19.669   4.729  12.475  0.00  0.00     0.003 A 
ATOM     21  C21 ZIN A   1      20.045   3.681  11.657  0.00  0.00     0.001 A 
ATOM     22  C20 ZIN A   1      19.633   2.393  11.947  0.00  0.00     0.013 A 
ENDBRANCH  10  16
ENDBRANCH   7  10
BRANCH   1  23
ATOM     23  O4  ZIN A   1      19.464  -5.362   9.493  0.00  0.00    -0.272 OA
BRANCH  23  24
ATOM     24  C2  ZIN A   1      18.575  -6.170   8.895  0.00  0.00     0.260 C 
ATOM     25  C1  ZIN A   1      17.267  -6.487   9.575  0.00  0.00     0.126 C 
ATOM     26  O3  ZIN A   1      18.823  -6.646   7.808  0.00  0.00    -0.265 OA
ENDBRANCH  23  24
ENDBRANCH   1  23
TORSDOF 6
ENDMDL
MODEL 8
REMARK VINA RESULT:      -7.5      2.445      4.120
REMARK  6 active torsions:
REMARK  status: ('A' for Active; 'I' for Inactive)
REMARK    1  A    between atoms: C2_2  and  O4_4 
REMARK    2  A    between atoms: O4_4  and  C5_5 
REMARK    3  A    between atoms: N11_11  and  C12_12 
REMARK    4  A    between atoms: C12_12  and  C14_13 
REMARK    5  A    between atoms: C12_12  and  C19_18 
REMARK    6  A    between atoms: C14_13  and  C16_15 
ROOT
ATOM      1  C5  ZIN A   1      18.469   2.644  15.762  0.00  0.00     0.121 A 
ATOM      2  C6  ZIN A   1      18.306   2.543  14.442  0.00  0.00     0.055 A 
ATOM      3  C7  ZIN A   1      18.289   1.247  13.937  0.00  0.00    -0.014 A 
ATOM      4  C8  ZIN A   1      18.441   0.297  14.880  0.00  0.00    -0.005 A 
ATOM      5  C9  ZIN A   1      18.457  -1.189  14.588  0.00  0.00     0.077 C 
ATOM      6  C10 ZIN A   1      17.893  -1.403  13.178  0.00  0.00     0.279 C 
ATOM      7  N11 ZIN A   1      18.560  -0.480  12.249  0.00  0.00     0.109 N 
ATOM      8  C26 ZIN A   1      18.118   0.904  12.463  0.00  0.00     0.313 C 
ATOM      9  S27 ZIN A   1      18.623   1.038  16.461  0.00  0.00    -0.069 SA
ENDROOT
BRANCH   7  10
ATOM     10  C12 ZIN A   1      18.346  -0.890  10.854  0.00  0.00     0.328 C 
BRANCH  10  11
ATOM     11  C14 ZIN A   1      19.094   0.042   9.936  0.00  0.00     0.169 C 
ATOM     12  O15 ZIN A   1      20.298   0.100   9.986  0.00  0.00    -0.295 OA
BRANCH  11  13
ATOM     13  C16 ZIN A   1      18.337   0.901   8.955  0.00  0.00     0.058 A 
ATOM     14  C18 ZIN A   1      18.403   0.511   7.477  0.00  0.00     0.013 A 
ATOM     15  C17 ZIN A   1      19.155   1.746   7.978  0.00  0.00     0.013 A 
ENDBRANCH  11  13
ENDBRANCH  10  11
BRANCH  10  16
ATOM     16  C19 ZIN A   1      18.852  -2.298  10.662  0.00  0.00     0.021 A 
ATOM     17  C24 ZIN A   1      18.413  -3.049   9.585  0.00  0.00     0.125 A 
ATOM     18  C23 ZIN A   1      18.884  -4.339   9.406  0.00  0.00     0.043 A 
ATOM     19  F25 ZIN A   1      17.537  -2.520   8.702  0.00  0.00    -0.205 F 
ATOM     20  C22 ZIN A   1      19.780  -4.879  10.309  0.00  0.00     0.003 A 
ATOM     21  C21 ZIN A   1      20.212  -4.130  11.387  0.00  0.00     0.001 A 
ATOM     22  C20 ZIN A   1      19.748  -2.839  11.563  0.00  0.00     0.013 A 
ENDBRANCH  10  16
ENDBRANCH   7  10
BRANCH   1  23
ATOM     23  O4  ZIN A   1      18.515   3.809  16.460  0.00  0.00    -0.272 OA
BRANCH  23  24
ATOM     24  C2  ZIN A   1      19.652   4.519  16.388  0.00  0.00     0.260 C 
ATOM     25  C1  ZIN A   1      19.609   5.973  15.995  0.00  0.00     0.126 C 
ATOM     26  O3  ZIN A   1      20.714   3.990  16.638  0.00  0.00    -0.265 OA
ENDBRANCH  23  24
ENDBRANCH   1  23
TORSDOF 6
ENDMDL
MODEL 9
REMARK VINA RESULT:      -7.4      3.517      7.969
REMARK  6 active torsions:
REMARK  status: ('A' for Active; 'I' for Inactive)
REMARK    1  A    between atoms: C2_2  and  O4_4 
REMARK    2  A    between atoms: O4_4  and  C5_5 
REMARK    3  A    between atoms: N11_11  and  C12_12 
REMARK    4  A    between atoms: C12_12  and  C14_13 
REMARK    5  A    between atoms: C12_12  and  C19_18 
REMARK    6  A    between atoms: C14_13  and  C16_15 
ROOT
ATOM      1  C5  ZIN A   1      18.673  -4.598   7.852  0.00  0.00     0.121 A 
ATOM      2  C6  ZIN A   1      18.507  -3.294   8.085  0.00  0.00     0.055 A 
ATOM      3  C7  ZIN A   1      18.877  -2.861   9.355  0.00  0.00    -0.014 A 
ATOM      4  C8  ZIN A   1      19.347  -3.844  10.147  0.00  0.00    -0.005 A 
ATOM      5  C9  ZIN A   1      19.814  -3.631  11.571  0.00  0.00     0.077 C 
ATOM      6  C10 ZIN A   1      20.024  -2.126  11.783  0.00  0.00     0.279 C 
ATOM      7  N11 ZIN A   1      18.840  -1.404  11.299  0.00  0.00     0.109 N 
ATOM      8  C26 ZIN A   1      18.769  -1.419   9.832  0.00  0.00     0.313 C 
ATOM      9  S27 ZIN A   1      19.324  -5.375   9.288  0.00  0.00    -0.069 SA
ENDROOT
BRANCH   7  10
ATOM     10  C12 ZIN A   1      18.816  -0.027  11.812  0.00  0.00     0.328 C 
BRANCH  10  11
ATOM     11  C14 ZIN A   1      17.614   0.695  11.260  0.00  0.00     0.169 C 
ATOM     12  O15 ZIN A   1      16.512   0.222  11.394  0.00  0.00    -0.295 OA
BRANCH  11  13
ATOM     13  C16 ZIN A   1      17.789   2.007  10.538  0.00  0.00     0.058 A 
ATOM     14  C18 ZIN A   1      18.388   1.964   9.131  0.00  0.00     0.013 A 
ATOM     15  C17 ZIN A   1      19.218   2.497  10.300  0.00  0.00     0.013 A 
ENDBRANCH  11  13
ENDBRANCH  10  11
BRANCH  10  16
ATOM     16  C19 ZIN A   1      18.737  -0.054  13.318  0.00  0.00     0.021 A 
ATOM     17  C24 ZIN A   1      19.138   1.050  14.051  0.00  0.00     0.125 A 
ATOM     18  C23 ZIN A   1      19.058   1.026  15.433  0.00  0.00     0.043 A 
ATOM     19  F25 ZIN A   1      19.593   2.154  13.419  0.00  0.00    -0.205 F 
ATOM     20  C22 ZIN A   1      18.592  -0.103  16.079  0.00  0.00     0.003 A 
ATOM     21  C21 ZIN A   1      18.199  -1.207  15.346  0.00  0.00     0.001 A 
ATOM     22  C20 ZIN A   1      18.271  -1.182  13.965  0.00  0.00     0.013 A 
ENDBRANCH  10  16
ENDBRANCH   7  10
BRANCH   1  23
ATOM     23  O4  ZIN A   1      18.378  -5.229   6.685  0.00  0.00    -0.272 OA
BRANCH  23  24
ATOM     24  C2  ZIN A   1      17.722  -6.397   6.772  0.00  0.00     0.260 C 
ATOM     25  C1  ZIN A   1      16.295  -6.427   7.256  0.00  0.00     0.126 C 
ATOM     26  O3  ZIN A   1      18.279  -7.429   6.463  0.00  0.00    -0.265 OA
ENDBRANCH  23  24
ENDBRANCH   1  23
TORSDOF 6
ENDMDL
