MODEL 1
REMARK VINA RESULT:      -9.1      0.000      0.000
REMARK  8 active torsions:
REMARK  status: ('A' for Active; 'I' for Inactive)
REMARK    1  A    between atoms: N2_2  and  C4_4 
REMARK    2  A    between atoms: C4_4  and  C5_5 
REMARK    3  A    between atoms: C6_6  and  C7_7 
REMARK       I    between atoms: C7_7  and  N9_9 
REMARK    4  A    between atoms: N9_9  and  C10_10 
REMARK    5  A    between atoms: C11_11  and  O12_12 
REMARK    6  A    between atoms: O12_12  and  C13_13 
REMARK    7  A    between atoms: C24_23  and  N25_24 
REMARK    8  A    between atoms: N25_24  and  C26_25 
ROOT
ATOM      1  C10 ZIN A   1      19.594   0.513  10.164  0.00  0.00     0.069 A 
ATOM      2  C11 ZIN A   1      19.249   1.765   9.627  0.00  0.00     0.098 A 
ATOM      3  C19 ZIN A   1      18.938   1.893   8.292  0.00  0.00     0.071 A 
ATOM      4  C20 ZIN A   1      18.966   0.767   7.461  0.00  0.00     0.075 A 
ATOM      5  N21 ZIN A   1      18.670   0.846   6.153  0.00  0.00    -0.241 NA
ATOM      6  C22 ZIN A   1      18.704  -0.226   5.397  0.00  0.00     0.236 A 
ATOM      7  N23 ZIN A   1      19.024  -1.424   5.861  0.00  0.00    -0.224 NA
ATOM      8  C24 ZIN A   1      19.332  -1.614   7.138  0.00  0.00     0.142 A 
ATOM      9  C34 ZIN A   1      19.313  -0.495   8.005  0.00  0.00     0.041 A 
ATOM     10  C35 ZIN A   1      19.632  -0.606   9.363  0.00  0.00     0.050 A 
ENDROOT
BRANCH   1  11
ATOM     11  N9  ZIN A   1      19.907   0.406  11.524  0.00  0.00    -0.321 N 
ATOM     12  C7  ZIN A   1      18.977  -0.028  12.397  0.00  0.00     0.245 C 
ATOM     13  O8  ZIN A   1      17.842  -0.246  12.018  0.00  0.00    -0.268 OA
ATOM     14  H46 ZIN A   1      20.793   0.643  11.838  0.00  0.00     0.169 HD
BRANCH  12  15
ATOM     15  C6  ZIN A   1      19.334  -0.238  13.808  0.00  0.00     0.072 C 
ATOM     16  C5  ZIN A   1      18.618  -1.072  14.558  0.00  0.00     0.008 C 
BRANCH  16  17
ATOM     17  C4  ZIN A   1      18.984  -1.288  16.004  0.00  0.00     0.299 C 
BRANCH  17  18
ATOM     18  N2  ZIN A   1      18.482  -0.165  16.808  0.00  0.00     0.083 N 
ATOM     19  C1  ZIN A   1      17.019  -0.218  16.929  0.00  0.00     0.309 C 
ATOM     20  C3  ZIN A   1      19.119  -0.138  18.132  0.00  0.00     0.309 C 
ENDBRANCH  17  18
ENDBRANCH  16  17
ENDBRANCH  12  15
ENDBRANCH   1  11
BRANCH   2  21
ATOM     21  O12 ZIN A   1      19.222   2.857  10.432  0.00  0.00    -0.341 OA
BRANCH  21  22
ATOM     22  C13 ZIN A   1      17.936   3.360  10.801  0.00  0.00     0.154 C 
ATOM     23  C18 ZIN A   1      17.683   4.742  10.164  0.00  0.00     0.200 C 
ATOM     24  O17 ZIN A   1      17.035   5.559  11.152  0.00  0.00    -0.389 OA
ATOM     25  C16 ZIN A   1      16.813   4.797  12.349  0.00  0.00     0.170 C 
ATOM     26  C15 ZIN A   1      17.881   3.676  12.320  0.00  0.00     0.061 C 
ENDBRANCH  21  22
ENDBRANCH   2  21
BRANCH   8  27
ATOM     27  N25 ZIN A   1      19.663  -2.868   7.608  0.00  0.00    -0.340 N 
ATOM     28  H55 ZIN A   1      20.593  -3.110   7.733  0.00  0.00     0.167 HD
BRANCH  27  29
ATOM     29  C26 ZIN A   1      18.655  -3.792   7.905  0.00  0.00     0.035 A 
ATOM     30  C33 ZIN A   1      18.146  -3.875   9.195  0.00  0.00     0.056 A 
ATOM     31  C31 ZIN A   1      17.148  -4.785   9.485  0.00  0.00     0.074 A 
ATOM     32  C29 ZIN A   1      16.661  -5.620   8.493  0.00  0.00     0.138 A 
ATOM     33 Cl32 ZIN A   1      16.506  -4.886  11.095  0.00  0.00    -0.081 Cl
ATOM     34  C28 ZIN A   1      17.171  -5.543   7.208  0.00  0.00     0.046 A 
ATOM     35  F30 ZIN A   1      15.687  -6.513   8.779  0.00  0.00    -0.204 F 
ATOM     36  C27 ZIN A   1      18.166  -4.631   6.913  0.00  0.00     0.032 A 
ENDBRANCH  27  29
ENDBRANCH   8  27
TORSDOF 8
ENDMDL
MODEL 2
REMARK VINA RESULT:      -8.7      3.597      9.237
REMARK  8 active torsions:
REMARK  status: ('A' for Active; 'I' for Inactive)
REMARK    1  A    between atoms: N2_2  and  C4_4 
REMARK    2  A    between atoms: C4_4  and  C5_5 
REMARK    3  A    between atoms: C6_6  and  C7_7 
REMARK       I    between atoms: C7_7  and  N9_9 
REMARK    4  A    between atoms: N9_9  and  C10_10 
REMARK    5  A    between atoms: C11_11  and  O12_12 
REMARK    6  A    between atoms: O12_12  and  C13_13 
REMARK    7  A    between atoms: C24_23  and  N25_24 
REMARK    8  A    between atoms: N25_24  and  C26_25 
ROOT
ATOM      1  C10 ZIN A   1      19.767   0.038  12.302  0.00  0.00     0.069 A 
ATOM      2  C11 ZIN A   1      19.496  -1.281  12.703  0.00  0.00     0.098 A 
ATOM      3  C19 ZIN A   1      19.168  -1.563  14.010  0.00  0.00     0.071 A 
ATOM      4  C20 ZIN A   1      19.105  -0.527  14.949  0.00  0.00     0.075 A 
ATOM      5  N21 ZIN A   1      18.790  -0.756  16.234  0.00  0.00    -0.241 NA
ATOM      6  C22 ZIN A   1      18.738   0.234  17.094  0.00  0.00     0.236 A 
ATOM      7  N23 ZIN A   1      18.985   1.491  16.759  0.00  0.00    -0.224 NA
ATOM      8  C24 ZIN A   1      19.305   1.828  15.517  0.00  0.00     0.142 A 
ATOM      9  C34 ZIN A   1      19.378   0.803  14.543  0.00  0.00     0.041 A 
ATOM     10  C35 ZIN A   1      19.714   1.071  13.211  0.00  0.00     0.050 A 
ENDROOT
BRANCH   1  11
ATOM     11  N9  ZIN A   1      20.098   0.302  10.968  0.00  0.00    -0.321 N 
ATOM     12  C7  ZIN A   1      19.149   0.723  10.108  0.00  0.00     0.245 C 
ATOM     13  O8  ZIN A   1      17.990   0.793  10.470  0.00  0.00    -0.268 OA
ATOM     14  H46 ZIN A   1      21.011   0.182  10.662  0.00  0.00     0.169 HD
BRANCH  12  15
ATOM     15  C6  ZIN A   1      19.516   1.097   8.735  0.00  0.00     0.072 C 
ATOM     16  C5  ZIN A   1      18.671   0.863   7.734  0.00  0.00     0.008 C 
BRANCH  16  17
ATOM     17  C4  ZIN A   1      19.046   1.247   6.325  0.00  0.00     0.299 C 
BRANCH  17  18
ATOM     18  N2  ZIN A   1      18.354   0.363   5.377  0.00  0.00     0.083 N 
ATOM     19  C1  ZIN A   1      19.302  -0.554   4.727  0.00  0.00     0.309 C 
ATOM     20  C3  ZIN A   1      17.274  -0.380   6.040  0.00  0.00     0.309 C 
ENDBRANCH  17  18
ENDBRANCH  16  17
ENDBRANCH  12  15
ENDBRANCH   1  11
BRANCH   2  21
ATOM     21  O12 ZIN A   1      19.558  -2.286  11.793  0.00  0.00    -0.341 OA
BRANCH  21  22
ATOM     22  C13 ZIN A   1      18.316  -2.848  11.362  0.00  0.00     0.154 C 
ATOM     23  C18 ZIN A   1      18.237  -4.347  11.723  0.00  0.00     0.200 C 
ATOM     24  O17 ZIN A   1      17.635  -5.025  10.609  0.00  0.00    -0.389 OA
ATOM     25  C16 ZIN A   1      17.283  -4.078   9.589  0.00  0.00     0.170 C 
ATOM     26  C15 ZIN A   1      18.229  -2.872   9.812  0.00  0.00     0.061 C 
ENDBRANCH  21  22
ENDBRANCH   2  21
BRANCH   8  27
ATOM     27  N25 ZIN A   1      19.561   3.142  15.182  0.00  0.00    -0.340 N 
ATOM     28  H55 ZIN A   1      20.475   3.457  15.113  0.00  0.00     0.167 HD
BRANCH  27  29
ATOM     29  C26 ZIN A   1      18.500   4.021  14.941  0.00  0.00     0.035 A 
ATOM     30  C33 ZIN A   1      17.991   4.163  13.657  0.00  0.00     0.056 A 
ATOM     31  C31 ZIN A   1      16.940   5.028  13.422  0.00  0.00     0.074 A 
ATOM     32  C29 ZIN A   1      16.400   5.762  14.465  0.00  0.00     0.138 A 
ATOM     33 Cl32 ZIN A   1      16.300   5.202  11.817  0.00  0.00    -0.081 Cl
ATOM     34  C28 ZIN A   1      16.909   5.626  15.746  0.00  0.00     0.046 A 
ATOM     35  F30 ZIN A   1      15.375   6.611  14.234  0.00  0.00    -0.204 F 
ATOM     36  C27 ZIN A   1      17.956   4.759  15.985  0.00  0.00     0.032 A 
ENDBRANCH  27  29
ENDBRANCH   8  27
TORSDOF 8
ENDMDL
MODEL 3
REMARK VINA RESULT:      -8.7      1.839      2.099
REMARK  8 active torsions:
REMARK  status: ('A' for Active; 'I' for Inactive)
REMARK    1  A    between atoms: N2_2  and  C4_4 
REMARK    2  A    between atoms: C4_4  and  C5_5 
REMARK    3  A    between atoms: C6_6  and  C7_7 
REMARK       I    between atoms: C7_7  and  N9_9 
REMARK    4  A    between atoms: N9_9  and  C10_10 
REMARK    5  A    between atoms: C11_11  and  O12_12 
REMARK    6  A    between atoms: O12_12  and  C13_13 
REMARK    7  A    between atoms: C24_23  and  N25_24 
REMARK    8  A    between atoms: N25_24  and  C26_25 
ROOT
ATOM      1  C10 ZIN A   1      18.886  -0.762   9.925  0.00  0.00     0.069 A 
ATOM      2  C11 ZIN A   1      18.221   0.401   9.503  0.00  0.00     0.098 A 
ATOM      3  C19 ZIN A   1      17.992   0.632   8.166  0.00  0.00     0.071 A 
ATOM      4  C20 ZIN A   1      18.426  -0.300   7.216  0.00  0.00     0.075 A 
ATOM      5  N21 ZIN A   1      18.224  -0.116   5.901  0.00  0.00    -0.241 NA
ATOM      6  C22 ZIN A   1      18.642  -1.006   5.032  0.00  0.00     0.236 A 
ATOM      7  N23 ZIN A   1      19.273  -2.115   5.385  0.00  0.00    -0.224 NA
ATOM      8  C24 ZIN A   1      19.524  -2.396   6.657  0.00  0.00     0.142 A 
ATOM      9  C34 ZIN A   1      19.097  -1.473   7.643  0.00  0.00     0.041 A 
ATOM     10  C35 ZIN A   1      19.326  -1.689   9.006  0.00  0.00     0.050 A 
ENDROOT
BRANCH   1  11
ATOM     11  N9  ZIN A   1      19.109  -0.976  11.290  0.00  0.00    -0.321 N 
ATOM     12  C7  ZIN A   1      18.208  -1.663  12.020  0.00  0.00     0.245 C 
ATOM     13  O8  ZIN A   1      17.164  -2.024  11.513  0.00  0.00    -0.268 OA
ATOM     14  H46 ZIN A   1      19.912  -0.631  11.710  0.00  0.00     0.169 HD
BRANCH  12  15
ATOM     15  C6  ZIN A   1      18.489  -1.976  13.429  0.00  0.00     0.072 C 
ATOM     16  C5  ZIN A   1      18.554  -0.997  14.327  0.00  0.00     0.008 C 
BRANCH  16  17
ATOM     17  C4  ZIN A   1      18.842  -1.317  15.772  0.00  0.00     0.299 C 
BRANCH  17  18
ATOM     18  N2  ZIN A   1      18.453  -0.177  16.613  0.00  0.00     0.083 N 
ATOM     19  C1  ZIN A   1      17.000  -0.161  16.836  0.00  0.00     0.309 C 
ATOM     20  C3  ZIN A   1      19.182  -0.189  17.888  0.00  0.00     0.309 C 
ENDBRANCH  17  18
ENDBRANCH  16  17
ENDBRANCH  12  15
ENDBRANCH   1  11
BRANCH   2  21
ATOM     21  O12 ZIN A   1      17.800   1.306  10.424  0.00  0.00    -0.341 OA
BRANCH  21  22
ATOM     22  C13 ZIN A   1      18.393   2.606  10.375  0.00  0.00     0.154 C 
ATOM     23  C18 ZIN A   1      19.623   2.683  11.303  0.00  0.00     0.200 C 
ATOM     24  O17 ZIN A   1      19.588   3.962  11.956  0.00  0.00    -0.389 OA
ATOM     25  C16 ZIN A   1      18.464   4.722  11.487  0.00  0.00     0.170 C 
ATOM     26  C15 ZIN A   1      17.443   3.670  10.987  0.00  0.00     0.061 C 
ENDBRANCH  21  22
ENDBRANCH   2  21
BRANCH   8  27
ATOM     27  N25 ZIN A   1      20.182  -3.556   7.011  0.00  0.00    -0.340 N 
ATOM     28  H55 ZIN A   1      21.147  -3.560   7.094  0.00  0.00     0.167 HD
BRANCH  27  29
ATOM     29  C26 ZIN A   1      19.455  -4.727   7.250  0.00  0.00     0.035 A 
ATOM     30  C33 ZIN A   1      18.824  -5.380   6.199  0.00  0.00     0.056 A 
ATOM     31  C31 ZIN A   1      18.110  -6.538   6.436  0.00  0.00     0.074 A 
ATOM     32  C29 ZIN A   1      18.014  -7.044   7.723  0.00  0.00     0.138 A 
ATOM     33 Cl32 ZIN A   1      17.325  -7.359   5.122  0.00  0.00    -0.081 Cl
ATOM     34  C28 ZIN A   1      18.638  -6.391   8.772  0.00  0.00     0.046 A 
ATOM     35  F30 ZIN A   1      17.312  -8.175   7.954  0.00  0.00    -0.204 F 
ATOM     36  C27 ZIN A   1      19.357  -5.235   8.538  0.00  0.00     0.032 A 
ENDBRANCH  27  29
ENDBRANCH   8  27
TORSDOF 8
ENDMDL
MODEL 4
REMARK VINA RESULT:      -8.6      3.487      7.862
REMARK  8 active torsions:
REMARK  status: ('A' for Active; 'I' for Inactive)
REMARK    1  A    between atoms: N2_2  and  C4_4 
REMARK    2  A    between atoms: C4_4  and  C5_5 
REMARK    3  A    between atoms: C6_6  and  C7_7 
REMARK       I    between atoms: C7_7  and  N9_9 
REMARK    4  A    between atoms: N9_9  and  C10_10 
REMARK    5  A    between atoms: C11_11  and  O12_12 
REMARK    6  A    between atoms: O12_12  and  C13_13 
REMARK    7  A    between atoms: C24_23  and  N25_24 
REMARK    8  A    between atoms: N25_24  and  C26_25 
ROOT
ATOM      1  C10 ZIN A   1      18.622  -0.303  10.827  0.00  0.00     0.069 A 
ATOM      2  C11 ZIN A   1      17.815   0.291   9.843  0.00  0.00     0.098 A 
ATOM      3  C19 ZIN A   1      17.368   1.585   9.989  0.00  0.00     0.071 A 
ATOM      4  C20 ZIN A   1      17.721   2.317  11.129  0.00  0.00     0.075 A 
ATOM      5  N21 ZIN A   1      17.307   3.581  11.313  0.00  0.00    -0.241 NA
ATOM      6  C22 ZIN A   1      17.652   4.244  12.392  0.00  0.00     0.236 A 
ATOM      7  N23 ZIN A   1      18.410   3.723  13.344  0.00  0.00    -0.224 NA
ATOM      8  C24 ZIN A   1      18.873   2.483  13.262  0.00  0.00     0.142 A 
ATOM      9  C34 ZIN A   1      18.535   1.716  12.121  0.00  0.00     0.041 A 
ATOM     10  C35 ZIN A   1      18.976   0.398  11.959  0.00  0.00     0.050 A 
ENDROOT
BRANCH   1  11
ATOM     11  N9  ZIN A   1      19.065  -1.619  10.659  0.00  0.00    -0.321 N 
ATOM     12  C7  ZIN A   1      18.274  -2.649  11.024  0.00  0.00     0.245 C 
ATOM     13  O8  ZIN A   1      17.213  -2.432  11.577  0.00  0.00    -0.268 OA
ATOM     14  H46 ZIN A   1      19.940  -1.792  10.278  0.00  0.00     0.169 HD
BRANCH  12  15
ATOM     15  C6  ZIN A   1      18.695  -4.031  10.755  0.00  0.00     0.072 C 
ATOM     16  C5  ZIN A   1      19.116  -4.373   9.540  0.00  0.00     0.008 C 
BRANCH  16  17
ATOM     17  C4  ZIN A   1      19.548  -5.791   9.263  0.00  0.00     0.299 C 
BRANCH  17  18
ATOM     18  N2  ZIN A   1      19.290  -6.114   7.853  0.00  0.00     0.083 N 
ATOM     19  C1  ZIN A   1      17.853  -6.051   7.554  0.00  0.00     0.309 C 
ATOM     20  C3  ZIN A   1      20.052  -5.229   6.962  0.00  0.00     0.309 C 
ENDBRANCH  17  18
ENDBRANCH  16  17
ENDBRANCH  12  15
ENDBRANCH   1  11
BRANCH   2  21
ATOM     21  O12 ZIN A   1      17.473  -0.418   8.737  0.00  0.00    -0.341 OA
BRANCH  21  22
ATOM     22  C13 ZIN A   1      18.149  -0.090   7.520  0.00  0.00     0.154 C 
ATOM     23  C18 ZIN A   1      17.165  -0.076   6.332  0.00  0.00     0.200 C 
ATOM     24  O17 ZIN A   1      17.832  -0.685   5.215  0.00  0.00    -0.389 OA
ATOM     25  C16 ZIN A   1      19.174  -1.043   5.580  0.00  0.00     0.170 C 
ATOM     26  C15 ZIN A   1      19.143  -1.213   7.120  0.00  0.00     0.061 C 
ENDBRANCH  21  22
ENDBRANCH   2  21
BRANCH   8  27
ATOM     27  N25 ZIN A   1      19.662   1.953  14.263  0.00  0.00    -0.340 N 
ATOM     28  H55 ZIN A   1      20.602   1.784  14.100  0.00  0.00     0.167 HD
BRANCH  27  29
ATOM     29  C26 ZIN A   1      19.105   1.661  15.512  0.00  0.00     0.035 A 
ATOM     30  C33 ZIN A   1      18.290   0.547  15.667  0.00  0.00     0.056 A 
ATOM     31  C31 ZIN A   1      17.744   0.259  16.903  0.00  0.00     0.074 A 
ATOM     32  C29 ZIN A   1      18.000   1.085  17.985  0.00  0.00     0.138 A 
ATOM     33 Cl32 ZIN A   1      16.730  -1.137  17.099  0.00  0.00    -0.081 Cl
ATOM     34  C28 ZIN A   1      18.807   2.199  17.831  0.00  0.00     0.046 A 
ATOM     35  F30 ZIN A   1      17.461   0.804  19.192  0.00  0.00    -0.204 F 
ATOM     36  C27 ZIN A   1      19.359   2.489  16.598  0.00  0.00     0.032 A 
ENDBRANCH  27  29
ENDBRANCH   8  27
TORSDOF 8
ENDMDL
MODEL 5
REMARK VINA RESULT:      -8.5      3.173      5.557
REMARK  8 active torsions:
REMARK  status: ('A' for Active; 'I' for Inactive)
REMARK    1  A    between atoms: N2_2  and  C4_4 
REMARK    2  A    between atoms: C4_4  and  C5_5 
REMARK    3  A    between atoms: C6_6  and  C7_7 
REMARK       I    between atoms: C7_7  and  N9_9 
REMARK    4  A    between atoms: N9_9  and  C10_10 
REMARK    5  A    between atoms: C11_11  and  O12_12 
REMARK    6  A    between atoms: O12_12  and  C13_13 
REMARK    7  A    between atoms: C24_23  and  N25_24 
REMARK    8  A    between atoms: N25_24  and  C26_25 
ROOT
ATOM      1  C10 ZIN A   1      18.798   0.681  12.595  0.00  0.00     0.069 A 
ATOM      2  C11 ZIN A   1      18.132  -0.085  13.566  0.00  0.00     0.098 A 
ATOM      3  C19 ZIN A   1      17.815  -1.402  13.325  0.00  0.00     0.071 A 
ATOM      4  C20 ZIN A   1      18.160  -1.986  12.100  0.00  0.00     0.075 A 
ATOM      5  N21 ZIN A   1      17.871  -3.268  11.822  0.00  0.00    -0.241 NA
ATOM      6  C22 ZIN A   1      18.206  -3.789  10.665  0.00  0.00     0.236 A 
ATOM      7  N23 ZIN A   1      18.834  -3.105   9.722  0.00  0.00    -0.224 NA
ATOM      8  C24 ZIN A   1      19.168  -1.833   9.894  0.00  0.00     0.142 A 
ATOM      9  C34 ZIN A   1      18.834  -1.213  11.122  0.00  0.00     0.041 A 
ATOM     10  C35 ZIN A   1      19.143   0.127  11.382  0.00  0.00     0.050 A 
ENDROOT
BRANCH   1  11
ATOM     11  N9  ZIN A   1      19.110   2.019  12.862  0.00  0.00    -0.321 N 
ATOM     12  C7  ZIN A   1      18.262   2.996  12.485  0.00  0.00     0.245 C 
ATOM     13  O8  ZIN A   1      17.268   2.722  11.840  0.00  0.00    -0.268 OA
ATOM     14  H46 ZIN A   1      19.936   2.243  13.318  0.00  0.00     0.169 HD
BRANCH  12  15
ATOM     15  C6  ZIN A   1      18.538   4.392  12.853  0.00  0.00     0.072 C 
ATOM     16  C5  ZIN A   1      18.448   4.775  14.123  0.00  0.00     0.008 C 
BRANCH  16  17
ATOM     17  C4  ZIN A   1      18.731   6.207  14.502  0.00  0.00     0.299 C 
BRANCH  17  18
ATOM     18  N2  ZIN A   1      19.426   6.243  15.796  0.00  0.00     0.083 N 
ATOM     19  C1  ZIN A   1      18.719   5.428  16.794  0.00  0.00     0.309 C 
ATOM     20  C3  ZIN A   1      20.823   5.809  15.657  0.00  0.00     0.309 C 
ENDBRANCH  17  18
ENDBRANCH  16  17
ENDBRANCH  12  15
ENDBRANCH   1  11
BRANCH   2  21
ATOM     21  O12 ZIN A   1      17.797   0.481  14.754  0.00  0.00    -0.341 OA
BRANCH  21  22
ATOM     22  C13 ZIN A   1      18.620   0.164  15.879  0.00  0.00     0.154 C 
ATOM     23  C18 ZIN A   1      17.808  -0.581  16.960  0.00  0.00     0.200 C 
ATOM     24  O17 ZIN A   1      18.218  -0.065  18.236  0.00  0.00    -0.389 OA
ATOM     25  C16 ZIN A   1      19.254   0.914  18.060  0.00  0.00     0.170 C 
ATOM     26  C15 ZIN A   1      19.061   1.454  16.621  0.00  0.00     0.061 C 
ENDBRANCH  21  22
ENDBRANCH   2  21
BRANCH   8  27
ATOM     27  N25 ZIN A   1      19.823  -1.132   8.902  0.00  0.00    -0.340 N 
ATOM     28  H55 ZIN A   1      20.685  -0.728   9.082  0.00  0.00     0.167 HD
BRANCH  27  29
ATOM     29  C26 ZIN A   1      19.242  -1.005   7.636  0.00  0.00     0.035 A 
ATOM     30  C33 ZIN A   1      19.357  -2.035   6.711  0.00  0.00     0.056 A 
ATOM     31  C31 ZIN A   1      18.780  -1.909   5.463  0.00  0.00     0.074 A 
ATOM     32  C29 ZIN A   1      18.094  -0.752   5.129  0.00  0.00     0.138 A 
ATOM     33 Cl32 ZIN A   1      18.918  -3.198   4.308  0.00  0.00    -0.081 Cl
ATOM     34  C28 ZIN A   1      17.983   0.278   6.047  0.00  0.00     0.046 A 
ATOM     35  F30 ZIN A   1      17.533  -0.628   3.906  0.00  0.00    -0.204 F 
ATOM     36  C27 ZIN A   1      18.556   0.154   7.298  0.00  0.00     0.032 A 
ENDBRANCH  27  29
ENDBRANCH   8  27
TORSDOF 8
ENDMDL
MODEL 6
REMARK VINA RESULT:      -8.4      1.832      2.020
REMARK  8 active torsions:
REMARK  status: ('A' for Active; 'I' for Inactive)
REMARK    1  A    between atoms: N2_2  and  C4_4 
REMARK    2  A    between atoms: C4_4  and  C5_5 
REMARK    3  A    between atoms: C6_6  and  C7_7 
REMARK       I    between atoms: C7_7  and  N9_9 
REMARK    4  A    between atoms: N9_9  and  C10_10 
REMARK    5  A    between atoms: C11_11  and  O12_12 
REMARK    6  A    between atoms: O12_12  and  C13_13 
REMARK    7  A    between atoms: C24_23  and  N25_24 
REMARK    8  A    between atoms: N25_24  and  C26_25 
ROOT
ATOM      1  C10 ZIN A   1      18.351   1.130  11.260  0.00  0.00     0.069 A 
ATOM      2  C11 ZIN A   1      18.977   2.323  10.864  0.00  0.00     0.098 A 
ATOM      3  C19 ZIN A   1      19.264   2.558   9.538  0.00  0.00     0.071 A 
ATOM      4  C20 ZIN A   1      18.930   1.599   8.575  0.00  0.00     0.075 A 
ATOM      5  N21 ZIN A   1      19.191   1.787   7.271  0.00  0.00    -0.241 NA
ATOM      6  C22 ZIN A   1      18.867   0.871   6.389  0.00  0.00     0.236 A 
ATOM      7  N23 ZIN A   1      18.277  -0.268   6.717  0.00  0.00    -0.224 NA
ATOM      8  C24 ZIN A   1      17.974  -0.554   7.977  0.00  0.00     0.142 A 
ATOM      9  C34 ZIN A   1      18.298   0.396   8.976  0.00  0.00     0.041 A 
ATOM     10  C35 ZIN A   1      18.018   0.171  10.328  0.00  0.00     0.050 A 
ENDROOT
BRANCH   1  11
ATOM     11  N9  ZIN A   1      18.069   0.911  12.613  0.00  0.00    -0.321 N 
ATOM     12  C7  ZIN A   1      19.032   0.449  13.436  0.00  0.00     0.245 C 
ATOM     13  O8  ZIN A   1      20.120   0.143  12.987  0.00  0.00    -0.268 OA
ATOM     14  H46 ZIN A   1      17.181   1.092  12.959  0.00  0.00     0.169 HD
BRANCH  12  15
ATOM     15  C6  ZIN A   1      18.766   0.315  14.876  0.00  0.00     0.072 C 
ATOM     16  C5  ZIN A   1      17.783  -0.475  15.300  0.00  0.00     0.008 C 
BRANCH  16  17
ATOM     17  C4  ZIN A   1      17.510  -0.612  16.776  0.00  0.00     0.299 C 
BRANCH  17  18
ATOM     18  N2  ZIN A   1      18.302   0.381  17.515  0.00  0.00     0.083 N 
ATOM     19  C1  ZIN A   1      17.443   1.189  18.392  0.00  0.00     0.309 C 
ATOM     20  C3  ZIN A   1      19.377  -0.265  18.280  0.00  0.00     0.309 C 
ENDBRANCH  17  18
ENDBRANCH  16  17
ENDBRANCH  12  15
ENDBRANCH   1  11
BRANCH   2  21
ATOM     21  O12 ZIN A   1      19.301   3.253  11.798  0.00  0.00    -0.341 OA
BRANCH  21  22
ATOM     22  C13 ZIN A   1      18.582   4.488  11.761  0.00  0.00     0.154 C 
ATOM     23  C18 ZIN A   1      18.671   5.215  13.120  0.00  0.00     0.200 C 
ATOM     24  O17 ZIN A   1      17.376   5.772  13.394  0.00  0.00    -0.389 OA
ATOM     25  C16 ZIN A   1      16.483   5.500  12.303  0.00  0.00     0.170 C 
ATOM     26  C15 ZIN A   1      17.057   4.236  11.616  0.00  0.00     0.061 C 
ENDBRANCH  21  22
ENDBRANCH   2  21
BRANCH   8  27
ATOM     27  N25 ZIN A   1      17.358  -1.744   8.305  0.00  0.00    -0.340 N 
ATOM     28  H55 ZIN A   1      16.393  -1.786   8.385  0.00  0.00     0.167 HD
BRANCH  27  29
ATOM     29  C26 ZIN A   1      18.128  -2.892   8.523  0.00  0.00     0.035 A 
ATOM     30  C33 ZIN A   1      18.656  -3.146   9.782  0.00  0.00     0.056 A 
ATOM     31  C31 ZIN A   1      19.413  -4.282   9.996  0.00  0.00     0.074 A 
ATOM     32  C29 ZIN A   1      19.653  -5.162   8.954  0.00  0.00     0.138 A 
ATOM     33 Cl32 ZIN A   1      20.069  -4.604  11.571  0.00  0.00    -0.081 Cl
ATOM     34  C28 ZIN A   1      19.132  -4.907   7.696  0.00  0.00     0.046 A 
ATOM     35  F30 ZIN A   1      20.397  -6.271   9.163  0.00  0.00    -0.204 F 
ATOM     36  C27 ZIN A   1      18.371  -3.775   7.480  0.00  0.00     0.032 A 
ENDBRANCH  27  29
ENDBRANCH   8  27
TORSDOF 8
ENDMDL
MODEL 7
REMARK VINA RESULT:      -8.4      3.425      7.726
REMARK  8 active torsions:
REMARK  status: ('A' for Active; 'I' for Inactive)
REMARK    1  A    between atoms: N2_2  and  C4_4 
REMARK    2  A    between atoms: C4_4  and  C5_5 
REMARK    3  A    between atoms: C6_6  and  C7_7 
REMARK       I    between atoms: C7_7  and  N9_9 
REMARK    4  A    between atoms: N9_9  and  C10_10 
REMARK    5  A    between atoms: C11_11  and  O12_12 
REMARK    6  A    between atoms: O12_12  and  C13_13 
REMARK    7  A    between atoms: C24_23  and  N25_24 
REMARK    8  A    between atoms: N25_24  and  C26_25 
ROOT
ATOM      1  C10 ZIN A   1      19.065  -1.081   9.644  0.00  0.00     0.069 A 
ATOM      2  C11 ZIN A   1      18.395  -0.345   8.652  0.00  0.00     0.098 A 
ATOM      3  C19 ZIN A   1      18.165   1.002   8.814  0.00  0.00     0.071 A 
ATOM      4  C20 ZIN A   1      18.601   1.647   9.977  0.00  0.00     0.075 A 
ATOM      5  N21 ZIN A   1      18.397   2.959  10.177  0.00  0.00    -0.241 NA
ATOM      6  C22 ZIN A   1      18.816   3.538  11.277  0.00  0.00     0.236 A 
ATOM      7  N23 ZIN A   1      19.451   2.884  12.238  0.00  0.00    -0.224 NA
ATOM      8  C24 ZIN A   1      19.704   1.585  12.142  0.00  0.00     0.142 A 
ATOM      9  C34 ZIN A   1      19.277   0.904  10.977  0.00  0.00     0.041 A 
ATOM     10  C35 ZIN A   1      19.498  -0.466  10.799  0.00  0.00     0.050 A 
ENDROOT
BRANCH   1  11
ATOM     11  N9  ZIN A   1      19.288  -2.450   9.460  0.00  0.00    -0.321 N 
ATOM     12  C7  ZIN A   1      18.410  -3.348   9.950  0.00  0.00     0.245 C 
ATOM     13  O8  ZIN A   1      17.469  -2.973  10.623  0.00  0.00    -0.268 OA
ATOM     14  H46 ZIN A   1      20.074  -2.753   8.980  0.00  0.00     0.169 HD
BRANCH  12  15
ATOM     15  C6  ZIN A   1      18.589  -4.780   9.670  0.00  0.00     0.072 C 
ATOM     16  C5  ZIN A   1      17.950  -5.343   8.648  0.00  0.00     0.008 C 
BRANCH  16  17
ATOM     17  C4  ZIN A   1      18.134  -6.811   8.361  0.00  0.00     0.299 C 
BRANCH  17  18
ATOM     18  N2  ZIN A   1      17.867  -7.069   6.939  0.00  0.00     0.083 N 
ATOM     19  C1  ZIN A   1      17.200  -8.366   6.757  0.00  0.00     0.309 C 
ATOM     20  C3  ZIN A   1      17.076  -5.982   6.346  0.00  0.00     0.309 C 
ENDBRANCH  17  18
ENDBRANCH  16  17
ENDBRANCH  12  15
ENDBRANCH   1  11
BRANCH   2  21
ATOM     21  O12 ZIN A   1      17.972  -0.970   7.524  0.00  0.00    -0.341 OA
BRANCH  21  22
ATOM     22  C13 ZIN A   1      18.976  -1.370   6.588  0.00  0.00     0.154 C 
ATOM     23  C18 ZIN A   1      19.143  -0.312   5.477  0.00  0.00     0.200 C 
ATOM     24  O17 ZIN A   1      19.309  -1.016   4.236  0.00  0.00    -0.389 OA
ATOM     25  C16 ZIN A   1      19.307  -2.432   4.470  0.00  0.00     0.170 C 
ATOM     26  C15 ZIN A   1      18.522  -2.623   5.792  0.00  0.00     0.061 C 
ENDBRANCH  21  22
ENDBRANCH   2  21
BRANCH   8  27
ATOM     27  N25 ZIN A   1      20.366   0.916  13.151  0.00  0.00    -0.340 N 
ATOM     28  H55 ZIN A   1      21.323   0.772  13.091  0.00  0.00     0.167 HD
BRANCH  27  29
ATOM     29  C26 ZIN A   1      19.656   0.445  14.260  0.00  0.00     0.035 A 
ATOM     30  C33 ZIN A   1      19.339   1.309  15.301  0.00  0.00     0.056 A 
ATOM     31  C31 ZIN A   1      18.634   0.843  16.394  0.00  0.00     0.074 A 
ATOM     32  C29 ZIN A   1      18.253  -0.487  16.457  0.00  0.00     0.138 A 
ATOM     33 Cl32 ZIN A   1      18.231   1.924  17.692  0.00  0.00    -0.081 Cl
ATOM     34  C28 ZIN A   1      18.573  -1.351  15.424  0.00  0.00     0.046 A 
ATOM     35  F30 ZIN A   1      17.567  -0.942  17.530  0.00  0.00    -0.204 F 
ATOM     36  C27 ZIN A   1      19.274  -0.888  14.328  0.00  0.00     0.032 A 
ENDBRANCH  27  29
ENDBRANCH   8  27
TORSDOF 8
ENDMDL
MODEL 8
REMARK VINA RESULT:      -8.3      3.388      6.016
REMARK  8 active torsions:
REMARK  status: ('A' for Active; 'I' for Inactive)
REMARK    1  A    between atoms: N2_2  and  C4_4 
REMARK    2  A    between atoms: C4_4  and  C5_5 
REMARK    3  A    between atoms: C6_6  and  C7_7 
REMARK       I    between atoms: C7_7  and  N9_9 
REMARK    4  A    between atoms: N9_9  and  C10_10 
REMARK    5  A    between atoms: C11_11  and  O12_12 
REMARK    6  A    between atoms: O12_12  and  C13_13 
REMARK    7  A    between atoms: C24_23  and  N25_24 
REMARK    8  A    between atoms: N25_24  and  C26_25 
ROOT
ATOM      1  C10 ZIN A   1      18.450   1.407  13.134  0.00  0.00     0.069 A 
ATOM      2  C11 ZIN A   1      19.220   0.650  14.032  0.00  0.00     0.098 A 
ATOM      3  C19 ZIN A   1      19.594  -0.638  13.722  0.00  0.00     0.071 A 
ATOM      4  C20 ZIN A   1      19.204  -1.199  12.500  0.00  0.00     0.075 A 
ATOM      5  N21 ZIN A   1      19.546  -2.451  12.156  0.00  0.00    -0.241 NA
ATOM      6  C22 ZIN A   1      19.167  -2.953  11.004  0.00  0.00     0.236 A 
ATOM      7  N23 ZIN A   1      18.441  -2.275  10.129  0.00  0.00    -0.224 NA
ATOM      8  C24 ZIN A   1      18.049  -1.030  10.368  0.00  0.00     0.142 A 
ATOM      9  C34 ZIN A   1      18.428  -0.433  11.595  0.00  0.00     0.041 A 
ATOM     10  C35 ZIN A   1      18.052   0.872  11.929  0.00  0.00     0.050 A 
ENDROOT
BRANCH   1  11
ATOM     11  N9  ZIN A   1      18.080   2.714  13.470  0.00  0.00    -0.321 N 
ATOM     12  C7  ZIN A   1      18.714   3.761  12.906  0.00  0.00     0.245 C 
ATOM     13  O8  ZIN A   1      19.663   3.570  12.169  0.00  0.00    -0.268 OA
ATOM     14  H46 ZIN A   1      17.366   2.868  14.109  0.00  0.00     0.169 HD
BRANCH  12  15
ATOM     15  C6  ZIN A   1      18.260   5.132  13.180  0.00  0.00     0.072 C 
ATOM     16  C5  ZIN A   1      17.117   5.336  13.829  0.00  0.00     0.008 C 
BRANCH  16  17
ATOM     17  C4  ZIN A   1      16.650   6.742  14.111  0.00  0.00     0.299 C 
BRANCH  17  18
ATOM     18  N2  ZIN A   1      15.791   6.742  15.303  0.00  0.00     0.083 N 
ATOM     19  C1  ZIN A   1      14.444   6.252  14.978  0.00  0.00     0.309 C 
ATOM     20  C3  ZIN A   1      16.391   5.953  16.386  0.00  0.00     0.309 C 
ENDBRANCH  17  18
ENDBRANCH  16  17
ENDBRANCH  12  15
ENDBRANCH   1  11
BRANCH   2  21
ATOM     21  O12 ZIN A   1      19.598   1.193  15.217  0.00  0.00    -0.341 OA
BRANCH  21  22
ATOM     22  C13 ZIN A   1      18.695   1.048  16.316  0.00  0.00     0.154 C 
ATOM     23  C18 ZIN A   1      18.775   2.268  17.257  0.00  0.00     0.200 C 
ATOM     24  O17 ZIN A   1      18.712   1.775  18.605  0.00  0.00    -0.389 OA
ATOM     25  C16 ZIN A   1      18.552   0.348  18.599  0.00  0.00     0.170 C 
ATOM     26  C15 ZIN A   1      19.133  -0.119  17.241  0.00  0.00     0.061 C 
ENDBRANCH  21  22
ENDBRANCH   2  21
BRANCH   8  27
ATOM     27  N25 ZIN A   1      17.293  -0.335   9.446  0.00  0.00    -0.340 N 
ATOM     28  H55 ZIN A   1      16.408  -0.019   9.684  0.00  0.00     0.167 HD
BRANCH  27  29
ATOM     29  C26 ZIN A   1      17.804  -0.088   8.168  0.00  0.00     0.035 A 
ATOM     30  C33 ZIN A   1      17.380  -0.853   7.089  0.00  0.00     0.056 A 
ATOM     31  C31 ZIN A   1      17.883  -0.605   5.827  0.00  0.00     0.074 A 
ATOM     32  C29 ZIN A   1      18.817   0.401   5.638  0.00  0.00     0.138 A 
ATOM     33 Cl32 ZIN A   1      17.349  -1.557   4.476  0.00  0.00    -0.081 Cl
ATOM     34  C28 ZIN A   1      19.245   1.161   6.713  0.00  0.00     0.046 A 
ATOM     35  F30 ZIN A   1      19.311   0.640   4.403  0.00  0.00    -0.204 F 
ATOM     36  C27 ZIN A   1      18.741   0.919   7.976  0.00  0.00     0.032 A 
ENDBRANCH  27  29
ENDBRANCH   8  27
TORSDOF 8
ENDMDL
MODEL 9
REMARK VINA RESULT:      -8.2      3.161      5.588
REMARK  8 active torsions:
REMARK  status: ('A' for Active; 'I' for Inactive)
REMARK    1  A    between atoms: N2_2  and  C4_4 
REMARK    2  A    between atoms: C4_4  and  C5_5 
REMARK    3  A    between atoms: C6_6  and  C7_7 
REMARK       I    between atoms: C7_7  and  N9_9 
REMARK    4  A    between atoms: N9_9  and  C10_10 
REMARK    5  A    between atoms: C11_11  and  O12_12 
REMARK    6  A    between atoms: O12_12  and  C13_13 
REMARK    7  A    between atoms: C24_23  and  N25_24 
REMARK    8  A    between atoms: N25_24  and  C26_25 
ROOT
ATOM      1  C10 ZIN A   1      18.194  -0.289  12.059  0.00  0.00     0.069 A 
ATOM      2  C11 ZIN A   1      19.027  -0.761  13.087  0.00  0.00     0.098 A 
ATOM      3  C19 ZIN A   1      19.631  -1.994  12.989  0.00  0.00     0.071 A 
ATOM      4  C20 ZIN A   1      19.412  -2.786  11.855  0.00  0.00     0.075 A 
ATOM      5  N21 ZIN A   1      19.980  -3.995  11.718  0.00  0.00    -0.241 NA
ATOM      6  C22 ZIN A   1      19.758  -4.717  10.645  0.00  0.00     0.236 A 
ATOM      7  N23 ZIN A   1      18.981  -4.311   9.653  0.00  0.00    -0.224 NA
ATOM      8  C24 ZIN A   1      18.371  -3.133   9.687  0.00  0.00     0.142 A 
ATOM      9  C34 ZIN A   1      18.572  -2.308  10.819  0.00  0.00     0.041 A 
ATOM     10  C35 ZIN A   1      17.963  -1.054  10.938  0.00  0.00     0.050 A 
ENDROOT
BRANCH   1  11
ATOM     11  N9  ZIN A   1      17.590   0.968  12.180  0.00  0.00    -0.321 N 
ATOM     12  C7  ZIN A   1      18.173   2.052  11.630  0.00  0.00     0.245 C 
ATOM     13  O8  ZIN A   1      19.265   1.952  11.102  0.00  0.00    -0.268 OA
ATOM     14  H46 ZIN A   1      16.752   1.060  12.658  0.00  0.00     0.169 HD
BRANCH  12  15
ATOM     15  C6  ZIN A   1      17.491   3.353  11.668  0.00  0.00     0.072 C 
ATOM     16  C5  ZIN A   1      17.626   4.144  12.729  0.00  0.00     0.008 C 
BRANCH  16  17
ATOM     17  C4  ZIN A   1      16.927   5.479  12.769  0.00  0.00     0.299 C 
BRANCH  17  18
ATOM     18  N2  ZIN A   1      16.594   5.816  14.160  0.00  0.00     0.083 N 
ATOM     19  C1  ZIN A   1      17.437   5.063  15.098  0.00  0.00     0.309 C 
ATOM     20  C3  ZIN A   1      16.706   7.261  14.394  0.00  0.00     0.309 C 
ENDBRANCH  17  18
ENDBRANCH  16  17
ENDBRANCH  12  15
ENDBRANCH   1  11
BRANCH   2  21
ATOM     21  O12 ZIN A   1      19.239   0.006  14.186  0.00  0.00    -0.341 OA
BRANCH  21  22
ATOM     22  C13 ZIN A   1      18.302  -0.123  15.258  0.00  0.00     0.154 C 
ATOM     23  C18 ZIN A   1      18.091   1.231  15.968  0.00  0.00     0.200 C 
ATOM     24  O17 ZIN A   1      18.023   0.970  17.379  0.00  0.00    -0.389 OA
ATOM     25  C16 ZIN A   1      18.127  -0.441  17.622  0.00  0.00     0.170 C 
ATOM     26  C15 ZIN A   1      18.879  -1.010  16.394  0.00  0.00     0.061 C 
ENDBRANCH  21  22
ENDBRANCH   2  21
BRANCH   8  27
ATOM     27  N25 ZIN A   1      17.564  -2.722   8.646  0.00  0.00    -0.340 N 
ATOM     28  H55 ZIN A   1      16.616  -2.922   8.659  0.00  0.00     0.167 HD
BRANCH  27  29
ATOM     29  C26 ZIN A   1      18.115  -2.017   7.570  0.00  0.00     0.035 A 
ATOM     30  C33 ZIN A   1      18.193  -0.631   7.614  0.00  0.00     0.056 A 
ATOM     31  C31 ZIN A   1      18.740   0.063   6.553  0.00  0.00     0.074 A 
ATOM     32  C29 ZIN A   1      19.203  -0.621   5.441  0.00  0.00     0.138 A 
ATOM     33 Cl32 ZIN A   1      18.843   1.796   6.610  0.00  0.00    -0.081 Cl
ATOM     34  C28 ZIN A   1      19.121  -2.002   5.393  0.00  0.00     0.046 A 
ATOM     35  F30 ZIN A   1      19.735   0.060   4.402  0.00  0.00    -0.204 F 
ATOM     36  C27 ZIN A   1      18.578  -2.700   6.454  0.00  0.00     0.032 A 
ENDBRANCH  27  29
ENDBRANCH   8  27
TORSDOF 8
ENDMDL
