MODEL 1
REMARK VINA RESULT:      -6.9      0.000      0.000
REMARK  6 active torsions:
REMARK  status: ('A' for Active; 'I' for Inactive)
REMARK    1  A    between atoms: N2_2  and  C5_5 
REMARK    2  A    between atoms: C5_5  and  C6_6 
REMARK    3  A    between atoms: C6_6  and  O7_7 
REMARK    4  A    between atoms: O7_7  and  C8_8 
REMARK    5  A    between atoms: C8_8  and  C10_9 
REMARK    6  A    between atoms: C8_8  and  C17_16 
ROOT
ATOM      1  C8  ZIN A   1      19.207   1.862  10.652  0.00  0.00     0.206 C 
ENDROOT
BRANCH   1   2
ATOM      2  O7  ZIN A   1      19.099   0.881  11.686  0.00  0.00    -0.373 OA
BRANCH   2   3
ATOM      3  C6  ZIN A   1      20.318   0.646  12.394  0.00  0.00     0.197 C 
BRANCH   3   4
ATOM      4  C5  ZIN A   1      20.001   0.240  13.834  0.00  0.00     0.260 C 
BRANCH   4   5
ATOM      5  N2  ZIN A   1      18.802   0.954  14.292  0.00  0.00    -0.077 N 
ATOM      6  C1  ZIN A   1      17.822  -0.013  14.804  0.00  0.00     0.269 C 
ATOM      7  H3  ZIN A   1      18.401   1.465  13.521  0.00  0.00     0.279 HD
ATOM      8  C4  ZIN A   1      19.169   1.892  15.362  0.00  0.00     0.269 C 
ENDBRANCH   4   5
ENDBRANCH   3   4
ENDBRANCH   2   3
ENDBRANCH   1   2
BRANCH   1   9
ATOM      9  C10 ZIN A   1      18.740   1.270   9.348  0.00  0.00    -0.024 A 
ATOM     10  C16 ZIN A   1      19.374   1.613   8.168  0.00  0.00     0.012 A 
ATOM     11  C15 ZIN A   1      18.950   1.066   6.971  0.00  0.00     0.024 A 
ATOM     12  C13 ZIN A   1      17.884   0.184   6.954  0.00  0.00     0.034 A 
ATOM     13  C12 ZIN A   1      17.247  -0.155   8.133  0.00  0.00     0.024 A 
ATOM     14 Cl14 ZIN A   1      17.346  -0.498   5.450  0.00  0.00    -0.084 Cl
ATOM     15  C11 ZIN A   1      17.675   0.389   9.330  0.00  0.00     0.012 A 
ENDBRANCH   1   9
BRANCH   1  16
ATOM     16  C17 ZIN A   1      18.350   3.053  10.999  0.00  0.00     0.067 A 
ATOM     17  N22 ZIN A   1      17.904   3.197  12.232  0.00  0.00    -0.263 NA
ATOM     18  C21 ZIN A   1      17.156   4.225  12.583  0.00  0.00     0.117 A 
ATOM     19  C20 ZIN A   1      16.804   5.190  11.659  0.00  0.00     0.019 A 
ATOM     20  C19 ZIN A   1      17.250   5.071  10.352  0.00  0.00     0.003 A 
ATOM     21  C18 ZIN A   1      18.038   3.978  10.022  0.00  0.00     0.030 A 
ENDBRANCH   1  16
TORSDOF 6
ENDMDL
MODEL 2
REMARK VINA RESULT:      -6.6      1.525      3.803
REMARK  6 active torsions:
REMARK  status: ('A' for Active; 'I' for Inactive)
REMARK    1  A    between atoms: N2_2  and  C5_5 
REMARK    2  A    between atoms: C5_5  and  C6_6 
REMARK    3  A    between atoms: C6_6  and  O7_7 
REMARK    4  A    between atoms: O7_7  and  C8_8 
REMARK    5  A    between atoms: C8_8  and  C10_9 
REMARK    6  A    between atoms: C8_8  and  C17_16 
ROOT
ATOM      1  C8  ZIN A   1      17.685   1.967  11.352  0.00  0.00     0.206 C 
ENDROOT
BRANCH   1   2
ATOM      2  O7  ZIN A   1      18.220   3.276  11.565  0.00  0.00    -0.373 OA
BRANCH   2   3
ATOM      3  C6  ZIN A   1      17.265   4.223  12.048  0.00  0.00     0.197 C 
BRANCH   3   4
ATOM      4  C5  ZIN A   1      17.492   4.460  13.541  0.00  0.00     0.260 C 
BRANCH   4   5
ATOM      5  N2  ZIN A   1      18.884   4.138  13.883  0.00  0.00    -0.077 N 
ATOM      6  C1  ZIN A   1      19.671   5.378  13.947  0.00  0.00     0.269 C 
ATOM      7  H3  ZIN A   1      19.271   3.530  13.177  0.00  0.00     0.279 HD
ATOM      8  C4  ZIN A   1      18.926   3.463  15.187  0.00  0.00     0.269 C 
ENDBRANCH   4   5
ENDBRANCH   3   4
ENDBRANCH   2   3
ENDBRANCH   1   2
BRANCH   1   9
ATOM      9  C10 ZIN A   1      18.021   1.508   9.957  0.00  0.00    -0.024 A 
ATOM     10  C16 ZIN A   1      17.423   0.373   9.441  0.00  0.00     0.012 A 
ATOM     11  C15 ZIN A   1      17.728  -0.045   8.159  0.00  0.00     0.024 A 
ATOM     12  C13 ZIN A   1      18.639   0.665   7.397  0.00  0.00     0.034 A 
ATOM     13  C12 ZIN A   1      19.240   1.797   7.916  0.00  0.00     0.024 A 
ATOM     14 Cl14 ZIN A   1      19.027   0.135   5.790  0.00  0.00    -0.084 Cl
ATOM     15  C11 ZIN A   1      18.932   2.218   9.197  0.00  0.00     0.012 A 
ENDBRANCH   1   9
BRANCH   1  16
ATOM     16  C17 ZIN A   1      18.281   1.012  12.354  0.00  0.00     0.067 A 
ATOM     17  N22 ZIN A   1      19.572   1.072  12.622  0.00  0.00    -0.263 NA
ATOM     18  C21 ZIN A   1      20.137   0.261  13.495  0.00  0.00     0.117 A 
ATOM     19  C20 ZIN A   1      19.389  -0.695  14.157  0.00  0.00     0.019 A 
ATOM     20  C19 ZIN A   1      18.032  -0.791  13.898  0.00  0.00     0.003 A 
ATOM     21  C18 ZIN A   1      17.472   0.083  12.978  0.00  0.00     0.030 A 
ENDBRANCH   1  16
TORSDOF 6
ENDMDL
MODEL 3
REMARK VINA RESULT:      -6.6      1.975      2.451
REMARK  6 active torsions:
REMARK  status: ('A' for Active; 'I' for Inactive)
REMARK    1  A    between atoms: N2_2  and  C5_5 
REMARK    2  A    between atoms: C5_5  and  C6_6 
REMARK    3  A    between atoms: C6_6  and  O7_7 
REMARK    4  A    between atoms: O7_7  and  C8_8 
REMARK    5  A    between atoms: C8_8  and  C10_9 
REMARK    6  A    between atoms: C8_8  and  C17_16 
ROOT
ATOM      1  C8  ZIN A   1      18.169   0.712  10.584  0.00  0.00     0.206 C 
ENDROOT
BRANCH   1   2
ATOM      2  O7  ZIN A   1      16.929   0.170  11.046  0.00  0.00    -0.373 OA
BRANCH   2   3
ATOM      3  C6  ZIN A   1      17.063  -0.732  12.146  0.00  0.00     0.197 C 
BRANCH   3   4
ATOM      4  C5  ZIN A   1      17.584  -2.078  11.640  0.00  0.00     0.260 C 
BRANCH   4   5
ATOM      5  N2  ZIN A   1      18.601  -2.590  12.568  0.00  0.00    -0.077 N 
ATOM      6  C1  ZIN A   1      19.742  -3.112  11.804  0.00  0.00     0.269 C 
ATOM      7  H3  ZIN A   1      18.204  -3.330  13.127  0.00  0.00     0.279 HD
ATOM      8  C4  ZIN A   1      19.056  -1.503  13.446  0.00  0.00     0.269 C 
ENDBRANCH   4   5
ENDBRANCH   3   4
ENDBRANCH   2   3
ENDBRANCH   1   2
BRANCH   1   9
ATOM      9  C10 ZIN A   1      18.233   0.612   9.082  0.00  0.00    -0.024 A 
ATOM     10  C16 ZIN A   1      19.150   1.369   8.378  0.00  0.00     0.012 A 
ATOM     11  C15 ZIN A   1      19.212   1.273   7.000  0.00  0.00     0.024 A 
ATOM     12  C13 ZIN A   1      18.349   0.428   6.326  0.00  0.00     0.034 A 
ATOM     13  C12 ZIN A   1      17.428  -0.325   7.031  0.00  0.00     0.024 A 
ATOM     14 Cl14 ZIN A   1      18.422   0.313   4.595  0.00  0.00    -0.084 Cl
ATOM     15  C11 ZIN A   1      17.369  -0.233   8.409  0.00  0.00     0.012 A 
ENDBRANCH   1   9
BRANCH   1  16
ATOM     16  C17 ZIN A   1      18.269   2.159  10.997  0.00  0.00     0.067 A 
ATOM     17  N22 ZIN A   1      17.257   2.973  10.765  0.00  0.00    -0.263 NA
ATOM     18  C21 ZIN A   1      17.297   4.245  11.113  0.00  0.00     0.117 A 
ATOM     19  C20 ZIN A   1      18.416   4.773  11.729  0.00  0.00     0.019 A 
ATOM     20  C19 ZIN A   1      19.500   3.950  11.984  0.00  0.00     0.003 A 
ATOM     21  C18 ZIN A   1      19.419   2.617  11.608  0.00  0.00     0.030 A 
ENDBRANCH   1  16
TORSDOF 6
ENDMDL
MODEL 4
REMARK VINA RESULT:      -6.6      4.156      7.229
REMARK  6 active torsions:
REMARK  status: ('A' for Active; 'I' for Inactive)
REMARK    1  A    between atoms: N2_2  and  C5_5 
REMARK    2  A    between atoms: C5_5  and  C6_6 
REMARK    3  A    between atoms: C6_6  and  O7_7 
REMARK    4  A    between atoms: O7_7  and  C8_8 
REMARK    5  A    between atoms: C8_8  and  C10_9 
REMARK    6  A    between atoms: C8_8  and  C17_16 
ROOT
ATOM      1  C8  ZIN A   1      19.588  -1.242  12.153  0.00  0.00     0.206 C 
ENDROOT
BRANCH   1   2
ATOM      2  O7  ZIN A   1      19.271  -0.250  11.175  0.00  0.00    -0.373 OA
BRANCH   2   3
ATOM      3  C6  ZIN A   1      20.214  -0.167  10.104  0.00  0.00     0.197 C 
BRANCH   3   4
ATOM      4  C5  ZIN A   1      19.469   0.034   8.784  0.00  0.00     0.260 C 
BRANCH   4   5
ATOM      5  N2  ZIN A   1      18.351  -0.915   8.702  0.00  0.00    -0.077 N 
ATOM      6  C1  ZIN A   1      17.236  -0.296   7.973  0.00  0.00     0.269 C 
ATOM      7  H3  ZIN A   1      18.050  -1.159   9.634  0.00  0.00     0.279 HD
ATOM      8  C4  ZIN A   1      18.786  -2.127   7.995  0.00  0.00     0.269 C 
ENDBRANCH   4   5
ENDBRANCH   3   4
ENDBRANCH   2   3
ENDBRANCH   1   2
BRANCH   1   9
ATOM      9  C10 ZIN A   1      18.959  -0.869  13.470  0.00  0.00    -0.024 A 
ATOM     10  C16 ZIN A   1      18.056   0.177  13.532  0.00  0.00     0.012 A 
ATOM     11  C15 ZIN A   1      17.474   0.516  14.739  0.00  0.00     0.024 A 
ATOM     12  C13 ZIN A   1      17.805  -0.182  15.887  0.00  0.00     0.034 A 
ATOM     13  C12 ZIN A   1      18.713  -1.223  15.825  0.00  0.00     0.024 A 
ATOM     14 Cl14 ZIN A   1      17.081   0.250  17.405  0.00  0.00    -0.084 Cl
ATOM     15  C11 ZIN A   1      19.290  -1.566  14.617  0.00  0.00     0.012 A 
ENDBRANCH   1   9
BRANCH   1  16
ATOM     16  C17 ZIN A   1      19.056  -2.579  11.702  0.00  0.00     0.067 A 
ATOM     17  N22 ZIN A   1      17.769  -2.714  11.443  0.00  0.00    -0.263 NA
ATOM     18  C21 ZIN A   1      17.259  -3.861  11.041  0.00  0.00     0.117 A 
ATOM     19  C20 ZIN A   1      18.063  -4.975  10.886  0.00  0.00     0.019 A 
ATOM     20  C19 ZIN A   1      19.419  -4.874  11.153  0.00  0.00     0.003 A 
ATOM     21  C18 ZIN A   1      19.919  -3.649  11.569  0.00  0.00     0.030 A 
ENDBRANCH   1  16
TORSDOF 6
ENDMDL
MODEL 5
REMARK VINA RESULT:      -6.6      1.311      2.006
REMARK  6 active torsions:
REMARK  status: ('A' for Active; 'I' for Inactive)
REMARK    1  A    between atoms: N2_2  and  C5_5 
REMARK    2  A    between atoms: C5_5  and  C6_6 
REMARK    3  A    between atoms: C6_6  and  O7_7 
REMARK    4  A    between atoms: O7_7  and  C8_8 
REMARK    5  A    between atoms: C8_8  and  C10_9 
REMARK    6  A    between atoms: C8_8  and  C17_16 
ROOT
ATOM      1  C8  ZIN A   1      19.096   1.842  10.686  0.00  0.00     0.206 C 
ENDROOT
BRANCH   1   2
ATOM      2  O7  ZIN A   1      18.858   0.878  11.713  0.00  0.00    -0.373 OA
BRANCH   2   3
ATOM      3  C6  ZIN A   1      20.039   0.224  12.182  0.00  0.00     0.197 C 
BRANCH   3   4
ATOM      4  C5  ZIN A   1      20.085  -1.203  11.633  0.00  0.00     0.260 C 
BRANCH   4   5
ATOM      5  N2  ZIN A   1      19.676  -2.146  12.682  0.00  0.00    -0.077 N 
ATOM      6  C1  ZIN A   1      19.548  -1.431  13.959  0.00  0.00     0.269 C 
ATOM      7  H3  ZIN A   1      20.371  -2.872  12.770  0.00  0.00     0.279 HD
ATOM      8  C4  ZIN A   1      18.383  -2.746  12.325  0.00  0.00     0.269 C 
ENDBRANCH   4   5
ENDBRANCH   3   4
ENDBRANCH   2   3
ENDBRANCH   1   2
BRANCH   1   9
ATOM      9  C10 ZIN A   1      18.685   1.269   9.355  0.00  0.00    -0.024 A 
ATOM     10  C16 ZIN A   1      17.621   0.389   9.280  0.00  0.00     0.012 A 
ATOM     11  C15 ZIN A   1      17.240  -0.133   8.058  0.00  0.00     0.024 A 
ATOM     12  C13 ZIN A   1      17.930   0.217   6.911  0.00  0.00     0.034 A 
ATOM     13  C12 ZIN A   1      18.998   1.093   6.987  0.00  0.00     0.024 A 
ATOM     14 Cl14 ZIN A   1      17.457  -0.445   5.377  0.00  0.00    -0.084 Cl
ATOM     15  C11 ZIN A   1      19.375   1.618   8.209  0.00  0.00     0.012 A 
ENDBRANCH   1   9
BRANCH   1  16
ATOM     16  C17 ZIN A   1      18.292   3.086  10.969  0.00  0.00     0.067 A 
ATOM     17  N22 ZIN A   1      17.795   3.279  12.175  0.00  0.00    -0.263 NA
ATOM     18  C21 ZIN A   1      17.090   4.353  12.471  0.00  0.00     0.117 A 
ATOM     19  C20 ZIN A   1      16.838   5.318  11.513  0.00  0.00     0.019 A 
ATOM     20  C19 ZIN A   1      17.340   5.148  10.233  0.00  0.00     0.003 A 
ATOM     21  C18 ZIN A   1      18.081   4.007   9.962  0.00  0.00     0.030 A 
ENDBRANCH   1  16
TORSDOF 6
ENDMDL
MODEL 6
REMARK VINA RESULT:      -6.5      3.223      5.601
REMARK  6 active torsions:
REMARK  status: ('A' for Active; 'I' for Inactive)
REMARK    1  A    between atoms: N2_2  and  C5_5 
REMARK    2  A    between atoms: C5_5  and  C6_6 
REMARK    3  A    between atoms: C6_6  and  O7_7 
REMARK    4  A    between atoms: O7_7  and  C8_8 
REMARK    5  A    between atoms: C8_8  and  C10_9 
REMARK    6  A    between atoms: C8_8  and  C17_16 
ROOT
ATOM      1  C8  ZIN A   1      18.891  -0.601  12.735  0.00  0.00     0.206 C 
ENDROOT
BRANCH   1   2
ATOM      2  O7  ZIN A   1      20.251  -0.202  12.551  0.00  0.00    -0.373 OA
BRANCH   2   3
ATOM      3  C6  ZIN A   1      20.404   1.083  11.944  0.00  0.00     0.197 C 
BRANCH   3   4
ATOM      4  C5  ZIN A   1      19.322   1.276  10.881  0.00  0.00     0.260 C 
BRANCH   4   5
ATOM      5  N2  ZIN A   1      19.923   1.170   9.545  0.00  0.00    -0.077 N 
ATOM      6  C1  ZIN A   1      19.858  -0.225   9.088  0.00  0.00     0.269 C 
ATOM      7  H3  ZIN A   1      20.886   1.466   9.586  0.00  0.00     0.279 HD
ATOM      8  C4  ZIN A   1      19.186   2.027   8.606  0.00  0.00     0.269 C 
ENDBRANCH   4   5
ENDBRANCH   3   4
ENDBRANCH   2   3
ENDBRANCH   1   2
BRANCH   1   9
ATOM      9  C10 ZIN A   1      18.679  -1.959  12.118  0.00  0.00    -0.024 A 
ATOM     10  C16 ZIN A   1      19.764  -2.774  11.851  0.00  0.00     0.012 A 
ATOM     11  C15 ZIN A   1      19.569  -4.022  11.290  0.00  0.00     0.024 A 
ATOM     12  C13 ZIN A   1      18.290  -4.451  10.985  0.00  0.00     0.034 A 
ATOM     13  C12 ZIN A   1      17.205  -3.634  11.246  0.00  0.00     0.024 A 
ATOM     14 Cl14 ZIN A   1      18.045  -6.016  10.273  0.00  0.00    -0.084 Cl
ATOM     15  C11 ZIN A   1      17.400  -2.387  11.812  0.00  0.00     0.012 A 
ENDBRANCH   1   9
BRANCH   1  16
ATOM     16  C17 ZIN A   1      18.581  -0.664  14.209  0.00  0.00     0.067 A 
ATOM     17  N22 ZIN A   1      17.600   0.069  14.699  0.00  0.00    -0.263 NA
ATOM     18  C21 ZIN A   1      17.289   0.044  15.980  0.00  0.00     0.117 A 
ATOM     19  C20 ZIN A   1      17.994  -0.753  16.862  0.00  0.00     0.019 A 
ATOM     20  C19 ZIN A   1      19.035  -1.534  16.385  0.00  0.00     0.003 A 
ATOM     21  C18 ZIN A   1      19.329  -1.484  15.030  0.00  0.00     0.030 A 
ENDBRANCH   1  16
TORSDOF 6
ENDMDL
MODEL 7
REMARK VINA RESULT:      -6.5      3.952      6.901
REMARK  6 active torsions:
REMARK  status: ('A' for Active; 'I' for Inactive)
REMARK    1  A    between atoms: N2_2  and  C5_5 
REMARK    2  A    between atoms: C5_5  and  C6_6 
REMARK    3  A    between atoms: C6_6  and  O7_7 
REMARK    4  A    between atoms: O7_7  and  C8_8 
REMARK    5  A    between atoms: C8_8  and  C10_9 
REMARK    6  A    between atoms: C8_8  and  C17_16 
ROOT
ATOM      1  C8  ZIN A   1      19.272  -1.010  12.044  0.00  0.00     0.206 C 
ENDROOT
BRANCH   1   2
ATOM      2  O7  ZIN A   1      18.656  -0.113  11.118  0.00  0.00    -0.373 OA
BRANCH   2   3
ATOM      3  C6  ZIN A   1      19.535   0.363  10.096  0.00  0.00     0.197 C 
BRANCH   3   4
ATOM      4  C5  ZIN A   1      19.135   1.786   9.702  0.00  0.00     0.260 C 
BRANCH   4   5
ATOM      5  N2  ZIN A   1      18.698   2.521  10.895  0.00  0.00    -0.077 N 
ATOM      6  C1  ZIN A   1      19.859   3.162  11.527  0.00  0.00     0.269 C 
ATOM      7  H3  ZIN A   1      18.270   1.881  11.547  0.00  0.00     0.279 HD
ATOM      8  C4  ZIN A   1      17.721   3.549  10.508  0.00  0.00     0.269 C 
ENDBRANCH   4   5
ENDBRANCH   3   4
ENDBRANCH   2   3
ENDBRANCH   1   2
BRANCH   1   9
ATOM      9  C10 ZIN A   1      18.804  -0.690  13.440  0.00  0.00    -0.024 A 
ATOM     10  C16 ZIN A   1      17.866   0.305  13.642  0.00  0.00     0.012 A 
ATOM     11  C15 ZIN A   1      17.432   0.595  14.923  0.00  0.00     0.024 A 
ATOM     12  C13 ZIN A   1      17.946  -0.103  16.001  0.00  0.00     0.034 A 
ATOM     13  C12 ZIN A   1      18.888  -1.094  15.798  0.00  0.00     0.024 A 
ATOM     14 Cl14 ZIN A   1      17.406   0.266  17.610  0.00  0.00    -0.084 Cl
ATOM     15  C11 ZIN A   1      19.318  -1.387  14.518  0.00  0.00     0.012 A 
ENDBRANCH   1   9
BRANCH   1  16
ATOM     16  C17 ZIN A   1      18.893  -2.427  11.698  0.00  0.00     0.067 A 
ATOM     17  N22 ZIN A   1      17.619  -2.756  11.601  0.00  0.00    -0.263 NA
ATOM     18  C21 ZIN A   1      17.240  -3.981  11.296  0.00  0.00     0.117 A 
ATOM     19  C20 ZIN A   1      18.175  -4.975  11.074  0.00  0.00     0.019 A 
ATOM     20  C19 ZIN A   1      19.523  -4.669  11.171  0.00  0.00     0.003 A 
ATOM     21  C18 ZIN A   1      19.883  -3.368  11.490  0.00  0.00     0.030 A 
ENDBRANCH   1  16
TORSDOF 6
ENDMDL
MODEL 8
REMARK VINA RESULT:      -6.4      1.271      1.677
REMARK  6 active torsions:
REMARK  status: ('A' for Active; 'I' for Inactive)
REMARK    1  A    between atoms: N2_2  and  C5_5 
REMARK    2  A    between atoms: C5_5  and  C6_6 
REMARK    3  A    between atoms: C6_6  and  O7_7 
REMARK    4  A    between atoms: O7_7  and  C8_8 
REMARK    5  A    between atoms: C8_8  and  C10_9 
REMARK    6  A    between atoms: C8_8  and  C17_16 
ROOT
ATOM      1  C8  ZIN A   1      18.397   1.083  11.078  0.00  0.00     0.206 C 
ENDROOT
BRANCH   1   2
ATOM      2  O7  ZIN A   1      17.345   0.355  11.714  0.00  0.00    -0.373 OA
BRANCH   2   3
ATOM      3  C6  ZIN A   1      17.480   0.257  13.134  0.00  0.00     0.197 C 
BRANCH   3   4
ATOM      4  C5  ZIN A   1      18.270  -1.005  13.484  0.00  0.00     0.260 C 
BRANCH   4   5
ATOM      5  N2  ZIN A   1      19.285  -0.683  14.496  0.00  0.00    -0.077 N 
ATOM      6  C1  ZIN A   1      19.341   0.772  14.687  0.00  0.00     0.269 C 
ATOM      7  H3  ZIN A   1      20.185  -1.017  14.186  0.00  0.00     0.279 HD
ATOM      8  C4  ZIN A   1      18.934  -1.332  15.767  0.00  0.00     0.269 C 
ENDBRANCH   4   5
ENDBRANCH   3   4
ENDBRANCH   2   3
ENDBRANCH   1   2
BRANCH   1   9
ATOM      9  C10 ZIN A   1      18.337   0.855   9.590  0.00  0.00    -0.024 A 
ATOM     10  C16 ZIN A   1      19.195   1.543   8.751  0.00  0.00     0.012 A 
ATOM     11  C15 ZIN A   1      19.144   1.330   7.386  0.00  0.00     0.024 A 
ATOM     12  C13 ZIN A   1      18.228   0.437   6.859  0.00  0.00     0.034 A 
ATOM     13  C12 ZIN A   1      17.367  -0.246   7.698  0.00  0.00     0.024 A 
ATOM     14 Cl14 ZIN A   1      18.159   0.175   5.144  0.00  0.00    -0.084 Cl
ATOM     15  C11 ZIN A   1      17.421  -0.037   9.064  0.00  0.00     0.012 A 
ENDBRANCH   1   9
BRANCH   1  16
ATOM     16  C17 ZIN A   1      18.236   2.554  11.369  0.00  0.00     0.067 A 
ATOM     17  N22 ZIN A   1      17.110   3.162  11.048  0.00  0.00    -0.263 NA
ATOM     18  C21 ZIN A   1      16.922   4.445  11.287  0.00  0.00     0.117 A 
ATOM     19  C20 ZIN A   1      17.913   5.205  11.880  0.00  0.00     0.019 A 
ATOM     20  C19 ZIN A   1      19.111   4.602  12.227  0.00  0.00     0.003 A 
ATOM     21  C18 ZIN A   1      19.270   3.250  11.964  0.00  0.00     0.030 A 
ENDBRANCH   1  16
TORSDOF 6
ENDMDL
MODEL 9
REMARK VINA RESULT:      -6.3      3.327      4.685
REMARK  6 active torsions:
REMARK  status: ('A' for Active; 'I' for Inactive)
REMARK    1  A    between atoms: N2_2  and  C5_5 
REMARK    2  A    between atoms: C5_5  and  C6_6 
REMARK    3  A    between atoms: C6_6  and  O7_7 
REMARK    4  A    between atoms: O7_7  and  C8_8 
REMARK    5  A    between atoms: C8_8  and  C10_9 
REMARK    6  A    between atoms: C8_8  and  C17_16 
ROOT
ATOM      1  C8  ZIN A   1      20.000  -0.467  10.746  0.00  0.00     0.206 C 
ENDROOT
BRANCH   1   2
ATOM      2  O7  ZIN A   1      19.584   0.506  11.706  0.00  0.00    -0.373 OA
BRANCH   2   3
ATOM      3  C6  ZIN A   1      20.274   0.424  12.955  0.00  0.00     0.197 C 
BRANCH   3   4
ATOM      4  C5  ZIN A   1      19.359   0.918  14.076  0.00  0.00     0.260 C 
BRANCH   4   5
ATOM      5  N2  ZIN A   1      18.458  -0.166  14.489  0.00  0.00    -0.077 N 
ATOM      6  C1  ZIN A   1      19.242  -1.381  14.749  0.00  0.00     0.269 C 
ATOM      7  H3  ZIN A   1      17.791  -0.346  13.754  0.00  0.00     0.279 HD
ATOM      8  C4  ZIN A   1      17.744   0.228  15.711  0.00  0.00     0.269 C 
ENDBRANCH   4   5
ENDBRANCH   3   4
ENDBRANCH   2   3
ENDBRANCH   1   2
BRANCH   1   9
ATOM      9  C10 ZIN A   1      19.349  -1.790  11.056  0.00  0.00    -0.024 A 
ATOM     10  C16 ZIN A   1      17.976  -1.866  11.203  0.00  0.00     0.012 A 
ATOM     11  C15 ZIN A   1      17.377  -3.080  11.483  0.00  0.00     0.024 A 
ATOM     12  C13 ZIN A   1      18.153  -4.216  11.627  0.00  0.00     0.034 A 
ATOM     13  C12 ZIN A   1      19.526  -4.139  11.486  0.00  0.00     0.024 A 
ATOM     14 Cl14 ZIN A   1      17.402  -5.740  11.986  0.00  0.00    -0.084 Cl
ATOM     15  C11 ZIN A   1      20.124  -2.925  11.202  0.00  0.00     0.012 A 
ENDBRANCH   1   9
BRANCH   1  16
ATOM     16  C17 ZIN A   1      19.593  -0.017   9.366  0.00  0.00     0.067 A 
ATOM     17  N22 ZIN A   1      19.572  -0.889   8.376  0.00  0.00    -0.263 NA
ATOM     18  C21 ZIN A   1      19.218  -0.543   7.154  0.00  0.00     0.117 A 
ATOM     19  C20 ZIN A   1      18.863   0.762   6.865  0.00  0.00     0.019 A 
ATOM     20  C19 ZIN A   1      18.878   1.707   7.878  0.00  0.00     0.003 A 
ATOM     21  C18 ZIN A   1      19.251   1.304   9.151  0.00  0.00     0.030 A 
ENDBRANCH   1  16
TORSDOF 6
ENDMDL
