MODEL 1
REMARK VINA RESULT:      -9.1      0.000      0.000
REMARK  5 active torsions:
REMARK  status: ('A' for Active; 'I' for Inactive)
REMARK    1  A    between atoms: C2_2  and  C5_5 
REMARK    2  A    between atoms: C7_7  and  C8_8 
REMARK    3  A    between atoms: C12_12  and  N13_13 
REMARK       I    between atoms: N13_13  and  C14_14 
REMARK    4  A    between atoms: C14_14  and  C16_16 
REMARK    5  A    between atoms: C28_28  and  O29_29 
ROOT
ATOM      1  C5  <0> d   1      18.677   0.715  15.846  0.00  0.00    -0.017 A 
ATOM      2  C6  <0> d   1      18.690   1.801  14.992  0.00  0.00     0.021 A 
ATOM      3  C7  <0> d   1      18.867   1.612  13.635  0.00  0.00    -0.023 A 
ATOM      4  C12 <0> d   1      19.033   0.331  13.126  0.00  0.00     0.044 A 
ATOM      5  C27 <0> d   1      19.020  -0.761  13.984  0.00  0.00     0.067 A 
ATOM      6  C28 <0> d   1      18.847  -0.568  15.345  0.00  0.00     0.074 A 
ENDROOT
BRANCH   4   7
ATOM      7  N13 <0> d   1      19.213   0.140  11.752  0.00  0.00    -0.322 N 
ATOM      8  C14 <0> d   1      18.265  -0.490  11.029  0.00  0.00     0.260 C 
ATOM      9  O15 <0> d   1      17.206  -0.792  11.547  0.00  0.00    -0.267 OA
ATOM     10  H49 <0> d   1      20.019   0.461  11.320  0.00  0.00     0.169 HD
BRANCH   8  11
ATOM     11  C16 <0> d   1      18.511  -0.811   9.613  0.00  0.00     0.087 A 
ATOM     12  C25 <0> d   1      18.580   0.210   8.658  0.00  0.00     0.137 A 
ATOM     13  C24 <0> d   1      18.822  -0.157   7.316  0.00  0.00     0.030 A 
ATOM     14  O26 <0> d   1      18.423   1.507   9.010  0.00  0.00    -0.190 OA
ATOM     15  C19 <0> d   1      18.975  -1.528   6.995  0.00  0.00     0.069 A 
ATOM     16  C23 <0> d   1      18.909   0.809   6.302  0.00  0.00     0.017 A 
ATOM     17  N18 <0> d   1      18.894  -2.459   7.955  0.00  0.00    -0.259 NA
ATOM     18  C20 <0> d   1      19.211  -1.892   5.659  0.00  0.00     0.032 A 
ATOM     19  C17 <0> d   1      18.674  -2.145   9.206  0.00  0.00     0.137 A 
ATOM     20  C21 <0> d   1      19.290  -0.929   4.699  0.00  0.00     0.002 A 
ATOM     21  C22 <0> d   1      19.139   0.417   5.017  0.00  0.00     0.001 A 
ENDBRANCH   8  11
ENDBRANCH   4   7
BRANCH   3  22
ATOM     22  C8  <0> d   1      18.881   2.799  12.705  0.00  0.00    -0.022 C 
ATOM     23  C9  <0> d   1      20.066   2.681  11.746  0.00  0.00     0.019 C 
ATOM     24  C10 <0> d   1      17.578   2.836  11.906  0.00  0.00     0.019 C 
ATOM     25  C11 <0> d   1      19.014   4.085  13.524  0.00  0.00     0.019 C 
ENDBRANCH   3  22
BRANCH   6  26
ATOM     26  O29 <0> d   1      18.835  -1.634  16.186  0.00  0.00    -0.360 OA
ATOM     27  H56 <0> d   1      19.349  -2.390  15.871  0.00  0.00     0.217 HD
ENDBRANCH   6  26
BRANCH   1  28
ATOM     28  C2  <0> d   1      18.482   0.924  17.327  0.00  0.00    -0.021 C 
ATOM     29  C1  <0> d   1      17.113   0.383  17.743  0.00  0.00     0.019 C 
ATOM     30  C3  <0> d   1      18.556   2.420  17.644  0.00  0.00     0.019 C 
ATOM     31  C4  <0> d   1      19.579   0.184  18.095  0.00  0.00     0.019 C 
ENDBRANCH   1  28
TORSDOF 5
ENDMDL
MODEL 2
REMARK VINA RESULT:      -9.1      1.554      8.651
REMARK  5 active torsions:
REMARK  status: ('A' for Active; 'I' for Inactive)
REMARK    1  A    between atoms: C2_2  and  C5_5 
REMARK    2  A    between atoms: C7_7  and  C8_8 
REMARK    3  A    between atoms: C12_12  and  N13_13 
REMARK       I    between atoms: N13_13  and  C14_14 
REMARK    4  A    between atoms: C14_14  and  C16_16 
REMARK    5  A    between atoms: C28_28  and  O29_29 
ROOT
ATOM      1  C5  <0> d   1      18.670  -0.822   7.322  0.00  0.00    -0.017 A 
ATOM      2  C6  <0> d   1      18.656  -1.887   8.201  0.00  0.00     0.021 A 
ATOM      3  C7  <0> d   1      18.816  -1.669   9.556  0.00  0.00    -0.023 A 
ATOM      4  C12 <0> d   1      18.993  -0.379  10.037  0.00  0.00     0.044 A 
ATOM      5  C27 <0> d   1      19.007   0.693   9.154  0.00  0.00     0.067 A 
ATOM      6  C28 <0> d   1      18.851   0.470   7.795  0.00  0.00     0.074 A 
ENDROOT
BRANCH   4   7
ATOM      7  N13 <0> d   1      19.156  -0.159  11.409  0.00  0.00    -0.322 N 
ATOM      8  C14 <0> d   1      18.209   0.505  12.103  0.00  0.00     0.260 C 
ATOM      9  O15 <0> d   1      17.164   0.813  11.562  0.00  0.00    -0.267 OA
ATOM     10  H49 <0> d   1      19.951  -0.483  11.860  0.00  0.00     0.169 HD
BRANCH   8  11
ATOM     11  C16 <0> d   1      18.441   0.855  13.514  0.00  0.00     0.087 A 
ATOM     12  C25 <0> d   1      18.528  -0.148  14.486  0.00  0.00     0.137 A 
ATOM     13  C24 <0> d   1      18.754   0.248  15.824  0.00  0.00     0.030 A 
ATOM     14  O26 <0> d   1      18.402  -1.453  14.156  0.00  0.00    -0.190 OA
ATOM     15  C19 <0> d   1      18.875   1.627  16.122  0.00  0.00     0.069 A 
ATOM     16  C23 <0> d   1      18.859  -0.698  16.854  0.00  0.00     0.017 A 
ATOM     17  N18 <0> d   1      18.777   2.539  15.146  0.00  0.00    -0.259 NA
ATOM     18  C20 <0> d   1      19.095   2.019  17.452  0.00  0.00     0.032 A 
ATOM     19  C17 <0> d   1      18.571   2.199  13.899  0.00  0.00     0.137 A 
ATOM     20  C21 <0> d   1      19.190   1.075  18.430  0.00  0.00     0.002 A 
ATOM     21  C22 <0> d   1      19.073  -0.280  18.133  0.00  0.00     0.001 A 
ENDBRANCH   8  11
ENDBRANCH   4   7
BRANCH   3  22
ATOM     22  C8  <0> d   1      18.801  -2.834  10.513  0.00  0.00    -0.022 C 
ATOM     23  C9  <0> d   1      19.977  -2.713  11.483  0.00  0.00     0.019 C 
ATOM     24  C10 <0> d   1      17.488  -2.831  11.298  0.00  0.00     0.019 C 
ATOM     25  C11 <0> d   1      18.922  -4.141   9.726  0.00  0.00     0.019 C 
ENDBRANCH   3  22
BRANCH   6  26
ATOM     26  O29 <0> d   1      18.865   1.517   6.930  0.00  0.00    -0.360 OA
ATOM     27  H56 <0> d   1      18.125   2.129   7.040  0.00  0.00     0.217 HD
ENDBRANCH   6  26
BRANCH   1  28
ATOM     28  C2  <0> d   1      18.493  -1.063   5.844  0.00  0.00    -0.021 C 
ATOM     29  C1  <0> d   1      17.117  -0.557   5.406  0.00  0.00     0.019 C 
ATOM     30  C3  <0> d   1      18.599  -2.562   5.557  0.00  0.00     0.019 C 
ATOM     31  C4  <0> d   1      19.582  -0.316   5.071  0.00  0.00     0.019 C 
ENDBRANCH   1  28
TORSDOF 5
ENDMDL
MODEL 3
REMARK VINA RESULT:      -8.8      1.399      1.965
REMARK  5 active torsions:
REMARK  status: ('A' for Active; 'I' for Inactive)
REMARK    1  A    between atoms: C2_2  and  C5_5 
REMARK    2  A    between atoms: C7_7  and  C8_8 
REMARK    3  A    between atoms: C12_12  and  N13_13 
REMARK       I    between atoms: N13_13  and  C14_14 
REMARK    4  A    between atoms: C14_14  and  C16_16 
REMARK    5  A    between atoms: C28_28  and  O29_29 
ROOT
ATOM      1  C5  <0> d   1      18.516   1.184  15.968  0.00  0.00    -0.017 A 
ATOM      2  C6  <0> d   1      18.637   2.318  15.188  0.00  0.00     0.021 A 
ATOM      3  C7  <0> d   1      18.542   2.225  13.812  0.00  0.00    -0.023 A 
ATOM      4  C12 <0> d   1      18.326   0.992  13.211  0.00  0.00     0.044 A 
ATOM      5  C27 <0> d   1      18.205  -0.148  13.995  0.00  0.00     0.067 A 
ATOM      6  C28 <0> d   1      18.305  -0.052  15.374  0.00  0.00     0.074 A 
ENDROOT
BRANCH   4   7
ATOM      7  N13 <0> d   1      18.231   0.898  11.819  0.00  0.00    -0.322 N 
ATOM      8  C14 <0> d   1      19.246   0.366  11.109  0.00  0.00     0.260 C 
ATOM      9  O15 <0> d   1      20.194  -0.135  11.684  0.00  0.00    -0.267 OA
ATOM     10  H49 <0> d   1      17.436   1.217  11.365  0.00  0.00     0.169 HD
BRANCH   8  11
ATOM     11  C16 <0> d   1      19.206   0.390   9.637  0.00  0.00     0.087 A 
ATOM     12  C25 <0> d   1      19.191  -0.807   8.910  0.00  0.00     0.137 A 
ATOM     13  C24 <0> d   1      19.149  -0.722   7.501  0.00  0.00     0.030 A 
ATOM     14  O26 <0> d   1      19.213  -2.005   9.537  0.00  0.00    -0.190 OA
ATOM     15  C19 <0> d   1      19.133   0.555   6.889  0.00  0.00     0.069 A 
ATOM     16  C23 <0> d   1      19.127  -1.876   6.703  0.00  0.00     0.017 A 
ATOM     17  N18 <0> d   1      19.153   1.664   7.641  0.00  0.00    -0.259 NA
ATOM     18  C20 <0> d   1      19.096   0.638   5.487  0.00  0.00     0.032 A 
ATOM     19  C17 <0> d   1      19.189   1.613   8.947  0.00  0.00     0.137 A 
ATOM     20  C21 <0> d   1      19.076  -0.502   4.742  0.00  0.00     0.002 A 
ATOM     21  C22 <0> d   1      19.091  -1.756   5.346  0.00  0.00     0.001 A 
ENDBRANCH   8  11
ENDBRANCH   4   7
BRANCH   3  22
ATOM     22  C8  <0> d   1      18.675   3.464  12.963  0.00  0.00    -0.022 C 
ATOM     23  C9  <0> d   1      18.709   4.699  13.866  0.00  0.00     0.019 C 
ATOM     24  C10 <0> d   1      19.969   3.389  12.151  0.00  0.00     0.019 C 
ATOM     25  C11 <0> d   1      17.480   3.560  12.012  0.00  0.00     0.019 C 
ENDBRANCH   3  22
BRANCH   6  26
ATOM     26  O29 <0> d   1      18.187  -1.165  16.143  0.00  0.00    -0.360 OA
ATOM     27  H56 <0> d   1      18.503  -1.974  15.717  0.00  0.00     0.217 HD
ENDBRANCH   6  26
BRANCH   1  28
ATOM     28  C2  <0> d   1      18.619   1.290  17.469  0.00  0.00    -0.021 C 
ATOM     29  C1  <0> d   1      17.249   1.015  18.094  0.00  0.00     0.019 C 
ATOM     30  C3  <0> d   1      19.079   2.699  17.850  0.00  0.00     0.019 C 
ATOM     31  C4  <0> d   1      19.630   0.265  17.985  0.00  0.00     0.019 C 
ENDBRANCH   1  28
TORSDOF 5
ENDMDL
MODEL 4
REMARK VINA RESULT:      -8.7      1.843      8.551
REMARK  5 active torsions:
REMARK  status: ('A' for Active; 'I' for Inactive)
REMARK    1  A    between atoms: C2_2  and  C5_5 
REMARK    2  A    between atoms: C7_7  and  C8_8 
REMARK    3  A    between atoms: C12_12  and  N13_13 
REMARK       I    between atoms: N13_13  and  C14_14 
REMARK    4  A    between atoms: C14_14  and  C16_16 
REMARK    5  A    between atoms: C28_28  and  O29_29 
ROOT
ATOM      1  C5  <0> d   1      18.696  -0.825   7.529  0.00  0.00    -0.017 A 
ATOM      2  C6  <0> d   1      18.703  -2.002   8.253  0.00  0.00     0.021 A 
ATOM      3  C7  <0> d   1      18.871  -1.970   9.624  0.00  0.00    -0.023 A 
ATOM      4  C12 <0> d   1      19.034  -0.755  10.277  0.00  0.00     0.044 A 
ATOM      5  C27 <0> d   1      19.027   0.427   9.550  0.00  0.00     0.067 A 
ATOM      6  C28 <0> d   1      18.864   0.392   8.174  0.00  0.00     0.074 A 
ENDROOT
BRANCH   4   7
ATOM      7  N13 <0> d   1      19.205  -0.724  11.665  0.00  0.00    -0.322 N 
ATOM      8  C14 <0> d   1      18.208  -0.281  12.457  0.00  0.00     0.260 C 
ATOM      9  O15 <0> d   1      17.122  -0.016  11.976  0.00  0.00    -0.267 OA
ATOM     10  H49 <0> d   1      20.041  -1.020  12.057  0.00  0.00     0.169 HD
BRANCH   8  11
ATOM     11  C16 <0> d   1      18.433  -0.120  13.903  0.00  0.00     0.087 A 
ATOM     12  C25 <0> d   1      18.578   1.158  14.458  0.00  0.00     0.137 A 
ATOM     13  C24 <0> d   1      18.789   1.251  15.852  0.00  0.00     0.030 A 
ATOM     14  O26 <0> d   1      18.516   2.266  13.685  0.00  0.00    -0.190 OA
ATOM     15  C19 <0> d   1      18.852   0.063  16.619  0.00  0.00     0.069 A 
ATOM     16  C23 <0> d   1      18.939   2.495  16.483  0.00  0.00     0.017 A 
ATOM     17  N18 <0> d   1      18.710  -1.131  16.027  0.00  0.00    -0.259 NA
ATOM     18  C20 <0> d   1      19.066   0.157  18.004  0.00  0.00     0.032 A 
ATOM     19  C17 <0> d   1      18.510  -1.245  14.740  0.00  0.00     0.137 A 
ATOM     20  C21 <0> d   1      19.208   1.381  18.586  0.00  0.00     0.002 A 
ATOM     21  C22 <0> d   1      19.145   2.547  17.829  0.00  0.00     0.001 A 
ENDBRANCH   8  11
ENDBRANCH   4   7
BRANCH   3  22
ATOM     22  C8  <0> d   1      18.879  -3.256  10.411  0.00  0.00    -0.022 C 
ATOM     23  C9  <0> d   1      17.548  -3.408  11.150  0.00  0.00     0.019 C 
ATOM     24  C10 <0> d   1      19.072  -4.436   9.457  0.00  0.00     0.019 C 
ATOM     25  C11 <0> d   1      20.025  -3.226  11.425  0.00  0.00     0.019 C 
ENDBRANCH   3  22
BRANCH   6  26
ATOM     26  O29 <0> d   1      18.857   1.548   7.461  0.00  0.00    -0.360 OA
ATOM     27  H56 <0> d   1      19.203   1.458   6.563  0.00  0.00     0.217 HD
ENDBRANCH   6  26
BRANCH   1  28
ATOM     28  C2  <0> d   1      18.511  -0.863   6.033  0.00  0.00    -0.021 C 
ATOM     29  C1  <0> d   1      17.125  -0.322   5.676  0.00  0.00     0.019 C 
ATOM     30  C3  <0> d   1      18.637  -2.307   5.541  0.00  0.00     0.019 C 
ATOM     31  C4  <0> d   1      19.583  -0.000   5.364  0.00  0.00     0.019 C 
ENDBRANCH   1  28
TORSDOF 5
ENDMDL
MODEL 5
REMARK VINA RESULT:      -8.6      2.620      8.177
REMARK  5 active torsions:
REMARK  status: ('A' for Active; 'I' for Inactive)
REMARK    1  A    between atoms: C2_2  and  C5_5 
REMARK    2  A    between atoms: C7_7  and  C8_8 
REMARK    3  A    between atoms: C12_12  and  N13_13 
REMARK       I    between atoms: N13_13  and  C14_14 
REMARK    4  A    between atoms: C14_14  and  C16_16 
REMARK    5  A    between atoms: C28_28  and  O29_29 
ROOT
ATOM      1  C5  <0> d   1      17.611  -4.276   9.480  0.00  0.00    -0.017 A 
ATOM      2  C6  <0> d   1      17.744  -2.918   9.261  0.00  0.00     0.021 A 
ATOM      3  C7  <0> d   1      17.815  -2.047  10.331  0.00  0.00    -0.023 A 
ATOM      4  C12 <0> d   1      17.753  -2.535  11.630  0.00  0.00     0.044 A 
ATOM      5  C27 <0> d   1      17.619  -3.899  11.851  0.00  0.00     0.067 A 
ATOM      6  C28 <0> d   1      17.543  -4.769  10.776  0.00  0.00     0.074 A 
ENDROOT
BRANCH   4   7
ATOM      7  N13 <0> d   1      17.824  -1.653  12.713  0.00  0.00    -0.322 N 
ATOM      8  C14 <0> d   1      18.908  -1.657  13.516  0.00  0.00     0.260 C 
ATOM      9  O15 <0> d   1      19.870  -2.347  13.234  0.00  0.00    -0.267 OA
ATOM     10  H49 <0> d   1      17.094  -1.038  12.887  0.00  0.00     0.169 HD
BRANCH   8  11
ATOM     11  C16 <0> d   1      18.926  -0.827  14.732  0.00  0.00     0.087 A 
ATOM     12  C25 <0> d   1      19.106   0.558  14.640  0.00  0.00     0.137 A 
ATOM     13  C24 <0> d   1      19.111   1.303  15.840  0.00  0.00     0.030 A 
ATOM     14  O26 <0> d   1      19.265   1.164  13.441  0.00  0.00    -0.190 OA
ATOM     15  C19 <0> d   1      18.945   0.625  17.072  0.00  0.00     0.069 A 
ATOM     16  C23 <0> d   1      19.280   2.696  15.830  0.00  0.00     0.017 A 
ATOM     17  N18 <0> d   1      18.783  -0.705  17.093  0.00  0.00    -0.259 NA
ATOM     18  C20 <0> d   1      18.956   1.367  18.264  0.00  0.00     0.032 A 
ATOM     19  C17 <0> d   1      18.770  -1.417  15.996  0.00  0.00     0.137 A 
ATOM     20  C21 <0> d   1      19.123   2.718  18.220  0.00  0.00     0.002 A 
ATOM     21  C22 <0> d   1      19.285   3.383  17.007  0.00  0.00     0.001 A 
ENDBRANCH   8  11
ENDBRANCH   4   7
BRANCH   3  22
ATOM     22  C8  <0> d   1      17.960  -0.567  10.088  0.00  0.00    -0.022 C 
ATOM     23  C9  <0> d   1      17.612  -0.253   8.632  0.00  0.00     0.019 C 
ATOM     24  C10 <0> d   1      17.014   0.197  11.016  0.00  0.00     0.019 C 
ATOM     25  C11 <0> d   1      19.404  -0.143  10.370  0.00  0.00     0.019 C 
ENDBRANCH   3  22
BRANCH   6  26
ATOM     26  O29 <0> d   1      17.411  -6.104  10.990  0.00  0.00    -0.360 OA
ATOM     27  H56 <0> d   1      18.155  -6.630  10.665  0.00  0.00     0.217 HD
ENDBRANCH   6  26
BRANCH   1  28
ATOM     28  C2  <0> d   1      17.535  -5.224   8.310  0.00  0.00    -0.021 C 
ATOM     29  C1  <0> d   1      17.877  -4.472   7.022  0.00  0.00     0.019 C 
ATOM     30  C3  <0> d   1      16.117  -5.792   8.206  0.00  0.00     0.019 C 
ATOM     31  C4  <0> d   1      18.530  -6.368   8.513  0.00  0.00     0.019 C 
ENDBRANCH   1  28
TORSDOF 5
ENDMDL
MODEL 6
REMARK VINA RESULT:      -8.4      2.411      7.725
REMARK  5 active torsions:
REMARK  status: ('A' for Active; 'I' for Inactive)
REMARK    1  A    between atoms: C2_2  and  C5_5 
REMARK    2  A    between atoms: C7_7  and  C8_8 
REMARK    3  A    between atoms: C12_12  and  N13_13 
REMARK       I    between atoms: N13_13  and  C14_14 
REMARK    4  A    between atoms: C14_14  and  C16_16 
REMARK    5  A    between atoms: C28_28  and  O29_29 
ROOT
ATOM      1  C5  <0> d   1      17.337  -4.135   9.410  0.00  0.00    -0.017 A 
ATOM      2  C6  <0> d   1      17.879  -3.080   8.701  0.00  0.00     0.021 A 
ATOM      3  C7  <0> d   1      18.208  -1.905   9.350  0.00  0.00    -0.023 A 
ATOM      4  C12 <0> d   1      17.994  -1.782  10.716  0.00  0.00     0.044 A 
ATOM      5  C27 <0> d   1      17.450  -2.841  11.430  0.00  0.00     0.067 A 
ATOM      6  C28 <0> d   1      17.116  -4.016  10.775  0.00  0.00     0.074 A 
ENDROOT
BRANCH   4   7
ATOM      7  N13 <0> d   1      18.327  -0.592  11.373  0.00  0.00    -0.322 N 
ATOM      8  C14 <0> d   1      17.355   0.261  11.756  0.00  0.00     0.260 C 
ATOM      9  O15 <0> d   1      16.186  -0.055  11.633  0.00  0.00    -0.267 OA
ATOM     10  H49 <0> d   1      19.256  -0.381  11.551  0.00  0.00     0.169 HD
BRANCH   8  11
ATOM     11  C16 <0> d   1      17.709   1.572  12.324  0.00  0.00     0.087 A 
ATOM     12  C25 <0> d   1      18.127   1.677  13.656  0.00  0.00     0.137 A 
ATOM     13  C24 <0> d   1      18.457   2.961  14.145  0.00  0.00     0.030 A 
ATOM     14  O26 <0> d   1      18.215   0.584  14.448  0.00  0.00    -0.190 OA
ATOM     15  C19 <0> d   1      18.344   4.076  13.280  0.00  0.00     0.069 A 
ATOM     16  C23 <0> d   1      18.889   3.146  15.467  0.00  0.00     0.017 A 
ATOM     17  N18 <0> d   1      17.933   3.910  12.015  0.00  0.00    -0.259 NA
ATOM     18  C20 <0> d   1      18.668   5.352  13.769  0.00  0.00     0.032 A 
ATOM     19  C17 <0> d   1      17.625   2.733  11.537  0.00  0.00     0.137 A 
ATOM     20  C21 <0> d   1      19.083   5.498  15.058  0.00  0.00     0.002 A 
ATOM     21  C22 <0> d   1      19.194   4.399  15.906  0.00  0.00     0.001 A 
ENDBRANCH   8  11
ENDBRANCH   4   7
BRANCH   3  22
ATOM     22  C8  <0> d   1      18.799  -0.756   8.573  0.00  0.00    -0.022 C 
ATOM     23  C9  <0> d   1      17.763   0.363   8.451  0.00  0.00     0.019 C 
ATOM     24  C10 <0> d   1      20.036  -0.230   9.303  0.00  0.00     0.019 C 
ATOM     25  C11 <0> d   1      19.197  -1.237   7.176  0.00  0.00     0.019 C 
ENDBRANCH   3  22
BRANCH   6  26
ATOM     26  O29 <0> d   1      16.582  -5.053  11.470  0.00  0.00    -0.360 OA
ATOM     27  H56 <0> d   1      16.346  -5.815  10.923  0.00  0.00     0.217 HD
ENDBRANCH   6  26
BRANCH   1  28
ATOM     28  C2  <0> d   1      16.980  -5.415   8.699  0.00  0.00    -0.021 C 
ATOM     29  C1  <0> d   1      17.707  -6.587   9.363  0.00  0.00     0.019 C 
ATOM     30  C3  <0> d   1      17.405  -5.319   7.232  0.00  0.00     0.019 C 
ATOM     31  C4  <0> d   1      15.469  -5.640   8.779  0.00  0.00     0.019 C 
ENDBRANCH   1  28
TORSDOF 5
ENDMDL
MODEL 7
REMARK VINA RESULT:      -8.3      2.373      8.375
REMARK  5 active torsions:
REMARK  status: ('A' for Active; 'I' for Inactive)
REMARK    1  A    between atoms: C2_2  and  C5_5 
REMARK    2  A    between atoms: C7_7  and  C8_8 
REMARK    3  A    between atoms: C12_12  and  N13_13 
REMARK       I    between atoms: N13_13  and  C14_14 
REMARK    4  A    between atoms: C14_14  and  C16_16 
REMARK    5  A    between atoms: C28_28  and  O29_29 
ROOT
ATOM      1  C5  <0> d   1      17.643  -4.340   9.239  0.00  0.00    -0.017 A 
ATOM      2  C6  <0> d   1      17.883  -3.044   8.823  0.00  0.00     0.021 A 
ATOM      3  C7  <0> d   1      17.982  -2.026   9.752  0.00  0.00    -0.023 A 
ATOM      4  C12 <0> d   1      17.841  -2.302  11.105  0.00  0.00     0.044 A 
ATOM      5  C27 <0> d   1      17.600  -3.604  11.524  0.00  0.00     0.067 A 
ATOM      6  C28 <0> d   1      17.495  -4.622  10.589  0.00  0.00     0.074 A 
ENDROOT
BRANCH   4   7
ATOM      7  N13 <0> d   1      17.940  -1.271  12.045  0.00  0.00    -0.322 N 
ATOM      8  C14 <0> d   1      18.942  -1.277  12.948  0.00  0.00     0.260 C 
ATOM      9  O15 <0> d   1      19.821  -2.115  12.875  0.00  0.00    -0.267 OA
ATOM     10  H49 <0> d   1      17.289  -0.553  12.047  0.00  0.00     0.169 HD
BRANCH   8  11
ATOM     11  C16 <0> d   1      18.971  -0.269  14.021  0.00  0.00     0.087 A 
ATOM     12  C25 <0> d   1      18.719  -0.640  15.347  0.00  0.00     0.137 A 
ATOM     13  C24 <0> d   1      18.764   0.369  16.335  0.00  0.00     0.030 A 
ATOM     14  O26 <0> d   1      18.445  -1.924  15.673  0.00  0.00    -0.190 OA
ATOM     15  C19 <0> d   1      19.050   1.700  15.945  0.00  0.00     0.069 A 
ATOM     16  C23 <0> d   1      18.528   0.075  17.686  0.00  0.00     0.017 A 
ATOM     17  N18 <0> d   1      19.277   1.992  14.657  0.00  0.00    -0.259 NA
ATOM     18  C20 <0> d   1      19.089   2.703  16.927  0.00  0.00     0.032 A 
ATOM     19  C17 <0> d   1      19.245   1.076  13.724  0.00  0.00     0.137 A 
ATOM     20  C21 <0> d   1      18.855   2.385  18.230  0.00  0.00     0.002 A 
ATOM     21  C22 <0> d   1      18.575   1.075  18.611  0.00  0.00     0.001 A 
ENDBRANCH   8  11
ENDBRANCH   4   7
BRANCH   3  22
ATOM     22  C8  <0> d   1      18.244  -0.613   9.295  0.00  0.00    -0.022 C 
ATOM     23  C9  <0> d   1      17.359   0.351  10.086  0.00  0.00     0.019 C 
ATOM     24  C10 <0> d   1      19.715  -0.266   9.530  0.00  0.00     0.019 C 
ATOM     25  C11 <0> d   1      17.923  -0.493   7.803  0.00  0.00     0.019 C 
ENDBRANCH   3  22
BRANCH   6  26
ATOM     26  O29 <0> d   1      17.259  -5.896  10.996  0.00  0.00    -0.360 OA
ATOM     27  H56 <0> d   1      17.109  -5.985  11.947  0.00  0.00     0.217 HD
ENDBRANCH   6  26
BRANCH   1  28
ATOM     28  C2  <0> d   1      17.537  -5.448   8.223  0.00  0.00    -0.021 C 
ATOM     29  C1  <0> d   1      17.753  -4.877   6.819  0.00  0.00     0.019 C 
ATOM     30  C3  <0> d   1      16.147  -6.083   8.305  0.00  0.00     0.019 C 
ATOM     31  C4  <0> d   1      18.601  -6.509   8.511  0.00  0.00     0.019 C 
ENDBRANCH   1  28
TORSDOF 5
ENDMDL
MODEL 8
REMARK VINA RESULT:      -8.2      2.488      8.433
REMARK  5 active torsions:
REMARK  status: ('A' for Active; 'I' for Inactive)
REMARK    1  A    between atoms: C2_2  and  C5_5 
REMARK    2  A    between atoms: C7_7  and  C8_8 
REMARK    3  A    between atoms: C12_12  and  N13_13 
REMARK       I    between atoms: N13_13  and  C14_14 
REMARK    4  A    between atoms: C14_14  and  C16_16 
REMARK    5  A    between atoms: C28_28  and  O29_29 
ROOT
ATOM      1  C5  <0> d   1      18.751  -0.673   7.066  0.00  0.00    -0.017 A 
ATOM      2  C6  <0> d   1      18.770  -1.471   8.194  0.00  0.00     0.021 A 
ATOM      3  C7  <0> d   1      18.929  -0.900   9.443  0.00  0.00    -0.023 A 
ATOM      4  C12 <0> d   1      19.071   0.475   9.567  0.00  0.00     0.044 A 
ATOM      5  C27 <0> d   1      19.052   1.277   8.433  0.00  0.00     0.067 A 
ATOM      6  C28 <0> d   1      18.898   0.702   7.182  0.00  0.00     0.074 A 
ENDROOT
BRANCH   4   7
ATOM      7  N13 <0> d   1      19.233   1.052  10.830  0.00  0.00    -0.322 N 
ATOM      8  C14 <0> d   1      18.231   1.771  11.376  0.00  0.00     0.260 C 
ATOM      9  O15 <0> d   1      17.149   1.824  10.822  0.00  0.00    -0.267 OA
ATOM     10  H49 <0> d   1      20.066   0.935  11.313  0.00  0.00     0.169 HD
BRANCH   8  11
ATOM     11  C16 <0> d   1      18.447   2.490  12.643  0.00  0.00     0.087 A 
ATOM     12  C25 <0> d   1      19.074   3.742  12.647  0.00  0.00     0.137 A 
ATOM     13  C24 <0> d   1      19.251   4.387  13.892  0.00  0.00     0.030 A 
ATOM     14  O26 <0> d   1      19.493   4.318  11.497  0.00  0.00    -0.190 OA
ATOM     15  C19 <0> d   1      18.800   3.743  15.070  0.00  0.00     0.069 A 
ATOM     16  C23 <0> d   1      19.866   5.645  13.978  0.00  0.00     0.017 A 
ATOM     17  N18 <0> d   1      18.212   2.542  15.000  0.00  0.00    -0.259 NA
ATOM     18  C20 <0> d   1      18.982   4.383  16.307  0.00  0.00     0.032 A 
ATOM     19  C17 <0> d   1      18.033   1.925  13.860  0.00  0.00     0.137 A 
ATOM     20  C21 <0> d   1      19.583   5.605  16.356  0.00  0.00     0.002 A 
ATOM     21  C22 <0> d   1      20.025   6.235  15.196  0.00  0.00     0.001 A 
ENDBRANCH   8  11
ENDBRANCH   4   7
BRANCH   3  22
ATOM     22  C8  <0> d   1      18.949  -1.773  10.672  0.00  0.00    -0.022 C 
ATOM     23  C9  <0> d   1      17.599  -1.680  11.385  0.00  0.00     0.019 C 
ATOM     24  C10 <0> d   1      19.212  -3.224  10.263  0.00  0.00     0.019 C 
ATOM     25  C11 <0> d   1      20.058  -1.300  11.614  0.00  0.00     0.019 C 
ENDBRANCH   3  22
BRANCH   6  26
ATOM     26  O29 <0> d   1      18.880   1.484   6.072  0.00  0.00    -0.360 OA
ATOM     27  H56 <0> d   1      19.362   1.113   5.321  0.00  0.00     0.217 HD
ENDBRANCH   6  26
BRANCH   1  28
ATOM     28  C2  <0> d   1      18.576  -1.299   5.706  0.00  0.00    -0.021 C 
ATOM     29  C1  <0> d   1      18.751  -2.815   5.815  0.00  0.00     0.019 C 
ATOM     30  C3  <0> d   1      19.626  -0.734   4.746  0.00  0.00     0.019 C 
ATOM     31  C4  <0> d   1      17.176  -0.983   5.175  0.00  0.00     0.019 C 
ENDBRANCH   1  28
TORSDOF 5
ENDMDL
MODEL 9
REMARK VINA RESULT:      -7.9      3.249      8.167
REMARK  5 active torsions:
REMARK  status: ('A' for Active; 'I' for Inactive)
REMARK    1  A    between atoms: C2_2  and  C5_5 
REMARK    2  A    between atoms: C7_7  and  C8_8 
REMARK    3  A    between atoms: C12_12  and  N13_13 
REMARK       I    between atoms: N13_13  and  C14_14 
REMARK    4  A    between atoms: C14_14  and  C16_16 
REMARK    5  A    between atoms: C28_28  and  O29_29 
ROOT
ATOM      1  C5  <0> d   1      18.633  -2.097   7.434  0.00  0.00    -0.017 A 
ATOM      2  C6  <0> d   1      19.114  -2.148   8.729  0.00  0.00     0.021 A 
ATOM      3  C7  <0> d   1      18.827  -1.127   9.615  0.00  0.00    -0.023 A 
ATOM      4  C12 <0> d   1      18.056  -0.047   9.206  0.00  0.00     0.044 A 
ATOM      5  C27 <0> d   1      17.573   0.005   7.906  0.00  0.00     0.067 A 
ATOM      6  C28 <0> d   1      17.866  -1.018   7.018  0.00  0.00     0.074 A 
ENDROOT
BRANCH   4   7
ATOM      7  N13 <0> d   1      17.766   0.986  10.103  0.00  0.00    -0.322 N 
ATOM      8  C14 <0> d   1      18.312   2.206   9.925  0.00  0.00     0.260 C 
ATOM      9  O15 <0> d   1      18.964   2.440   8.924  0.00  0.00    -0.267 OA
ATOM     10  H49 <0> d   1      17.174   0.824  10.854  0.00  0.00     0.169 HD
BRANCH   8  11
ATOM     11  C16 <0> d   1      18.117   3.255  10.940  0.00  0.00     0.087 A 
ATOM     12  C25 <0> d   1      19.181   3.651  11.760  0.00  0.00     0.137 A 
ATOM     13  C24 <0> d   1      18.936   4.664  12.714  0.00  0.00     0.030 A 
ATOM     14  O26 <0> d   1      20.403   3.085  11.641  0.00  0.00    -0.190 OA
ATOM     15  C19 <0> d   1      17.639   5.224  12.805  0.00  0.00     0.069 A 
ATOM     16  C23 <0> d   1      19.952   5.119  13.568  0.00  0.00     0.017 A 
ATOM     17  N18 <0> d   1      16.661   4.798  11.994  0.00  0.00    -0.259 NA
ATOM     18  C20 <0> d   1      17.396   6.227  13.758  0.00  0.00     0.032 A 
ATOM     19  C17 <0> d   1      16.862   3.864  11.101  0.00  0.00     0.137 A 
ATOM     20  C21 <0> d   1      18.404   6.646  14.573  0.00  0.00     0.002 A 
ATOM     21  C22 <0> d   1      19.679   6.094  14.480  0.00  0.00     0.001 A 
ENDBRANCH   8  11
ENDBRANCH   4   7
BRANCH   3  22
ATOM     22  C8  <0> d   1      19.354  -1.186  11.026  0.00  0.00    -0.022 C 
ATOM     23  C9  <0> d   1      19.779  -2.619  11.352  0.00  0.00     0.019 C 
ATOM     24  C10 <0> d   1      20.558  -0.253  11.161  0.00  0.00     0.019 C 
ATOM     25  C11 <0> d   1      18.256  -0.746  11.998  0.00  0.00     0.019 C 
ENDBRANCH   3  22
BRANCH   6  26
ATOM     26  O29 <0> d   1      17.395  -0.968   5.745  0.00  0.00    -0.360 OA
ATOM     27  H56 <0> d   1      16.958  -1.781   5.455  0.00  0.00     0.217 HD
ENDBRANCH   6  26
BRANCH   1  28
ATOM     28  C2  <0> d   1      18.947  -3.212   6.470  0.00  0.00    -0.021 C 
ATOM     29  C1  <0> d   1      20.166  -3.991   6.971  0.00  0.00     0.019 C 
ATOM     30  C3  <0> d   1      19.252  -2.624   5.091  0.00  0.00     0.019 C 
ATOM     31  C4  <0> d   1      17.746  -4.154   6.370  0.00  0.00     0.019 C 
ENDBRANCH   1  28
TORSDOF 5
ENDMDL
