MODEL 1
REMARK VINA RESULT:      -6.4      0.000      0.000
REMARK  2 active torsions:
REMARK  status: ('A' for Active; 'I' for Inactive)
REMARK    1  A    between atoms: C11_11  and  N12_12 
REMARK    2  A    between atoms: N12_12  and  C13_13 
ROOT
ATOM      1 Br1  <0> d   1      19.230   1.788   8.525  0.00  0.00    -0.046 Br
ATOM      2  C2  <0> d   1      19.072   1.979  10.401  0.00  0.00     0.069 A 
ATOM      3  C3  <0> d   1      18.324   3.037  10.942  0.00  0.00     0.104 A 
ATOM      4  N4  <0> d   1      17.711   3.925  10.152  0.00  0.00    -0.256 NA
ATOM      5  C5  <0> d   1      17.016   4.903  10.686  0.00  0.00     0.136 A 
ATOM      6  C6  <0> d   1      16.912   5.027  12.072  0.00  0.00     0.136 A 
ATOM      7  N7  <0> d   1      17.504   4.169  12.871  0.00  0.00    -0.257 NA
ATOM      8  C8  <0> d   1      18.216   3.163  12.351  0.00  0.00     0.086 A 
ATOM      9  C9  <0> d   1      18.861   2.230  13.182  0.00  0.00     0.036 A 
ATOM     10  C10 <0> d   1      19.580   1.215  12.633  0.00  0.00     0.034 A 
ATOM     11  C11 <0> d   1      19.687   1.078  11.244  0.00  0.00     0.069 A 
ENDROOT
BRANCH  11  12
ATOM     12  N12 <0> d   1      20.432   0.024  10.707  0.00  0.00    -0.191 N 
ATOM     13  H23 <0> d   1      21.265   0.207  10.243  0.00  0.00     0.184 HD
BRANCH  12  14
ATOM     14  C13 <0> d   1      19.988  -1.265  10.835  0.00  0.00     0.674 A 
ATOM     15  N18 <0> d   1      20.729  -2.228  11.357  0.00  0.00    -0.225 N 
ATOM     16  C17 <0> d   1      19.964  -3.484  11.354  0.00  0.00     0.158 A 
ATOM     17  H28 <0> d   1      21.632  -2.121  11.695  0.00  0.00     0.177 HD
ATOM     18  C16 <0> d   1      18.618  -3.083  10.715  0.00  0.00     0.158 A 
ATOM     19  N14 <0> d   1      18.784  -1.647  10.441  0.00  0.00    -0.225 N 
ATOM     20  H15 <0> d   1      18.117  -1.073  10.035  0.00  0.00     0.177 HD
ENDBRANCH  12  14
ENDBRANCH  11  12
TORSDOF 2
ENDMDL
MODEL 2
REMARK VINA RESULT:      -6.3      2.809      3.598
REMARK  2 active torsions:
REMARK  status: ('A' for Active; 'I' for Inactive)
REMARK    1  A    between atoms: C11_11  and  N12_12 
REMARK    2  A    between atoms: N12_12  and  C13_13 
ROOT
ATOM      1 Br1  <0> d   1      20.372   0.723  12.021  0.00  0.00    -0.046 Br
ATOM      2  C2  <0> d   1      19.275   2.193  11.558  0.00  0.00     0.069 A 
ATOM      3  C3  <0> d   1      18.663   2.960  12.561  0.00  0.00     0.104 A 
ATOM      4  N4  <0> d   1      18.839   2.673  13.855  0.00  0.00    -0.256 NA
ATOM      5  C5  <0> d   1      18.254   3.410  14.773  0.00  0.00     0.136 A 
ATOM      6  C6  <0> d   1      17.449   4.490  14.411  0.00  0.00     0.136 A 
ATOM      7  N7  <0> d   1      17.259   4.794  13.147  0.00  0.00    -0.257 NA
ATOM      8  C8  <0> d   1      17.844   4.060  12.194  0.00  0.00     0.086 A 
ATOM      9  C9  <0> d   1      17.659   4.362  10.833  0.00  0.00     0.036 A 
ATOM     10  C10 <0> d   1      18.263   3.603   9.881  0.00  0.00     0.034 A 
ATOM     11  C11 <0> d   1      19.077   2.520  10.234  0.00  0.00     0.069 A 
ENDROOT
BRANCH  11  12
ATOM     12  N12 <0> d   1      19.686   1.757   9.233  0.00  0.00    -0.191 N 
ATOM     13  H23 <0> d   1      20.653   1.683   9.201  0.00  0.00     0.184 HD
BRANCH  12  14
ATOM     14  C13 <0> d   1      18.918   1.114   8.298  0.00  0.00     0.674 A 
ATOM     15  N18 <0> d   1      17.947   0.279   8.623  0.00  0.00    -0.225 N 
ATOM     16  C17 <0> d   1      17.318  -0.236   7.397  0.00  0.00     0.158 A 
ATOM     17  H28 <0> d   1      17.686   0.046   9.528  0.00  0.00     0.177 HD
ATOM     18  C16 <0> d   1      18.115   0.453   6.270  0.00  0.00     0.158 A 
ATOM     19  N14 <0> d   1      19.093   1.277   6.997  0.00  0.00    -0.225 N 
ATOM     20  H15 <0> d   1      19.761   1.848   6.586  0.00  0.00     0.177 HD
ENDBRANCH  12  14
ENDBRANCH  11  12
TORSDOF 2
ENDMDL
MODEL 3
REMARK VINA RESULT:      -6.3      1.868      2.711
REMARK  2 active torsions:
REMARK  status: ('A' for Active; 'I' for Inactive)
REMARK    1  A    between atoms: C11_11  and  N12_12 
REMARK    2  A    between atoms: N12_12  and  C13_13 
ROOT
ATOM      1 Br1  <0> d   1      19.962   0.220  13.590  0.00  0.00    -0.046 Br
ATOM      2  C2  <0> d   1      19.713   0.548  11.744  0.00  0.00     0.069 A 
ATOM      3  C3  <0> d   1      19.158   1.763  11.312  0.00  0.00     0.104 A 
ATOM      4  N4  <0> d   1      18.796   2.707  12.187  0.00  0.00    -0.256 NA
ATOM      5  C5  <0> d   1      18.280   3.835  11.753  0.00  0.00     0.136 A 
ATOM      6  C6  <0> d   1      18.104   4.059  10.387  0.00  0.00     0.136 A 
ATOM      7  N7  <0> d   1      18.452   3.148   9.507  0.00  0.00    -0.257 NA
ATOM      8  C8  <0> d   1      18.980   1.992   9.923  0.00  0.00     0.086 A 
ATOM      9  C9  <0> d   1      19.360   0.999   9.002  0.00  0.00     0.036 A 
ATOM     10  C10 <0> d   1      19.896  -0.169   9.447  0.00  0.00     0.034 A 
ATOM     11  C11 <0> d   1      20.081  -0.401  10.815  0.00  0.00     0.069 A 
ENDROOT
BRANCH  11  12
ATOM     12  N12 <0> d   1      20.635  -1.612  11.243  0.00  0.00    -0.191 N 
ATOM     13  H23 <0> d   1      21.548  -1.638  11.569  0.00  0.00     0.184 HD
BRANCH  12  14
ATOM     14  C13 <0> d   1      19.888  -2.759  11.203  0.00  0.00     0.674 A 
ATOM     15  N18 <0> d   1      20.158  -3.759  10.382  0.00  0.00    -0.225 N 
ATOM     16  C17 <0> d   1      19.176  -4.836  10.589  0.00  0.00     0.158 A 
ATOM     17  H28 <0> d   1      20.891  -3.782   9.747  0.00  0.00     0.177 HD
ATOM     18  C16 <0> d   1      18.258  -4.275  11.694  0.00  0.00     0.158 A 
ATOM     19  N14 <0> d   1      18.835  -2.952  11.981  0.00  0.00    -0.225 N 
ATOM     20  H15 <0> d   1      18.496  -2.323  12.635  0.00  0.00     0.177 HD
ENDBRANCH  12  14
ENDBRANCH  11  12
TORSDOF 2
ENDMDL
MODEL 4
REMARK VINA RESULT:      -6.3      5.649      7.007
REMARK  2 active torsions:
REMARK  status: ('A' for Active; 'I' for Inactive)
REMARK    1  A    between atoms: C11_11  and  N12_12 
REMARK    2  A    between atoms: N12_12  and  C13_13 
ROOT
ATOM      1 Br1  <0> d   1      18.922  -3.594   7.981  0.00  0.00    -0.046 Br
ATOM      2  C2  <0> d   1      19.012  -2.101   6.822  0.00  0.00     0.069 A 
ATOM      3  C3  <0> d   1      19.038  -0.799   7.349  0.00  0.00     0.104 A 
ATOM      4  N4  <0> d   1      18.999  -0.587   8.668  0.00  0.00    -0.256 NA
ATOM      5  C5  <0> d   1      19.026   0.642   9.132  0.00  0.00     0.136 A 
ATOM      6  C6  <0> d   1      19.093   1.730   8.262  0.00  0.00     0.136 A 
ATOM      7  N7  <0> d   1      19.132   1.549   6.961  0.00  0.00    -0.257 NA
ATOM      8  C8  <0> d   1      19.107   0.307   6.464  0.00  0.00     0.086 A 
ATOM      9  C9  <0> d   1      19.147   0.084   5.076  0.00  0.00     0.036 A 
ATOM     10  C10 <0> d   1      19.121  -1.185   4.592  0.00  0.00     0.034 A 
ATOM     11  C11 <0> d   1      19.059  -2.285   5.457  0.00  0.00     0.069 A 
ENDROOT
BRANCH  11  12
ATOM     12  N12 <0> d   1      19.034  -3.580   4.931  0.00  0.00    -0.191 N 
ATOM     13  H23 <0> d   1      19.715  -4.221   5.189  0.00  0.00     0.184 HD
BRANCH  12  14
ATOM     14  C13 <0> d   1      18.048  -3.943   4.052  0.00  0.00     0.674 A 
ATOM     15  N18 <0> d   1      18.305  -4.366   2.825  0.00  0.00    -0.225 N 
ATOM     16  C17 <0> d   1      17.038  -4.678   2.144  0.00  0.00     0.158 A 
ATOM     17  H28 <0> d   1      19.189  -4.461   2.438  0.00  0.00     0.177 HD
ATOM     18  C16 <0> d   1      15.970  -4.348   3.207  0.00  0.00     0.158 A 
ATOM     19  N14 <0> d   1      16.763  -3.895   4.361  0.00  0.00    -0.225 N 
ATOM     20  H15 <0> d   1      16.400  -3.607   5.212  0.00  0.00     0.177 HD
ENDBRANCH  12  14
ENDBRANCH  11  12
TORSDOF 2
ENDMDL
MODEL 5
REMARK VINA RESULT:      -6.1      2.916      5.886
REMARK  2 active torsions:
REMARK  status: ('A' for Active; 'I' for Inactive)
REMARK    1  A    between atoms: C11_11  and  N12_12 
REMARK    2  A    between atoms: N12_12  and  C13_13 
ROOT
ATOM      1 Br1  <0> d   1      19.658  -1.759  10.980  0.00  0.00    -0.046 Br
ATOM      2  C2  <0> d   1      19.420  -0.376   9.710  0.00  0.00     0.069 A 
ATOM      3  C3  <0> d   1      19.297  -0.684   8.346  0.00  0.00     0.104 A 
ATOM      4  N4  <0> d   1      19.344  -1.949   7.916  0.00  0.00    -0.256 NA
ATOM      5  C5  <0> d   1      19.225  -2.207   6.633  0.00  0.00     0.136 A 
ATOM      6  C6  <0> d   1      19.050  -1.174   5.713  0.00  0.00     0.136 A 
ATOM      7  N7  <0> d   1      19.000   0.078   6.109  0.00  0.00    -0.257 NA
ATOM      8  C8  <0> d   1      19.118   0.367   7.409  0.00  0.00     0.086 A 
ATOM      9  C9  <0> d   1      19.069   1.698   7.861  0.00  0.00     0.036 A 
ATOM     10  C10 <0> d   1      19.191   1.969   9.187  0.00  0.00     0.034 A 
ATOM     11  C11 <0> d   1      19.361   0.938  10.120  0.00  0.00     0.069 A 
ENDROOT
BRANCH  11  12
ATOM     12  N12 <0> d   1      19.484   1.247  11.478  0.00  0.00    -0.191 N 
ATOM     13  H23 <0> d   1      19.708   0.550  12.115  0.00  0.00     0.184 HD
BRANCH  12  14
ATOM     14  C13 <0> d   1      19.287   2.532  11.910  0.00  0.00     0.674 A 
ATOM     15  N18 <0> d   1      20.277   3.394  12.061  0.00  0.00    -0.225 N 
ATOM     16  C17 <0> d   1      19.735   4.679  12.531  0.00  0.00     0.158 A 
ATOM     17  H28 <0> d   1      21.214   3.211  11.885  0.00  0.00     0.177 HD
ATOM     18  C16 <0> d   1      18.220   4.409  12.640  0.00  0.00     0.158 A 
ATOM     19  N14 <0> d   1      18.090   3.007  12.213  0.00  0.00    -0.225 N 
ATOM     20  H15 <0> d   1      17.259   2.511  12.163  0.00  0.00     0.177 HD
ENDBRANCH  12  14
ENDBRANCH  11  12
TORSDOF 2
ENDMDL
MODEL 6
REMARK VINA RESULT:      -6.1      2.330      6.111
REMARK  2 active torsions:
REMARK  status: ('A' for Active; 'I' for Inactive)
REMARK    1  A    between atoms: C11_11  and  N12_12 
REMARK    2  A    between atoms: N12_12  and  C13_13 
ROOT
ATOM      1 Br1  <0> d   1      19.252  -1.497  13.531  0.00  0.00    -0.046 Br
ATOM      2  C2  <0> d   1      19.253  -1.425  11.640  0.00  0.00     0.069 A 
ATOM      3  C3  <0> d   1      18.579  -2.406  10.895  0.00  0.00     0.104 A 
ATOM      4  N4  <0> d   1      17.927  -3.404  11.500  0.00  0.00    -0.256 NA
ATOM      5  C5  <0> d   1      17.304  -4.308  10.777  0.00  0.00     0.136 A 
ATOM      6  C6  <0> d   1      17.317  -4.237   9.383  0.00  0.00     0.136 A 
ATOM      7  N7  <0> d   1      17.950  -3.266   8.765  0.00  0.00    -0.257 NA
ATOM      8  C8  <0> d   1      18.591  -2.333   9.479  0.00  0.00     0.086 A 
ATOM      9  C9  <0> d   1      19.277  -1.283   8.843  0.00  0.00     0.036 A 
ATOM     10  C10 <0> d   1      19.922  -0.346   9.587  0.00  0.00     0.034 A 
ATOM     11  C11 <0> d   1      19.911  -0.405  10.987  0.00  0.00     0.069 A 
ENDROOT
BRANCH  11  12
ATOM     12  N12 <0> d   1      20.582   0.573  11.726  0.00  0.00    -0.191 N 
ATOM     13  H23 <0> d   1      21.447   0.375  12.118  0.00  0.00     0.184 HD
BRANCH  12  14
ATOM     14  C13 <0> d   1      20.019   1.810  11.898  0.00  0.00     0.674 A 
ATOM     15  N18 <0> d   1      18.741   1.979  12.190  0.00  0.00    -0.225 N 
ATOM     16  C17 <0> d   1      18.457   3.417  12.311  0.00  0.00     0.158 A 
ATOM     17  H28 <0> d   1      18.093   1.267  12.310  0.00  0.00     0.177 HD
ATOM     18  C16 <0> d   1      19.821   4.077  12.024  0.00  0.00     0.158 A 
ATOM     19  N14 <0> d   1      20.711   2.931  11.781  0.00  0.00    -0.225 N 
ATOM     20  H15 <0> d   1      21.655   2.990  11.568  0.00  0.00     0.177 HD
ENDBRANCH  12  14
ENDBRANCH  11  12
TORSDOF 2
ENDMDL
MODEL 7
REMARK VINA RESULT:      -6.0      5.411      8.115
REMARK  2 active torsions:
REMARK  status: ('A' for Active; 'I' for Inactive)
REMARK    1  A    between atoms: C11_11  and  N12_12 
REMARK    2  A    between atoms: N12_12  and  C13_13 
ROOT
ATOM      1 Br1  <0> d   1      18.971   3.883  15.232  0.00  0.00    -0.046 Br
ATOM      2  C2  <0> d   1      19.022   2.296  16.261  0.00  0.00     0.069 A 
ATOM      3  C3  <0> d   1      19.013   1.043  15.627  0.00  0.00     0.104 A 
ATOM      4  N4  <0> d   1      18.968   0.944  14.294  0.00  0.00    -0.256 NA
ATOM      5  C5  <0> d   1      18.962  -0.242  13.729  0.00  0.00     0.136 A 
ATOM      6  C6  <0> d   1      19.000  -1.401  14.505  0.00  0.00     0.136 A 
ATOM      7  N7  <0> d   1      19.044  -1.331  15.816  0.00  0.00    -0.257 NA
ATOM      8  C8  <0> d   1      19.052  -0.136  16.416  0.00  0.00     0.086 A 
ATOM      9  C9  <0> d   1      19.099  -0.031  17.817  0.00  0.00     0.036 A 
ATOM     10  C10 <0> d   1      19.107   1.194  18.407  0.00  0.00     0.034 A 
ATOM     11  C11 <0> d   1      19.075   2.363  17.636  0.00  0.00     0.069 A 
ENDROOT
BRANCH  11  12
ATOM     12  N12 <0> d   1      19.084   3.610  18.270  0.00  0.00    -0.191 N 
ATOM     13  H23 <0> d   1      19.828   4.217  18.133  0.00  0.00     0.184 HD
BRANCH  12  14
ATOM     14  C13 <0> d   1      18.043   3.974  19.082  0.00  0.00     0.674 A 
ATOM     15  N18 <0> d   1      18.219   4.401  20.321  0.00  0.00    -0.225 N 
ATOM     16  C17 <0> d   1      16.911   4.712  20.918  0.00  0.00     0.158 A 
ATOM     17  H28 <0> d   1      19.077   4.499  20.765  0.00  0.00     0.177 HD
ATOM     18  C16 <0> d   1      15.914   4.376  19.790  0.00  0.00     0.158 A 
ATOM     19  N14 <0> d   1      16.780   3.922  18.691  0.00  0.00    -0.225 N 
ATOM     20  H15 <0> d   1      16.474   3.630  17.819  0.00  0.00     0.177 HD
ENDBRANCH  12  14
ENDBRANCH  11  12
TORSDOF 2
ENDMDL
MODEL 8
REMARK VINA RESULT:      -6.0      2.969      3.959
REMARK  2 active torsions:
REMARK  status: ('A' for Active; 'I' for Inactive)
REMARK    1  A    between atoms: C11_11  and  N12_12 
REMARK    2  A    between atoms: N12_12  and  C13_13 
ROOT
ATOM      1 Br1  <0> d   1      17.716  -1.947  11.610  0.00  0.00    -0.046 Br
ATOM      2  C2  <0> d   1      18.195  -0.574  10.400  0.00  0.00     0.069 A 
ATOM      3  C3  <0> d   1      18.646   0.666  10.881  0.00  0.00     0.104 A 
ATOM      4  N4  <0> d   1      18.746   0.902  12.194  0.00  0.00    -0.256 NA
ATOM      5  C5  <0> d   1      19.173   2.071  12.615  0.00  0.00     0.136 A 
ATOM      6  C6  <0> d   1      19.522   3.071  11.707  0.00  0.00     0.136 A 
ATOM      7  N7  <0> d   1      19.432   2.865  10.412  0.00  0.00    -0.257 NA
ATOM      8  C8  <0> d   1      19.002   1.683   9.958  0.00  0.00     0.086 A 
ATOM      9  C9  <0> d   1      18.897   1.434   8.578  0.00  0.00     0.036 A 
ATOM     10  C10 <0> d   1      18.457   0.226   8.138  0.00  0.00     0.034 A 
ATOM     11  C11 <0> d   1      18.110  -0.787   9.041  0.00  0.00     0.069 A 
ENDROOT
BRANCH  11  12
ATOM     12  N12 <0> d   1      17.661  -2.020   8.560  0.00  0.00    -0.191 N 
ATOM     13  H23 <0> d   1      16.817  -2.384   8.872  0.00  0.00     0.184 HD
BRANCH  12  14
ATOM     14  C13 <0> d   1      18.411  -2.715   7.649  0.00  0.00     0.674 A 
ATOM     15  N18 <0> d   1      19.527  -3.346   7.974  0.00  0.00    -0.225 N 
ATOM     16  C17 <0> d   1      20.086  -3.992   6.776  0.00  0.00     0.158 A 
ATOM     17  H28 <0> d   1      19.913  -3.382   8.863  0.00  0.00     0.177 HD
ATOM     18  C16 <0> d   1      19.086  -3.613   5.665  0.00  0.00     0.158 A 
ATOM     19  N14 <0> d   1      18.080  -2.804   6.371  0.00  0.00    -0.225 N 
ATOM     20  H15 <0> d   1      17.298  -2.400   5.963  0.00  0.00     0.177 HD
ENDBRANCH  12  14
ENDBRANCH  11  12
TORSDOF 2
ENDMDL
MODEL 9
REMARK VINA RESULT:      -6.0      1.883      6.016
REMARK  2 active torsions:
REMARK  status: ('A' for Active; 'I' for Inactive)
REMARK    1  A    between atoms: C11_11  and  N12_12 
REMARK    2  A    between atoms: N12_12  and  C13_13 
ROOT
ATOM      1 Br1  <0> d   1      18.305  -0.013   7.179  0.00  0.00    -0.046 Br
ATOM      2  C2  <0> d   1      18.947  -0.781   8.784  0.00  0.00     0.069 A 
ATOM      3  C3  <0> d   1      18.722  -2.140   9.057  0.00  0.00     0.104 A 
ATOM      4  N4  <0> d   1      18.055  -2.915   8.195  0.00  0.00    -0.256 NA
ATOM      5  C5  <0> d   1      17.861  -4.184   8.476  0.00  0.00     0.136 A 
ATOM      6  C6  <0> d   1      18.342  -4.732   9.665  0.00  0.00     0.136 A 
ATOM      7  N7  <0> d   1      19.000  -3.992  10.529  0.00  0.00    -0.257 NA
ATOM      8  C8  <0> d   1      19.212  -2.698  10.266  0.00  0.00     0.086 A 
ATOM      9  C9  <0> d   1      19.914  -1.882  11.171  0.00  0.00     0.036 A 
ATOM     10  C10 <0> d   1      20.118  -0.569  10.884  0.00  0.00     0.034 A 
ATOM     11  C11 <0> d   1      19.644  -0.011   9.691  0.00  0.00     0.069 A 
ENDROOT
BRANCH  11  12
ATOM     12  N12 <0> d   1      19.869   1.342   9.422  0.00  0.00    -0.191 N 
ATOM     13  H23 <0> d   1      20.447   1.600   8.686  0.00  0.00     0.184 HD
BRANCH  12  14
ATOM     14  C13 <0> d   1      19.276   2.303  10.197  0.00  0.00     0.674 A 
ATOM     15  N18 <0> d   1      17.990   2.597  10.111  0.00  0.00    -0.225 N 
ATOM     16  C17 <0> d   1      17.670   3.662  11.074  0.00  0.00     0.158 A 
ATOM     17  H28 <0> d   1      17.355   2.173   9.511  0.00  0.00     0.177 HD
ATOM     18  C16 <0> d   1      19.026   3.954  11.749  0.00  0.00     0.158 A 
ATOM     19  N14 <0> d   1      19.946   3.015  11.088  0.00  0.00    -0.225 N 
ATOM     20  H15 <0> d   1      20.893   2.932  11.277  0.00  0.00     0.177 HD
ENDBRANCH  12  14
ENDBRANCH  11  12
TORSDOF 2
ENDMDL
