MODEL 1
REMARK VINA RESULT:      -4.3      0.000      0.000
REMARK  2 active torsions:
REMARK  status: ('A' for Active; 'I' for Inactive)
REMARK    1  A    between atoms: C2_2  and  C4_4 
REMARK    2  A    between atoms: C7_6  and  O9_7 
ROOT
ATOM      1  C4  <0> d   1      17.993  -0.348  17.170  0.00  0.00     0.288 C 
ATOM      2  C6  <0> d   1      19.096  -1.249  16.577  0.00  0.00     0.077 C 
ATOM      3  C7  <0> d   1      18.754  -1.268  15.064  0.00  0.00     0.146 C 
ATOM      4  C10 <0> d   1      18.231   0.173  14.843  0.00  0.00     0.265 C 
ATOM      5  N11 <0> d   1      17.477   0.495  16.076  0.00  0.00    -0.059 N 
ATOM      6  H12 <0> d   1      16.496   0.309  15.934  0.00  0.00     0.278 HD
ATOM      7  H13 <0> d   1      17.608   1.468  16.310  0.00  0.00     0.278 HD
ENDROOT
BRANCH   1   8
ATOM      8  C2  <0> d   1      18.571   0.521  18.258  0.00  0.00     0.204 C 
ATOM      9  O1  <0> d   1      19.779   0.659  18.350  0.00  0.00    -0.646 OA
ATOM     10  O3  <0> d   1      17.831   1.090  19.042  0.00  0.00    -0.646 OA
ENDBRANCH   1   8
BRANCH   3  11
ATOM     11  O9  <0> d   1      19.922  -1.516  14.279  0.00  0.00    -0.394 OA
ATOM     12  H16 <0> d   1      19.742  -1.942  13.429  0.00  0.00     0.210 HD
ENDBRANCH   3  11
TORSDOF 2
ENDMDL
MODEL 2
REMARK VINA RESULT:      -4.3      8.626     10.792
REMARK  2 active torsions:
REMARK  status: ('A' for Active; 'I' for Inactive)
REMARK    1  A    between atoms: C2_2  and  C4_4 
REMARK    2  A    between atoms: C7_6  and  O9_7 
ROOT
ATOM      1  C4  <0> d   1      18.287  -0.064   6.162  0.00  0.00     0.288 C 
ATOM      2  C6  <0> d   1      18.915   1.222   6.740  0.00  0.00     0.077 C 
ATOM      3  C7  <0> d   1      19.040   0.899   8.253  0.00  0.00     0.146 C 
ATOM      4  C10 <0> d   1      19.381  -0.611   8.224  0.00  0.00     0.265 C 
ATOM      5  N11 <0> d   1      18.578  -1.159   7.105  0.00  0.00    -0.059 N 
ATOM      6  H12 <0> d   1      17.716  -1.543   7.461  0.00  0.00     0.278 HD
ATOM      7  H13 <0> d   1      19.103  -1.881   6.633  0.00  0.00     0.278 HD
ENDROOT
BRANCH   1   8
ATOM      8  C2  <0> d   1      18.894  -0.370   4.817  0.00  0.00     0.204 C 
ATOM      9  O1  <0> d   1      19.990  -0.899   4.749  0.00  0.00    -0.646 OA
ATOM     10  O3  <0> d   1      18.286  -0.095   3.797  0.00  0.00    -0.646 OA
ENDBRANCH   1   8
BRANCH   3  11
ATOM     11  O9  <0> d   1      20.097   1.652   8.850  0.00  0.00    -0.394 OA
ATOM     12  H16 <0> d   1      20.853   1.802   8.266  0.00  0.00     0.210 HD
ENDBRANCH   3  11
TORSDOF 2
ENDMDL
MODEL 3
REMARK VINA RESULT:      -4.2      5.891      6.354
REMARK  2 active torsions:
REMARK  status: ('A' for Active; 'I' for Inactive)
REMARK    1  A    between atoms: C2_2  and  C4_4 
REMARK    2  A    between atoms: C7_6  and  O9_7 
ROOT
ATOM      1  C4  <0> d   1      17.967  -0.755  10.659  0.00  0.00     0.288 C 
ATOM      2  C6  <0> d   1      19.224  -0.730  11.555  0.00  0.00     0.077 C 
ATOM      3  C7  <0> d   1      20.371  -1.027  10.553  0.00  0.00     0.146 C 
ATOM      4  C10 <0> d   1      19.875  -0.295   9.282  0.00  0.00     0.265 C 
ATOM      5  N11 <0> d   1      18.408  -0.501   9.275  0.00  0.00    -0.059 N 
ATOM      6  H12 <0> d   1      18.178  -1.292   8.693  0.00  0.00     0.278 HD
ATOM      7  H13 <0> d   1      17.950   0.326   8.922  0.00  0.00     0.278 HD
ENDROOT
BRANCH   1   8
ATOM      8  C2  <0> d   1      17.006   0.320  11.096  0.00  0.00     0.204 C 
ATOM      9  O1  <0> d   1      17.292   1.495  10.940  0.00  0.00    -0.646 OA
ATOM     10  O3  <0> d   1      15.938   0.015  11.601  0.00  0.00    -0.646 OA
ENDBRANCH   1   8
BRANCH   3  11
ATOM     11  O9  <0> d   1      21.606  -0.475  11.013  0.00  0.00    -0.394 OA
ATOM     12  H16 <0> d   1      22.035  -0.995  11.708  0.00  0.00     0.210 HD
ENDBRANCH   3  11
TORSDOF 2
ENDMDL
MODEL 4
REMARK VINA RESULT:      -4.2      5.524      6.414
REMARK  2 active torsions:
REMARK  status: ('A' for Active; 'I' for Inactive)
REMARK    1  A    between atoms: C2_2  and  C4_4 
REMARK    2  A    between atoms: C7_6  and  O9_7 
ROOT
ATOM      1  C4  <0> d   1      18.284   1.562  11.343  0.00  0.00     0.288 C 
ATOM      2  C6  <0> d   1      19.577   1.816  12.143  0.00  0.00     0.077 C 
ATOM      3  C7  <0> d   1      20.328   0.463  12.032  0.00  0.00     0.146 C 
ATOM      4  C10 <0> d   1      19.957   0.016  10.597  0.00  0.00     0.265 C 
ATOM      5  N11 <0> d   1      18.550   0.443  10.419  0.00  0.00    -0.059 N 
ATOM      6  H12 <0> d   1      17.931  -0.327  10.627  0.00  0.00     0.278 HD
ATOM      7  H13 <0> d   1      18.405   0.749   9.468  0.00  0.00     0.278 HD
ENDROOT
BRANCH   1   8
ATOM      8  C2  <0> d   1      17.915   2.795  10.560  0.00  0.00     0.204 C 
ATOM      9  O1  <0> d   1      18.535   3.086   9.551  0.00  0.00    -0.646 OA
ATOM     10  O3  <0> d   1      16.992   3.500  10.931  0.00  0.00    -0.646 OA
ENDBRANCH   1   8
BRANCH   3  11
ATOM     11  O9  <0> d   1      21.739   0.648  12.163  0.00  0.00    -0.394 OA
ATOM     12  H16 <0> d   1      22.213   0.672  11.320  0.00  0.00     0.210 HD
ENDBRANCH   3  11
TORSDOF 2
ENDMDL
MODEL 5
REMARK VINA RESULT:      -4.2      4.405      5.275
REMARK  2 active torsions:
REMARK  status: ('A' for Active; 'I' for Inactive)
REMARK    1  A    between atoms: C2_2  and  C4_4 
REMARK    2  A    between atoms: C7_6  and  O9_7 
ROOT
ATOM      1  C4  <0> d   1      17.878   0.540  12.647  0.00  0.00     0.288 C 
ATOM      2  C6  <0> d   1      19.099   0.877  11.767  0.00  0.00     0.077 C 
ATOM      3  C7  <0> d   1      20.277   0.843  12.776  0.00  0.00     0.146 C 
ATOM      4  C10 <0> d   1      19.847  -0.306  13.720  0.00  0.00     0.265 C 
ATOM      5  N11 <0> d   1      18.377  -0.169  13.840  0.00  0.00    -0.059 N 
ATOM      6  H12 <0> d   1      18.151   0.358  14.671  0.00  0.00     0.278 HD
ATOM      7  H13 <0> d   1      17.953  -1.083  13.892  0.00  0.00     0.278 HD
ENDROOT
BRANCH   1   8
ATOM      8  C2  <0> d   1      16.926  -0.347  11.886  0.00  0.00     0.204 C 
ATOM      9  O1  <0> d   1      15.972   0.140  11.303  0.00  0.00    -0.646 OA
ATOM     10  O3  <0> d   1      17.113  -1.551  11.848  0.00  0.00    -0.646 OA
ENDBRANCH   1   8
BRANCH   3  11
ATOM     11  O9  <0> d   1      21.506   0.534  12.117  0.00  0.00    -0.394 OA
ATOM     12  H16 <0> d   1      21.403  -0.026  11.334  0.00  0.00     0.210 HD
ENDBRANCH   3  11
TORSDOF 2
ENDMDL
MODEL 6
REMARK VINA RESULT:      -3.9      5.683      6.477
REMARK  2 active torsions:
REMARK  status: ('A' for Active; 'I' for Inactive)
REMARK    1  A    between atoms: C2_2  and  C4_4 
REMARK    2  A    between atoms: C7_6  and  O9_7 
ROOT
ATOM      1  C4  <0> d   1      17.653   1.981  10.908  0.00  0.00     0.288 C 
ATOM      2  C6  <0> d   1      19.116   2.159  10.451  0.00  0.00     0.077 C 
ATOM      3  C7  <0> d   1      19.653   3.251  11.413  0.00  0.00     0.146 C 
ATOM      4  C10 <0> d   1      18.915   2.900  12.728  0.00  0.00     0.265 C 
ATOM      5  N11 <0> d   1      17.566   2.461  12.300  0.00  0.00    -0.059 N 
ATOM      6  H12 <0> d   1      16.922   3.236  12.355  0.00  0.00     0.278 HD
ATOM      7  H13 <0> d   1      17.248   1.711  12.896  0.00  0.00     0.278 HD
ENDROOT
BRANCH   1   8
ATOM      8  C2  <0> d   1      17.269   0.526  10.843  0.00  0.00     0.204 C 
ATOM      9  O1  <0> d   1      18.024  -0.282  10.330  0.00  0.00    -0.646 OA
ATOM     10  O3  <0> d   1      16.205   0.154  11.310  0.00  0.00    -0.646 OA
ENDBRANCH   1   8
BRANCH   3  11
ATOM     11  O9  <0> d   1      21.068   3.141  11.573  0.00  0.00    -0.394 OA
ATOM     12  H16 <0> d   1      21.344   2.876  12.462  0.00  0.00     0.210 HD
ENDBRANCH   3  11
TORSDOF 2
ENDMDL
MODEL 7
REMARK VINA RESULT:      -3.9      7.044      8.088
REMARK  2 active torsions:
REMARK  status: ('A' for Active; 'I' for Inactive)
REMARK    1  A    between atoms: C2_2  and  C4_4 
REMARK    2  A    between atoms: C7_6  and  O9_7 
ROOT
ATOM      1  C4  <0> d   1      18.560   1.407   9.658  0.00  0.00     0.288 C 
ATOM      2  C6  <0> d   1      19.196   1.798   8.308  0.00  0.00     0.077 C 
ATOM      3  C7  <0> d   1      18.922   0.556   7.421  0.00  0.00     0.146 C 
ATOM      4  C10 <0> d   1      17.527   0.112   7.926  0.00  0.00     0.265 C 
ATOM      5  N11 <0> d   1      17.556   0.362   9.386  0.00  0.00    -0.059 N 
ATOM      6  H12 <0> d   1      17.805  -0.486   9.872  0.00  0.00     0.278 HD
ATOM      7  H13 <0> d   1      16.648   0.677   9.694  0.00  0.00     0.278 HD
ENDROOT
BRANCH   1   8
ATOM      8  C2  <0> d   1      17.893   2.609  10.278  0.00  0.00     0.204 C 
ATOM      9  O1  <0> d   1      17.112   2.464  11.202  0.00  0.00    -0.646 OA
ATOM     10  O3  <0> d   1      18.139   3.727   9.857  0.00  0.00    -0.646 OA
ENDBRANCH   1   8
BRANCH   3  11
ATOM     11  O9  <0> d   1      18.876   0.915   6.038  0.00  0.00    -0.394 OA
ATOM     12  H16 <0> d   1      18.887   0.160   5.435  0.00  0.00     0.210 HD
ENDBRANCH   3  11
TORSDOF 2
ENDMDL
MODEL 8
REMARK VINA RESULT:      -3.9      6.039      7.109
REMARK  2 active torsions:
REMARK  status: ('A' for Active; 'I' for Inactive)
REMARK    1  A    between atoms: C2_2  and  C4_4 
REMARK    2  A    between atoms: C7_6  and  O9_7 
ROOT
ATOM      1  C4  <0> d   1      18.642   2.980   9.939  0.00  0.00     0.288 C 
ATOM      2  C6  <0> d   1      17.966   1.593   9.939  0.00  0.00     0.077 C 
ATOM      3  C7  <0> d   1      19.075   0.665  10.501  0.00  0.00     0.146 C 
ATOM      4  C10 <0> d   1      19.760   1.588  11.539  0.00  0.00     0.265 C 
ATOM      5  N11 <0> d   1      19.744   2.933  10.917  0.00  0.00    -0.059 N 
ATOM      6  H12 <0> d   1      20.623   3.103  10.452  0.00  0.00     0.278 HD
ATOM      7  H13 <0> d   1      19.595   3.633  11.628  0.00  0.00     0.278 HD
ENDROOT
BRANCH   1   8
ATOM      8  C2  <0> d   1      17.645   4.036  10.341  0.00  0.00     0.204 C 
ATOM      9  O1  <0> d   1      16.878   3.830  11.266  0.00  0.00    -0.646 OA
ATOM     10  O3  <0> d   1      17.609   5.100   9.746  0.00  0.00    -0.646 OA
ENDBRANCH   1   8
BRANCH   3  11
ATOM     11  O9  <0> d   1      18.507  -0.485  11.133  0.00  0.00    -0.394 OA
ATOM     12  H16 <0> d   1      18.726  -1.321  10.698  0.00  0.00     0.210 HD
ENDBRANCH   3  11
TORSDOF 2
ENDMDL
MODEL 9
REMARK VINA RESULT:      -3.8      1.520      3.851
REMARK  2 active torsions:
REMARK  status: ('A' for Active; 'I' for Inactive)
REMARK    1  A    between atoms: C2_2  and  C4_4 
REMARK    2  A    between atoms: C7_6  and  O9_7 
ROOT
ATOM      1  C4  <0> d   1      18.037   0.446  16.211  0.00  0.00     0.288 C 
ATOM      2  C6  <0> d   1      18.680   1.724  16.788  0.00  0.00     0.077 C 
ATOM      3  C7  <0> d   1      18.606   1.491  18.320  0.00  0.00     0.146 C 
ATOM      4  C10 <0> d   1      18.845  -0.036  18.416  0.00  0.00     0.265 C 
ATOM      5  N11 <0> d   1      18.142  -0.603  17.242  0.00  0.00    -0.059 N 
ATOM      6  H12 <0> d   1      17.220  -0.911  17.513  0.00  0.00     0.278 HD
ATOM      7  H13 <0> d   1      18.667  -1.384  16.877  0.00  0.00     0.278 HD
ENDROOT
BRANCH   1   8
ATOM      8  C2  <0> d   1      18.774   0.018  14.968  0.00  0.00     0.204 C 
ATOM      9  O1  <0> d   1      19.665   0.716  14.516  0.00  0.00    -0.646 OA
ATOM     10  O3  <0> d   1      18.482  -1.030  14.417  0.00  0.00    -0.646 OA
ENDBRANCH   1   8
BRANCH   3  11
ATOM     11  O9  <0> d   1      19.636   2.215  18.997  0.00  0.00    -0.394 OA
ATOM     12  H16 <0> d   1      19.314   2.968  19.512  0.00  0.00     0.210 HD
ENDBRANCH   3  11
TORSDOF 2
ENDMDL
