MODEL 1
REMARK VINA RESULT:      -8.6      0.000      0.000
REMARK  2 active torsions:
REMARK  status: ('A' for Active; 'I' for Inactive)
REMARK    1  A    between atoms: C3_3  and  O4_4 
REMARK    2  A    between atoms: C15_13  and  O16_14 
ROOT
ATOM      1  C1  <0> d   1      17.318   0.106   9.081  0.00  0.00     0.015 C 
ATOM      2  C2  <0> d   1      18.289  -0.198   9.668  0.00  0.00    -0.078 C 
ATOM      3  C3  <0> d   1      19.506  -0.578  10.405  0.00  0.00     0.128 C 
ATOM      4  C5  <0> d   1      19.443  -2.072  10.810  0.00  0.00     0.052 C 
ATOM      5  C6  <0> d   1      19.406  -2.103  12.362  0.00  0.00     0.010 C 
ATOM      6  C7  <0> d   1      18.837  -0.726  12.720  0.00  0.00     0.002 C 
ATOM      7  C9  <0> d   1      19.147  -0.219  14.113  0.00  0.00    -0.001 C 
ATOM      8  C11 <0> d   1      18.527  -1.106  15.193  0.00  0.00     0.010 C 
ATOM      9  C12 <0> d   1      19.043  -0.635  16.552  0.00  0.00     0.039 C 
ATOM     10  C13 <0> d   1      18.909   0.858  16.700  0.00  0.00    -0.049 A 
ATOM     11  C14 <0> d   1      19.026   1.392  17.975  0.00  0.00     0.044 A 
ATOM     12  C15 <0> d   1      18.921   2.757  18.181  0.00  0.00     0.066 A 
ATOM     13  C17 <0> d   1      18.699   3.600  17.102  0.00  0.00     0.037 A 
ATOM     14  C18 <0> d   1      18.582   3.069  15.835  0.00  0.00     0.011 A 
ATOM     15  C19 <0> d   1      18.681   1.698  15.629  0.00  0.00    -0.047 A 
ATOM     16  C20 <0> d   1      18.542   1.187  14.223  0.00  0.00     0.023 C 
ATOM     17  C22 <0> d   1      19.156   2.142  13.209  0.00  0.00     0.010 C 
ATOM     18  C23 <0> d   1      19.001   1.589  11.779  0.00  0.00     0.014 C 
ATOM     19  C24 <0> d   1      19.590   0.193  11.717  0.00  0.00     0.003 C 
ATOM     20  C25 <0> d   1      21.046   0.228  12.189  0.00  0.00     0.020 C 
ENDROOT
BRANCH   3  21
ATOM     21  O4  <0> d   1      20.664  -0.326   9.607  0.00  0.00    -0.377 OA
ATOM     22  H27 <0> d   1      21.225   0.386   9.942  0.00  0.00     0.211 HD
ENDBRANCH   3  21
BRANCH  12  23
ATOM     23  O16 <0> d   1      19.036   3.270  19.434  0.00  0.00    -0.361 OA
ATOM     24  H37 <0> d   1      18.848   4.216  19.491  0.00  0.00     0.217 HD
ENDBRANCH  12  23
TORSDOF 2
ENDMDL
MODEL 2
REMARK VINA RESULT:      -8.2      2.471      7.407
REMARK  2 active torsions:
REMARK  status: ('A' for Active; 'I' for Inactive)
REMARK    1  A    between atoms: C3_3  and  O4_4 
REMARK    2  A    between atoms: C15_13  and  O16_14 
ROOT
ATOM      1  C1  <0> d   1      17.182  -0.163  16.193  0.00  0.00     0.015 C 
ATOM      2  C2  <0> d   1      17.827   0.315  15.337  0.00  0.00    -0.078 C 
ATOM      3  C3  <0> d   1      18.637   0.914  14.262  0.00  0.00     0.128 C 
ATOM      4  C5  <0> d   1      17.786   1.917  13.444  0.00  0.00     0.052 C 
ATOM      5  C6  <0> d   1      17.683   1.334  12.008  0.00  0.00     0.010 C 
ATOM      6  C7  <0> d   1      17.909  -0.166  12.229  0.00  0.00     0.002 C 
ATOM      7  C9  <0> d   1      18.390  -0.951  11.027  0.00  0.00    -0.001 C 
ATOM      8  C11 <0> d   1      17.360  -0.951   9.898  0.00  0.00     0.010 C 
ATOM      9  C12 <0> d   1      17.998  -1.597   8.668  0.00  0.00     0.039 C 
ATOM     10  C13 <0> d   1      18.663  -2.902   9.020  0.00  0.00    -0.049 A 
ATOM     11  C14 <0> d   1      18.997  -3.756   7.978  0.00  0.00     0.044 A 
ATOM     12  C15 <0> d   1      19.618  -4.967   8.231  0.00  0.00     0.066 A 
ATOM     13  C17 <0> d   1      19.909  -5.331   9.537  0.00  0.00     0.037 A 
ATOM     14  C18 <0> d   1      19.575  -4.484  10.572  0.00  0.00     0.011 A 
ATOM     15  C19 <0> d   1      18.947  -3.271  10.319  0.00  0.00    -0.047 A 
ATOM     16  C20 <0> d   1      18.610  -2.396  11.494  0.00  0.00     0.023 C 
ATOM     17  C22 <0> d   1      19.669  -2.477  12.585  0.00  0.00     0.010 C 
ATOM     18  C23 <0> d   1      19.297  -1.568  13.771  0.00  0.00     0.014 C 
ATOM     19  C24 <0> d   1      19.067  -0.157  13.266  0.00  0.00     0.003 C 
ATOM     20  C25 <0> d   1      20.307   0.326  12.510  0.00  0.00     0.020 C 
ENDROOT
BRANCH   3  21
ATOM     21  O4  <0> d   1      19.782   1.567  14.813  0.00  0.00    -0.377 OA
ATOM     22  H27 <0> d   1      19.835   2.510  14.606  0.00  0.00     0.211 HD
ENDBRANCH   3  21
BRANCH  12  23
ATOM     23  O16 <0> d   1      19.940  -5.797   7.204  0.00  0.00    -0.361 OA
ATOM     24  H37 <0> d   1      20.031  -5.350   6.351  0.00  0.00     0.217 HD
ENDBRANCH  12  23
TORSDOF 2
ENDMDL
MODEL 3
REMARK VINA RESULT:      -8.1      3.092      8.405
REMARK  2 active torsions:
REMARK  status: ('A' for Active; 'I' for Inactive)
REMARK    1  A    between atoms: C3_3  and  O4_4 
REMARK    2  A    between atoms: C15_13  and  O16_14 
ROOT
ATOM      1  C1  <0> d   1      17.387   0.033  13.839  0.00  0.00     0.015 C 
ATOM      2  C2  <0> d   1      18.363   0.278  13.232  0.00  0.00    -0.078 C 
ATOM      3  C3  <0> d   1      19.586   0.583  12.471  0.00  0.00     0.128 C 
ATOM      4  C5  <0> d   1      19.580   2.065  12.019  0.00  0.00     0.052 C 
ATOM      5  C6  <0> d   1      19.526   2.049  10.467  0.00  0.00     0.010 C 
ATOM      6  C7  <0> d   1      18.896   0.686  10.159  0.00  0.00     0.002 C 
ATOM      7  C9  <0> d   1      19.168   0.122   8.779  0.00  0.00    -0.001 C 
ATOM      8  C11 <0> d   1      18.573   1.000   7.679  0.00  0.00     0.010 C 
ATOM      9  C12 <0> d   1      19.052   0.465   6.330  0.00  0.00     0.039 C 
ATOM     10  C13 <0> d   1      18.855  -1.025   6.231  0.00  0.00    -0.049 A 
ATOM     11  C14 <0> d   1      18.934  -1.603   4.972  0.00  0.00     0.044 A 
ATOM     12  C15 <0> d   1      18.771  -2.969   4.812  0.00  0.00     0.066 A 
ATOM     13  C17 <0> d   1      18.527  -3.767   5.920  0.00  0.00     0.037 A 
ATOM     14  C18 <0> d   1      18.447  -3.191   7.170  0.00  0.00     0.011 A 
ATOM     15  C19 <0> d   1      18.605  -1.821   7.330  0.00  0.00    -0.047 A 
ATOM     16  C20 <0> d   1      18.504  -1.260   8.721  0.00  0.00     0.023 C 
ATOM     17  C22 <0> d   1      19.090  -2.207   9.759  0.00  0.00     0.010 C 
ATOM     18  C23 <0> d   1      18.975  -1.603  11.172  0.00  0.00     0.014 C 
ATOM     19  C24 <0> d   1      19.622  -0.231  11.182  0.00  0.00     0.003 C 
ATOM     20  C25 <0> d   1      21.069  -0.343  10.697  0.00  0.00     0.020 C 
ENDROOT
BRANCH   3  21
ATOM     21  O4  <0> d   1      20.742   0.309  13.263  0.00  0.00    -0.377 OA
ATOM     22  H27 <0> d   1      20.542   0.011  14.161  0.00  0.00     0.211 HD
ENDBRANCH   3  21
BRANCH  12  23
ATOM     23  O16 <0> d   1      18.849  -3.525   3.574  0.00  0.00    -0.361 OA
ATOM     24  H37 <0> d   1      19.541  -3.146   3.016  0.00  0.00     0.217 HD
ENDBRANCH  12  23
TORSDOF 2
ENDMDL
MODEL 4
REMARK VINA RESULT:      -8.1      1.937      3.867
REMARK  2 active torsions:
REMARK  status: ('A' for Active; 'I' for Inactive)
REMARK    1  A    between atoms: C3_3  and  O4_4 
REMARK    2  A    between atoms: C15_13  and  O16_14 
ROOT
ATOM      1  C1  <0> d   1      19.628  -2.415   6.986  0.00  0.00     0.015 C 
ATOM      2  C2  <0> d   1      18.950  -1.535   7.367  0.00  0.00    -0.078 C 
ATOM      3  C3  <0> d   1      18.100  -0.432   7.845  0.00  0.00     0.128 C 
ATOM      4  C5  <0> d   1      18.766   0.932   7.535  0.00  0.00     0.052 C 
ATOM      5  C6  <0> d   1      19.082   1.587   8.907  0.00  0.00     0.010 C 
ATOM      6  C7  <0> d   1      19.171   0.383   9.850  0.00  0.00     0.002 C 
ATOM      7  C9  <0> d   1      18.947   0.671  11.321  0.00  0.00    -0.001 C 
ATOM      8  C11 <0> d   1      20.022   1.597  11.889  0.00  0.00     0.010 C 
ATOM      9  C12 <0> d   1      19.617   1.983  13.311  0.00  0.00     0.039 C 
ATOM     10  C13 <0> d   1      19.228   0.770  14.117  0.00  0.00    -0.049 A 
ATOM     11  C14 <0> d   1      19.152   0.911  15.495  0.00  0.00     0.044 A 
ATOM     12  C15 <0> d   1      18.792  -0.161  16.294  0.00  0.00     0.066 A 
ATOM     13  C17 <0> d   1      18.505  -1.387  15.712  0.00  0.00     0.037 A 
ATOM     14  C18 <0> d   1      18.582  -1.526  14.342  0.00  0.00     0.011 A 
ATOM     15  C19 <0> d   1      18.949  -0.452  13.541  0.00  0.00    -0.047 A 
ATOM     16  C20 <0> d   1      19.014  -0.674  12.056  0.00  0.00     0.023 C 
ATOM     17  C22 <0> d   1      17.932  -1.630  11.576  0.00  0.00     0.010 C 
ATOM     18  C23 <0> d   1      18.023  -1.833  10.052  0.00  0.00     0.014 C 
ATOM     19  C24 <0> d   1      17.975  -0.483   9.364  0.00  0.00     0.003 C 
ATOM     20  C25 <0> d   1      16.710   0.266   9.791  0.00  0.00     0.020 C 
ENDROOT
BRANCH   3  21
ATOM     21  O4  <0> d   1      16.809  -0.506   7.239  0.00  0.00    -0.377 OA
ATOM     22  H27 <0> d   1      16.300   0.315   7.294  0.00  0.00     0.211 HD
ENDBRANCH   3  21
BRANCH  12  23
ATOM     23  O16 <0> d   1      18.722  -0.014  17.643  0.00  0.00    -0.361 OA
ATOM     24  H37 <0> d   1      18.244  -0.724  18.092  0.00  0.00     0.217 HD
ENDBRANCH  12  23
TORSDOF 2
ENDMDL
MODEL 5
REMARK VINA RESULT:      -7.9      2.967      7.690
REMARK  2 active torsions:
REMARK  status: ('A' for Active; 'I' for Inactive)
REMARK    1  A    between atoms: C3_3  and  O4_4 
REMARK    2  A    between atoms: C15_13  and  O16_14 
ROOT
ATOM      1  C1  <0> d   1      20.248   5.115  12.950  0.00  0.00     0.015 C 
ATOM      2  C2  <0> d   1      19.484   4.224  12.962  0.00  0.00    -0.078 C 
ATOM      3  C3  <0> d   1      18.525   3.106  12.976  0.00  0.00     0.128 C 
ATOM      4  C5  <0> d   1      19.068   1.944  13.844  0.00  0.00     0.052 C 
ATOM      5  C6  <0> d   1      19.291   0.746  12.880  0.00  0.00     0.010 C 
ATOM      6  C7  <0> d   1      19.470   1.428  11.519  0.00  0.00     0.002 C 
ATOM      7  C9  <0> d   1      19.187   0.572  10.303  0.00  0.00    -0.001 C 
ATOM      8  C11 <0> d   1      20.159  -0.603  10.196  0.00  0.00     0.010 C 
ATOM      9  C12 <0> d   1      19.688  -1.511   9.060  0.00  0.00     0.039 C 
ATOM     10  C13 <0> d   1      19.394  -0.719   7.813  0.00  0.00    -0.049 A 
ATOM     11  C14 <0> d   1      19.274  -1.418   6.620  0.00  0.00     0.044 A 
ATOM     12  C15 <0> d   1      18.997  -0.752   5.438  0.00  0.00     0.066 A 
ATOM     13  C17 <0> d   1      18.837   0.626   5.446  0.00  0.00     0.037 A 
ATOM     14  C18 <0> d   1      18.958   1.320   6.631  0.00  0.00     0.011 A 
ATOM     15  C19 <0> d   1      19.242   0.652   7.816  0.00  0.00    -0.047 A 
ATOM     16  C20 <0> d   1      19.361   1.470   9.072  0.00  0.00     0.023 C 
ATOM     17  C22 <0> d   1      18.382   2.636   9.085  0.00  0.00     0.010 C 
ATOM     18  C23 <0> d   1      18.527   3.451  10.384  0.00  0.00     0.014 C 
ATOM     19  C24 <0> d   1      18.370   2.526  11.575  0.00  0.00     0.003 C 
ATOM     20  C25 <0> d   1      17.032   1.788  11.479  0.00  0.00     0.020 C 
ENDROOT
BRANCH   3  21
ATOM     21  O4  <0> d   1      17.259   3.548  13.472  0.00  0.00    -0.377 OA
ATOM     22  H27 <0> d   1      17.243   3.702  14.426  0.00  0.00     0.211 HD
ENDBRANCH   3  21
BRANCH  12  23
ATOM     23  O16 <0> d   1      18.882  -1.445   4.275  0.00  0.00    -0.361 OA
ATOM     24  H37 <0> d   1      19.645  -1.357   3.687  0.00  0.00     0.217 HD
ENDBRANCH  12  23
TORSDOF 2
ENDMDL
MODEL 6
REMARK VINA RESULT:      -7.9      1.855      6.543
REMARK  2 active torsions:
REMARK  status: ('A' for Active; 'I' for Inactive)
REMARK    1  A    between atoms: C3_3  and  O4_4 
REMARK    2  A    between atoms: C15_13  and  O16_14 
ROOT
ATOM      1  C1  <0> d   1      19.614   2.584  17.262  0.00  0.00     0.015 C 
ATOM      2  C2  <0> d   1      18.990   1.726  16.757  0.00  0.00    -0.078 C 
ATOM      3  C3  <0> d   1      18.208   0.651  16.125  0.00  0.00     0.128 C 
ATOM      4  C5  <0> d   1      18.932  -0.708  16.292  0.00  0.00     0.052 C 
ATOM      5  C6  <0> d   1      19.315  -1.179  14.862  0.00  0.00     0.010 C 
ATOM      6  C7  <0> d   1      19.370   0.133  14.072  0.00  0.00     0.002 C 
ATOM      7  C9  <0> d   1      19.199   0.014  12.571  0.00  0.00    -0.001 C 
ATOM      8  C11 <0> d   1      20.333  -0.786  11.931  0.00  0.00     0.010 C 
ATOM      9  C12 <0> d   1      19.984  -1.015  10.461  0.00  0.00     0.039 C 
ATOM     10  C13 <0> d   1      19.557   0.266   9.794  0.00  0.00    -0.049 A 
ATOM     11  C14 <0> d   1      19.524   0.289   8.407  0.00  0.00     0.044 A 
ATOM     12  C15 <0> d   1      19.132   1.432   7.730  0.00  0.00     0.066 A 
ATOM     13  C17 <0> d   1      18.769   2.564   8.445  0.00  0.00     0.037 A 
ATOM     14  C18 <0> d   1      18.805   2.541   9.823  0.00  0.00     0.011 A 
ATOM     15  C19 <0> d   1      19.202   1.396  10.502  0.00  0.00    -0.047 A 
ATOM     16  C20 <0> d   1      19.219   1.440  12.004  0.00  0.00     0.023 C 
ATOM     17  C22 <0> d   1      18.078   2.280  12.559  0.00  0.00     0.010 C 
ATOM     18  C23 <0> d   1      18.119   2.303  14.099  0.00  0.00     0.014 C 
ATOM     19  C24 <0> d   1      18.120   0.879  14.619  0.00  0.00     0.003 C 
ATOM     20  C25 <0> d   1      16.905   0.129  14.066  0.00  0.00     0.020 C 
ENDROOT
BRANCH   3  21
ATOM     21  O4  <0> d   1      16.899   0.592  16.694  0.00  0.00    -0.377 OA
ATOM     22  H27 <0> d   1      16.868   0.174  17.566  0.00  0.00     0.211 HD
ENDBRANCH   3  21
BRANCH  12  23
ATOM     23  O16 <0> d   1      19.104   1.445   6.371  0.00  0.00    -0.361 OA
ATOM     24  H37 <0> d   1      19.308   0.591   5.966  0.00  0.00     0.217 HD
ENDBRANCH  12  23
TORSDOF 2
ENDMDL
MODEL 7
REMARK VINA RESULT:      -7.9      3.425      5.492
REMARK  2 active torsions:
REMARK  status: ('A' for Active; 'I' for Inactive)
REMARK    1  A    between atoms: C3_3  and  O4_4 
REMARK    2  A    between atoms: C15_13  and  O16_14 
ROOT
ATOM      1  C1  <0> d   1      15.191  -5.723   8.480  0.00  0.00     0.015 C 
ATOM      2  C2  <0> d   1      16.224  -5.713   9.038  0.00  0.00    -0.078 C 
ATOM      3  C3  <0> d   1      17.520  -5.701   9.738  0.00  0.00     0.128 C 
ATOM      4  C5  <0> d   1      17.339  -6.148  11.210  0.00  0.00     0.052 C 
ATOM      5  C6  <0> d   1      17.709  -4.922  12.089  0.00  0.00     0.010 C 
ATOM      6  C7  <0> d   1      17.471  -3.739  11.145  0.00  0.00     0.002 C 
ATOM      7  C9  <0> d   1      18.212  -2.461  11.481  0.00  0.00    -0.001 C 
ATOM      8  C11 <0> d   1      17.772  -1.884  12.826  0.00  0.00     0.010 C 
ATOM      9  C12 <0> d   1      18.694  -0.714  13.169  0.00  0.00     0.039 C 
ATOM     10  C13 <0> d   1      18.834   0.231  12.005  0.00  0.00    -0.049 A 
ATOM     11  C14 <0> d   1      19.363   1.489  12.257  0.00  0.00     0.044 A 
ATOM     12  C15 <0> d   1      19.527   2.404  11.230  0.00  0.00     0.066 A 
ATOM     13  C17 <0> d   1      19.159   2.060   9.938  0.00  0.00     0.037 A 
ATOM     14  C18 <0> d   1      18.632   0.811   9.688  0.00  0.00     0.011 A 
ATOM     15  C19 <0> d   1      18.462  -0.105  10.719  0.00  0.00    -0.047 A 
ATOM     16  C20 <0> d   1      17.881  -1.448  10.377  0.00  0.00     0.023 C 
ATOM     17  C22 <0> d   1      18.343  -1.936   9.011  0.00  0.00     0.010 C 
ATOM     18  C23 <0> d   1      17.733  -3.314   8.691  0.00  0.00     0.014 C 
ATOM     19  C24 <0> d   1      18.064  -4.278   9.814  0.00  0.00     0.003 C 
ATOM     20  C25 <0> d   1      19.581  -4.329  10.016  0.00  0.00     0.020 C 
ENDROOT
BRANCH   3  21
ATOM     21  O4  <0> d   1      18.451  -6.553   9.070  0.00  0.00    -0.377 OA
ATOM     22  H27 <0> d   1      19.292  -6.658   9.534  0.00  0.00     0.211 HD
ENDBRANCH   3  21
BRANCH  12  23
ATOM     23  O16 <0> d   1      20.046   3.633  11.488  0.00  0.00    -0.361 OA
ATOM     24  H37 <0> d   1      19.497   4.365  11.175  0.00  0.00     0.217 HD
ENDBRANCH  12  23
TORSDOF 2
ENDMDL
MODEL 8
REMARK VINA RESULT:      -7.8      1.967      6.668
REMARK  2 active torsions:
REMARK  status: ('A' for Active; 'I' for Inactive)
REMARK    1  A    between atoms: C3_3  and  O4_4 
REMARK    2  A    between atoms: C15_13  and  O16_14 
ROOT
ATOM      1  C1  <0> d   1      16.140  -0.576  16.974  0.00  0.00     0.015 C 
ATOM      2  C2  <0> d   1      17.246  -0.373  16.636  0.00  0.00    -0.078 C 
ATOM      3  C3  <0> d   1      18.633  -0.119  16.211  0.00  0.00     0.128 C 
ATOM      4  C5  <0> d   1      19.072   1.304  16.636  0.00  0.00     0.052 C 
ATOM      5  C6  <0> d   1      19.326   2.095  15.324  0.00  0.00     0.010 C 
ATOM      6  C7  <0> d   1      18.462   1.349  14.301  0.00  0.00     0.002 C 
ATOM      7  C9  <0> d   1      18.860   1.512  12.849  0.00  0.00    -0.001 C 
ATOM      8  C11 <0> d   1      18.724   2.960  12.380  0.00  0.00     0.010 C 
ATOM      9  C12 <0> d   1      19.320   3.065  10.976  0.00  0.00     0.039 C 
ATOM     10  C13 <0> d   1      18.795   1.977  10.076  0.00  0.00    -0.049 A 
ATOM     11  C14 <0> d   1      18.983   2.126   8.710  0.00  0.00     0.044 A 
ATOM     12  C15 <0> d   1      18.533   1.159   7.827  0.00  0.00     0.066 A 
ATOM     13  C17 <0> d   1      17.889   0.030   8.313  0.00  0.00     0.037 A 
ATOM     14  C18 <0> d   1      17.702  -0.116   9.671  0.00  0.00     0.011 A 
ATOM     15  C19 <0> d   1      18.149   0.856  10.556  0.00  0.00    -0.047 A 
ATOM     16  C20 <0> d   1      17.910   0.634  12.023  0.00  0.00     0.023 C 
ATOM     17  C22 <0> d   1      18.033  -0.835  12.402  0.00  0.00     0.010 C 
ATOM     18  C23 <0> d   1      17.788  -1.030  13.910  0.00  0.00     0.014 C 
ATOM     19  C24 <0> d   1      18.728  -0.132  14.689  0.00  0.00     0.003 C 
ATOM     20  C25 <0> d   1      20.174  -0.422  14.278  0.00  0.00     0.020 C 
ENDROOT
BRANCH   3  21
ATOM     21  O4  <0> d   1      19.508  -1.099  16.771  0.00  0.00    -0.377 OA
ATOM     22  H27 <0> d   1      19.985  -0.798  17.557  0.00  0.00     0.211 HD
ENDBRANCH   3  21
BRANCH  12  23
ATOM     23  O16 <0> d   1      18.720   1.315   6.490  0.00  0.00    -0.361 OA
ATOM     24  H37 <0> d   1      19.629   1.159   6.199  0.00  0.00     0.217 HD
ENDBRANCH  12  23
TORSDOF 2
ENDMDL
MODEL 9
REMARK VINA RESULT:      -7.8      2.634      6.984
REMARK  2 active torsions:
REMARK  status: ('A' for Active; 'I' for Inactive)
REMARK    1  A    between atoms: C3_3  and  O4_4 
REMARK    2  A    between atoms: C15_13  and  O16_14 
ROOT
ATOM      1  C1  <0> d   1      21.745   5.919  15.312  0.00  0.00     0.015 C 
ATOM      2  C2  <0> d   1      20.580   5.787  15.238  0.00  0.00    -0.078 C 
ATOM      3  C3  <0> d   1      19.120   5.622  15.146  0.00  0.00     0.128 C 
ATOM      4  C5  <0> d   1      18.603   4.749  16.317  0.00  0.00     0.052 C 
ATOM      5  C6  <0> d   1      18.030   3.455  15.679  0.00  0.00     0.010 C 
ATOM      6  C7  <0> d   1      18.777   3.370  14.343  0.00  0.00     0.002 C 
ATOM      7  C9  <0> d   1      18.109   2.552  13.257  0.00  0.00    -0.001 C 
ATOM      8  C11 <0> d   1      17.992   1.078  13.646  0.00  0.00     0.010 C 
ATOM      9  C12 <0> d   1      17.146   0.371  12.588  0.00  0.00     0.039 C 
ATOM     10  C13 <0> d   1      17.623   0.701  11.197  0.00  0.00    -0.049 A 
ATOM     11  C14 <0> d   1      17.178  -0.102  10.157  0.00  0.00     0.044 A 
ATOM     12  C15 <0> d   1      17.571   0.150   8.853  0.00  0.00     0.066 A 
ATOM     13  C17 <0> d   1      18.415   1.217   8.584  0.00  0.00     0.037 A 
ATOM     14  C18 <0> d   1      18.859   2.013   9.619  0.00  0.00     0.011 A 
ATOM     15  C19 <0> d   1      18.469   1.757  10.927  0.00  0.00    -0.047 A 
ATOM     16  C20 <0> d   1      18.990   2.664  12.006  0.00  0.00     0.023 C 
ATOM     17  C22 <0> d   1      19.106   4.105  11.529  0.00  0.00     0.010 C 
ATOM     18  C23 <0> d   1      19.638   5.009  12.657  0.00  0.00     0.014 C 
ATOM     19  C24 <0> d   1      18.755   4.854  13.880  0.00  0.00     0.003 C 
ATOM     20  C25 <0> d   1      17.302   5.159  13.506  0.00  0.00     0.020 C 
ENDROOT
BRANCH   3  21
ATOM     21  O4  <0> d   1      18.477   6.898  15.155  0.00  0.00    -0.377 OA
ATOM     22  H27 <0> d   1      18.019   7.102  15.981  0.00  0.00     0.211 HD
ENDBRANCH   3  21
BRANCH  12  23
ATOM     23  O16 <0> d   1      17.130  -0.643   7.842  0.00  0.00    -0.361 OA
ATOM     24  H37 <0> d   1      17.710  -1.392   7.648  0.00  0.00     0.217 HD
ENDBRANCH  12  23
TORSDOF 2
ENDMDL
