MODEL 1
REMARK VINA RESULT:      -5.3      0.000      0.000
REMARK  2 active torsions:
REMARK  status: ('A' for Active; 'I' for Inactive)
REMARK    1  A    between atoms: C8_8  and  C9_9 
REMARK    2  A    between atoms: C10_10  and  C11_11 
ROOT
ATOM      1  C1  <0> d   1      20.762  -0.520  10.758  0.00  0.00     0.151 C 
ATOM      2  N2  <0> d   1      19.380  -0.273  11.177  0.00  0.00    -0.372 N 
ATOM      3  C3  <0> d   1      18.919  -0.666  12.517  0.00  0.00     0.125 C 
ATOM      4  C4  <0> d   1      17.523  -1.285  12.359  0.00  0.00     0.039 C 
ATOM      5  C5  <0> d   1      16.595  -0.238  11.740  0.00  0.00     0.123 C 
ATOM      6  N6  <0> d   1      17.206   0.356  10.557  0.00  0.00    -0.376 N 
ATOM      7  H7  <0> d   1      16.627   0.790   9.911  0.00  0.00     0.161 HD
ATOM      8  C8  <0> d   1      18.485   0.343  10.323  0.00  0.00     0.098 C 
ENDROOT
BRANCH   8   9
ATOM      9  C9  <0> d   1      18.990   0.991   9.110  0.00  0.00     0.049 C 
ATOM     10  C10 <0> d   1      19.006   2.340   9.021  0.00  0.00     0.022 C 
BRANCH  10  11
ATOM     11  C11 <0> d   1      18.760   3.154  10.209  0.00  0.00     0.004 A 
ATOM     12  S15 <0> d   1      19.851   3.317  11.579  0.00  0.00    -0.102 SA
ATOM     13  C14 <0> d   1      18.773   4.376  12.371  0.00  0.00     0.050 A 
ATOM     14  C13 <0> d   1      17.671   4.574  11.641  0.00  0.00     0.008 A 
ATOM     15  C12 <0> d   1      17.640   3.907  10.438  0.00  0.00     0.019 A 
ENDBRANCH  10  11
ENDBRANCH   8   9
TORSDOF 2
ENDMDL
MODEL 2
REMARK VINA RESULT:      -5.2      1.822      3.157
REMARK  2 active torsions:
REMARK  status: ('A' for Active; 'I' for Inactive)
REMARK    1  A    between atoms: C8_8  and  C9_9 
REMARK    2  A    between atoms: C10_10  and  C11_11 
ROOT
ATOM      1  C1  <0> d   1      17.965  -1.696  10.545  0.00  0.00     0.151 C 
ATOM      2  N2  <0> d   1      18.311  -0.550   9.701  0.00  0.00    -0.372 N 
ATOM      3  C3  <0> d   1      17.357  -0.032   8.709  0.00  0.00     0.125 C 
ATOM      4  C4  <0> d   1      18.148   0.279   7.429  0.00  0.00     0.039 C 
ATOM      5  C5  <0> d   1      19.220   1.320   7.762  0.00  0.00     0.123 C 
ATOM      6  N6  <0> d   1      19.977   0.919   8.943  0.00  0.00    -0.376 N 
ATOM      7  H7  <0> d   1      20.854   1.309   9.078  0.00  0.00     0.161 HD
ATOM      8  C8  <0> d   1      19.539   0.073   9.827  0.00  0.00     0.098 C 
ENDROOT
BRANCH   8   9
ATOM      9  C9  <0> d   1      20.379  -0.240  10.985  0.00  0.00     0.049 C 
ATOM     10  C10 <0> d   1      20.495   0.651  11.996  0.00  0.00     0.022 C 
BRANCH  10  11
ATOM     11  C11 <0> d   1      19.603   1.806  12.058  0.00  0.00     0.004 A 
ATOM     12  S15 <0> d   1      17.932   1.777  12.607  0.00  0.00    -0.102 SA
ATOM     13  C14 <0> d   1      17.763   3.452  12.333  0.00  0.00     0.050 A 
ATOM     14  C13 <0> d   1      18.895   3.977  11.854  0.00  0.00     0.008 A 
ATOM     15  C12 <0> d   1      19.930   3.084  11.693  0.00  0.00     0.019 A 
ENDBRANCH  10  11
ENDBRANCH   8   9
TORSDOF 2
ENDMDL
MODEL 3
REMARK VINA RESULT:      -5.2      1.693      2.458
REMARK  2 active torsions:
REMARK  status: ('A' for Active; 'I' for Inactive)
REMARK    1  A    between atoms: C8_8  and  C9_9 
REMARK    2  A    between atoms: C10_10  and  C11_11 
ROOT
ATOM      1  C1  <0> d   1      17.353  -0.416   8.042  0.00  0.00     0.151 C 
ATOM      2  N2  <0> d   1      18.532  -0.725   8.853  0.00  0.00    -0.372 N 
ATOM      3  C3  <0> d   1      18.724  -2.069   9.419  0.00  0.00     0.125 C 
ATOM      4  C4  <0> d   1      19.229  -1.893  10.859  0.00  0.00     0.039 C 
ATOM      5  C5  <0> d   1      20.547  -1.116  10.820  0.00  0.00     0.123 C 
ATOM      6  N6  <0> d   1      20.413   0.083  10.001  0.00  0.00    -0.376 N 
ATOM      7  H7  <0> d   1      21.048   0.802  10.136  0.00  0.00     0.161 HD
ATOM      8  C8  <0> d   1      19.493   0.238   9.096  0.00  0.00     0.098 C 
ENDROOT
BRANCH   8   9
ATOM      9  C9  <0> d   1      19.468   1.479   8.318  0.00  0.00     0.049 C 
ATOM     10  C10 <0> d   1      18.995   2.617   8.875  0.00  0.00     0.022 C 
BRANCH  10  11
ATOM     11  C11 <0> d   1      18.743   2.677  10.313  0.00  0.00     0.004 A 
ATOM     12  S15 <0> d   1      19.858   3.307  11.519  0.00  0.00    -0.102 SA
ATOM     13  C14 <0> d   1      18.756   2.975  12.779  0.00  0.00     0.050 A 
ATOM     14  C13 <0> d   1      17.636   2.421  12.304  0.00  0.00     0.008 A 
ATOM     15  C12 <0> d   1      17.605   2.245  10.939  0.00  0.00     0.019 A 
ENDBRANCH  10  11
ENDBRANCH   8   9
TORSDOF 2
ENDMDL
MODEL 4
REMARK VINA RESULT:      -5.2      3.151      5.538
REMARK  2 active torsions:
REMARK  status: ('A' for Active; 'I' for Inactive)
REMARK    1  A    between atoms: C8_8  and  C9_9 
REMARK    2  A    between atoms: C10_10  and  C11_11 
ROOT
ATOM      1  C1  <0> d   1      20.724   0.265  11.646  0.00  0.00     0.151 C 
ATOM      2  N2  <0> d   1      19.634  -0.008  10.707  0.00  0.00    -0.372 N 
ATOM      3  C3  <0> d   1      19.865   0.032   9.255  0.00  0.00     0.125 C 
ATOM      4  C4  <0> d   1      18.665   0.749   8.618  0.00  0.00     0.039 C 
ATOM      5  C5  <0> d   1      17.396  -0.036   8.955  0.00  0.00     0.123 C 
ATOM      6  N6  <0> d   1      17.331  -0.321  10.384  0.00  0.00    -0.376 N 
ATOM      7  H7  <0> d   1      16.466  -0.529  10.770  0.00  0.00     0.161 HD
ATOM      8  C8  <0> d   1      18.368  -0.318  11.167  0.00  0.00     0.098 C 
ENDROOT
BRANCH   8   9
ATOM      9  C9  <0> d   1      18.186  -0.640  12.585  0.00  0.00     0.049 C 
ATOM     10  C10 <0> d   1      18.143  -1.931  12.984  0.00  0.00     0.022 C 
BRANCH  10  11
ATOM     11  C11 <0> d   1      18.522  -2.996  12.058  0.00  0.00     0.004 A 
ATOM     12  S15 <0> d   1      17.407  -3.949  11.089  0.00  0.00    -0.102 SA
ATOM     13  C14 <0> d   1      18.690  -4.842  10.405  0.00  0.00     0.050 A 
ATOM     14  C13 <0> d   1      19.868  -4.439  10.892  0.00  0.00     0.008 A 
ATOM     15  C12 <0> d   1      19.801  -3.416  11.811  0.00  0.00     0.019 A 
ENDBRANCH  10  11
ENDBRANCH   8   9
TORSDOF 2
ENDMDL
MODEL 5
REMARK VINA RESULT:      -5.1      1.807      2.168
REMARK  2 active torsions:
REMARK  status: ('A' for Active; 'I' for Inactive)
REMARK    1  A    between atoms: C8_8  and  C9_9 
REMARK    2  A    between atoms: C10_10  and  C11_11 
ROOT
ATOM      1  C1  <0> d   1      20.375   0.008  11.258  0.00  0.00     0.151 C 
ATOM      2  N2  <0> d   1      19.507   0.240  12.414  0.00  0.00    -0.372 N 
ATOM      3  C3  <0> d   1      20.014   0.061  13.783  0.00  0.00     0.125 C 
ATOM      4  C4  <0> d   1      18.923  -0.662  14.587  0.00  0.00     0.039 C 
ATOM      5  C5  <0> d   1      17.659   0.200  14.574  0.00  0.00     0.123 C 
ATOM      6  N6  <0> d   1      17.333   0.614  13.214  0.00  0.00    -0.376 N 
ATOM      7  H7  <0> d   1      16.423   0.890  13.026  0.00  0.00     0.161 HD
ATOM      8  C8  <0> d   1      18.195   0.639  12.242  0.00  0.00     0.098 C 
ENDROOT
BRANCH   8   9
ATOM      9  C9  <0> d   1      17.758   1.093  10.919  0.00  0.00     0.049 C 
ATOM     10  C10 <0> d   1      17.692   2.416  10.647  0.00  0.00     0.022 C 
BRANCH  10  11
ATOM     11  C11 <0> d   1      18.285   3.383  11.569  0.00  0.00     0.004 A 
ATOM     12  S15 <0> d   1      17.403   4.325  12.765  0.00  0.00    -0.102 SA
ATOM     13  C14 <0> d   1      18.837   5.084  13.292  0.00  0.00     0.050 A 
ATOM     14  C13 <0> d   1      19.894   4.650  12.597  0.00  0.00     0.008 A 
ATOM     15  C12 <0> d   1      19.613   3.706  11.636  0.00  0.00     0.019 A 
ENDBRANCH  10  11
ENDBRANCH   8   9
TORSDOF 2
ENDMDL
MODEL 6
REMARK VINA RESULT:      -5.0      2.936      5.159
REMARK  2 active torsions:
REMARK  status: ('A' for Active; 'I' for Inactive)
REMARK    1  A    between atoms: C8_8  and  C9_9 
REMARK    2  A    between atoms: C10_10  and  C11_11 
ROOT
ATOM      1  C1  <0> d   1      18.086   1.831  12.494  0.00  0.00     0.151 C 
ATOM      2  N2  <0> d   1      18.399   0.684  13.349  0.00  0.00    -0.372 N 
ATOM      3  C3  <0> d   1      17.456   0.242  14.388  0.00  0.00     0.125 C 
ATOM      4  C4  <0> d   1      18.277  -0.089  15.643  0.00  0.00     0.039 C 
ATOM      5  C5  <0> d   1      19.274  -1.196  15.293  0.00  0.00     0.123 C 
ATOM      6  N6  <0> d   1      20.006  -0.863  14.077  0.00  0.00    -0.376 N 
ATOM      7  H7  <0> d   1      20.854  -1.306  13.917  0.00  0.00     0.161 HD
ATOM      8  C8  <0> d   1      19.583  -0.011  13.191  0.00  0.00     0.098 C 
ENDROOT
BRANCH   8   9
ATOM      9  C9  <0> d   1      20.394   0.230  11.995  0.00  0.00     0.049 C 
ATOM     10  C10 <0> d   1      20.465  -0.710  11.027  0.00  0.00     0.022 C 
BRANCH  10  11
ATOM     11  C11 <0> d   1      19.551  -1.850  11.046  0.00  0.00     0.004 A 
ATOM     12  S15 <0> d   1      17.840  -1.793  10.640  0.00  0.00    -0.102 SA
ATOM     13  C14 <0> d   1      17.666  -3.464  10.936  0.00  0.00     0.050 A 
ATOM     14  C13 <0> d   1      18.826  -4.007  11.320  0.00  0.00     0.008 A 
ATOM     15  C12 <0> d   1      19.886  -3.132  11.389  0.00  0.00     0.019 A 
ENDBRANCH  10  11
ENDBRANCH   8   9
TORSDOF 2
ENDMDL
MODEL 7
REMARK VINA RESULT:      -5.0      3.754      6.364
REMARK  2 active torsions:
REMARK  status: ('A' for Active; 'I' for Inactive)
REMARK    1  A    between atoms: C8_8  and  C9_9 
REMARK    2  A    between atoms: C10_10  and  C11_11 
ROOT
ATOM      1  C1  <0> d   1      17.372  -0.826  11.900  0.00  0.00     0.151 C 
ATOM      2  N2  <0> d   1      18.036  -0.765  10.596  0.00  0.00    -0.372 N 
ATOM      3  C3  <0> d   1      17.475   0.046   9.505  0.00  0.00     0.125 C 
ATOM      4  C4  <0> d   1      17.592  -0.779   8.214  0.00  0.00     0.039 C 
ATOM      5  C5  <0> d   1      19.070  -1.091   7.969  0.00  0.00     0.123 C 
ATOM      6  N6  <0> d   1      19.688  -1.633   9.173  0.00  0.00    -0.376 N 
ATOM      7  H7  <0> d   1      20.505  -2.146   9.077  0.00  0.00     0.161 HD
ATOM      8  C8  <0> d   1      19.208  -1.461  10.369  0.00  0.00     0.098 C 
ENDROOT
BRANCH   8   9
ATOM      9  C9  <0> d   1      19.926  -2.035  11.510  0.00  0.00     0.049 C 
ATOM     10  C10 <0> d   1      19.750  -3.336  11.834  0.00  0.00     0.022 C 
BRANCH  10  11
ATOM     11  C11 <0> d   1      19.047  -4.230  10.916  0.00  0.00     0.004 A 
ATOM     12  S15 <0> d   1      17.306  -4.478  10.866  0.00  0.00    -0.102 SA
ATOM     13  C14 <0> d   1      17.455  -5.593   9.584  0.00  0.00     0.050 A 
ATOM     14  C13 <0> d   1      18.735  -5.759   9.237  0.00  0.00     0.008 A 
ATOM     15  C12 <0> d   1      19.638  -5.013   9.962  0.00  0.00     0.019 A 
ENDBRANCH  10  11
ENDBRANCH   8   9
TORSDOF 2
ENDMDL
MODEL 8
REMARK VINA RESULT:      -4.9      2.087      4.231
REMARK  2 active torsions:
REMARK  status: ('A' for Active; 'I' for Inactive)
REMARK    1  A    between atoms: C8_8  and  C9_9 
REMARK    2  A    between atoms: C10_10  and  C11_11 
ROOT
ATOM      1  C1  <0> d   1      19.889   0.848  13.312  0.00  0.00     0.151 C 
ATOM      2  N2  <0> d   1      19.312   1.852  12.414  0.00  0.00    -0.372 N 
ATOM      3  C3  <0> d   1      20.146   2.925  11.852  0.00  0.00     0.125 C 
ATOM      4  C4  <0> d   1      19.332   4.225  11.924  0.00  0.00     0.039 C 
ATOM      5  C5  <0> d   1      18.048   4.039  11.112  0.00  0.00     0.123 C 
ATOM      6  N6  <0> d   1      17.376   2.801  11.489  0.00  0.00    -0.376 N 
ATOM      7  H7  <0> d   1      16.431   2.714  11.289  0.00  0.00     0.161 HD
ATOM      8  C8  <0> d   1      17.974   1.804  12.071  0.00  0.00     0.098 C 
ENDROOT
BRANCH   8   9
ATOM      9  C9  <0> d   1      17.202   0.600  12.384  0.00  0.00     0.049 C 
ATOM     10  C10 <0> d   1      17.025  -0.354  11.442  0.00  0.00     0.022 C 
BRANCH  10  11
ATOM     11  C11 <0> d   1      17.799  -0.310  10.203  0.00  0.00     0.004 A 
ATOM     12  S15 <0> d   1      19.425  -0.947   9.992  0.00  0.00    -0.102 SA
ATOM     13  C14 <0> d   1      19.453  -0.462   8.357  0.00  0.00     0.050 A 
ATOM     14  C13 <0> d   1      18.311   0.143   8.016  0.00  0.00     0.008 A 
ATOM     15  C12 <0> d   1      17.378   0.240   9.023  0.00  0.00     0.019 A 
ENDBRANCH  10  11
ENDBRANCH   8   9
TORSDOF 2
ENDMDL
MODEL 9
REMARK VINA RESULT:      -4.8      2.959      4.291
REMARK  2 active torsions:
REMARK  status: ('A' for Active; 'I' for Inactive)
REMARK    1  A    between atoms: C8_8  and  C9_9 
REMARK    2  A    between atoms: C10_10  and  C11_11 
ROOT
ATOM      1  C1  <0> d   1      18.109  -0.275   9.780  0.00  0.00     0.151 C 
ATOM      2  N2  <0> d   1      18.761  -1.522  10.186  0.00  0.00    -0.372 N 
ATOM      3  C3  <0> d   1      18.205  -2.825   9.787  0.00  0.00     0.125 C 
ATOM      4  C4  <0> d   1      18.291  -3.754  11.007  0.00  0.00     0.039 C 
ATOM      5  C5  <0> d   1      19.760  -3.881  11.417  0.00  0.00     0.123 C 
ATOM      6  N6  <0> d   1      20.379  -2.566  11.526  0.00  0.00    -0.376 N 
ATOM      7  H7  <0> d   1      21.185  -2.482  12.060  0.00  0.00     0.161 HD
ATOM      8  C8  <0> d   1      19.916  -1.500  10.944  0.00  0.00     0.098 C 
ENDROOT
BRANCH   8   9
ATOM      9  C9  <0> d   1      20.634  -0.234  11.108  0.00  0.00     0.049 C 
ATOM     10  C10 <0> d   1      20.354   0.571  12.157  0.00  0.00     0.022 C 
BRANCH  10  11
ATOM     11  C11 <0> d   1      19.525   0.079  13.256  0.00  0.00     0.004 A 
ATOM     12  S15 <0> d   1      17.809   0.404  13.464  0.00  0.00    -0.102 SA
ATOM     13  C14 <0> d   1      17.761  -0.517  14.899  0.00  0.00     0.050 A 
ATOM     14  C13 <0> d   1      18.965  -1.019  15.188  0.00  0.00     0.008 A 
ATOM     15  C12 <0> d   1      19.961  -0.702  14.291  0.00  0.00     0.019 A 
ENDBRANCH  10  11
ENDBRANCH   8   9
TORSDOF 2
ENDMDL
