MODEL 1
REMARK VINA RESULT:     -10.4      0.000      0.000
REMARK  8 active torsions:
REMARK  status: ('A' for Active; 'I' for Inactive)
REMARK    1  A    between atoms: C5_5  and  C6_6 
REMARK    2  A    between atoms: N9_9  and  C10_10 
REMARK    3  A    between atoms: N20_17  and  C22_19 
REMARK    4  A    between atoms: C22_19  and  C23_20 
REMARK    5  A    between atoms: C23_20  and  C24_21 
REMARK    6  A    between atoms: C24_21  and  N26_22 
REMARK    7  A    between atoms: C24_21  and  C37_33 
REMARK       I    between atoms: N26_22  and  C27_23 
REMARK    8  A    between atoms: C27_23  and  C29_25 
ROOT
ATOM      1  C23 ZIN A   1      16.766   0.436  11.439  0.00  0.00     0.057 C 
ENDROOT
BRANCH   1   2
ATOM      2  C22 ZIN A   1      17.272  -0.678  10.520  0.00  0.00     0.238 C 
BRANCH   2   3
ATOM      3  N20 ZIN A   1      17.850  -1.757  11.332  0.00  0.00    -0.062 N 
ATOM      4  C13 ZIN A   1      17.462  -3.095  10.806  0.00  0.00     0.190 C 
ATOM      5  C12 ZIN A   1      17.652  -3.058   9.282  0.00  0.00     0.059 C 
ATOM      6  C15 ZIN A   1      18.512  -4.067  11.391  0.00  0.00     0.035 C 
ATOM      7  C10 ZIN A   1      19.138  -2.857   8.972  0.00  0.00     0.097 C 
ATOM      8  C19 ZIN A   1      19.656  -1.617   9.706  0.00  0.00     0.059 C 
ATOM      9  C17 ZIN A   1      19.346  -1.773  11.204  0.00  0.00     0.190 C 
ATOM     10  C16 ZIN A   1      19.757  -3.194  11.653  0.00  0.00     0.035 C 
ATOM     11  H21 ZIN A   1      17.577  -1.660  12.298  0.00  0.00     0.280 HD
BRANCH   7  12
ATOM     12  N9  ZIN A   1      19.315  -2.680   7.529  0.00  0.00    -0.315 N 
ATOM     13  C2  ZIN A   1      19.823  -3.581   6.653  0.00  0.00     0.126 A 
ATOM     14  C1  ZIN A   1      20.311  -4.969   6.982  0.00  0.00     0.093 C 
ATOM     15  N3  ZIN A   1      19.806  -3.026   5.472  0.00  0.00    -0.135 NA
ATOM     16  N4  ZIN A   1      19.324  -1.838   5.558  0.00  0.00    -0.134 NA
ATOM     17  C5  ZIN A   1      19.012  -1.579   6.800  0.00  0.00     0.134 A 
BRANCH  17  18
ATOM     18  C6  ZIN A   1      18.420  -0.296   7.323  0.00  0.00     0.049 C 
ATOM     19  C7  ZIN A   1      19.259   0.888   6.839  0.00  0.00     0.018 C 
ATOM     20  C8  ZIN A   1      16.987  -0.149   6.809  0.00  0.00     0.018 C 
ENDBRANCH  17  18
ENDBRANCH   7  12
ENDBRANCH   2   3
ENDBRANCH   1   2
BRANCH   1  21
ATOM     21  C24 ZIN A   1      17.951   1.272  11.927  0.00  0.00     0.119 C 
BRANCH  21  22
ATOM     22  N26 ZIN A   1      18.035   1.194  13.388  0.00  0.00    -0.352 N 
ATOM     23  C27 ZIN A   1      19.203   0.872  13.978  0.00  0.00     0.222 C 
ATOM     24  O28 ZIN A   1      20.184   0.648  13.301  0.00  0.00    -0.273 OA
ATOM     25  H65 ZIN A   1      17.251   1.373  13.930  0.00  0.00     0.163 HD
BRANCH  23  26
ATOM     26  C29 ZIN A   1      19.290   0.792  15.480  0.00  0.00     0.078 C 
ATOM     27  C36 ZIN A   1      18.705  -0.540  15.954  0.00  0.00     0.020 C 
ATOM     28  C35 ZIN A   1      18.793  -0.623  17.480  0.00  0.00     0.080 C 
ATOM     29  C32 ZIN A   1      18.002   0.531  18.100  0.00  0.00     0.243 C 
ATOM     30  C31 ZIN A   1      18.587   1.863  17.626  0.00  0.00     0.080 C 
ATOM     31  F33 ZIN A   1      18.083   0.456  19.494  0.00  0.00    -0.206 F 
ATOM     32  F34 ZIN A   1      16.663   0.443  17.704  0.00  0.00    -0.206 F 
ATOM     33  C30 ZIN A   1      18.499   1.945  16.100  0.00  0.00     0.020 C 
ENDBRANCH  23  26
ENDBRANCH  21  22
BRANCH  21  34
ATOM     34  C37 ZIN A   1      17.758   2.707  11.511  0.00  0.00    -0.035 A 
ATOM     35  C42 ZIN A   1      17.998   3.086  10.204  0.00  0.00     0.009 A 
ATOM     36  C41 ZIN A   1      17.818   4.402   9.821  0.00  0.00     0.001 A 
ATOM     37  C40 ZIN A   1      17.406   5.341  10.748  0.00  0.00     0.000 A 
ATOM     38  C39 ZIN A   1      17.171   4.964  12.057  0.00  0.00     0.001 A 
ATOM     39  C38 ZIN A   1      17.346   3.647  12.439  0.00  0.00     0.009 A 
ENDBRANCH  21  34
ENDBRANCH   1  21
TORSDOF 8
ENDMDL
MODEL 2
REMARK VINA RESULT:     -10.4      2.514      4.984
REMARK  8 active torsions:
REMARK  status: ('A' for Active; 'I' for Inactive)
REMARK    1  A    between atoms: C5_5  and  C6_6 
REMARK    2  A    between atoms: N9_9  and  C10_10 
REMARK    3  A    between atoms: N20_17  and  C22_19 
REMARK    4  A    between atoms: C22_19  and  C23_20 
REMARK    5  A    between atoms: C23_20  and  C24_21 
REMARK    6  A    between atoms: C24_21  and  N26_22 
REMARK    7  A    between atoms: C24_21  and  C37_33 
REMARK       I    between atoms: N26_22  and  C27_23 
REMARK    8  A    between atoms: C27_23  and  C29_25 
ROOT
ATOM      1  C23 ZIN A   1      19.580  -1.872  13.373  0.00  0.00     0.057 C 
ENDROOT
BRANCH   1   2
ATOM      2  C22 ZIN A   1      19.322  -2.441  11.976  0.00  0.00     0.238 C 
BRANCH   2   3
ATOM      3  N20 ZIN A   1      18.410  -3.588  12.076  0.00  0.00    -0.062 N 
ATOM      4  C13 ZIN A   1      17.181  -3.373  11.264  0.00  0.00     0.190 C 
ATOM      5  C12 ZIN A   1      17.629  -2.831   9.897  0.00  0.00     0.059 C 
ATOM      6  C15 ZIN A   1      16.602  -4.790  11.044  0.00  0.00     0.035 C 
ATOM      7  C10 ZIN A   1      18.466  -3.899   9.189  0.00  0.00     0.097 C 
ATOM      8  C19 ZIN A   1      19.613  -4.345  10.100  0.00  0.00     0.059 C 
ATOM      9  C17 ZIN A   1      19.018  -4.805  11.441  0.00  0.00     0.190 C 
ATOM     10  C16 ZIN A   1      17.816  -5.736  11.160  0.00  0.00     0.035 C 
ATOM     11  H21 ZIN A   1      18.173  -3.770  13.040  0.00  0.00     0.280 HD
BRANCH   7  12
ATOM     12  N9  ZIN A   1      19.015  -3.345   7.948  0.00  0.00    -0.315 N 
ATOM     13  C2  ZIN A   1      19.516  -4.039   6.898  0.00  0.00     0.126 A 
ATOM     14  C1  ZIN A   1      19.610  -5.538   6.781  0.00  0.00     0.093 C 
ATOM     15  N3  ZIN A   1      19.897  -3.167   6.004  0.00  0.00    -0.135 NA
ATOM     16  N4  ZIN A   1      19.668  -1.977   6.434  0.00  0.00    -0.134 NA
ATOM     17  C5  ZIN A   1      19.131  -2.035   7.623  0.00  0.00     0.134 A 
BRANCH  17  18
ATOM     18  C6  ZIN A   1      18.713  -0.863   8.472  0.00  0.00     0.049 C 
ATOM     19  C7  ZIN A   1      19.956  -0.188   9.058  0.00  0.00     0.018 C 
ATOM     20  C8  ZIN A   1      17.946   0.143   7.611  0.00  0.00     0.018 C 
ENDBRANCH  17  18
ENDBRANCH   7  12
ENDBRANCH   2   3
ENDBRANCH   1   2
BRANCH   1  21
ATOM     21  C24 ZIN A   1      18.487  -0.858  13.721  0.00  0.00     0.119 C 
BRANCH  21  22
ATOM     22  N26 ZIN A   1      18.823   0.442  13.134  0.00  0.00    -0.352 N 
ATOM     23  C27 ZIN A   1      17.936   1.070  12.338  0.00  0.00     0.222 C 
ATOM     24  O28 ZIN A   1      16.861   0.560  12.106  0.00  0.00    -0.273 OA
ATOM     25  H65 ZIN A   1      19.684   0.850  13.319  0.00  0.00     0.163 HD
BRANCH  23  26
ATOM     26  C29 ZIN A   1      18.281   2.407  11.735  0.00  0.00     0.078 C 
ATOM     27  C36 ZIN A   1      17.719   3.525  12.616  0.00  0.00     0.020 C 
ATOM     28  C35 ZIN A   1      18.069   4.883  12.004  0.00  0.00     0.080 C 
ATOM     29  C32 ZIN A   1      17.461   4.984  10.604  0.00  0.00     0.243 C 
ATOM     30  C31 ZIN A   1      18.023   3.866   9.722  0.00  0.00     0.080 C 
ATOM     31  F33 ZIN A   1      17.782   6.225  10.044  0.00  0.00    -0.206 F 
ATOM     32  F34 ZIN A   1      16.071   4.855  10.689  0.00  0.00    -0.206 F 
ATOM     33  C30 ZIN A   1      17.673   2.508  10.334  0.00  0.00     0.020 C 
ENDBRANCH  23  26
ENDBRANCH  21  22
BRANCH  21  34
ATOM     34  C37 ZIN A   1      18.386  -0.723  15.218  0.00  0.00    -0.035 A 
ATOM     35  C42 ZIN A   1      17.372   0.031  15.777  0.00  0.00     0.009 A 
ATOM     36  C41 ZIN A   1      17.277   0.152  17.150  0.00  0.00     0.001 A 
ATOM     37  C40 ZIN A   1      18.201  -0.476  17.965  0.00  0.00     0.000 A 
ATOM     38  C39 ZIN A   1      19.218  -1.227  17.406  0.00  0.00     0.001 A 
ATOM     39  C38 ZIN A   1      19.311  -1.351  16.032  0.00  0.00     0.009 A 
ENDBRANCH  21  34
ENDBRANCH   1  21
TORSDOF 8
ENDMDL
MODEL 3
REMARK VINA RESULT:     -10.2      3.730      9.199
REMARK  8 active torsions:
REMARK  status: ('A' for Active; 'I' for Inactive)
REMARK    1  A    between atoms: C5_5  and  C6_6 
REMARK    2  A    between atoms: N9_9  and  C10_10 
REMARK    3  A    between atoms: N20_17  and  C22_19 
REMARK    4  A    between atoms: C22_19  and  C23_20 
REMARK    5  A    between atoms: C23_20  and  C24_21 
REMARK    6  A    between atoms: C24_21  and  N26_22 
REMARK    7  A    between atoms: C24_21  and  C37_33 
REMARK       I    between atoms: N26_22  and  C27_23 
REMARK    8  A    between atoms: C27_23  and  C29_25 
ROOT
ATOM      1  C23 ZIN A   1      17.251  -1.313  11.539  0.00  0.00     0.057 C 
ENDROOT
BRANCH   1   2
ATOM      2  C22 ZIN A   1      17.983  -0.365  12.491  0.00  0.00     0.238 C 
BRANCH   2   3
ATOM      3  N20 ZIN A   1      18.376   0.850  11.765  0.00  0.00    -0.062 N 
ATOM      4  C13 ZIN A   1      17.619   2.037  12.248  0.00  0.00     0.190 C 
ATOM      5  C12 ZIN A   1      17.632   1.990  13.784  0.00  0.00     0.059 C 
ATOM      6  C15 ZIN A   1      18.466   3.252  11.805  0.00  0.00     0.035 C 
ATOM      7  C10 ZIN A   1      19.075   2.137  14.273  0.00  0.00     0.097 C 
ATOM      8  C19 ZIN A   1      19.959   1.083  13.599  0.00  0.00     0.059 C 
ATOM      9  C17 ZIN A   1      19.799   1.216  12.076  0.00  0.00     0.190 C 
ATOM     10  C16 ZIN A   1      19.907   2.710  11.692  0.00  0.00     0.035 C 
ATOM     11  H21 ZIN A   1      18.250   0.727  10.772  0.00  0.00     0.280 HD
BRANCH   7  12
ATOM     12  N9  ZIN A   1      19.118   1.954  15.726  0.00  0.00    -0.315 N 
ATOM     13  C2  ZIN A   1      19.559   2.845  16.647  0.00  0.00     0.126 A 
ATOM     14  C1  ZIN A   1      20.096   4.226  16.368  0.00  0.00     0.093 C 
ATOM     15  N3  ZIN A   1      19.426   2.288  17.820  0.00  0.00    -0.135 NA
ATOM     16  N4  ZIN A   1      18.935   1.108  17.686  0.00  0.00    -0.134 NA
ATOM     17  C5  ZIN A   1      18.733   0.857  16.421  0.00  0.00     0.134 A 
BRANCH  17  18
ATOM     18  C6  ZIN A   1      18.171  -0.415  15.841  0.00  0.00     0.049 C 
ATOM     19  C7  ZIN A   1      19.210  -1.533  15.959  0.00  0.00     0.018 C 
ATOM     20  C8  ZIN A   1      16.908  -0.811  16.610  0.00  0.00     0.018 C 
ENDBRANCH  17  18
ENDBRANCH   7  12
ENDBRANCH   2   3
ENDBRANCH   1   2
BRANCH   1  21
ATOM     21  C24 ZIN A   1      18.275  -2.120  10.736  0.00  0.00     0.119 C 
BRANCH  21  22
ATOM     22  N26 ZIN A   1      18.263  -1.672   9.341  0.00  0.00    -0.352 N 
ATOM     23  C27 ZIN A   1      19.304  -0.971   8.851  0.00  0.00     0.222 C 
ATOM     24  O28 ZIN A   1      20.250  -0.711   9.563  0.00  0.00    -0.273 OA
ATOM     25  H65 ZIN A   1      17.506  -1.880   8.771  0.00  0.00     0.163 HD
BRANCH  23  26
ATOM     26  C29 ZIN A   1      19.293  -0.511   7.416  0.00  0.00     0.078 C 
ATOM     27  C36 ZIN A   1      18.021   0.298   7.150  0.00  0.00     0.020 C 
ATOM     28  C35 ZIN A   1      18.009   0.766   5.693  0.00  0.00     0.080 C 
ATOM     29  C32 ZIN A   1      18.042  -0.451   4.766  0.00  0.00     0.243 C 
ATOM     30  C31 ZIN A   1      19.314  -1.260   5.032  0.00  0.00     0.080 C 
ATOM     31  F33 ZIN A   1      18.032  -0.023   3.434  0.00  0.00    -0.206 F 
ATOM     32  F34 ZIN A   1      16.921  -1.252   5.008  0.00  0.00    -0.206 F 
ATOM     33  C30 ZIN A   1      19.326  -1.727   6.489  0.00  0.00     0.020 C 
ENDBRANCH  23  26
ENDBRANCH  21  22
BRANCH  21  34
ATOM     34  C37 ZIN A   1      17.921  -3.583  10.798  0.00  0.00    -0.035 A 
ATOM     35  C42 ZIN A   1      17.801  -4.214  12.021  0.00  0.00     0.009 A 
ATOM     36  C41 ZIN A   1      17.472  -5.555  12.078  0.00  0.00     0.001 A 
ATOM     37  C40 ZIN A   1      17.272  -6.268  10.910  0.00  0.00     0.000 A 
ATOM     38  C39 ZIN A   1      17.397  -5.638   9.686  0.00  0.00     0.001 A 
ATOM     39  C38 ZIN A   1      17.721  -4.295   9.629  0.00  0.00     0.009 A 
ENDBRANCH  21  34
ENDBRANCH   1  21
TORSDOF 8
ENDMDL
MODEL 4
REMARK VINA RESULT:      -9.7      3.729      8.809
REMARK  8 active torsions:
REMARK  status: ('A' for Active; 'I' for Inactive)
REMARK    1  A    between atoms: C5_5  and  C6_6 
REMARK    2  A    between atoms: N9_9  and  C10_10 
REMARK    3  A    between atoms: N20_17  and  C22_19 
REMARK    4  A    between atoms: C22_19  and  C23_20 
REMARK    5  A    between atoms: C23_20  and  C24_21 
REMARK    6  A    between atoms: C24_21  and  N26_22 
REMARK    7  A    between atoms: C24_21  and  C37_33 
REMARK       I    between atoms: N26_22  and  C27_23 
REMARK    8  A    between atoms: C27_23  and  C29_25 
ROOT
ATOM      1  C23 ZIN A   1      17.179  -1.288  11.454  0.00  0.00     0.057 C 
ENDROOT
BRANCH   1   2
ATOM      2  C22 ZIN A   1      17.865  -0.369  12.467  0.00  0.00     0.238 C 
BRANCH   2   3
ATOM      3  N20 ZIN A   1      18.188  -1.133  13.679  0.00  0.00    -0.062 N 
ATOM      4  C13 ZIN A   1      19.590  -0.887  14.115  0.00  0.00     0.190 C 
ATOM      5  C12 ZIN A   1      19.829   0.630  14.044  0.00  0.00     0.059 C 
ATOM      6  C15 ZIN A   1      19.618  -1.301  15.604  0.00  0.00     0.035 C 
ATOM      7  C10 ZIN A   1      18.909   1.325  15.050  0.00  0.00     0.097 C 
ATOM      8  C19 ZIN A   1      17.458   0.900  14.802  0.00  0.00     0.059 C 
ATOM      9  C17 ZIN A   1      17.387  -0.635  14.848  0.00  0.00     0.190 C 
ATOM     10  C16 ZIN A   1      18.162  -1.133  16.089  0.00  0.00     0.035 C 
ATOM     11  H21 ZIN A   1      18.028  -2.117  13.532  0.00  0.00     0.280 HD
BRANCH   7  12
ATOM     12  N9  ZIN A   1      19.025   2.778  14.893  0.00  0.00    -0.315 N 
ATOM     13  C2  ZIN A   1      19.219   3.689  15.877  0.00  0.00     0.126 A 
ATOM     14  C1  ZIN A   1      19.362   3.400  17.349  0.00  0.00     0.093 C 
ATOM     15  N3  ZIN A   1      19.264   4.866  15.311  0.00  0.00    -0.135 NA
ATOM     16  N4  ZIN A   1      19.107   4.742  14.042  0.00  0.00    -0.134 NA
ATOM     17  C5  ZIN A   1      18.953   3.481  13.738  0.00  0.00     0.134 A 
BRANCH  17  18
ATOM     18  C6  ZIN A   1      18.741   2.914  12.359  0.00  0.00     0.049 C 
ATOM     19  C7  ZIN A   1      17.497   3.547  11.732  0.00  0.00     0.018 C 
ATOM     20  C8  ZIN A   1      19.961   3.220  11.488  0.00  0.00     0.018 C 
ENDBRANCH  17  18
ENDBRANCH   7  12
ENDBRANCH   2   3
ENDBRANCH   1   2
BRANCH   1  21
ATOM     21  C24 ZIN A   1      18.238  -2.100  10.704  0.00  0.00     0.119 C 
BRANCH  21  22
ATOM     22  N26 ZIN A   1      18.274  -1.678   9.301  0.00  0.00    -0.352 N 
ATOM     23  C27 ZIN A   1      19.291  -0.915   8.854  0.00  0.00     0.222 C 
ATOM     24  O28 ZIN A   1      20.175  -0.578   9.611  0.00  0.00    -0.273 OA
ATOM     25  H65 ZIN A   1      17.566  -1.947   8.695  0.00  0.00     0.163 HD
BRANCH  23  26
ATOM     26  C29 ZIN A   1      19.328  -0.481   7.411  0.00  0.00     0.078 C 
ATOM     27  C36 ZIN A   1      18.119   0.408   7.115  0.00  0.00     0.020 C 
ATOM     28  C35 ZIN A   1      18.156   0.849   5.650  0.00  0.00     0.080 C 
ATOM     29  C32 ZIN A   1      18.116  -0.383   4.745  0.00  0.00     0.243 C 
ATOM     30  C31 ZIN A   1      19.326  -1.273   5.041  0.00  0.00     0.080 C 
ATOM     31  F33 ZIN A   1      18.151   0.020   3.406  0.00  0.00    -0.206 F 
ATOM     32  F34 ZIN A   1      16.940  -1.101   4.986  0.00  0.00    -0.206 F 
ATOM     33  C30 ZIN A   1      19.288  -1.714   6.506  0.00  0.00     0.020 C 
ENDBRANCH  23  26
ENDBRANCH  21  22
BRANCH  21  34
ATOM     34  C37 ZIN A   1      17.894  -3.565  10.780  0.00  0.00    -0.035 A 
ATOM     35  C42 ZIN A   1      17.756  -4.179  12.009  0.00  0.00     0.009 A 
ATOM     36  C41 ZIN A   1      17.436  -5.522  12.079  0.00  0.00     0.001 A 
ATOM     37  C40 ZIN A   1      17.263  -6.253  10.918  0.00  0.00     0.000 A 
ATOM     38  C39 ZIN A   1      17.406  -5.640   9.688  0.00  0.00     0.001 A 
ATOM     39  C38 ZIN A   1      17.721  -4.295   9.618  0.00  0.00     0.009 A 
ENDBRANCH  21  34
ENDBRANCH   1  21
TORSDOF 8
ENDMDL
MODEL 5
REMARK VINA RESULT:      -9.6      1.249      3.084
REMARK  8 active torsions:
REMARK  status: ('A' for Active; 'I' for Inactive)
REMARK    1  A    between atoms: C5_5  and  C6_6 
REMARK    2  A    between atoms: N9_9  and  C10_10 
REMARK    3  A    between atoms: N20_17  and  C22_19 
REMARK    4  A    between atoms: C22_19  and  C23_20 
REMARK    5  A    between atoms: C23_20  and  C24_21 
REMARK    6  A    between atoms: C24_21  and  N26_22 
REMARK    7  A    between atoms: C24_21  and  C37_33 
REMARK       I    between atoms: N26_22  and  C27_23 
REMARK    8  A    between atoms: C27_23  and  C29_25 
ROOT
ATOM      1  C23 ZIN A   1      17.252   0.925  11.393  0.00  0.00     0.057 C 
ENDROOT
BRANCH   1   2
ATOM      2  C22 ZIN A   1      18.059   0.020  10.461  0.00  0.00     0.238 C 
BRANCH   2   3
ATOM      3  N20 ZIN A   1      18.102   0.613   9.118  0.00  0.00    -0.062 N 
ATOM      4  C13 ZIN A   1      19.424   0.392   8.472  0.00  0.00     0.190 C 
ATOM      5  C12 ZIN A   1      19.803  -1.080   8.702  0.00  0.00     0.059 C 
ATOM      6  C15 ZIN A   1      19.161   0.581   6.960  0.00  0.00     0.035 C 
ATOM      7  C10 ZIN A   1      18.787  -1.972   7.984  0.00  0.00     0.097 C 
ATOM      8  C19 ZIN A   1      17.369  -1.604   8.432  0.00  0.00     0.059 C 
ATOM      9  C17 ZIN A   1      17.159  -0.100   8.193  0.00  0.00     0.190 C 
ATOM     10  C16 ZIN A   1      17.663   0.255   6.776  0.00  0.00     0.035 C 
ATOM     11  H21 ZIN A   1      17.885   1.597   9.158  0.00  0.00     0.280 HD
BRANCH   7  12
ATOM     12  N9  ZIN A   1      19.053  -3.375   8.311  0.00  0.00    -0.315 N 
ATOM     13  C2  ZIN A   1      19.229  -4.396   7.437  0.00  0.00     0.126 A 
ATOM     14  C1  ZIN A   1      19.193  -4.301   5.934  0.00  0.00     0.093 C 
ATOM     15  N3  ZIN A   1      19.441  -5.475   8.140  0.00  0.00    -0.135 NA
ATOM     16  N4  ZIN A   1      19.405  -5.191   9.393  0.00  0.00    -0.134 NA
ATOM     17  C5  ZIN A   1      19.167  -3.916   9.548  0.00  0.00     0.134 A 
BRANCH  17  18
ATOM     18  C6  ZIN A   1      19.045  -3.183  10.858  0.00  0.00     0.049 C 
ATOM     19  C7  ZIN A   1      17.743  -3.588  11.552  0.00  0.00     0.018 C 
ATOM     20  C8  ZIN A   1      20.232  -3.541  11.755  0.00  0.00     0.018 C 
ENDBRANCH  17  18
ENDBRANCH   7  12
ENDBRANCH   2   3
ENDBRANCH   1   2
BRANCH   1  21
ATOM     21  C24 ZIN A   1      18.203   1.859  12.147  0.00  0.00     0.119 C 
BRANCH  21  22
ATOM     22  N26 ZIN A   1      18.240   1.479  13.561  0.00  0.00    -0.352 N 
ATOM     23  C27 ZIN A   1      19.300   0.804  14.049  0.00  0.00     0.222 C 
ATOM     24  O28 ZIN A   1      20.222   0.512  13.318  0.00  0.00    -0.273 OA
ATOM     25  H65 ZIN A   1      17.502   1.712  14.146  0.00  0.00     0.163 HD
BRANCH  23  26
ATOM     26  C29 ZIN A   1      19.338   0.414  15.504  0.00  0.00     0.078 C 
ATOM     27  C36 ZIN A   1      18.214  -0.582  15.795  0.00  0.00     0.020 C 
ATOM     28  C35 ZIN A   1      18.252  -0.979  17.272  0.00  0.00     0.080 C 
ATOM     29  C32 ZIN A   1      18.068   0.267  18.140  0.00  0.00     0.243 C 
ATOM     30  C31 ZIN A   1      19.193   1.263  17.849  0.00  0.00     0.080 C 
ATOM     31  F33 ZIN A   1      18.104  -0.097  19.491  0.00  0.00    -0.206 F 
ATOM     32  F34 ZIN A   1      16.834   0.859  17.849  0.00  0.00    -0.206 F 
ATOM     33  C30 ZIN A   1      19.154   1.660  16.372  0.00  0.00     0.020 C 
ENDBRANCH  23  26
ENDBRANCH  21  22
BRANCH  21  34
ATOM     34  C37 ZIN A   1      17.717   3.279  12.020  0.00  0.00    -0.035 A 
ATOM     35  C42 ZIN A   1      17.533   4.050  13.152  0.00  0.00     0.009 A 
ATOM     36  C41 ZIN A   1      17.091   5.355  13.035  0.00  0.00     0.001 A 
ATOM     37  C40 ZIN A   1      16.823   5.885  11.787  0.00  0.00     0.000 A 
ATOM     38  C39 ZIN A   1      17.001   5.112  10.655  0.00  0.00     0.001 A 
ATOM     39  C38 ZIN A   1      17.449   3.809  10.771  0.00  0.00     0.009 A 
ENDBRANCH  21  34
ENDBRANCH   1  21
TORSDOF 8
ENDMDL
MODEL 6
REMARK VINA RESULT:      -9.4      2.490      5.152
REMARK  8 active torsions:
REMARK  status: ('A' for Active; 'I' for Inactive)
REMARK    1  A    between atoms: C5_5  and  C6_6 
REMARK    2  A    between atoms: N9_9  and  C10_10 
REMARK    3  A    between atoms: N20_17  and  C22_19 
REMARK    4  A    between atoms: C22_19  and  C23_20 
REMARK    5  A    between atoms: C23_20  and  C24_21 
REMARK    6  A    between atoms: C24_21  and  N26_22 
REMARK    7  A    between atoms: C24_21  and  C37_33 
REMARK       I    between atoms: N26_22  and  C27_23 
REMARK    8  A    between atoms: C27_23  and  C29_25 
ROOT
ATOM      1  C23 ZIN A   1      19.887   0.292  12.766  0.00  0.00     0.057 C 
ENDROOT
BRANCH   1   2
ATOM      2  C22 ZIN A   1      19.571  -0.524  11.511  0.00  0.00     0.238 C 
BRANCH   2   3
ATOM      3  N20 ZIN A   1      18.904   0.335  10.523  0.00  0.00    -0.062 N 
ATOM      4  C13 ZIN A   1      19.644   0.347   9.232  0.00  0.00     0.190 C 
ATOM      5  C12 ZIN A   1      20.007  -1.110   8.902  0.00  0.00     0.059 C 
ATOM      6  C15 ZIN A   1      18.608   0.824   8.189  0.00  0.00     0.035 C 
ATOM      7  C10 ZIN A   1      18.717  -1.905   8.684  0.00  0.00     0.097 C 
ATOM      8  C19 ZIN A   1      17.797  -1.741   9.897  0.00  0.00     0.059 C 
ATOM      9  C17 ZIN A   1      17.572  -0.239  10.136  0.00  0.00     0.190 C 
ATOM     10  C16 ZIN A   1      17.238   0.436   8.786  0.00  0.00     0.035 C 
ATOM     11  H21 ZIN A   1      18.798   1.271  10.882  0.00  0.00     0.280 HD
BRANCH   7  12
ATOM     12  N9  ZIN A   1      19.043  -3.323   8.507  0.00  0.00    -0.315 N 
ATOM     13  C2  ZIN A   1      19.296  -3.961   7.339  0.00  0.00     0.126 A 
ATOM     14  C1  ZIN A   1      19.301  -3.342   5.965  0.00  0.00     0.093 C 
ATOM     15  N3  ZIN A   1      19.541  -5.212   7.626  0.00  0.00    -0.135 NA
ATOM     16  N4  ZIN A   1      19.452  -5.390   8.895  0.00  0.00    -0.134 NA
ATOM     17  C5  ZIN A   1      19.146  -4.262   9.478  0.00  0.00     0.134 A 
BRANCH  17  18
ATOM     18  C6  ZIN A   1      18.948  -4.045  10.956  0.00  0.00     0.049 C 
ATOM     19  C7  ZIN A   1      18.054  -5.151  11.520  0.00  0.00     0.018 C 
ATOM     20  C8  ZIN A   1      20.306  -4.079  11.662  0.00  0.00     0.018 C 
ENDBRANCH  17  18
ENDBRANCH   7  12
ENDBRANCH   2   3
ENDBRANCH   1   2
BRANCH   1  21
ATOM     21  C24 ZIN A   1      18.584   0.814  13.377  0.00  0.00     0.119 C 
BRANCH  21  22
ATOM     22  N26 ZIN A   1      18.707   2.250  13.636  0.00  0.00    -0.352 N 
ATOM     23  C27 ZIN A   1      18.055   3.134  12.855  0.00  0.00     0.222 C 
ATOM     24  O28 ZIN A   1      17.368   2.740  11.937  0.00  0.00    -0.273 OA
ATOM     25  H65 ZIN A   1      19.258   2.565  14.370  0.00  0.00     0.163 HD
BRANCH  23  26
ATOM     26  C29 ZIN A   1      18.182   4.611  13.121  0.00  0.00     0.078 C 
ATOM     27  C36 ZIN A   1      19.192   4.842  14.247  0.00  0.00     0.020 C 
ATOM     28  C35 ZIN A   1      19.321   6.342  14.518  0.00  0.00     0.080 C 
ATOM     29  C32 ZIN A   1      17.960   6.905  14.932  0.00  0.00     0.243 C 
ATOM     30  C31 ZIN A   1      16.949   6.674  13.805  0.00  0.00     0.080 C 
ATOM     31  F33 ZIN A   1      18.078   8.277  15.179  0.00  0.00    -0.206 F 
ATOM     32  F34 ZIN A   1      17.521   6.257  16.092  0.00  0.00    -0.206 F 
ATOM     33  C30 ZIN A   1      16.821   5.174  13.535  0.00  0.00     0.020 C 
ENDBRANCH  23  26
ENDBRANCH  21  22
BRANCH  21  34
ATOM     34  C37 ZIN A   1      18.312   0.090  14.670  0.00  0.00    -0.035 A 
ATOM     35  C42 ZIN A   1      17.322   0.545  15.521  0.00  0.00     0.009 A 
ATOM     36  C41 ZIN A   1      17.070  -0.121  16.706  0.00  0.00     0.001 A 
ATOM     37  C40 ZIN A   1      17.814  -1.236  17.044  0.00  0.00     0.000 A 
ATOM     38  C39 ZIN A   1      18.807  -1.688  16.196  0.00  0.00     0.001 A 
ATOM     39  C38 ZIN A   1      19.056  -1.025  15.008  0.00  0.00     0.009 A 
ENDBRANCH  21  34
ENDBRANCH   1  21
TORSDOF 8
ENDMDL
MODEL 7
REMARK VINA RESULT:      -9.0      2.669      5.275
REMARK  8 active torsions:
REMARK  status: ('A' for Active; 'I' for Inactive)
REMARK    1  A    between atoms: C5_5  and  C6_6 
REMARK    2  A    between atoms: N9_9  and  C10_10 
REMARK    3  A    between atoms: N20_17  and  C22_19 
REMARK    4  A    between atoms: C22_19  and  C23_20 
REMARK    5  A    between atoms: C23_20  and  C24_21 
REMARK    6  A    between atoms: C24_21  and  N26_22 
REMARK    7  A    between atoms: C24_21  and  C37_33 
REMARK       I    between atoms: N26_22  and  C27_23 
REMARK    8  A    between atoms: C27_23  and  C29_25 
ROOT
ATOM      1  C23 ZIN A   1      19.827   5.144  14.623  0.00  0.00     0.057 C 
ENDROOT
BRANCH   1   2
ATOM      2  C22 ZIN A   1      19.329   4.123  13.598  0.00  0.00     0.238 C 
BRANCH   2   3
ATOM      3  N20 ZIN A   1      18.441   4.789  12.636  0.00  0.00    -0.062 N 
ATOM      4  C13 ZIN A   1      19.029   4.789  11.269  0.00  0.00     0.190 C 
ATOM      5  C12 ZIN A   1      19.568   3.374  11.005  0.00  0.00     0.059 C 
ATOM      6  C15 ZIN A   1      17.828   5.021  10.324  0.00  0.00     0.035 C 
ATOM      7  C10 ZIN A   1      18.396   2.390  10.999  0.00  0.00     0.097 C 
ATOM      8  C19 ZIN A   1      17.596   2.531  12.298  0.00  0.00     0.059 C 
ATOM      9  C17 ZIN A   1      17.176   4.002  12.452  0.00  0.00     0.190 C 
ATOM     10  C16 ZIN A   1      16.603   4.500  11.105  0.00  0.00     0.035 C 
ATOM     11  H21 ZIN A   1      18.234   5.729  12.937  0.00  0.00     0.280 HD
BRANCH   7  12
ATOM     12  N9  ZIN A   1      18.909   1.022  10.889  0.00  0.00    -0.315 N 
ATOM     13  C2  ZIN A   1      19.624   0.342  11.819  0.00  0.00     0.126 A 
ATOM     14  C1  ZIN A   1      20.039   0.852  13.175  0.00  0.00     0.093 C 
ATOM     15  N3  ZIN A   1      19.880  -0.839  11.324  0.00  0.00    -0.135 NA
ATOM     16  N4  ZIN A   1      19.374  -0.933  10.146  0.00  0.00    -0.134 NA
ATOM     17  C5  ZIN A   1      18.773   0.183   9.834  0.00  0.00     0.134 A 
BRANCH  17  18
ATOM     18  C6  ZIN A   1      18.055   0.480   8.544  0.00  0.00     0.049 C 
ATOM     19  C7  ZIN A   1      18.996   1.228   7.597  0.00  0.00     0.018 C 
ATOM     20  C8  ZIN A   1      17.614  -0.832   7.891  0.00  0.00     0.018 C 
ENDBRANCH  17  18
ENDBRANCH   7  12
ENDBRANCH   2   3
ENDBRANCH   1   2
BRANCH   1  21
ATOM     21  C24 ZIN A   1      18.890   5.150  15.834  0.00  0.00     0.119 C 
BRANCH  21  22
ATOM     22  N26 ZIN A   1      18.323   3.812  16.019  0.00  0.00    -0.352 N 
ATOM     23  C27 ZIN A   1      18.900   2.950  16.879  0.00  0.00     0.222 C 
ATOM     24  O28 ZIN A   1      19.888   3.281  17.499  0.00  0.00    -0.273 OA
ATOM     25  H65 ZIN A   1      17.533   3.546  15.522  0.00  0.00     0.163 HD
BRANCH  23  26
ATOM     26  C29 ZIN A   1      18.317   1.573  17.069  0.00  0.00     0.078 C 
ATOM     27  C36 ZIN A   1      19.378   0.649  17.671  0.00  0.00     0.020 C 
ATOM     28  C35 ZIN A   1      18.787  -0.749  17.865  0.00  0.00     0.080 C 
ATOM     29  C32 ZIN A   1      18.335  -1.304  16.512  0.00  0.00     0.243 C 
ATOM     30  C31 ZIN A   1      17.273  -0.379  15.911  0.00  0.00     0.080 C 
ATOM     31  F33 ZIN A   1      17.794  -2.581  16.690  0.00  0.00    -0.206 F 
ATOM     32  F34 ZIN A   1      19.433  -1.377  15.648  0.00  0.00    -0.206 F 
ATOM     33  C30 ZIN A   1      17.865   1.018  15.717  0.00  0.00     0.020 C 
ENDBRANCH  23  26
ENDBRANCH  21  22
BRANCH  21  34
ATOM     34  C37 ZIN A   1      17.778   6.140  15.602  0.00  0.00    -0.035 A 
ATOM     35  C42 ZIN A   1      18.074   7.466  15.351  0.00  0.00     0.009 A 
ATOM     36  C41 ZIN A   1      17.054   8.373  15.135  0.00  0.00     0.001 A 
ATOM     37  C40 ZIN A   1      15.737   7.956  15.180  0.00  0.00     0.000 A 
ATOM     38  C39 ZIN A   1      15.440   6.630  15.436  0.00  0.00     0.001 A 
ATOM     39  C38 ZIN A   1      16.460   5.722  15.647  0.00  0.00     0.009 A 
ENDBRANCH  21  34
ENDBRANCH   1  21
TORSDOF 8
ENDMDL
MODEL 8
REMARK VINA RESULT:      -8.7      3.843      8.959
REMARK  8 active torsions:
REMARK  status: ('A' for Active; 'I' for Inactive)
REMARK    1  A    between atoms: C5_5  and  C6_6 
REMARK    2  A    between atoms: N9_9  and  C10_10 
REMARK    3  A    between atoms: N20_17  and  C22_19 
REMARK    4  A    between atoms: C22_19  and  C23_20 
REMARK    5  A    between atoms: C23_20  and  C24_21 
REMARK    6  A    between atoms: C24_21  and  N26_22 
REMARK    7  A    between atoms: C24_21  and  C37_33 
REMARK       I    between atoms: N26_22  and  C27_23 
REMARK    8  A    between atoms: C27_23  and  C29_25 
ROOT
ATOM      1  C23 ZIN A   1      17.404  -1.565  11.296  0.00  0.00     0.057 C 
ENDROOT
BRANCH   1   2
ATOM      2  C22 ZIN A   1      18.145  -0.466  12.059  0.00  0.00     0.238 C 
BRANCH   2   3
ATOM      3  N20 ZIN A   1      18.347  -0.887  13.452  0.00  0.00    -0.062 N 
ATOM      4  C13 ZIN A   1      19.650  -0.398  13.981  0.00  0.00     0.190 C 
ATOM      5  C12 ZIN A   1      19.783   1.077  13.570  0.00  0.00     0.059 C 
ATOM      6  C15 ZIN A   1      19.495  -0.449  15.518  0.00  0.00     0.035 C 
ATOM      7  C10 ZIN A   1      18.678   1.884  14.255  0.00  0.00     0.097 C 
ATOM      8  C19 ZIN A   1      17.314   1.261  13.945  0.00  0.00     0.059 C 
ATOM      9  C17 ZIN A   1      17.352  -0.220  14.357  0.00  0.00     0.190 C 
ATOM     10  C16 ZIN A   1      17.976  -0.330  15.766  0.00  0.00     0.035 C 
ATOM     11  H21 ZIN A   1      18.284  -1.891  13.531  0.00  0.00     0.280 HD
BRANCH   7  12
ATOM     12  N9  ZIN A   1      18.707   3.265  13.764  0.00  0.00    -0.315 N 
ATOM     13  C2  ZIN A   1      18.316   3.702  12.542  0.00  0.00     0.126 A 
ATOM     14  C1  ZIN A   1      17.760   2.856  11.426  0.00  0.00     0.093 C 
ATOM     15  N3  ZIN A   1      18.505   4.994  12.515  0.00  0.00    -0.135 NA
ATOM     16  N4  ZIN A   1      18.991   5.384  13.639  0.00  0.00    -0.134 NA
ATOM     17  C5  ZIN A   1      19.136   4.360  14.435  0.00  0.00     0.134 A 
BRANCH  17  18
ATOM     18  C6  ZIN A   1      19.675   4.391  15.842  0.00  0.00     0.049 C 
ATOM     19  C7  ZIN A   1      20.666   5.548  15.983  0.00  0.00     0.018 C 
ATOM     20  C8  ZIN A   1      18.520   4.587  16.826  0.00  0.00     0.018 C 
ENDBRANCH  17  18
ENDBRANCH   7  12
ENDBRANCH   2   3
ENDBRANCH   1   2
BRANCH   1  21
ATOM     21  C24 ZIN A   1      18.407  -2.385  10.481  0.00  0.00     0.119 C 
BRANCH  21  22
ATOM     22  N26 ZIN A   1      18.374  -1.948   9.083  0.00  0.00    -0.352 N 
ATOM     23  C27 ZIN A   1      19.293  -1.073   8.630  0.00  0.00     0.222 C 
ATOM     24  O28 ZIN A   1      20.147  -0.648   9.378  0.00  0.00    -0.273 OA
ATOM     25  H65 ZIN A   1      17.690  -2.287   8.484  0.00  0.00     0.163 HD
BRANCH  23  26
ATOM     26  C29 ZIN A   1      19.259  -0.623   7.192  0.00  0.00     0.078 C 
ATOM     27  C36 ZIN A   1      17.999   0.209   6.948  0.00  0.00     0.020 C 
ATOM     28  C35 ZIN A   1      17.963   0.667   5.488  0.00  0.00     0.080 C 
ATOM     29  C32 ZIN A   1      17.952  -0.557   4.570  0.00  0.00     0.243 C 
ATOM     30  C31 ZIN A   1      19.214  -1.389   4.814  0.00  0.00     0.080 C 
ATOM     31  F33 ZIN A   1      17.921  -0.138   3.236  0.00  0.00    -0.206 F 
ATOM     32  F34 ZIN A   1      16.821  -1.334   4.843  0.00  0.00    -0.206 F 
ATOM     33  C30 ZIN A   1      19.248  -1.846   6.274  0.00  0.00     0.020 C 
ENDBRANCH  23  26
ENDBRANCH  21  22
BRANCH  21  34
ATOM     34  C37 ZIN A   1      18.043  -3.845  10.560  0.00  0.00    -0.035 A 
ATOM     35  C42 ZIN A   1      18.138  -4.643   9.436  0.00  0.00     0.009 A 
ATOM     36  C41 ZIN A   1      17.808  -5.983   9.509  0.00  0.00     0.001 A 
ATOM     37  C40 ZIN A   1      17.374  -6.524  10.705  0.00  0.00     0.000 A 
ATOM     38  C39 ZIN A   1      17.273  -5.725  11.828  0.00  0.00     0.001 A 
ATOM     39  C38 ZIN A   1      17.608  -4.385  11.756  0.00  0.00     0.009 A 
ENDBRANCH  21  34
ENDBRANCH   1  21
TORSDOF 8
ENDMDL
MODEL 9
REMARK VINA RESULT:      -8.7      4.183      9.100
REMARK  8 active torsions:
REMARK  status: ('A' for Active; 'I' for Inactive)
REMARK    1  A    between atoms: C5_5  and  C6_6 
REMARK    2  A    between atoms: N9_9  and  C10_10 
REMARK    3  A    between atoms: N20_17  and  C22_19 
REMARK    4  A    between atoms: C22_19  and  C23_20 
REMARK    5  A    between atoms: C23_20  and  C24_21 
REMARK    6  A    between atoms: C24_21  and  N26_22 
REMARK    7  A    between atoms: C24_21  and  C37_33 
REMARK       I    between atoms: N26_22  and  C27_23 
REMARK    8  A    between atoms: C27_23  and  C29_25 
ROOT
ATOM      1  C23 ZIN A   1      17.906   1.209  13.799  0.00  0.00     0.057 C 
ENDROOT
BRANCH   1   2
ATOM      2  C22 ZIN A   1      18.628   2.557  13.744  0.00  0.00     0.238 C 
BRANCH   2   3
ATOM      3  N20 ZIN A   1      18.304   3.233  12.481  0.00  0.00    -0.062 N 
ATOM      4  C13 ZIN A   1      16.991   3.928  12.561  0.00  0.00     0.190 C 
ATOM      5  C12 ZIN A   1      16.957   4.685  13.898  0.00  0.00     0.059 C 
ATOM      6  C15 ZIN A   1      17.030   4.977  11.426  0.00  0.00     0.035 C 
ATOM      7  C10 ZIN A   1      18.046   5.761  13.887  0.00  0.00     0.097 C 
ATOM      8  C19 ZIN A   1      19.398   5.125  13.552  0.00  0.00     0.059 C 
ATOM      9  C17 ZIN A   1      19.261   4.362  12.225  0.00  0.00     0.190 C 
ATOM     10  C16 ZIN A   1      18.530   5.264  11.204  0.00  0.00     0.035 C 
ATOM     11  H21 ZIN A   1      18.315   2.577  11.714  0.00  0.00     0.280 HD
BRANCH   7  12
ATOM     12  N9  ZIN A   1      18.118   6.395  15.206  0.00  0.00    -0.315 N 
ATOM     13  C2  ZIN A   1      18.004   7.717  15.482  0.00  0.00     0.126 A 
ATOM     14  C1  ZIN A   1      17.772   8.821  14.483  0.00  0.00     0.093 C 
ATOM     15  N3  ZIN A   1      18.127   7.855  16.774  0.00  0.00    -0.135 NA
ATOM     16  N4  ZIN A   1      18.313   6.705  17.317  0.00  0.00    -0.134 NA
ATOM     17  C5  ZIN A   1      18.319   5.780  16.396  0.00  0.00     0.134 A 
BRANCH  17  18
ATOM     18  C6  ZIN A   1      18.508   4.301  16.616  0.00  0.00     0.049 C 
ATOM     19  C7  ZIN A   1      20.002   3.990  16.733  0.00  0.00     0.018 C 
ATOM     20  C8  ZIN A   1      17.799   3.883  17.906  0.00  0.00     0.018 C 
ENDBRANCH  17  18
ENDBRANCH   7  12
ENDBRANCH   2   3
ENDBRANCH   1   2
BRANCH   1  21
ATOM     21  C24 ZIN A   1      18.796   0.182  14.504  0.00  0.00     0.119 C 
BRANCH  21  22
ATOM     22  N26 ZIN A   1      18.494  -1.158  13.993  0.00  0.00    -0.352 N 
ATOM     23  C27 ZIN A   1      19.091  -1.599  12.869  0.00  0.00     0.222 C 
ATOM     24  O28 ZIN A   1      19.877  -0.888  12.280  0.00  0.00    -0.273 OA
ATOM     25  H65 ZIN A   1      17.865  -1.726  14.464  0.00  0.00     0.163 HD
BRANCH  23  26
ATOM     26  C29 ZIN A   1      18.781  -2.977  12.343  0.00  0.00     0.078 C 
ATOM     27  C36 ZIN A   1      19.942  -3.465  11.475  0.00  0.00     0.020 C 
ATOM     28  C35 ZIN A   1      19.628  -4.864  10.941  0.00  0.00     0.080 C 
ATOM     29  C32 ZIN A   1      18.350  -4.815  10.101  0.00  0.00     0.243 C 
ATOM     30  C31 ZIN A   1      17.188  -4.326  10.970  0.00  0.00     0.080 C 
ATOM     31  F33 ZIN A   1      18.062  -6.094   9.614  0.00  0.00    -0.206 F 
ATOM     32  F34 ZIN A   1      18.531  -3.936   9.028  0.00  0.00    -0.206 F 
ATOM     33  C30 ZIN A   1      17.503  -2.927  11.503  0.00  0.00     0.020 C 
ENDBRANCH  23  26
ENDBRANCH  21  22
BRANCH  21  34
ATOM     34  C37 ZIN A   1      18.535   0.225  15.987  0.00  0.00    -0.035 A 
ATOM     35  C42 ZIN A   1      17.239   0.168  16.463  0.00  0.00     0.009 A 
ATOM     36  C41 ZIN A   1      17.000   0.204  17.824  0.00  0.00     0.001 A 
ATOM     37  C40 ZIN A   1      18.058   0.307  18.709  0.00  0.00     0.000 A 
ATOM     38  C39 ZIN A   1      19.354   0.369  18.233  0.00  0.00     0.001 A 
ATOM     39  C38 ZIN A   1      19.593   0.328  16.872  0.00  0.00     0.009 A 
ENDBRANCH  21  34
ENDBRANCH   1  21
TORSDOF 8
ENDMDL
