MODEL 1
REMARK VINA RESULT:      -8.9      0.000      0.000
REMARK  1 active torsions:
REMARK  status: ('A' for Active; 'I' for Inactive)
REMARK    1  A    between atoms: N6_6  and  C7_7 
ROOT
ATOM      1  C7  <0> d   1      18.331  -1.530  11.365  0.00  0.00     0.139 C 
ATOM      2  N8  <0> d   1      18.429  -0.861  10.267  0.00  0.00    -0.228 NA
ATOM      3  C9  <0> d   1      18.431   0.495  10.132  0.00  0.00     0.093 A 
ATOM      4  C10 <0> d   1      19.305   1.080   9.212  0.00  0.00     0.034 A 
ATOM      5  C11 <0> d   1      19.308   2.449   9.031  0.00  0.00     0.002 A 
ATOM      6  C12 <0> d   1      18.445   3.248   9.758  0.00  0.00     0.003 A 
ATOM      7  C13 <0> d   1      17.583   2.679  10.682  0.00  0.00     0.040 A 
ATOM      8  C14 <0> d   1      17.581   1.309  10.883  0.00  0.00     0.104 A 
ATOM      9  O15 <0> d   1      16.776   0.788  11.844  0.00  0.00    -0.307 OA
ATOM     10  C16 <0> d   1      17.365   0.178  12.902  0.00  0.00     0.090 A 
ATOM     11  C17 <0> d   1      17.170   0.671  14.181  0.00  0.00     0.040 A 
ATOM     12  C18 <0> d   1      17.793   0.069  15.260  0.00  0.00     0.026 A 
ATOM     13  C19 <0> d   1      18.615  -1.029  15.068  0.00  0.00     0.035 A 
ATOM     14 Cl20 <0> d   1      19.404  -1.767  16.427  0.00  0.00    -0.084 Cl
ATOM     15  C21 <0> d   1      18.808  -1.539  13.799  0.00  0.00     0.042 A 
ATOM     16  C22 <0> d   1      18.169  -0.947  12.705  0.00  0.00     0.045 A 
ENDROOT
BRANCH   1  17
ATOM     17  N6  <0> d   1      18.376  -2.902  11.274  0.00  0.00    -0.362 N 
ATOM     18  C5  <0> d   1      17.150  -3.708  11.383  0.00  0.00     0.152 C 
ATOM     19  C4  <0> d   1      17.101  -4.679  10.198  0.00  0.00     0.254 C 
ATOM     20  N2  <0> d   1      18.342  -5.464  10.158  0.00  0.00    -0.072 N 
ATOM     21  C1  <0> d   1      18.248  -6.469   9.091  0.00  0.00     0.269 C 
ATOM     22  H3  <0> d   1      18.473  -5.928  11.045  0.00  0.00     0.279 HD
ATOM     23  C24 <0> d   1      19.483  -4.579   9.896  0.00  0.00     0.254 C 
ATOM     24  C23 <0> d   1      19.652  -3.605  11.067  0.00  0.00     0.152 C 
ENDBRANCH   1  17
TORSDOF 1
ENDMDL
MODEL 2
REMARK VINA RESULT:      -8.3      4.169      6.867
REMARK  1 active torsions:
REMARK  status: ('A' for Active; 'I' for Inactive)
REMARK    1  A    between atoms: N6_6  and  C7_7 
ROOT
ATOM      1  C7  <0> d   1      18.812   3.183  14.580  0.00  0.00     0.139 C 
ATOM      2  N8  <0> d   1      18.862   3.905  13.514  0.00  0.00    -0.228 NA
ATOM      3  C9  <0> d   1      18.787   3.470  12.225  0.00  0.00     0.093 A 
ATOM      4  C10 <0> d   1      18.050   4.217  11.302  0.00  0.00     0.034 A 
ATOM      5  C11 <0> d   1      17.981   3.816   9.982  0.00  0.00     0.002 A 
ATOM      6  C12 <0> d   1      18.643   2.676   9.567  0.00  0.00     0.003 A 
ATOM      7  C13 <0> d   1      19.366   1.922  10.476  0.00  0.00     0.040 A 
ATOM      8  C14 <0> d   1      19.431   2.304  11.805  0.00  0.00     0.104 A 
ATOM      9  O15 <0> d   1      20.089   1.508  12.686  0.00  0.00    -0.307 OA
ATOM     10  C16 <0> d   1      19.367   0.927  13.677  0.00  0.00     0.090 A 
ATOM     11  C17 <0> d   1      19.297  -0.454  13.763  0.00  0.00     0.040 A 
ATOM     12  C18 <0> d   1      18.538  -1.050  14.754  0.00  0.00     0.026 A 
ATOM     13  C19 <0> d   1      17.844  -0.272  15.665  0.00  0.00     0.035 A 
ATOM     14 Cl20 <0> d   1      16.882  -1.031  16.895  0.00  0.00    -0.084 Cl
ATOM     15  C21 <0> d   1      17.914   1.106  15.598  0.00  0.00     0.042 A 
ATOM     16  C22 <0> d   1      18.693   1.717  14.610  0.00  0.00     0.045 A 
ENDROOT
BRANCH   1  17
ATOM     17  N6  <0> d   1      18.882   3.835  15.790  0.00  0.00    -0.362 N 
ATOM     18  C5  <0> d   1      18.047   5.015  16.062  0.00  0.00     0.152 C 
ATOM     19  C4  <0> d   1      17.336   4.807  17.403  0.00  0.00     0.254 C 
ATOM     20  N2  <0> d   1      18.330   4.515  18.443  0.00  0.00    -0.072 N 
ATOM     21  C1  <0> d   1      17.660   4.425  19.747  0.00  0.00     0.269 C 
ATOM     22  H3  <0> d   1      19.015   5.255  18.470  0.00  0.00     0.279 HD
ATOM     23  C24 <0> d   1      18.998   3.241  18.150  0.00  0.00     0.254 C 
ATOM     24  C23 <0> d   1      19.795   3.372  16.848  0.00  0.00     0.152 C 
ENDBRANCH   1  17
TORSDOF 1
ENDMDL
MODEL 3
REMARK VINA RESULT:      -8.2      3.630      6.601
REMARK  1 active torsions:
REMARK  status: ('A' for Active; 'I' for Inactive)
REMARK    1  A    between atoms: N6_6  and  C7_7 
ROOT
ATOM      1  C7  <0> d   1      18.594   2.531  13.328  0.00  0.00     0.139 C 
ATOM      2  N8  <0> d   1      18.825   2.756  12.080  0.00  0.00    -0.228 NA
ATOM      3  C9  <0> d   1      19.123   1.833  11.123  0.00  0.00     0.093 A 
ATOM      4  C10 <0> d   1      18.560   1.974   9.852  0.00  0.00     0.034 A 
ATOM      5  C11 <0> d   1      18.867   1.071   8.853  0.00  0.00     0.002 A 
ATOM      6  C12 <0> d   1      19.736   0.026   9.104  0.00  0.00     0.003 A 
ATOM      7  C13 <0> d   1      20.290  -0.130  10.364  0.00  0.00     0.040 A 
ATOM      8  C14 <0> d   1      19.979   0.759  11.378  0.00  0.00     0.104 A 
ATOM      9  O15 <0> d   1      20.482   0.541  12.621  0.00  0.00    -0.307 OA
ATOM     10  C16 <0> d   1      19.606   0.272  13.621  0.00  0.00     0.090 A 
ATOM     11  C17 <0> d   1      19.673  -0.938  14.290  0.00  0.00     0.040 A 
ATOM     12  C18 <0> d   1      18.763  -1.229  15.292  0.00  0.00     0.026 A 
ATOM     13  C19 <0> d   1      17.782  -0.313  15.630  0.00  0.00     0.035 A 
ATOM     14 Cl20 <0> d   1      16.636  -0.695  16.877  0.00  0.00    -0.084 Cl
ATOM     15  C21 <0> d   1      17.711   0.902  14.978  0.00  0.00     0.042 A 
ATOM     16  C22 <0> d   1      18.637   1.211  13.977  0.00  0.00     0.045 A 
ENDROOT
BRANCH   1  17
ATOM     17  N6  <0> d   1      18.287   3.614  14.119  0.00  0.00    -0.362 N 
ATOM     18  C5  <0> d   1      19.194   4.049  15.192  0.00  0.00     0.152 C 
ATOM     19  C4  <0> d   1      19.437   5.554  15.042  0.00  0.00     0.254 C 
ATOM     20  N2  <0> d   1      18.148   6.257  15.016  0.00  0.00    -0.072 N 
ATOM     21  C1  <0> d   1      18.383   7.706  14.984  0.00  0.00     0.269 C 
ATOM     22  H3  <0> d   1      17.622   6.022  15.844  0.00  0.00     0.279 HD
ATOM     23  C24 <0> d   1      17.388   5.860  13.825  0.00  0.00     0.254 C 
ATOM     24  C23 <0> d   1      17.040   4.370  13.916  0.00  0.00     0.152 C 
ENDBRANCH   1  17
TORSDOF 1
ENDMDL
MODEL 4
REMARK VINA RESULT:      -8.2      2.427      4.271
REMARK  1 active torsions:
REMARK  status: ('A' for Active; 'I' for Inactive)
REMARK    1  A    between atoms: N6_6  and  C7_7 
ROOT
ATOM      1  C7  <0> d   1      18.692  -2.120  12.381  0.00  0.00     0.139 C 
ATOM      2  N8  <0> d   1      18.687  -2.009  13.664  0.00  0.00    -0.228 NA
ATOM      3  C9  <0> d   1      18.644  -0.853  14.386  0.00  0.00     0.093 A 
ATOM      4  C10 <0> d   1      17.853  -0.805  15.537  0.00  0.00     0.034 A 
ATOM      5  C11 <0> d   1      17.813   0.342  16.305  0.00  0.00     0.002 A 
ATOM      6  C12 <0> d   1      18.558   1.448  15.940  0.00  0.00     0.003 A 
ATOM      7  C13 <0> d   1      19.336   1.415  14.795  0.00  0.00     0.040 A 
ATOM      8  C14 <0> d   1      19.373   0.277  14.008  0.00  0.00     0.104 A 
ATOM      9  O15 <0> d   1      20.088   0.298  12.854  0.00  0.00    -0.307 OA
ATOM     10  C16 <0> d   1      19.412   0.163  11.686  0.00  0.00     0.090 A 
ATOM     11  C17 <0> d   1      19.445   1.180  10.747  0.00  0.00     0.040 A 
ATOM     12  C18 <0> d   1      18.733   1.058   9.567  0.00  0.00     0.026 A 
ATOM     13  C19 <0> d   1      17.984  -0.079   9.318  0.00  0.00     0.035 A 
ATOM     14 Cl20 <0> d   1      17.082  -0.214   7.841  0.00  0.00    -0.084 Cl
ATOM     15  C21 <0> d   1      17.951  -1.106  10.241  0.00  0.00     0.042 A 
ATOM     16  C22 <0> d   1      18.682  -0.999  11.429  0.00  0.00     0.045 A 
ENDROOT
BRANCH   1  17
ATOM     17  N6  <0> d   1      18.714  -3.392  11.857  0.00  0.00    -0.362 N 
ATOM     18  C5  <0> d   1      17.500  -4.225  11.840  0.00  0.00     0.152 C 
ATOM     19  C4  <0> d   1      17.308  -4.774  10.423  0.00  0.00     0.254 C 
ATOM     20  N2  <0> d   1      18.529  -5.473  10.000  0.00  0.00    -0.072 N 
ATOM     21  C1  <0> d   1      18.306  -6.093   8.688  0.00  0.00     0.269 C 
ATOM     22  H3  <0> d   1      18.756  -6.188  10.674  0.00  0.00     0.279 HD
ATOM     23  C24 <0> d   1      19.641  -4.520   9.906  0.00  0.00     0.254 C 
ATOM     24  C23 <0> d   1      19.951  -3.960  11.299  0.00  0.00     0.152 C 
ENDBRANCH   1  17
TORSDOF 1
ENDMDL
MODEL 5
REMARK VINA RESULT:      -8.1      2.961      4.722
REMARK  1 active torsions:
REMARK  status: ('A' for Active; 'I' for Inactive)
REMARK    1  A    between atoms: N6_6  and  C7_7 
ROOT
ATOM      1  C7  <0> d   1      18.690  -2.650  10.302  0.00  0.00     0.139 C 
ATOM      2  N8  <0> d   1      18.909  -2.675  11.571  0.00  0.00    -0.228 NA
ATOM      3  C9  <0> d   1      19.162  -1.607  12.379  0.00  0.00     0.093 A 
ATOM      4  C10 <0> d   1      18.584  -1.572  13.651  0.00  0.00     0.034 A 
ATOM      5  C11 <0> d   1      18.846  -0.518  14.504  0.00  0.00     0.002 A 
ATOM      6  C12 <0> d   1      19.683   0.507  14.105  0.00  0.00     0.003 A 
ATOM      7  C13 <0> d   1      20.251   0.488  12.842  0.00  0.00     0.040 A 
ATOM      8  C14 <0> d   1      19.985  -0.555  11.972  0.00  0.00     0.104 A 
ATOM      9  O15 <0> d   1      20.500  -0.511  10.716  0.00  0.00    -0.307 OA
ATOM     10  C16 <0> d   1      19.631  -0.428   9.678  0.00  0.00     0.090 A 
ATOM     11  C17 <0> d   1      19.668   0.668   8.832  0.00  0.00     0.040 A 
ATOM     12  C18 <0> d   1      18.765   0.771   7.789  0.00  0.00     0.026 A 
ATOM     13  C19 <0> d   1      17.819  -0.219   7.585  0.00  0.00     0.035 A 
ATOM     14 Cl20 <0> d   1      16.680  -0.072   6.283  0.00  0.00    -0.084 Cl
ATOM     15  C21 <0> d   1      17.779  -1.324   8.413  0.00  0.00     0.042 A 
ATOM     16  C22 <0> d   1      18.699  -1.444   9.459  0.00  0.00     0.045 A 
ENDROOT
BRANCH   1  17
ATOM     17  N6  <0> d   1      18.431  -3.851   9.682  0.00  0.00    -0.362 N 
ATOM     18  C5  <0> d   1      17.258  -4.658  10.054  0.00  0.00     0.152 C 
ATOM     19  C4  <0> d   1      16.500  -5.031   8.776  0.00  0.00     0.254 C 
ATOM     20  N2  <0> d   1      17.418  -5.691   7.839  0.00  0.00    -0.072 N 
ATOM     21  C1  <0> d   1      16.667  -6.147   6.661  0.00  0.00     0.269 C 
ATOM     22  H3  <0> d   1      17.845  -6.486   8.292  0.00  0.00     0.279 HD
ATOM     23  C24 <0> d   1      18.462  -4.750   7.417  0.00  0.00     0.254 C 
ATOM     24  C23 <0> d   1      19.320  -4.366   8.627  0.00  0.00     0.152 C 
ENDBRANCH   1  17
TORSDOF 1
ENDMDL
MODEL 6
REMARK VINA RESULT:      -8.0      3.399      5.482
REMARK  1 active torsions:
REMARK  status: ('A' for Active; 'I' for Inactive)
REMARK    1  A    between atoms: N6_6  and  C7_7 
ROOT
ATOM      1  C7  <0> d   1      18.491   0.494  12.686  0.00  0.00     0.139 C 
ATOM      2  N8  <0> d   1      18.485  -0.345  13.663  0.00  0.00    -0.228 NA
ATOM      3  C9  <0> d   1      18.315  -0.061  14.985  0.00  0.00     0.093 A 
ATOM      4  C10 <0> d   1      17.534  -0.919  15.765  0.00  0.00     0.034 A 
ATOM      5  C11 <0> d   1      17.368  -0.673  17.114  0.00  0.00     0.002 A 
ATOM      6  C12 <0> d   1      17.975   0.422  17.700  0.00  0.00     0.003 A 
ATOM      7  C13 <0> d   1      18.741   1.285  16.934  0.00  0.00     0.040 A 
ATOM      8  C14 <0> d   1      18.903   1.059  15.578  0.00  0.00     0.104 A 
ATOM      9  O15 <0> d   1      19.600   1.960  14.840  0.00  0.00    -0.307 OA
ATOM     10  C16 <0> d   1      18.933   2.639  13.874  0.00  0.00     0.090 A 
ATOM     11  C17 <0> d   1      18.839   4.019  13.940  0.00  0.00     0.040 A 
ATOM     12  C18 <0> d   1      18.135   4.714  12.972  0.00  0.00     0.026 A 
ATOM     13  C19 <0> d   1      17.521   4.035  11.934  0.00  0.00     0.035 A 
ATOM     14 Cl20 <0> d   1      16.627   4.915  10.734  0.00  0.00    -0.084 Cl
ATOM     15  C21 <0> d   1      17.617   2.660  11.849  0.00  0.00     0.042 A 
ATOM     16  C22 <0> d   1      18.341   1.951  12.813  0.00  0.00     0.045 A 
ENDROOT
BRANCH   1  17
ATOM     17  N6  <0> d   1      18.656  -0.015  11.418  0.00  0.00    -0.362 N 
ATOM     18  C5  <0> d   1      17.564  -0.734  10.743  0.00  0.00     0.152 C 
ATOM     19  C4  <0> d   1      17.380  -0.134   9.345  0.00  0.00     0.254 C 
ATOM     20  N2  <0> d   1      18.661  -0.165   8.627  0.00  0.00    -0.072 N 
ATOM     21  C1  <0> d   1      18.460   0.307   7.251  0.00  0.00     0.269 C 
ATOM     22  H3  <0> d   1      19.011  -1.111   8.609  0.00  0.00     0.279 HD
ATOM     23  C24 <0> d   1      19.632   0.703   9.303  0.00  0.00     0.254 C 
ATOM     24  C23 <0> d   1      19.930   0.143  10.698  0.00  0.00     0.152 C 
ENDBRANCH   1  17
TORSDOF 1
ENDMDL
MODEL 7
REMARK VINA RESULT:      -7.9      3.623      6.110
REMARK  1 active torsions:
REMARK  status: ('A' for Active; 'I' for Inactive)
REMARK    1  A    between atoms: N6_6  and  C7_7 
ROOT
ATOM      1  C7  <0> d   1      18.540  -2.605   9.049  0.00  0.00     0.139 C 
ATOM      2  N8  <0> d   1      18.609  -1.410   8.572  0.00  0.00    -0.228 NA
ATOM      3  C9  <0> d   1      18.609  -1.051   7.257  0.00  0.00     0.093 A 
ATOM      4  C10 <0> d   1      17.885   0.079   6.866  0.00  0.00     0.034 A 
ATOM      5  C11 <0> d   1      17.891   0.484   5.546  0.00  0.00     0.002 A 
ATOM      6  C12 <0> d   1      18.613  -0.225   4.605  0.00  0.00     0.003 A 
ATOM      7  C13 <0> d   1      19.324  -1.354   4.979  0.00  0.00     0.040 A 
ATOM      8  C14 <0> d   1      19.315  -1.779   6.297  0.00  0.00     0.104 A 
ATOM      9  O15 <0> d   1      19.963  -2.928   6.621  0.00  0.00    -0.307 OA
ATOM     10  C16 <0> d   1      19.220  -3.967   7.075  0.00  0.00     0.090 A 
ATOM     11  C17 <0> d   1      19.199  -5.161   6.373  0.00  0.00     0.040 A 
ATOM     12  C18 <0> d   1      18.420  -6.215   6.818  0.00  0.00     0.026 A 
ATOM     13  C19 <0> d   1      17.657  -6.083   7.965  0.00  0.00     0.035 A 
ATOM     14 Cl20 <0> d   1      16.671  -7.406   8.505  0.00  0.00    -0.084 Cl
ATOM     15  C21 <0> d   1      17.678  -4.902   8.682  0.00  0.00     0.042 A 
ATOM     16  C22 <0> d   1      18.476  -3.838   8.249  0.00  0.00     0.045 A 
ENDROOT
BRANCH   1  17
ATOM     17  N6  <0> d   1      18.531  -2.739  10.418  0.00  0.00    -0.362 N 
ATOM     18  C5  <0> d   1      19.659  -3.368  11.124  0.00  0.00     0.152 C 
ATOM     19  C4  <0> d   1      20.091  -2.443  12.267  0.00  0.00     0.254 C 
ATOM     20  N2  <0> d   1      18.933  -2.144  13.119  0.00  0.00    -0.072 N 
ATOM     21  C1  <0> d   1      19.370  -1.349  14.274  0.00  0.00     0.269 C 
ATOM     22  H3  <0> d   1      18.524  -3.008  13.442  0.00  0.00     0.279 HD
ATOM     23  C24 <0> d   1      17.936  -1.386  12.355  0.00  0.00     0.254 C 
ATOM     24  C23 <0> d   1      17.393  -2.259  11.218  0.00  0.00     0.152 C 
ENDBRANCH   1  17
TORSDOF 1
ENDMDL
MODEL 8
REMARK VINA RESULT:      -7.9      3.058      5.927
REMARK  1 active torsions:
REMARK  status: ('A' for Active; 'I' for Inactive)
REMARK    1  A    between atoms: N6_6  and  C7_7 
ROOT
ATOM      1  C7  <0> d   1      18.726   1.741  10.276  0.00  0.00     0.139 C 
ATOM      2  N8  <0> d   1      18.632   1.663   8.993  0.00  0.00    -0.228 NA
ATOM      3  C9  <0> d   1      18.614   0.527   8.241  0.00  0.00     0.093 A 
ATOM      4  C10 <0> d   1      17.743   0.454   7.150  0.00  0.00     0.034 A 
ATOM      5  C11 <0> d   1      17.725  -0.673   6.352  0.00  0.00     0.002 A 
ATOM      6  C12 <0> d   1      18.569  -1.733   6.626  0.00  0.00     0.003 A 
ATOM      7  C13 <0> d   1      19.426  -1.675   7.712  0.00  0.00     0.040 A 
ATOM      8  C14 <0> d   1      19.444  -0.558   8.529  0.00  0.00     0.104 A 
ATOM      9  O15 <0> d   1      20.244  -0.559   9.626  0.00  0.00    -0.307 OA
ATOM     10  C16 <0> d   1      19.650  -0.502  10.844  0.00  0.00     0.090 A 
ATOM     11  C17 <0> d   1      19.823  -1.539  11.746  0.00  0.00     0.040 A 
ATOM     12  C18 <0> d   1      19.195  -1.498  12.979  0.00  0.00     0.026 A 
ATOM     13  C19 <0> d   1      18.391  -0.424  13.317  0.00  0.00     0.035 A 
ATOM     14 Cl20 <0> d   1      17.595  -0.391  14.860  0.00  0.00    -0.084 Cl
ATOM     15  C21 <0> d   1      18.219   0.622  12.431  0.00  0.00     0.042 A 
ATOM     16  C22 <0> d   1      18.864   0.598  11.191  0.00  0.00     0.045 A 
ENDROOT
BRANCH   1  17
ATOM     17  N6  <0> d   1      18.700   2.998  10.836  0.00  0.00    -0.362 N 
ATOM     18  C5  <0> d   1      17.509   3.855  10.718  0.00  0.00     0.152 C 
ATOM     19  C4  <0> d   1      17.141   4.368  12.114  0.00  0.00     0.254 C 
ATOM     20  N2  <0> d   1      18.306   5.029  12.715  0.00  0.00    -0.072 N 
ATOM     21  C1  <0> d   1      17.922   5.618  14.004  0.00  0.00     0.269 C 
ATOM     22  H3  <0> d   1      18.633   5.759  12.098  0.00  0.00     0.279 HD
ATOM     23  C24 <0> d   1      19.380   4.051  12.925  0.00  0.00     0.254 C 
ATOM     24  C23 <0> d   1      19.862   3.524  11.570  0.00  0.00     0.152 C 
ENDBRANCH   1  17
TORSDOF 1
ENDMDL
MODEL 9
REMARK VINA RESULT:      -7.7      4.864      7.174
REMARK  1 active torsions:
REMARK  status: ('A' for Active; 'I' for Inactive)
REMARK    1  A    between atoms: N6_6  and  C7_7 
ROOT
ATOM      1  C7  <0> d   1      18.501   2.958  14.187  0.00  0.00     0.139 C 
ATOM      2  N8  <0> d   1      18.624   1.738  14.584  0.00  0.00    -0.228 NA
ATOM      3  C9  <0> d   1      18.586   1.288  15.870  0.00  0.00     0.093 A 
ATOM      4  C10 <0> d   1      17.918   0.092  16.147  0.00  0.00     0.034 A 
ATOM      5  C11 <0> d   1      17.889  -0.404  17.436  0.00  0.00     0.002 A 
ATOM      6  C12 <0> d   1      18.523   0.278  18.457  0.00  0.00     0.003 A 
ATOM      7  C13 <0> d   1      19.178   1.471  18.196  0.00  0.00     0.040 A 
ATOM      8  C14 <0> d   1      19.201   1.987  16.911  0.00  0.00     0.104 A 
ATOM      9  O15 <0> d   1      19.790   3.192  16.698  0.00  0.00    -0.307 OA
ATOM     10  C16 <0> d   1      19.005   4.215  16.279  0.00  0.00     0.090 A 
ATOM     11  C17 <0> d   1      18.878   5.353  17.059  0.00  0.00     0.040 A 
ATOM     12  C18 <0> d   1      18.055   6.387  16.649  0.00  0.00     0.026 A 
ATOM     13  C19 <0> d   1      17.354   6.292  15.459  0.00  0.00     0.035 A 
ATOM     14 Cl20 <0> d   1      16.313   7.589  14.963  0.00  0.00    -0.084 Cl
ATOM     15  C21 <0> d   1      17.481   5.168  14.666  0.00  0.00     0.042 A 
ATOM     16  C22 <0> d   1      18.324   4.125  15.064  0.00  0.00     0.045 A 
ENDROOT
BRANCH   1  17
ATOM     17  N6  <0> d   1      18.546   3.188  12.831  0.00  0.00    -0.362 N 
ATOM     18  C5  <0> d   1      19.776   3.673  12.185  0.00  0.00     0.152 C 
ATOM     19  C4  <0> d   1      20.080   2.773  10.983  0.00  0.00     0.254 C 
ATOM     20  N2  <0> d   1      18.908   2.727  10.099  0.00  0.00    -0.072 N 
ATOM     21  C1  <0> d   1      19.238   1.955   8.893  0.00  0.00     0.269 C 
ATOM     22  H3  <0> d   1      18.651   3.666   9.835  0.00  0.00     0.279 HD
ATOM     23  C24 <0> d   1      17.784   2.089  10.794  0.00  0.00     0.254 C 
ATOM     24  C23 <0> d   1      17.364   2.957  11.985  0.00  0.00     0.152 C 
ENDBRANCH   1  17
TORSDOF 1
ENDMDL
