MODEL 1
REMARK VINA RESULT:      -8.6      0.000      0.000
REMARK  7 active torsions:
REMARK  status: ('A' for Active; 'I' for Inactive)
REMARK    1  A    between atoms: C2_2  and  O3_3 
REMARK    2  A    between atoms: C2_2  and  C4_4 
REMARK    3  A    between atoms: C2_2  and  C15_15 
REMARK    4  A    between atoms: C4_4  and  S5_5 
REMARK    5  A    between atoms: S5_5  and  C8_8 
REMARK       I    between atoms: C15_15  and  N17_17 
REMARK    6  A    between atoms: N17_17  and  C18_18 
REMARK    7  A    between atoms: C24_24  and  C25_25 
ROOT
ATOM      1  C18 ZIN A   1      18.818   1.168  13.798  0.00  0.00     0.035 A 
ATOM      2  C19 ZIN A   1      18.990   2.503  14.146  0.00  0.00     0.031 A 
ATOM      3  C20 ZIN A   1      19.118   2.859  15.471  0.00  0.00     0.026 A 
ATOM      4  C21 ZIN A   1      19.075   1.878  16.464  0.00  0.00     0.059 A 
ATOM      5  C22 ZIN A   1      19.208   2.245  17.842  0.00  0.00     0.100 C 
ATOM      6  N23 ZIN A   1      19.313   2.537  18.935  0.00  0.00    -0.191 NA
ATOM      7  C24 ZIN A   1      18.903   0.537  16.110  0.00  0.00     0.070 A 
ATOM      8  C29 ZIN A   1      18.770   0.189  14.785  0.00  0.00     0.047 A 
ENDROOT
BRANCH   7   9
ATOM      9  C25 ZIN A   1      18.856  -0.525  17.177  0.00  0.00     0.419 C 
ATOM     10  F26 ZIN A   1      17.670  -0.399  17.909  0.00  0.00    -0.166 F 
ATOM     11  F27 ZIN A   1      18.902  -1.790  16.581  0.00  0.00    -0.166 F 
ATOM     12  F28 ZIN A   1      19.951  -0.374  18.035  0.00  0.00    -0.166 F 
ENDBRANCH   7   9
BRANCH   1  13
ATOM     13  N17 ZIN A   1      18.690   0.810  12.455  0.00  0.00    -0.325 N 
ATOM     14  C15 ZIN A   1      19.782   0.488  11.735  0.00  0.00     0.257 C 
ATOM     15  O16 ZIN A   1      20.886   0.589  12.230  0.00  0.00    -0.270 OA
ATOM     16  H40 ZIN A   1      17.813   0.793  12.040  0.00  0.00     0.169 HD
BRANCH  14  17
ATOM     17  C2  ZIN A   1      19.634   0.002  10.316  0.00  0.00     0.148 C 
ATOM     18  C1  ZIN A   1      19.171   1.158   9.428  0.00  0.00     0.057 C 
BRANCH  17  19
ATOM     19  O3  ZIN A   1      20.892  -0.486   9.847  0.00  0.00    -0.380 OA
ATOM     20  H33 ZIN A   1      20.923  -0.641   8.893  0.00  0.00     0.211 HD
ENDBRANCH  17  19
BRANCH  17  21
ATOM     21  C4  ZIN A   1      18.600  -1.124  10.268  0.00  0.00     0.193 C 
BRANCH  21  22
ATOM     22  S5  ZIN A   1      19.089  -2.443  11.414  0.00  0.00     0.178 S 
ATOM     23  O6  ZIN A   1      20.495  -2.646  11.368  0.00  0.00    -0.223 OA
ATOM     24  O7  ZIN A   1      18.408  -2.305  12.654  0.00  0.00    -0.223 OA
BRANCH  22  25
ATOM     25  C8  ZIN A   1      18.415  -3.910  10.709  0.00  0.00     0.059 A 
ATOM     26  C14 ZIN A   1      17.099  -4.254  10.958  0.00  0.00     0.026 A 
ATOM     27  C13 ZIN A   1      16.568  -5.403  10.401  0.00  0.00     0.044 A 
ATOM     28  C11 ZIN A   1      17.356  -6.214   9.603  0.00  0.00     0.116 A 
ATOM     29  C10 ZIN A   1      18.676  -5.871   9.360  0.00  0.00     0.044 A 
ATOM     30  F12 ZIN A   1      16.840  -7.339   9.062  0.00  0.00    -0.206 F 
ATOM     31  C9  ZIN A   1      19.203  -4.720   9.914  0.00  0.00     0.026 A 
ENDBRANCH  22  25
ENDBRANCH  21  22
ENDBRANCH  17  21
ENDBRANCH  14  17
ENDBRANCH   1  13
TORSDOF 7
ENDMDL
MODEL 2
REMARK VINA RESULT:      -8.6      1.799      2.408
REMARK  7 active torsions:
REMARK  status: ('A' for Active; 'I' for Inactive)
REMARK    1  A    between atoms: C2_2  and  O3_3 
REMARK    2  A    between atoms: C2_2  and  C4_4 
REMARK    3  A    between atoms: C2_2  and  C15_15 
REMARK    4  A    between atoms: C4_4  and  S5_5 
REMARK    5  A    between atoms: S5_5  and  C8_8 
REMARK       I    between atoms: C15_15  and  N17_17 
REMARK    6  A    between atoms: N17_17  and  C18_18 
REMARK    7  A    between atoms: C24_24  and  C25_25 
ROOT
ATOM      1  C18 ZIN A   1      18.439   1.684  13.519  0.00  0.00     0.035 A 
ATOM      2  C19 ZIN A   1      18.831   2.760  14.308  0.00  0.00     0.031 A 
ATOM      3  C20 ZIN A   1      19.100   2.574  15.646  0.00  0.00     0.026 A 
ATOM      4  C21 ZIN A   1      18.978   1.302  16.211  0.00  0.00     0.059 A 
ATOM      5  C22 ZIN A   1      19.256   1.105  17.601  0.00  0.00     0.100 C 
ATOM      6  N23 ZIN A   1      19.477   0.949  18.705  0.00  0.00    -0.191 NA
ATOM      7  C24 ZIN A   1      18.584   0.222  15.415  0.00  0.00     0.070 A 
ATOM      8  C29 ZIN A   1      18.312   0.417  14.079  0.00  0.00     0.047 A 
ENDROOT
BRANCH   7   9
ATOM      9  C25 ZIN A   1      18.452  -1.152  16.019  0.00  0.00     0.419 C 
ATOM     10  F26 ZIN A   1      18.173  -2.080  15.011  0.00  0.00    -0.166 F 
ATOM     11  F27 ZIN A   1      19.648  -1.499  16.655  0.00  0.00    -0.166 F 
ATOM     12  F28 ZIN A   1      17.410  -1.152  16.954  0.00  0.00    -0.166 F 
ENDBRANCH   7   9
BRANCH   1  13
ATOM     13  N17 ZIN A   1      18.168   1.876  12.164  0.00  0.00    -0.325 N 
ATOM     14  C15 ZIN A   1      19.176   1.888  11.270  0.00  0.00     0.257 C 
ATOM     15  O16 ZIN A   1      20.326   1.816  11.652  0.00  0.00    -0.270 OA
ATOM     16  H40 ZIN A   1      17.254   2.001  11.865  0.00  0.00     0.169 HD
BRANCH  14  17
ATOM     17  C2  ZIN A   1      18.877   1.992   9.796  0.00  0.00     0.148 C 
ATOM     18  C1  ZIN A   1      18.215   3.340   9.505  0.00  0.00     0.057 C 
BRANCH  17  19
ATOM     19  O3  ZIN A   1      20.093   1.887   9.055  0.00  0.00    -0.380 OA
ATOM     20  H33 ZIN A   1      20.761   2.541   9.302  0.00  0.00     0.211 HD
ENDBRANCH  17  19
BRANCH  17  21
ATOM     21  C4  ZIN A   1      17.930   0.861   9.388  0.00  0.00     0.193 C 
BRANCH  21  22
ATOM     22  S5  ZIN A   1      18.901  -0.567   8.830  0.00  0.00     0.178 S 
ATOM     23  O6  ZIN A   1      18.606  -0.870   7.473  0.00  0.00    -0.223 OA
ATOM     24  O7  ZIN A   1      20.244  -0.466   9.283  0.00  0.00    -0.223 OA
BRANCH  22  25
ATOM     25  C8  ZIN A   1      18.239  -1.928   9.732  0.00  0.00     0.059 A 
ATOM     26  C14 ZIN A   1      17.934  -3.107   9.078  0.00  0.00     0.026 A 
ATOM     27  C13 ZIN A   1      17.419  -4.176   9.787  0.00  0.00     0.044 A 
ATOM     28  C11 ZIN A   1      17.200  -4.064  11.149  0.00  0.00     0.116 A 
ATOM     29  C10 ZIN A   1      17.501  -2.880  11.802  0.00  0.00     0.044 A 
ATOM     30  F12 ZIN A   1      16.692  -5.107  11.842  0.00  0.00    -0.206 F 
ATOM     31  C9  ZIN A   1      18.020  -1.814  11.092  0.00  0.00     0.026 A 
ENDBRANCH  22  25
ENDBRANCH  21  22
ENDBRANCH  17  21
ENDBRANCH  14  17
ENDBRANCH   1  13
TORSDOF 7
ENDMDL
MODEL 3
REMARK VINA RESULT:      -8.6      2.997      4.472
REMARK  7 active torsions:
REMARK  status: ('A' for Active; 'I' for Inactive)
REMARK    1  A    between atoms: C2_2  and  O3_3 
REMARK    2  A    between atoms: C2_2  and  C4_4 
REMARK    3  A    between atoms: C2_2  and  C15_15 
REMARK    4  A    between atoms: C4_4  and  S5_5 
REMARK    5  A    between atoms: S5_5  and  C8_8 
REMARK       I    between atoms: C15_15  and  N17_17 
REMARK    6  A    between atoms: N17_17  and  C18_18 
REMARK    7  A    between atoms: C24_24  and  C25_25 
ROOT
ATOM      1  C18 ZIN A   1      18.217  -0.556  14.450  0.00  0.00     0.035 A 
ATOM      2  C19 ZIN A   1      18.339  -1.233  15.658  0.00  0.00     0.031 A 
ATOM      3  C20 ZIN A   1      18.672  -0.545  16.804  0.00  0.00     0.026 A 
ATOM      4  C21 ZIN A   1      18.887   0.834  16.752  0.00  0.00     0.059 A 
ATOM      5  C22 ZIN A   1      19.233   1.552  17.941  0.00  0.00     0.100 C 
ATOM      6  N23 ZIN A   1      19.508   2.122  18.884  0.00  0.00    -0.191 NA
ATOM      7  C24 ZIN A   1      18.763   1.512  15.535  0.00  0.00     0.070 A 
ATOM      8  C29 ZIN A   1      18.436   0.816  14.392  0.00  0.00     0.047 A 
ENDROOT
BRANCH   7   9
ATOM      9  C25 ZIN A   1      18.994   2.999  15.472  0.00  0.00     0.419 C 
ATOM     10  F26 ZIN A   1      17.997   3.657  16.201  0.00  0.00    -0.166 F 
ATOM     11  F27 ZIN A   1      20.246   3.300  16.019  0.00  0.00    -0.166 F 
ATOM     12  F28 ZIN A   1      18.954   3.422  14.139  0.00  0.00    -0.166 F 
ENDBRANCH   7   9
BRANCH   1  13
ATOM     13  N17 ZIN A   1      17.880  -1.257  13.291  0.00  0.00    -0.325 N 
ATOM     14  C15 ZIN A   1      18.800  -2.023  12.674  0.00  0.00     0.257 C 
ATOM     15  O16 ZIN A   1      19.945  -2.038  13.077  0.00  0.00    -0.270 OA
ATOM     16  H40 ZIN A   1      16.982  -1.192  12.929  0.00  0.00     0.169 HD
BRANCH  14  17
ATOM     17  C2  ZIN A   1      18.409  -2.860  11.483  0.00  0.00     0.148 C 
ATOM     18  C1  ZIN A   1      18.797  -4.319  11.736  0.00  0.00     0.057 C 
BRANCH  17  19
ATOM     19  O3  ZIN A   1      16.998  -2.770  11.281  0.00  0.00    -0.380 OA
ATOM     20  H33 ZIN A   1      16.736  -2.727  10.352  0.00  0.00     0.211 HD
ENDBRANCH  17  19
BRANCH  17  21
ATOM     21  C4  ZIN A   1      19.137  -2.348  10.238  0.00  0.00     0.193 C 
BRANCH  21  22
ATOM     22  S5  ZIN A   1      18.801  -0.577  10.028  0.00  0.00     0.178 S 
ATOM     23  O6  ZIN A   1      17.443  -0.289  10.334  0.00  0.00    -0.223 OA
ATOM     24  O7  ZIN A   1      19.857   0.200  10.575  0.00  0.00    -0.223 OA
BRANCH  22  25
ATOM     25  C8  ZIN A   1      18.920  -0.311   8.291  0.00  0.00     0.059 A 
ATOM     26  C14 ZIN A   1      18.831   0.971   7.781  0.00  0.00     0.026 A 
ATOM     27  C13 ZIN A   1      18.929   1.181   6.418  0.00  0.00     0.044 A 
ATOM     28  C11 ZIN A   1      19.107   0.108   5.563  0.00  0.00     0.116 A 
ATOM     29  C10 ZIN A   1      19.191  -1.177   6.074  0.00  0.00     0.044 A 
ATOM     30  F12 ZIN A   1      19.198   0.311   4.230  0.00  0.00    -0.206 F 
ATOM     31  C9  ZIN A   1      19.097  -1.384   7.437  0.00  0.00     0.026 A 
ENDBRANCH  22  25
ENDBRANCH  21  22
ENDBRANCH  17  21
ENDBRANCH  14  17
ENDBRANCH   1  13
TORSDOF 7
ENDMDL
MODEL 4
REMARK VINA RESULT:      -8.6      4.545      9.102
REMARK  7 active torsions:
REMARK  status: ('A' for Active; 'I' for Inactive)
REMARK    1  A    between atoms: C2_2  and  O3_3 
REMARK    2  A    between atoms: C2_2  and  C4_4 
REMARK    3  A    between atoms: C2_2  and  C15_15 
REMARK    4  A    between atoms: C4_4  and  S5_5 
REMARK    5  A    between atoms: S5_5  and  C8_8 
REMARK       I    between atoms: C15_15  and  N17_17 
REMARK    6  A    between atoms: N17_17  and  C18_18 
REMARK    7  A    between atoms: C24_24  and  C25_25 
ROOT
ATOM      1  C18 ZIN A   1      18.821  -1.175   9.379  0.00  0.00     0.035 A 
ATOM      2  C19 ZIN A   1      19.038  -2.481   8.952  0.00  0.00     0.031 A 
ATOM      3  C20 ZIN A   1      19.171  -2.754   7.609  0.00  0.00     0.026 A 
ATOM      4  C21 ZIN A   1      19.090  -1.718   6.675  0.00  0.00     0.059 A 
ATOM      5  C22 ZIN A   1      19.228  -1.999   5.278  0.00  0.00     0.100 C 
ATOM      6  N23 ZIN A   1      19.337  -2.222   4.169  0.00  0.00    -0.191 NA
ATOM      7  C24 ZIN A   1      18.872  -0.407   7.108  0.00  0.00     0.070 A 
ATOM      8  C29 ZIN A   1      18.734  -0.142   8.452  0.00  0.00     0.047 A 
ENDROOT
BRANCH   7   9
ATOM      9  C25 ZIN A   1      18.783   0.714   6.105  0.00  0.00     0.419 C 
ATOM     10  F26 ZIN A   1      18.812   1.942   6.774  0.00  0.00    -0.166 F 
ATOM     11  F27 ZIN A   1      19.866   0.638   5.223  0.00  0.00    -0.166 F 
ATOM     12  F28 ZIN A   1      17.588   0.603   5.386  0.00  0.00    -0.166 F 
ENDBRANCH   7   9
BRANCH   1  13
ATOM     13  N17 ZIN A   1      18.687  -0.902  10.741  0.00  0.00    -0.325 N 
ATOM     14  C15 ZIN A   1      19.758  -0.511  11.460  0.00  0.00     0.257 C 
ATOM     15  O16 ZIN A   1      20.855  -0.478  10.942  0.00  0.00    -0.270 OA
ATOM     16  H40 ZIN A   1      17.822  -0.993  11.171  0.00  0.00     0.169 HD
BRANCH  14  17
ATOM     17  C2  ZIN A   1      19.593  -0.116  12.905  0.00  0.00     0.148 C 
ATOM     18  C1  ZIN A   1      19.310  -1.363  13.745  0.00  0.00     0.057 C 
BRANCH  17  19
ATOM     19  O3  ZIN A   1      20.793   0.508  13.366  0.00  0.00    -0.380 OA
ATOM     20  H33 ZIN A   1      21.580  -0.047  13.286  0.00  0.00     0.211 HD
ENDBRANCH  17  19
BRANCH  17  21
ATOM     21  C4  ZIN A   1      18.425   0.863  13.036  0.00  0.00     0.193 C 
BRANCH  21  22
ATOM     22  S5  ZIN A   1      18.679   2.262  11.909  0.00  0.00     0.178 S 
ATOM     23  O6  ZIN A   1      20.045   2.658  11.908  0.00  0.00    -0.223 OA
ATOM     24  O7  ZIN A   1      17.974   2.058  10.692  0.00  0.00    -0.223 OA
BRANCH  22  25
ATOM     25  C8  ZIN A   1      17.838   3.605  12.678  0.00  0.00     0.059 A 
ATOM     26  C14 ZIN A   1      17.897   3.761  14.051  0.00  0.00     0.026 A 
ATOM     27  C13 ZIN A   1      17.241   4.817  14.655  0.00  0.00     0.044 A 
ATOM     28  C11 ZIN A   1      16.517   5.713  13.887  0.00  0.00     0.116 A 
ATOM     29  C10 ZIN A   1      16.455   5.553  12.512  0.00  0.00     0.044 A 
ATOM     30  F12 ZIN A   1      15.872   6.743  14.477  0.00  0.00    -0.206 F 
ATOM     31  C9  ZIN A   1      17.115   4.499  11.911  0.00  0.00     0.026 A 
ENDBRANCH  22  25
ENDBRANCH  21  22
ENDBRANCH  17  21
ENDBRANCH  14  17
ENDBRANCH   1  13
TORSDOF 7
ENDMDL
MODEL 5
REMARK VINA RESULT:      -8.6      2.681      4.086
REMARK  7 active torsions:
REMARK  status: ('A' for Active; 'I' for Inactive)
REMARK    1  A    between atoms: C2_2  and  O3_3 
REMARK    2  A    between atoms: C2_2  and  C4_4 
REMARK    3  A    between atoms: C2_2  and  C15_15 
REMARK    4  A    between atoms: C4_4  and  S5_5 
REMARK    5  A    between atoms: S5_5  and  C8_8 
REMARK       I    between atoms: C15_15  and  N17_17 
REMARK    6  A    between atoms: N17_17  and  C18_18 
REMARK    7  A    between atoms: C24_24  and  C25_25 
ROOT
ATOM      1  C18 ZIN A   1      18.302  -0.179  13.869  0.00  0.00     0.035 A 
ATOM      2  C19 ZIN A   1      19.010   1.007  13.708  0.00  0.00     0.031 A 
ATOM      3  C20 ZIN A   1      19.312   1.785  14.804  0.00  0.00     0.026 A 
ATOM      4  C21 ZIN A   1      18.906   1.382  16.078  0.00  0.00     0.059 A 
ATOM      5  C22 ZIN A   1      19.218   2.188  17.219  0.00  0.00     0.100 C 
ATOM      6  N23 ZIN A   1      19.465   2.828  18.125  0.00  0.00    -0.191 NA
ATOM      7  C24 ZIN A   1      18.193   0.189  16.236  0.00  0.00     0.070 A 
ATOM      8  C29 ZIN A   1      17.891  -0.581  15.135  0.00  0.00     0.047 A 
ENDROOT
BRANCH   7   9
ATOM      9  C25 ZIN A   1      17.753  -0.250  17.608  0.00  0.00     0.419 C 
ATOM     10  F26 ZIN A   1      16.989   0.762  18.199  0.00  0.00    -0.166 F 
ATOM     11  F27 ZIN A   1      16.983  -1.413  17.501  0.00  0.00    -0.166 F 
ATOM     12  F28 ZIN A   1      18.878  -0.507  18.400  0.00  0.00    -0.166 F 
ENDBRANCH   7   9
BRANCH   1  13
ATOM     13  N17 ZIN A   1      17.998  -0.964  12.756  0.00  0.00    -0.325 N 
ATOM     14  C15 ZIN A   1      18.805  -1.988  12.413  0.00  0.00     0.257 C 
ATOM     15  O16 ZIN A   1      19.839  -2.174  13.020  0.00  0.00    -0.270 OA
ATOM     16  H40 ZIN A   1      17.206  -0.774  12.230  0.00  0.00     0.169 HD
BRANCH  14  17
ATOM     17  C2  ZIN A   1      18.423  -2.900  11.275  0.00  0.00     0.148 C 
ATOM     18  C1  ZIN A   1      18.909  -4.320  11.576  0.00  0.00     0.057 C 
BRANCH  17  19
ATOM     19  O3  ZIN A   1      17.003  -2.904  11.124  0.00  0.00    -0.380 OA
ATOM     20  H33 ZIN A   1      16.530  -2.467  11.845  0.00  0.00     0.211 HD
ENDBRANCH  17  19
BRANCH  17  21
ATOM     21  C4  ZIN A   1      19.074  -2.402   9.983  0.00  0.00     0.193 C 
BRANCH  21  22
ATOM     22  S5  ZIN A   1      18.688  -0.644   9.751  0.00  0.00     0.178 S 
ATOM     23  O6  ZIN A   1      17.313  -0.398  10.011  0.00  0.00    -0.223 OA
ATOM     24  O7  ZIN A   1      19.700   0.169  10.328  0.00  0.00    -0.223 OA
BRANCH  22  25
ATOM     25  C8  ZIN A   1      18.857  -0.382   8.017  0.00  0.00     0.059 A 
ATOM     26  C14 ZIN A   1      19.118  -1.451   7.180  0.00  0.00     0.026 A 
ATOM     27  C13 ZIN A   1      19.245  -1.247   5.818  0.00  0.00     0.044 A 
ATOM     28  C11 ZIN A   1      19.122   0.029   5.295  0.00  0.00     0.116 A 
ATOM     29  C10 ZIN A   1      18.866   1.099   6.136  0.00  0.00     0.044 A 
ATOM     30  F12 ZIN A   1      19.251   0.230   3.965  0.00  0.00    -0.206 F 
ATOM     31  C9  ZIN A   1      18.735   0.892   7.496  0.00  0.00     0.026 A 
ENDBRANCH  22  25
ENDBRANCH  21  22
ENDBRANCH  17  21
ENDBRANCH  14  17
ENDBRANCH   1  13
TORSDOF 7
ENDMDL
MODEL 6
REMARK VINA RESULT:      -8.5      3.954      5.339
REMARK  7 active torsions:
REMARK  status: ('A' for Active; 'I' for Inactive)
REMARK    1  A    between atoms: C2_2  and  O3_3 
REMARK    2  A    between atoms: C2_2  and  C4_4 
REMARK    3  A    between atoms: C2_2  and  C15_15 
REMARK    4  A    between atoms: C4_4  and  S5_5 
REMARK    5  A    between atoms: S5_5  and  C8_8 
REMARK       I    between atoms: C15_15  and  N17_17 
REMARK    6  A    between atoms: N17_17  and  C18_18 
REMARK    7  A    between atoms: C24_24  and  C25_25 
ROOT
ATOM      1  C18 ZIN A   1      19.580  -0.415   8.548  0.00  0.00     0.035 A 
ATOM      2  C19 ZIN A   1      19.230   0.733   7.846  0.00  0.00     0.031 A 
ATOM      3  C20 ZIN A   1      18.911   1.888   8.527  0.00  0.00     0.026 A 
ATOM      4  C21 ZIN A   1      18.940   1.905   9.923  0.00  0.00     0.059 A 
ATOM      5  C22 ZIN A   1      18.609   3.103  10.633  0.00  0.00     0.100 C 
ATOM      6  N23 ZIN A   1      18.347   4.054  11.197  0.00  0.00    -0.191 NA
ATOM      7  C24 ZIN A   1      19.293   0.748  10.626  0.00  0.00     0.070 A 
ATOM      8  C29 ZIN A   1      19.605  -0.403   9.939  0.00  0.00     0.047 A 
ENDROOT
BRANCH   7   9
ATOM      9  C25 ZIN A   1      19.326   0.761  12.132  0.00  0.00     0.419 C 
ATOM     10  F26 ZIN A   1      20.083   1.852  12.572  0.00  0.00    -0.166 F 
ATOM     11  F27 ZIN A   1      18.022   0.869  12.626  0.00  0.00    -0.166 F 
ATOM     12  F28 ZIN A   1      19.904  -0.426  12.596  0.00  0.00    -0.166 F 
ENDBRANCH   7   9
BRANCH   1  13
ATOM     13  N17 ZIN A   1      19.903  -1.583   7.855  0.00  0.00    -0.325 N 
ATOM     14  C15 ZIN A   1      18.924  -2.365   7.359  0.00  0.00     0.257 C 
ATOM     15  O16 ZIN A   1      17.762  -2.099   7.587  0.00  0.00    -0.270 OA
ATOM     16  H40 ZIN A   1      20.832  -1.831   7.730  0.00  0.00     0.169 HD
BRANCH  14  17
ATOM     17  C2  ZIN A   1      19.272  -3.570   6.523  0.00  0.00     0.148 C 
ATOM     18  C1  ZIN A   1      19.059  -3.242   5.044  0.00  0.00     0.057 C 
BRANCH  17  19
ATOM     19  O3  ZIN A   1      20.639  -3.921   6.742  0.00  0.00    -0.380 OA
ATOM     20  H33 ZIN A   1      21.271  -3.266   6.416  0.00  0.00     0.211 HD
ENDBRANCH  17  19
BRANCH  17  21
ATOM     21  C4  ZIN A   1      18.373  -4.743   6.920  0.00  0.00     0.193 C 
BRANCH  21  22
ATOM     22  S5  ZIN A   1      19.180  -5.707   8.228  0.00  0.00     0.178 S 
ATOM     23  O6  ZIN A   1      18.494  -6.935   8.436  0.00  0.00    -0.223 OA
ATOM     24  O7  ZIN A   1      20.592  -5.673   8.075  0.00  0.00    -0.223 OA
BRANCH  22  25
ATOM     25  C8  ZIN A   1      18.880  -4.787   9.701  0.00  0.00     0.059 A 
ATOM     26  C14 ZIN A   1      17.584  -4.475  10.068  0.00  0.00     0.026 A 
ATOM     27  C13 ZIN A   1      17.349  -3.758  11.226  0.00  0.00     0.044 A 
ATOM     28  C11 ZIN A   1      18.410  -3.343  12.012  0.00  0.00     0.116 A 
ATOM     29  C10 ZIN A   1      19.708  -3.652  11.640  0.00  0.00     0.044 A 
ATOM     30  F12 ZIN A   1      18.181  -2.637  13.142  0.00  0.00    -0.206 F 
ATOM     31  C9  ZIN A   1      19.941  -4.373  10.484  0.00  0.00     0.026 A 
ENDBRANCH  22  25
ENDBRANCH  21  22
ENDBRANCH  17  21
ENDBRANCH  14  17
ENDBRANCH   1  13
TORSDOF 7
ENDMDL
MODEL 7
REMARK VINA RESULT:      -8.3      4.039      5.511
REMARK  7 active torsions:
REMARK  status: ('A' for Active; 'I' for Inactive)
REMARK    1  A    between atoms: C2_2  and  O3_3 
REMARK    2  A    between atoms: C2_2  and  C4_4 
REMARK    3  A    between atoms: C2_2  and  C15_15 
REMARK    4  A    between atoms: C4_4  and  S5_5 
REMARK    5  A    between atoms: S5_5  and  C8_8 
REMARK       I    between atoms: C15_15  and  N17_17 
REMARK    6  A    between atoms: N17_17  and  C18_18 
REMARK    7  A    between atoms: C24_24  and  C25_25 
ROOT
ATOM      1  C18 ZIN A   1      19.530  -0.884   9.448  0.00  0.00     0.035 A 
ATOM      2  C19 ZIN A   1      19.390  -1.408  10.729  0.00  0.00     0.031 A 
ATOM      3  C20 ZIN A   1      19.021  -0.589  11.773  0.00  0.00     0.026 A 
ATOM      4  C21 ZIN A   1      18.787   0.769  11.545  0.00  0.00     0.059 A 
ATOM      5  C22 ZIN A   1      18.404   1.624  12.628  0.00  0.00     0.100 C 
ATOM      6  N23 ZIN A   1      18.100   2.301  13.488  0.00  0.00    -0.191 NA
ATOM      7  C24 ZIN A   1      18.929   1.293  10.256  0.00  0.00     0.070 A 
ATOM      8  C29 ZIN A   1      19.303   0.469   9.218  0.00  0.00     0.047 A 
ENDROOT
BRANCH   7   9
ATOM      9  C25 ZIN A   1      18.678   2.757  10.005  0.00  0.00     0.419 C 
ATOM     10  F26 ZIN A   1      17.361   3.072  10.358  0.00  0.00    -0.166 F 
ATOM     11  F27 ZIN A   1      19.562   3.521  10.774  0.00  0.00    -0.166 F 
ATOM     12  F28 ZIN A   1      18.877   3.038   8.648  0.00  0.00    -0.166 F 
ENDBRANCH   7   9
BRANCH   1  13
ATOM     13  N17 ZIN A   1      19.903  -1.716   8.392  0.00  0.00    -0.325 N 
ATOM     14  C15 ZIN A   1      18.960  -2.333   7.653  0.00  0.00     0.257 C 
ATOM     15  O16 ZIN A   1      17.789  -2.232   7.958  0.00  0.00    -0.270 OA
ATOM     16  H40 ZIN A   1      20.842  -1.851   8.190  0.00  0.00     0.169 HD
BRANCH  14  17
ATOM     17  C2  ZIN A   1      19.358  -3.149   6.450  0.00  0.00     0.148 C 
ATOM     18  C1  ZIN A   1      19.252  -2.285   5.192  0.00  0.00     0.057 C 
BRANCH  17  19
ATOM     19  O3  ZIN A   1      20.703  -3.602   6.607  0.00  0.00    -0.380 OA
ATOM     20  H33 ZIN A   1      20.882  -4.455   6.190  0.00  0.00     0.211 HD
ENDBRANCH  17  19
BRANCH  17  21
ATOM     21  C4  ZIN A   1      18.424  -4.355   6.321  0.00  0.00     0.193 C 
BRANCH  21  22
ATOM     22  S5  ZIN A   1      19.130  -5.764   7.219  0.00  0.00     0.178 S 
ATOM     23  O6  ZIN A   1      18.502  -6.974   6.819  0.00  0.00    -0.223 OA
ATOM     24  O7  ZIN A   1      20.546  -5.659   7.281  0.00  0.00    -0.223 OA
BRANCH  22  25
ATOM     25  C8  ZIN A   1      18.605  -5.532   8.884  0.00  0.00     0.059 A 
ATOM     26  C14 ZIN A   1      19.517  -5.143   9.848  0.00  0.00     0.026 A 
ATOM     27  C13 ZIN A   1      19.104  -4.956  11.154  0.00  0.00     0.044 A 
ATOM     28  C11 ZIN A   1      17.780  -5.167  11.499  0.00  0.00     0.116 A 
ATOM     29  C10 ZIN A   1      16.869  -5.561  10.534  0.00  0.00     0.044 A 
ATOM     30  F12 ZIN A   1      17.376  -4.989  12.776  0.00  0.00    -0.206 F 
ATOM     31  C9  ZIN A   1      17.283  -5.744   9.228  0.00  0.00     0.026 A 
ENDBRANCH  22  25
ENDBRANCH  21  22
ENDBRANCH  17  21
ENDBRANCH  14  17
ENDBRANCH   1  13
TORSDOF 7
ENDMDL
MODEL 8
REMARK VINA RESULT:      -8.3      3.204      4.168
REMARK  7 active torsions:
REMARK  status: ('A' for Active; 'I' for Inactive)
REMARK    1  A    between atoms: C2_2  and  O3_3 
REMARK    2  A    between atoms: C2_2  and  C4_4 
REMARK    3  A    between atoms: C2_2  and  C15_15 
REMARK    4  A    between atoms: C4_4  and  S5_5 
REMARK    5  A    between atoms: S5_5  and  C8_8 
REMARK       I    between atoms: C15_15  and  N17_17 
REMARK    6  A    between atoms: N17_17  and  C18_18 
REMARK    7  A    between atoms: C24_24  and  C25_25 
ROOT
ATOM      1  C18 ZIN A   1      19.357  -0.960  13.968  0.00  0.00     0.035 A 
ATOM      2  C19 ZIN A   1      19.850   0.331  13.815  0.00  0.00     0.031 A 
ATOM      3  C20 ZIN A   1      19.551   1.299  14.749  0.00  0.00     0.026 A 
ATOM      4  C21 ZIN A   1      18.752   0.982  15.850  0.00  0.00     0.059 A 
ATOM      5  C22 ZIN A   1      18.439   1.986  16.823  0.00  0.00     0.100 C 
ATOM      6  N23 ZIN A   1      18.191   2.782  17.594  0.00  0.00    -0.191 NA
ATOM      7  C24 ZIN A   1      18.259  -0.318  16.001  0.00  0.00     0.070 A 
ATOM      8  C29 ZIN A   1      18.557  -1.278  15.061  0.00  0.00     0.047 A 
ENDROOT
BRANCH   7   9
ATOM      9  C25 ZIN A   1      17.397  -0.665  17.187  0.00  0.00     0.419 C 
ATOM     10  F26 ZIN A   1      17.006  -2.005  17.103  0.00  0.00    -0.166 F 
ATOM     11  F27 ZIN A   1      18.123  -0.464  18.366  0.00  0.00    -0.166 F 
ATOM     12  F28 ZIN A   1      16.261   0.153  17.194  0.00  0.00    -0.166 F 
ENDBRANCH   7   9
BRANCH   1  13
ATOM     13  N17 ZIN A   1      19.662  -1.938  13.021  0.00  0.00    -0.325 N 
ATOM     14  C15 ZIN A   1      18.720  -2.350  12.149  0.00  0.00     0.257 C 
ATOM     15  O16 ZIN A   1      17.585  -1.933  12.243  0.00  0.00    -0.270 OA
ATOM     16  H40 ZIN A   1      20.553  -2.321  12.988  0.00  0.00     0.169 HD
BRANCH  14  17
ATOM     17  C2  ZIN A   1      19.077  -3.329  11.061  0.00  0.00     0.148 C 
ATOM     18  C1  ZIN A   1      20.304  -4.139  11.485  0.00  0.00     0.057 C 
BRANCH  17  19
ATOM     19  O3  ZIN A   1      17.976  -4.213  10.837  0.00  0.00    -0.380 OA
ATOM     20  H33 ZIN A   1      17.173  -3.969  11.316  0.00  0.00     0.211 HD
ENDBRANCH  17  19
BRANCH  17  21
ATOM     21  C4  ZIN A   1      19.390  -2.567   9.772  0.00  0.00     0.193 C 
BRANCH  21  22
ATOM     22  S5  ZIN A   1      18.695  -3.462   8.355  0.00  0.00     0.178 S 
ATOM     23  O6  ZIN A   1      19.547  -4.535   7.978  0.00  0.00    -0.223 OA
ATOM     24  O7  ZIN A   1      17.299  -3.660   8.527  0.00  0.00    -0.223 OA
BRANCH  22  25
ATOM     25  C8  ZIN A   1      18.811  -2.324   7.016  0.00  0.00     0.059 A 
ATOM     26  C14 ZIN A   1      18.659  -0.969   7.246  0.00  0.00     0.026 A 
ATOM     27  C13 ZIN A   1      18.755  -0.075   6.196  0.00  0.00     0.044 A 
ATOM     28  C11 ZIN A   1      18.992  -0.537   4.913  0.00  0.00     0.116 A 
ATOM     29  C10 ZIN A   1      19.139  -1.895   4.683  0.00  0.00     0.044 A 
ATOM     30  F12 ZIN A   1      19.081   0.336   3.885  0.00  0.00    -0.206 F 
ATOM     31  C9  ZIN A   1      19.047  -2.786   5.735  0.00  0.00     0.026 A 
ENDBRANCH  22  25
ENDBRANCH  21  22
ENDBRANCH  17  21
ENDBRANCH  14  17
ENDBRANCH   1  13
TORSDOF 7
ENDMDL
MODEL 9
REMARK VINA RESULT:      -8.3      3.063      4.630
REMARK  7 active torsions:
REMARK  status: ('A' for Active; 'I' for Inactive)
REMARK    1  A    between atoms: C2_2  and  O3_3 
REMARK    2  A    between atoms: C2_2  and  C4_4 
REMARK    3  A    between atoms: C2_2  and  C15_15 
REMARK    4  A    between atoms: C4_4  and  S5_5 
REMARK    5  A    between atoms: S5_5  and  C8_8 
REMARK       I    between atoms: C15_15  and  N17_17 
REMARK    6  A    between atoms: N17_17  and  C18_18 
REMARK    7  A    between atoms: C24_24  and  C25_25 
ROOT
ATOM      1  C18 ZIN A   1      19.163  -1.581  12.645  0.00  0.00     0.035 A 
ATOM      2  C19 ZIN A   1      19.645  -0.333  12.266  0.00  0.00     0.031 A 
ATOM      3  C20 ZIN A   1      19.664   0.704  13.173  0.00  0.00     0.026 A 
ATOM      4  C21 ZIN A   1      19.200   0.500  14.475  0.00  0.00     0.059 A 
ATOM      5  C22 ZIN A   1      19.218   1.575  15.420  0.00  0.00     0.100 C 
ATOM      6  N23 ZIN A   1      19.233   2.428  16.170  0.00  0.00    -0.191 NA
ATOM      7  C24 ZIN A   1      18.716  -0.757  14.852  0.00  0.00     0.070 A 
ATOM      8  C29 ZIN A   1      18.695  -1.786  13.938  0.00  0.00     0.047 A 
ENDROOT
BRANCH   7   9
ATOM      9  C25 ZIN A   1      18.214  -0.982  16.255  0.00  0.00     0.419 C 
ATOM     10  F26 ZIN A   1      17.804  -2.312  16.395  0.00  0.00    -0.166 F 
ATOM     11  F27 ZIN A   1      19.239  -0.711  17.167  0.00  0.00    -0.166 F 
ATOM     12  F28 ZIN A   1      17.131  -0.131  16.505  0.00  0.00    -0.166 F 
ENDBRANCH   7   9
BRANCH   1  13
ATOM     13  N17 ZIN A   1      19.146  -2.629  11.723  0.00  0.00    -0.325 N 
ATOM     14  C15 ZIN A   1      18.052  -2.842  10.965  0.00  0.00     0.257 C 
ATOM     15  O16 ZIN A   1      17.053  -2.176  11.143  0.00  0.00    -0.270 OA
ATOM     16  H40 ZIN A   1      19.921  -3.204  11.628  0.00  0.00     0.169 HD
BRANCH  14  17
ATOM     17  C2  ZIN A   1      18.069  -3.906   9.899  0.00  0.00     0.148 C 
ATOM     18  C1  ZIN A   1      17.845  -5.276  10.542  0.00  0.00     0.057 C 
BRANCH  17  19
ATOM     19  O3  ZIN A   1      17.031  -3.648   8.952  0.00  0.00    -0.380 OA
ATOM     20  H33 ZIN A   1      16.241  -3.243   9.336  0.00  0.00     0.211 HD
ENDBRANCH  17  19
BRANCH  17  21
ATOM     21  C4  ZIN A   1      19.424  -3.893   9.187  0.00  0.00     0.193 C 
BRANCH  21  22
ATOM     22  S5  ZIN A   1      19.192  -3.410   7.454  0.00  0.00     0.178 S 
ATOM     23  O6  ZIN A   1      20.367  -3.678   6.701  0.00  0.00    -0.223 OA
ATOM     24  O7  ZIN A   1      17.914  -3.821   6.988  0.00  0.00    -0.223 OA
BRANCH  22  25
ATOM     25  C8  ZIN A   1      19.094  -1.652   7.496  0.00  0.00     0.059 A 
ATOM     26  C14 ZIN A   1      18.482  -0.970   6.461  0.00  0.00     0.026 A 
ATOM     27  C13 ZIN A   1      18.401   0.410   6.497  0.00  0.00     0.044 A 
ATOM     28  C11 ZIN A   1      18.940   1.109   7.563  0.00  0.00     0.116 A 
ATOM     29  C10 ZIN A   1      19.558   0.424   8.596  0.00  0.00     0.044 A 
ATOM     30  F12 ZIN A   1      18.866   2.458   7.596  0.00  0.00    -0.206 F 
ATOM     31  C9  ZIN A   1      19.634  -0.956   8.561  0.00  0.00     0.026 A 
ENDBRANCH  22  25
ENDBRANCH  21  22
ENDBRANCH  17  21
ENDBRANCH  14  17
ENDBRANCH   1  13
TORSDOF 7
ENDMDL
