MODEL 1
REMARK VINA RESULT:      -6.8      0.000      0.000
REMARK  4 active torsions:
REMARK  status: ('A' for Active; 'I' for Inactive)
REMARK    1  A    between atoms: C2_2  and  C3_3 
REMARK    2  A    between atoms: C3_3  and  N4_4 
REMARK       I    between atoms: N4_4  and  C5_5 
REMARK       I    between atoms: C5_5  and  N7_7 
REMARK    3  A    between atoms: N7_7  and  S8_8 
REMARK    4  A    between atoms: S8_8  and  C11_11 
ROOT
ATOM      1  S8  ZIN A   1      17.262   0.987  11.220  0.00  0.00     0.287 S 
ATOM      2  O9  ZIN A   1      16.151   0.110  11.343  0.00  0.00    -0.198 OA
ATOM      3  O10 ZIN A   1      17.190   2.377  11.501  0.00  0.00    -0.198 OA
ENDROOT
BRANCH   1   4
ATOM      4  N7  ZIN A   1      18.452   0.373  12.194  0.00  0.00    -0.102 NA
ATOM      5  C5  ZIN A   1      18.324   0.435  13.535  0.00  0.00     0.352 C 
ATOM      6  N4  ZIN A   1      19.292  -0.065  14.328  0.00  0.00    -0.341 N 
ATOM      7  O6  ZIN A   1      17.335   0.941  14.028  0.00  0.00    -0.244 OA
ATOM      8  H25 ZIN A   1      20.082  -0.468  13.934  0.00  0.00     0.164 HD
BRANCH   6   9
ATOM      9  C3  ZIN A   1      19.153   0.002  15.784  0.00  0.00     0.124 C 
BRANCH   9  10
ATOM     10  C2  ZIN A   1      18.660  -1.346  16.312  0.00  0.00     0.015 C 
ATOM     11  C1  ZIN A   1      17.233  -1.195  16.844  0.00  0.00     0.006 C 
ENDBRANCH   9  10
ENDBRANCH   6   9
ENDBRANCH   1   4
BRANCH   1  12
ATOM     12  C11 ZIN A   1      17.825   0.844   9.556  0.00  0.00     0.082 A 
ATOM     13  C17 ZIN A   1      17.293  -0.127   8.727  0.00  0.00     0.027 A 
ATOM     14  C16 ZIN A   1      17.731  -0.235   7.421  0.00  0.00     0.025 A 
ATOM     15  C14 ZIN A   1      18.710   0.620   6.946  0.00  0.00     0.034 A 
ATOM     16  C13 ZIN A   1      19.245   1.588   7.777  0.00  0.00     0.025 A 
ATOM     17 Cl15 ZIN A   1      19.265   0.479   5.306  0.00  0.00    -0.084 Cl
ATOM     18  C12 ZIN A   1      18.803   1.699   9.082  0.00  0.00     0.027 A 
ENDBRANCH   1  12
TORSDOF 4
ENDMDL
MODEL 2
REMARK VINA RESULT:      -6.6      1.186      1.796
REMARK  4 active torsions:
REMARK  status: ('A' for Active; 'I' for Inactive)
REMARK    1  A    between atoms: C2_2  and  C3_3 
REMARK    2  A    between atoms: C3_3  and  N4_4 
REMARK       I    between atoms: N4_4  and  C5_5 
REMARK       I    between atoms: C5_5  and  N7_7 
REMARK    3  A    between atoms: N7_7  and  S8_8 
REMARK    4  A    between atoms: S8_8  and  C11_11 
ROOT
ATOM      1  S8  ZIN A   1      18.266   2.059  11.188  0.00  0.00     0.287 S 
ATOM      2  O9  ZIN A   1      17.127   2.903  11.281  0.00  0.00    -0.198 OA
ATOM      3  O10 ZIN A   1      19.589   2.507  11.444  0.00  0.00    -0.198 OA
ENDROOT
BRANCH   1   4
ATOM      4  N7  ZIN A   1      17.994   0.792  12.220  0.00  0.00    -0.102 NA
ATOM      5  C5  ZIN A   1      17.839   1.018  13.539  0.00  0.00     0.352 C 
ATOM      6  N4  ZIN A   1      17.617  -0.012  14.379  0.00  0.00    -0.341 N 
ATOM      7  O6  ZIN A   1      17.898   2.153  13.972  0.00  0.00    -0.244 OA
ATOM      8  H25 ZIN A   1      17.570  -0.917  14.034  0.00  0.00     0.164 HD
BRANCH   6   9
ATOM      9  C3  ZIN A   1      17.448   0.234  15.813  0.00  0.00     0.124 C 
BRANCH   9  10
ATOM     10  C2  ZIN A   1      17.659  -1.070  16.583  0.00  0.00     0.015 C 
ATOM     11  C1  ZIN A   1      19.092  -1.563  16.371  0.00  0.00     0.006 C 
ENDBRANCH   9  10
ENDBRANCH   6   9
ENDBRANCH   1   4
BRANCH   1  12
ATOM     12  C11 ZIN A   1      18.268   1.407   9.551  0.00  0.00     0.082 A 
ATOM     13  C17 ZIN A   1      19.088   1.962   8.587  0.00  0.00     0.027 A 
ATOM     14  C16 ZIN A   1      19.095   1.447   7.305  0.00  0.00     0.025 A 
ATOM     15  C14 ZIN A   1      18.271   0.384   6.982  0.00  0.00     0.034 A 
ATOM     16  C13 ZIN A   1      17.446  -0.169   7.946  0.00  0.00     0.025 A 
ATOM     17 Cl15 ZIN A   1      18.273  -0.259   5.369  0.00  0.00    -0.084 Cl
ATOM     18  C12 ZIN A   1      17.445   0.343   9.230  0.00  0.00     0.027 A 
ENDBRANCH   1  12
TORSDOF 4
ENDMDL
MODEL 3
REMARK VINA RESULT:      -6.2      1.827      2.106
REMARK  4 active torsions:
REMARK  status: ('A' for Active; 'I' for Inactive)
REMARK    1  A    between atoms: C2_2  and  C3_3 
REMARK    2  A    between atoms: C3_3  and  N4_4 
REMARK       I    between atoms: N4_4  and  C5_5 
REMARK       I    between atoms: C5_5  and  N7_7 
REMARK    3  A    between atoms: N7_7  and  S8_8 
REMARK    4  A    between atoms: S8_8  and  C11_11 
ROOT
ATOM      1  S8  ZIN A   1      19.831   1.042  11.952  0.00  0.00     0.287 S 
ATOM      2  O9  ZIN A   1      19.280   2.281  12.377  0.00  0.00    -0.198 OA
ATOM      3  O10 ZIN A   1      21.198   0.699  12.129  0.00  0.00    -0.198 OA
ENDROOT
BRANCH   1   4
ATOM      4  N7  ZIN A   1      18.950  -0.143  12.702  0.00  0.00    -0.102 NA
ATOM      5  C5  ZIN A   1      19.069  -0.331  14.032  0.00  0.00     0.352 C 
ATOM      6  N4  ZIN A   1      18.352  -1.296  14.643  0.00  0.00    -0.341 N 
ATOM      7  O6  ZIN A   1      19.822   0.369  14.680  0.00  0.00    -0.244 OA
ATOM      8  H25 ZIN A   1      17.751  -1.854  14.125  0.00  0.00     0.164 HD
BRANCH   6   9
ATOM      9  C3  ZIN A   1      18.481  -1.500  16.087  0.00  0.00     0.124 C 
BRANCH   9  10
ATOM     10  C2  ZIN A   1      17.191  -1.058  16.782  0.00  0.00     0.015 C 
ATOM     11  C1  ZIN A   1      17.416   0.293  17.463  0.00  0.00     0.006 C 
ENDBRANCH   9  10
ENDBRANCH   6   9
ENDBRANCH   1   4
BRANCH   1  12
ATOM     12  C11 ZIN A   1      19.506   0.919  10.225  0.00  0.00     0.082 A 
ATOM     13  C17 ZIN A   1      19.510  -0.317   9.607  0.00  0.00     0.027 A 
ATOM     14  C16 ZIN A   1      19.249  -0.414   8.253  0.00  0.00     0.025 A 
ATOM     15  C14 ZIN A   1      18.996   0.727   7.514  0.00  0.00     0.034 A 
ATOM     16  C13 ZIN A   1      18.997   1.965   8.131  0.00  0.00     0.025 A 
ATOM     17 Cl15 ZIN A   1      18.675   0.606   5.812  0.00  0.00    -0.084 Cl
ATOM     18  C12 ZIN A   1      19.252   2.061   9.487  0.00  0.00     0.027 A 
ENDBRANCH   1  12
TORSDOF 4
ENDMDL
MODEL 4
REMARK VINA RESULT:      -6.2      3.024      3.884
REMARK  4 active torsions:
REMARK  status: ('A' for Active; 'I' for Inactive)
REMARK    1  A    between atoms: C2_2  and  C3_3 
REMARK    2  A    between atoms: C3_3  and  N4_4 
REMARK       I    between atoms: N4_4  and  C5_5 
REMARK       I    between atoms: C5_5  and  N7_7 
REMARK    3  A    between atoms: N7_7  and  S8_8 
REMARK    4  A    between atoms: S8_8  and  C11_11 
ROOT
ATOM      1  S8  ZIN A   1      17.694   1.132  10.898  0.00  0.00     0.287 S 
ATOM      2  O9  ZIN A   1      18.920   0.851  11.559  0.00  0.00    -0.198 OA
ATOM      3  O10 ZIN A   1      16.474   0.473  11.208  0.00  0.00    -0.198 OA
ENDROOT
BRANCH   1   4
ATOM      4  N7  ZIN A   1      17.415   2.752  11.099  0.00  0.00    -0.102 NA
ATOM      5  C5  ZIN A   1      17.536   3.310  12.321  0.00  0.00     0.352 C 
ATOM      6  N4  ZIN A   1      17.309   4.629  12.485  0.00  0.00    -0.341 N 
ATOM      7  O6  ZIN A   1      17.850   2.624  13.273  0.00  0.00    -0.244 OA
ATOM      8  H25 ZIN A   1      17.058   5.175  11.725  0.00  0.00     0.164 HD
BRANCH   6   9
ATOM      9  C3  ZIN A   1      17.441   5.234  13.812  0.00  0.00     0.124 C 
BRANCH   9  10
ATOM     10  C2  ZIN A   1      16.528   6.458  13.907  0.00  0.00     0.015 C 
ATOM     11  C1  ZIN A   1      15.179   6.044  14.498  0.00  0.00     0.006 C 
ENDBRANCH   9  10
ENDBRANCH   6   9
ENDBRANCH   1   4
BRANCH   1  12
ATOM     12  C11 ZIN A   1      17.982   0.863   9.181  0.00  0.00     0.082 A 
ATOM     13  C17 ZIN A   1      18.910   1.634   8.506  0.00  0.00     0.027 A 
ATOM     14  C16 ZIN A   1      19.141   1.419   7.161  0.00  0.00     0.025 A 
ATOM     15  C14 ZIN A   1      18.434   0.440   6.485  0.00  0.00     0.034 A 
ATOM     16  C13 ZIN A   1      17.501  -0.328   7.159  0.00  0.00     0.025 A 
ATOM     17 Cl15 ZIN A   1      18.718   0.174   4.793  0.00  0.00    -0.084 Cl
ATOM     18  C12 ZIN A   1      17.275  -0.116   8.507  0.00  0.00     0.027 A 
ENDBRANCH   1  12
TORSDOF 4
ENDMDL
MODEL 5
REMARK VINA RESULT:      -6.1      3.394      7.103
REMARK  4 active torsions:
REMARK  status: ('A' for Active; 'I' for Inactive)
REMARK    1  A    between atoms: C2_2  and  C3_3 
REMARK    2  A    between atoms: C3_3  and  N4_4 
REMARK       I    between atoms: N4_4  and  C5_5 
REMARK       I    between atoms: C5_5  and  N7_7 
REMARK    3  A    between atoms: N7_7  and  S8_8 
REMARK    4  A    between atoms: S8_8  and  C11_11 
ROOT
ATOM      1  S8  ZIN A   1      18.565   1.873  11.579  0.00  0.00     0.287 S 
ATOM      2  O9  ZIN A   1      19.762   2.639  11.602  0.00  0.00    -0.198 OA
ATOM      3  O10 ZIN A   1      17.270   2.455  11.530  0.00  0.00    -0.198 OA
ENDROOT
BRANCH   1   4
ATOM      4  N7  ZIN A   1      18.677   0.870  10.266  0.00  0.00    -0.102 NA
ATOM      5  C5  ZIN A   1      18.767   1.391   9.026  0.00  0.00     0.352 C 
ATOM      6  N4  ZIN A   1      18.859   0.575   7.957  0.00  0.00    -0.341 N 
ATOM      7  O6  ZIN A   1      18.766   2.596   8.872  0.00  0.00    -0.244 OA
ATOM      8  H25 ZIN A   1      18.859  -0.387   8.081  0.00  0.00     0.164 HD
BRANCH   6   9
ATOM      9  C3  ZIN A   1      18.957   1.141   6.610  0.00  0.00     0.124 C 
BRANCH   9  10
ATOM     10  C2  ZIN A   1      18.072   0.339   5.654  0.00  0.00     0.015 C 
ATOM     11  C1  ZIN A   1      18.909  -0.143   4.467  0.00  0.00     0.006 C 
ENDBRANCH   9  10
ENDBRANCH   6   9
ENDBRANCH   1   4
BRANCH   1  12
ATOM     12  C11 ZIN A   1      18.599   0.855  13.017  0.00  0.00     0.082 A 
ATOM     13  C17 ZIN A   1      19.514  -0.177  13.112  0.00  0.00     0.027 A 
ATOM     14  C16 ZIN A   1      19.545  -0.972  14.242  0.00  0.00     0.025 A 
ATOM     15  C14 ZIN A   1      18.652  -0.743  15.274  0.00  0.00     0.034 A 
ATOM     16  C13 ZIN A   1      17.733   0.287  15.176  0.00  0.00     0.025 A 
ATOM     17 Cl15 ZIN A   1      18.685  -1.746  16.691  0.00  0.00    -0.084 Cl
ATOM     18  C12 ZIN A   1      17.707   1.085  14.048  0.00  0.00     0.027 A 
ENDBRANCH   1  12
TORSDOF 4
ENDMDL
MODEL 6
REMARK VINA RESULT:      -6.0      3.170      3.903
REMARK  4 active torsions:
REMARK  status: ('A' for Active; 'I' for Inactive)
REMARK    1  A    between atoms: C2_2  and  C3_3 
REMARK    2  A    between atoms: C3_3  and  N4_4 
REMARK       I    between atoms: N4_4  and  C5_5 
REMARK       I    between atoms: C5_5  and  N7_7 
REMARK    3  A    between atoms: N7_7  and  S8_8 
REMARK    4  A    between atoms: S8_8  and  C11_11 
ROOT
ATOM      1  S8  ZIN A   1      17.757   1.197  11.055  0.00  0.00     0.287 S 
ATOM      2  O9  ZIN A   1      19.011   0.963  11.679  0.00  0.00    -0.198 OA
ATOM      3  O10 ZIN A   1      16.569   0.503  11.411  0.00  0.00    -0.198 OA
ENDROOT
BRANCH   1   4
ATOM      4  N7  ZIN A   1      17.432   2.809  11.247  0.00  0.00    -0.102 NA
ATOM      5  C5  ZIN A   1      17.464   3.361  12.477  0.00  0.00     0.352 C 
ATOM      6  N4  ZIN A   1      17.200   4.674  12.634  0.00  0.00    -0.341 N 
ATOM      7  O6  ZIN A   1      17.732   2.675  13.443  0.00  0.00    -0.244 OA
ATOM      8  H25 ZIN A   1      16.986   5.220  11.862  0.00  0.00     0.164 HD
BRANCH   6   9
ATOM      9  C3  ZIN A   1      17.236   5.273  13.969  0.00  0.00     0.124 C 
BRANCH   9  10
ATOM     10  C2  ZIN A   1      16.398   6.553  13.977  0.00  0.00     0.015 C 
ATOM     11  C1  ZIN A   1      17.249   7.716  14.491  0.00  0.00     0.006 C 
ENDBRANCH   9  10
ENDBRANCH   6   9
ENDBRANCH   1   4
BRANCH   1  12
ATOM     12  C11 ZIN A   1      17.999   0.916   9.332  0.00  0.00     0.082 A 
ATOM     13  C17 ZIN A   1      17.290  -0.081   8.688  0.00  0.00     0.027 A 
ATOM     14  C16 ZIN A   1      17.475  -0.297   7.335  0.00  0.00     0.025 A 
ATOM     15  C14 ZIN A   1      18.381   0.475   6.629  0.00  0.00     0.034 A 
ATOM     16  C13 ZIN A   1      19.094   1.469   7.275  0.00  0.00     0.025 A 
ATOM     17 Cl15 ZIN A   1      18.620   0.198   4.931  0.00  0.00    -0.084 Cl
ATOM     18  C12 ZIN A   1      18.903   1.688   8.626  0.00  0.00     0.027 A 
ENDBRANCH   1  12
TORSDOF 4
ENDMDL
MODEL 7
REMARK VINA RESULT:      -6.0      3.398      7.087
REMARK  4 active torsions:
REMARK  status: ('A' for Active; 'I' for Inactive)
REMARK    1  A    between atoms: C2_2  and  C3_3 
REMARK    2  A    between atoms: C3_3  and  N4_4 
REMARK       I    between atoms: N4_4  and  C5_5 
REMARK       I    between atoms: C5_5  and  N7_7 
REMARK    3  A    between atoms: N7_7  and  S8_8 
REMARK    4  A    between atoms: S8_8  and  C11_11 
ROOT
ATOM      1  S8  ZIN A   1      17.400   0.406  11.596  0.00  0.00     0.287 S 
ATOM      2  O9  ZIN A   1      17.775   1.762  11.400  0.00  0.00    -0.198 OA
ATOM      3  O10 ZIN A   1      16.058  -0.051  11.502  0.00  0.00    -0.198 OA
ENDROOT
BRANCH   1   4
ATOM      4  N7  ZIN A   1      18.275  -0.484  10.508  0.00  0.00    -0.102 NA
ATOM      5  C5  ZIN A   1      17.964  -0.439   9.197  0.00  0.00     0.352 C 
ATOM      6  N4  ZIN A   1      18.676  -1.163   8.310  0.00  0.00    -0.341 N 
ATOM      7  O6  ZIN A   1      17.042   0.254   8.814  0.00  0.00    -0.244 OA
ATOM      8  H25 ZIN A   1      19.411  -1.717   8.616  0.00  0.00     0.164 HD
BRANCH   6   9
ATOM      9  C3  ZIN A   1      18.339  -1.114   6.886  0.00  0.00     0.124 C 
BRANCH   9  10
ATOM     10  C2  ZIN A   1      19.055   0.069   6.233  0.00  0.00     0.015 C 
ATOM     11  C1  ZIN A   1      19.287  -0.230   4.750  0.00  0.00     0.006 C 
ENDBRANCH   9  10
ENDBRANCH   6   9
ENDBRANCH   1   4
BRANCH   1  12
ATOM     12  C11 ZIN A   1      17.965  -0.037  13.206  0.00  0.00     0.082 A 
ATOM     13  C17 ZIN A   1      18.916  -1.029  13.355  0.00  0.00     0.027 A 
ATOM     14  C16 ZIN A   1      19.364  -1.372  14.617  0.00  0.00     0.025 A 
ATOM     15  C14 ZIN A   1      18.850  -0.732  15.731  0.00  0.00     0.034 A 
ATOM     16  C13 ZIN A   1      17.894   0.257  15.582  0.00  0.00     0.025 A 
ATOM     17 Cl15 ZIN A   1      19.407  -1.169  17.317  0.00  0.00    -0.084 Cl
ATOM     18  C12 ZIN A   1      17.452   0.604  14.319  0.00  0.00     0.027 A 
ENDBRANCH   1  12
TORSDOF 4
ENDMDL
MODEL 8
REMARK VINA RESULT:      -5.9      3.966      6.842
REMARK  4 active torsions:
REMARK  status: ('A' for Active; 'I' for Inactive)
REMARK    1  A    between atoms: C2_2  and  C3_3 
REMARK    2  A    between atoms: C3_3  and  N4_4 
REMARK       I    between atoms: N4_4  and  C5_5 
REMARK       I    between atoms: C5_5  and  N7_7 
REMARK    3  A    between atoms: N7_7  and  S8_8 
REMARK    4  A    between atoms: S8_8  and  C11_11 
ROOT
ATOM      1  S8  ZIN A   1      18.166  -1.190  12.486  0.00  0.00     0.287 S 
ATOM      2  O9  ZIN A   1      16.797  -1.077  12.123  0.00  0.00    -0.198 OA
ATOM      3  O10 ZIN A   1      18.932  -2.367  12.271  0.00  0.00    -0.198 OA
ENDROOT
BRANCH   1   4
ATOM      4  N7  ZIN A   1      18.959   0.035  11.704  0.00  0.00    -0.102 NA
ATOM      5  C5  ZIN A   1      18.266   1.082  11.214  0.00  0.00     0.352 C 
ATOM      6  N4  ZIN A   1      18.912   2.080  10.577  0.00  0.00    -0.341 N 
ATOM      7  O6  ZIN A   1      17.059   1.126  11.346  0.00  0.00    -0.244 OA
ATOM      8  H25 ZIN A   1      19.875   2.043  10.471  0.00  0.00     0.164 HD
BRANCH   6   9
ATOM      9  C3  ZIN A   1      18.159   3.217  10.045  0.00  0.00     0.124 C 
BRANCH   9  10
ATOM     10  C2  ZIN A   1      18.198   4.370  11.050  0.00  0.00     0.015 C 
ATOM     11  C1  ZIN A   1      16.959   5.249  10.867  0.00  0.00     0.006 C 
ENDBRANCH   9  10
ENDBRANCH   6   9
ENDBRANCH   1   4
BRANCH   1  12
ATOM     12  C11 ZIN A   1      18.252  -0.848  14.213  0.00  0.00     0.082 A 
ATOM     13  C17 ZIN A   1      17.561   0.227  14.739  0.00  0.00     0.027 A 
ATOM     14  C16 ZIN A   1      17.623   0.492  16.095  0.00  0.00     0.025 A 
ATOM     15  C14 ZIN A   1      18.388  -0.312  16.922  0.00  0.00     0.034 A 
ATOM     16  C13 ZIN A   1      19.084  -1.384  16.394  0.00  0.00     0.025 A 
ATOM     17 Cl15 ZIN A   1      18.473   0.025  18.623  0.00  0.00    -0.084 Cl
ATOM     18  C12 ZIN A   1      19.016  -1.652  15.039  0.00  0.00     0.027 A 
ENDBRANCH   1  12
TORSDOF 4
ENDMDL
MODEL 9
REMARK VINA RESULT:      -5.9      4.813      7.239
REMARK  4 active torsions:
REMARK  status: ('A' for Active; 'I' for Inactive)
REMARK    1  A    between atoms: C2_2  and  C3_3 
REMARK    2  A    between atoms: C3_3  and  N4_4 
REMARK       I    between atoms: N4_4  and  C5_5 
REMARK       I    between atoms: C5_5  and  N7_7 
REMARK    3  A    between atoms: N7_7  and  S8_8 
REMARK    4  A    between atoms: S8_8  and  C11_11 
ROOT
ATOM      1  S8  ZIN A   1      18.299  -1.199  12.488  0.00  0.00     0.287 S 
ATOM      2  O9  ZIN A   1      19.236  -0.323  11.878  0.00  0.00    -0.198 OA
ATOM      3  O10 ZIN A   1      16.930  -1.256  12.112  0.00  0.00    -0.198 OA
ENDROOT
BRANCH   1   4
ATOM      4  N7  ZIN A   1      18.899  -2.731  12.301  0.00  0.00    -0.102 NA
ATOM      5  C5  ZIN A   1      19.058  -3.247  11.066  0.00  0.00     0.352 C 
ATOM      6  N4  ZIN A   1      19.547  -4.493  10.914  0.00  0.00    -0.341 N 
ATOM      7  O6  ZIN A   1      18.760  -2.587  10.090  0.00  0.00    -0.244 OA
ATOM      8  H25 ZIN A   1      19.784  -5.019  11.693  0.00  0.00     0.164 HD
BRANCH   6   9
ATOM      9  C3  ZIN A   1      19.720  -5.053   9.572  0.00  0.00     0.124 C 
BRANCH   9  10
ATOM     10  C2  ZIN A   1      18.585  -6.036   9.279  0.00  0.00     0.015 C 
ATOM     11  C1  ZIN A   1      17.653  -5.439   8.222  0.00  0.00     0.006 C 
ENDBRANCH   9  10
ENDBRANCH   6   9
ENDBRANCH   1   4
BRANCH   1  12
ATOM     12  C11 ZIN A   1      18.326  -0.834  14.212  0.00  0.00     0.082 A 
ATOM     13  C17 ZIN A   1      19.025  -1.652  15.080  0.00  0.00     0.027 A 
ATOM     14  C16 ZIN A   1      19.052  -1.363  16.431  0.00  0.00     0.025 A 
ATOM     15  C14 ZIN A   1      18.369  -0.262  16.917  0.00  0.00     0.034 A 
ATOM     16  C13 ZIN A   1      17.666   0.554  16.048  0.00  0.00     0.025 A 
ATOM     17 Cl15 ZIN A   1      18.396   0.097  18.615  0.00  0.00    -0.084 Cl
ATOM     18  C12 ZIN A   1      17.645   0.267  14.696  0.00  0.00     0.027 A 
ENDBRANCH   1  12
TORSDOF 4
ENDMDL
