MODEL 1
REMARK VINA RESULT:      -7.4      0.000      0.000
REMARK  11 active torsions:
REMARK  status: ('A' for Active; 'I' for Inactive)
REMARK    1  A    between atoms: C2_2  and  N3_3 
REMARK    2  A    between atoms: N3_3  and  C5_5 
REMARK    3  A    between atoms: N3_3  and  C7_7 
REMARK    4  A    between atoms: C7_7  and  C8_8 
REMARK    5  A    between atoms: C9_9  and  C10_10 
REMARK    6  A    between atoms: C10_10  and  O11_11 
REMARK    7  A    between atoms: O11_11  and  C12_12 
REMARK    8  A    between atoms: C12_12  and  C14_14 
REMARK    9  A    between atoms: C14_14  and  O15_15 
REMARK   10  A    between atoms: C14_14  and  C16_16 
REMARK   11  A    between atoms: C14_14  and  C22_22 
ROOT
ATOM      1  C14 ZIN A   1      18.145   0.876  10.424  0.00  0.00     0.176 C 
ENDROOT
BRANCH   1   2
ATOM      2  C12 ZIN A   1      19.072  -0.159  11.009  0.00  0.00     0.299 C 
ATOM      3  O13 ZIN A   1      20.267  -0.046  10.870  0.00  0.00    -0.261 OA
BRANCH   2   4
ATOM      4  O11 ZIN A   1      18.571  -1.204  11.684  0.00  0.00    -0.307 OA
BRANCH   4   5
ATOM      5  C10 ZIN A   1      19.333  -1.679  12.826  0.00  0.00     0.272 C 
BRANCH   5   6
ATOM      6  C9  ZIN A   1      18.887  -0.978  14.040  0.00  0.00    -0.078 C 
ATOM      7  C8  ZIN A   1      18.530  -0.418  15.009  0.00  0.00    -0.077 C 
BRANCH   7   8
ATOM      8  C7  ZIN A   1      18.083   0.282  16.224  0.00  0.00     0.328 C 
BRANCH   8   9
ATOM      9  N3  ZIN A   1      19.086   1.284  16.609  0.00  0.00    -0.062 N 
ATOM     10  H4  ZIN A   1      19.950   1.099  16.122  0.00  0.00     0.280 HD
BRANCH   9  11
ATOM     11  C2  ZIN A   1      18.601   2.624  16.253  0.00  0.00     0.231 C 
ATOM     12  C1  ZIN A   1      19.720   3.645  16.469  0.00  0.00     0.034 C 
ENDBRANCH   9  11
BRANCH   9  13
ATOM     13  C5  ZIN A   1      19.315   1.215  18.058  0.00  0.00     0.231 C 
ATOM     14  C6  ZIN A   1      18.612  -0.018  18.628  0.00  0.00     0.034 C 
ENDBRANCH   9  13
ENDBRANCH   8   9
ENDBRANCH   7   8
ENDBRANCH   5   6
ENDBRANCH   4   5
ENDBRANCH   2   4
ENDBRANCH   1   2
BRANCH   1  15
ATOM     15  O15 ZIN A   1      16.821   0.660  10.916  0.00  0.00    -0.374 OA
ATOM     16  H42 ZIN A   1      16.277   0.099  10.347  0.00  0.00     0.211 HD
ENDBRANCH   1  15
BRANCH   1  17
ATOM     17  C16 ZIN A   1      18.148   0.763   8.922  0.00  0.00    -0.014 A 
ATOM     18  C21 ZIN A   1      17.262  -0.091   8.292  0.00  0.00     0.011 A 
ATOM     19  C20 ZIN A   1      17.262  -0.191   6.913  0.00  0.00     0.001 A 
ATOM     20  C19 ZIN A   1      18.154   0.553   6.165  0.00  0.00     0.000 A 
ATOM     21  C18 ZIN A   1      19.044   1.403   6.796  0.00  0.00     0.001 A 
ATOM     22  C17 ZIN A   1      19.041   1.507   8.174  0.00  0.00     0.011 A 
ENDBRANCH   1  17
BRANCH   1  23
ATOM     23  C22 ZIN A   1      18.618   2.273  10.831  0.00  0.00     0.035 C 
ATOM     24  C27 ZIN A   1      18.838   2.316  12.345  0.00  0.00     0.008 C 
ATOM     25  C26 ZIN A   1      19.312   3.713  12.752  0.00  0.00     0.001 C 
ATOM     26  C25 ZIN A   1      18.251   4.745  12.362  0.00  0.00     0.000 C 
ATOM     27  C24 ZIN A   1      18.030   4.702  10.848  0.00  0.00     0.001 C 
ATOM     28  C23 ZIN A   1      17.558   3.305  10.441  0.00  0.00     0.008 C 
ENDBRANCH   1  23
TORSDOF 11
ENDMDL
MODEL 2
REMARK VINA RESULT:      -7.3      0.808      4.109
REMARK  11 active torsions:
REMARK  status: ('A' for Active; 'I' for Inactive)
REMARK    1  A    between atoms: C2_2  and  N3_3 
REMARK    2  A    between atoms: N3_3  and  C5_5 
REMARK    3  A    between atoms: N3_3  and  C7_7 
REMARK    4  A    between atoms: C7_7  and  C8_8 
REMARK    5  A    between atoms: C9_9  and  C10_10 
REMARK    6  A    between atoms: C10_10  and  O11_11 
REMARK    7  A    between atoms: O11_11  and  C12_12 
REMARK    8  A    between atoms: C12_12  and  C14_14 
REMARK    9  A    between atoms: C14_14  and  O15_15 
REMARK   10  A    between atoms: C14_14  and  C16_16 
REMARK   11  A    between atoms: C14_14  and  C22_22 
ROOT
ATOM      1  C14 ZIN A   1      18.645   1.071  10.351  0.00  0.00     0.176 C 
ENDROOT
BRANCH   1   2
ATOM      2  C12 ZIN A   1      17.728   0.160  11.126  0.00  0.00     0.299 C 
ATOM      3  O13 ZIN A   1      16.546   0.402  11.186  0.00  0.00    -0.261 OA
BRANCH   2   4
ATOM      4  O11 ZIN A   1      18.225  -0.920  11.748  0.00  0.00    -0.307 OA
BRANCH   4   5
ATOM      5  C10 ZIN A   1      17.717  -1.206  13.079  0.00  0.00     0.272 C 
BRANCH   5   6
ATOM      6  C9  ZIN A   1      18.259  -0.226  14.033  0.00  0.00    -0.078 C 
ATOM      7  C8  ZIN A   1      18.691   0.556  14.795  0.00  0.00    -0.077 C 
BRANCH   7   8
ATOM      8  C7  ZIN A   1      19.232   1.536  15.750  0.00  0.00     0.328 C 
BRANCH   8   9
ATOM      9  N3  ZIN A   1      18.169   1.965  16.668  0.00  0.00    -0.062 N 
ATOM     10  H4  ZIN A   1      17.315   2.108  16.150  0.00  0.00     0.280 HD
BRANCH   9  11
ATOM     11  C2  ZIN A   1      17.955   0.929  17.688  0.00  0.00     0.231 C 
ATOM     12  C1  ZIN A   1      19.302   0.516  18.285  0.00  0.00     0.034 C 
ENDBRANCH   9  11
BRANCH   9  13
ATOM     13  C5  ZIN A   1      18.562   3.220  17.320  0.00  0.00     0.231 C 
ATOM     14  C6  ZIN A   1      19.715   3.859  16.545  0.00  0.00     0.034 C 
ENDBRANCH   9  13
ENDBRANCH   8   9
ENDBRANCH   7   8
ENDBRANCH   5   6
ENDBRANCH   4   5
ENDBRANCH   2   4
ENDBRANCH   1   2
BRANCH   1  15
ATOM     15  O15 ZIN A   1      19.981   0.567  10.413  0.00  0.00    -0.374 OA
ATOM     16  H42 ZIN A   1      20.147  -0.013  11.169  0.00  0.00     0.211 HD
ENDBRANCH   1  15
BRANCH   1  17
ATOM     17  C16 ZIN A   1      18.602   2.454  10.947  0.00  0.00    -0.014 A 
ATOM     18  C21 ZIN A   1      17.742   3.404  10.427  0.00  0.00     0.011 A 
ATOM     19  C20 ZIN A   1      17.699   4.671  10.977  0.00  0.00     0.001 A 
ATOM     20  C19 ZIN A   1      18.522   4.993  12.039  0.00  0.00     0.000 A 
ATOM     21  C18 ZIN A   1      19.386   4.045  12.555  0.00  0.00     0.001 A 
ATOM     22  C17 ZIN A   1      19.426   2.776  12.008  0.00  0.00     0.011 A 
ENDBRANCH   1  17
BRANCH   1  23
ATOM     23  C22 ZIN A   1      18.191   1.131   8.891  0.00  0.00     0.035 C 
ATOM     24  C27 ZIN A   1      17.590  -0.218   8.488  0.00  0.00     0.008 C 
ATOM     25  C26 ZIN A   1      17.135  -0.158   7.029  0.00  0.00     0.001 C 
ATOM     26  C25 ZIN A   1      18.336   0.153   6.132  0.00  0.00     0.000 C 
ATOM     27  C24 ZIN A   1      18.937   1.502   6.535  0.00  0.00     0.001 C 
ATOM     28  C23 ZIN A   1      19.391   1.443   7.995  0.00  0.00     0.008 C 
ENDBRANCH   1  23
TORSDOF 11
ENDMDL
MODEL 3
REMARK VINA RESULT:      -7.3      2.963      7.287
REMARK  11 active torsions:
REMARK  status: ('A' for Active; 'I' for Inactive)
REMARK    1  A    between atoms: C2_2  and  N3_3 
REMARK    2  A    between atoms: N3_3  and  C5_5 
REMARK    3  A    between atoms: N3_3  and  C7_7 
REMARK    4  A    between atoms: C7_7  and  C8_8 
REMARK    5  A    between atoms: C9_9  and  C10_10 
REMARK    6  A    between atoms: C10_10  and  O11_11 
REMARK    7  A    between atoms: O11_11  and  C12_12 
REMARK    8  A    between atoms: C12_12  and  C14_14 
REMARK    9  A    between atoms: C14_14  and  O15_15 
REMARK   10  A    between atoms: C14_14  and  C16_16 
REMARK   11  A    between atoms: C14_14  and  C22_22 
ROOT
ATOM      1  C14 ZIN A   1      19.324  -0.271  12.793  0.00  0.00     0.176 C 
ENDROOT
BRANCH   1   2
ATOM      2  C12 ZIN A   1      18.826   0.852  11.921  0.00  0.00     0.299 C 
ATOM      3  O13 ZIN A   1      17.688   1.243  12.030  0.00  0.00    -0.261 OA
BRANCH   2   4
ATOM      4  O11 ZIN A   1      19.647   1.419  11.023  0.00  0.00    -0.307 OA
BRANCH   4   5
ATOM      5  C10 ZIN A   1      19.138   1.577   9.672  0.00  0.00     0.272 C 
BRANCH   5   6
ATOM      6  C9  ZIN A   1      19.065   0.261   9.017  0.00  0.00    -0.078 C 
ATOM      7  C8  ZIN A   1      19.006  -0.789   8.495  0.00  0.00    -0.077 C 
BRANCH   7   8
ATOM      8  C7  ZIN A   1      18.933  -2.105   7.840  0.00  0.00     0.328 C 
BRANCH   8   9
ATOM      9  N3  ZIN A   1      19.368  -1.982   6.442  0.00  0.00    -0.062 N 
ATOM     10  H4  ZIN A   1      20.275  -1.542   6.410  0.00  0.00     0.280 HD
BRANCH   9  11
ATOM     11  C2  ZIN A   1      19.449  -3.317   5.834  0.00  0.00     0.231 C 
ATOM     12  C1  ZIN A   1      19.916  -4.327   6.884  0.00  0.00     0.034 C 
ENDBRANCH   9  11
BRANCH   9  13
ATOM     13  C5  ZIN A   1      18.400  -1.164   5.699  0.00  0.00     0.231 C 
ATOM     14  C6  ZIN A   1      19.147  -0.245   4.731  0.00  0.00     0.034 C 
ENDBRANCH   9  13
ENDBRANCH   8   9
ENDBRANCH   7   8
ENDBRANCH   5   6
ENDBRANCH   4   5
ENDBRANCH   2   4
ENDBRANCH   1   2
BRANCH   1  15
ATOM     15  O15 ZIN A   1      20.739  -0.154  12.958  0.00  0.00    -0.374 OA
ATOM     16  H42 ZIN A   1      21.175  -0.980  13.208  0.00  0.00     0.211 HD
ENDBRANCH   1  15
BRANCH   1  17
ATOM     17  C16 ZIN A   1      19.001  -1.592  12.146  0.00  0.00    -0.014 A 
ATOM     18  C21 ZIN A   1      20.021  -2.453  11.786  0.00  0.00     0.011 A 
ATOM     19  C20 ZIN A   1      19.723  -3.668  11.196  0.00  0.00     0.001 A 
ATOM     20  C19 ZIN A   1      18.408  -4.016  10.956  0.00  0.00     0.000 A 
ATOM     21  C18 ZIN A   1      17.389  -3.153  11.310  0.00  0.00     0.001 A 
ATOM     22  C17 ZIN A   1      17.685  -1.941  11.905  0.00  0.00     0.011 A 
ENDBRANCH   1  17
BRANCH   1  23
ATOM     23  C22 ZIN A   1      18.644  -0.194  14.162  0.00  0.00     0.035 C 
ATOM     24  C27 ZIN A   1      19.159   1.032  14.920  0.00  0.00     0.008 C 
ATOM     25  C26 ZIN A   1      18.478   1.110  16.288  0.00  0.00     0.001 C 
ATOM     26  C25 ZIN A   1      18.796  -0.156  17.088  0.00  0.00     0.000 C 
ATOM     27  C24 ZIN A   1      18.282  -1.382  16.330  0.00  0.00     0.001 C 
ATOM     28  C23 ZIN A   1      18.962  -1.459  14.962  0.00  0.00     0.008 C 
ENDBRANCH   1  23
TORSDOF 11
ENDMDL
MODEL 4
REMARK VINA RESULT:      -7.2      1.183      3.973
REMARK  11 active torsions:
REMARK  status: ('A' for Active; 'I' for Inactive)
REMARK    1  A    between atoms: C2_2  and  N3_3 
REMARK    2  A    between atoms: N3_3  and  C5_5 
REMARK    3  A    between atoms: N3_3  and  C7_7 
REMARK    4  A    between atoms: C7_7  and  C8_8 
REMARK    5  A    between atoms: C9_9  and  C10_10 
REMARK    6  A    between atoms: C10_10  and  O11_11 
REMARK    7  A    between atoms: O11_11  and  C12_12 
REMARK    8  A    between atoms: C12_12  and  C14_14 
REMARK    9  A    between atoms: C14_14  and  O15_15 
REMARK   10  A    between atoms: C14_14  and  C16_16 
REMARK   11  A    between atoms: C14_14  and  C22_22 
ROOT
ATOM      1  C14 ZIN A   1      19.343   0.004   9.810  0.00  0.00     0.176 C 
ENDROOT
BRANCH   1   2
ATOM      2  C12 ZIN A   1      18.699  -1.110  10.596  0.00  0.00     0.299 C 
ATOM      3  O13 ZIN A   1      17.559  -1.433  10.362  0.00  0.00    -0.261 OA
BRANCH   2   4
ATOM      4  O11 ZIN A   1      19.393  -1.745  11.553  0.00  0.00    -0.307 OA
BRANCH   4   5
ATOM      5  C10 ZIN A   1      18.707  -1.997  12.808  0.00  0.00     0.272 C 
BRANCH   5   6
ATOM      6  C9  ZIN A   1      18.549  -0.734  13.545  0.00  0.00    -0.078 C 
ATOM      7  C8  ZIN A   1      18.423   0.275  14.133  0.00  0.00    -0.077 C 
BRANCH   7   8
ATOM      8  C7  ZIN A   1      18.265   1.538  14.871  0.00  0.00     0.328 C 
BRANCH   8   9
ATOM      9  N3  ZIN A   1      19.062   1.489  16.103  0.00  0.00    -0.062 N 
ATOM     10  H4  ZIN A   1      20.040   1.412  15.868  0.00  0.00     0.280 HD
BRANCH   9  11
ATOM     11  C2  ZIN A   1      18.841   2.717  16.880  0.00  0.00     0.231 C 
ATOM     12  C1  ZIN A   1      19.802   3.805  16.398  0.00  0.00     0.034 C 
ENDBRANCH   9  11
BRANCH   9  13
ATOM     13  C5  ZIN A   1      18.658   0.325  16.902  0.00  0.00     0.231 C 
ATOM     14  C6  ZIN A   1      19.319   0.397  18.280  0.00  0.00     0.034 C 
ENDBRANCH   9  13
ENDBRANCH   8   9
ENDBRANCH   7   8
ENDBRANCH   5   6
ENDBRANCH   4   5
ENDBRANCH   2   4
ENDBRANCH   1   2
BRANCH   1  15
ATOM     15  O15 ZIN A   1      20.757  -0.200   9.769  0.00  0.00    -0.374 OA
ATOM     16  H42 ZIN A   1      21.273   0.616   9.830  0.00  0.00     0.211 HD
ENDBRANCH   1  15
BRANCH   1  17
ATOM     17  C16 ZIN A   1      19.044   1.323  10.472  0.00  0.00    -0.014 A 
ATOM     18  C21 ZIN A   1      20.027   1.972  11.196  0.00  0.00     0.011 A 
ATOM     19  C20 ZIN A   1      19.753   3.185  11.799  0.00  0.00     0.001 A 
ATOM     20  C19 ZIN A   1      18.495   3.745  11.688  0.00  0.00     0.000 A 
ATOM     21  C18 ZIN A   1      17.510   3.094  10.968  0.00  0.00     0.001 A 
ATOM     22  C17 ZIN A   1      17.785   1.883  10.361  0.00  0.00     0.011 A 
ENDBRANCH   1  17
BRANCH   1  23
ATOM     23  C22 ZIN A   1      18.787   0.010   8.385  0.00  0.00     0.035 C 
ATOM     24  C27 ZIN A   1      19.242  -1.255   7.653  0.00  0.00     0.008 C 
ATOM     25  C26 ZIN A   1      18.686  -1.249   6.228  0.00  0.00     0.001 C 
ATOM     26  C25 ZIN A   1      19.203  -0.015   5.484  0.00  0.00     0.000 C 
ATOM     27  C24 ZIN A   1      18.748   1.250   6.216  0.00  0.00     0.001 C 
ATOM     28  C23 ZIN A   1      19.304   1.243   7.641  0.00  0.00     0.008 C 
ENDBRANCH   1  23
TORSDOF 11
ENDMDL
MODEL 5
REMARK VINA RESULT:      -7.2      1.847      4.713
REMARK  11 active torsions:
REMARK  status: ('A' for Active; 'I' for Inactive)
REMARK    1  A    between atoms: C2_2  and  N3_3 
REMARK    2  A    between atoms: N3_3  and  C5_5 
REMARK    3  A    between atoms: N3_3  and  C7_7 
REMARK    4  A    between atoms: C7_7  and  C8_8 
REMARK    5  A    between atoms: C9_9  and  C10_10 
REMARK    6  A    between atoms: C10_10  and  O11_11 
REMARK    7  A    between atoms: O11_11  and  C12_12 
REMARK    8  A    between atoms: C12_12  and  C14_14 
REMARK    9  A    between atoms: C14_14  and  O15_15 
REMARK   10  A    between atoms: C14_14  and  C16_16 
REMARK   11  A    between atoms: C14_14  and  C22_22 
ROOT
ATOM      1  C14 ZIN A   1      18.363   1.992  11.679  0.00  0.00     0.176 C 
ENDROOT
BRANCH   1   2
ATOM      2  C12 ZIN A   1      19.059   3.277  12.049  0.00  0.00     0.299 C 
ATOM      3  O13 ZIN A   1      20.205   3.460  11.714  0.00  0.00    -0.261 OA
BRANCH   2   4
ATOM      4  O11 ZIN A   1      18.407   4.217  12.750  0.00  0.00    -0.307 OA
BRANCH   4   5
ATOM      5  C10 ZIN A   1      19.098   4.786  13.893  0.00  0.00     0.272 C 
BRANCH   5   6
ATOM      6  C9  ZIN A   1      19.117   3.809  14.993  0.00  0.00    -0.078 C 
ATOM      7  C8  ZIN A   1      19.131   3.030  15.871  0.00  0.00    -0.077 C 
BRANCH   7   8
ATOM      8  C7  ZIN A   1      19.148   2.052  16.971  0.00  0.00     0.328 C 
BRANCH   8   9
ATOM      9  N3  ZIN A   1      17.893   2.142  17.727  0.00  0.00    -0.062 N 
ATOM     10  H4  ZIN A   1      17.120   2.241  17.086  0.00  0.00     0.280 HD
BRANCH   9  11
ATOM     11  C2  ZIN A   1      17.713   0.922  18.526  0.00  0.00     0.231 C 
ATOM     12  C1  ZIN A   1      18.957   0.041  18.398  0.00  0.00     0.034 C 
ENDBRANCH   9  11
BRANCH   9  13
ATOM     13  C5  ZIN A   1      17.941   3.308  18.619  0.00  0.00     0.231 C 
ATOM     14  C6  ZIN A   1      16.676   3.345  19.479  0.00  0.00     0.034 C 
ENDBRANCH   9  13
ENDBRANCH   8   9
ENDBRANCH   7   8
ENDBRANCH   5   6
ENDBRANCH   4   5
ENDBRANCH   2   4
ENDBRANCH   1   2
BRANCH   1  15
ATOM     15  O15 ZIN A   1      16.963   2.237  11.530  0.00  0.00    -0.374 OA
ATOM     16  H42 ZIN A   1      16.670   2.299  10.611  0.00  0.00     0.211 HD
ENDBRANCH   1  15
BRANCH   1  17
ATOM     17  C16 ZIN A   1      18.582   0.971  12.764  0.00  0.00    -0.014 A 
ATOM     18  C21 ZIN A   1      17.526   0.575  13.564  0.00  0.00     0.011 A 
ATOM     19  C20 ZIN A   1      17.727  -0.366  14.557  0.00  0.00     0.001 A 
ATOM     20  C19 ZIN A   1      18.984  -0.903  14.757  0.00  0.00     0.000 A 
ATOM     21  C18 ZIN A   1      20.041  -0.503  13.962  0.00  0.00     0.001 A 
ATOM     22  C17 ZIN A   1      19.840   0.434  12.966  0.00  0.00     0.011 A 
ENDBRANCH   1  17
BRANCH   1  23
ATOM     23  C22 ZIN A   1      18.931   1.465  10.360  0.00  0.00     0.035 C 
ATOM     24  C27 ZIN A   1      18.634   2.465   9.240  0.00  0.00     0.008 C 
ATOM     25  C26 ZIN A   1      19.203   1.939   7.922  0.00  0.00     0.001 C 
ATOM     26  C25 ZIN A   1      18.555   0.593   7.588  0.00  0.00     0.000 C 
ATOM     27  C24 ZIN A   1      18.851  -0.407   8.708  0.00  0.00     0.001 C 
ATOM     28  C23 ZIN A   1      18.283   0.120  10.027  0.00  0.00     0.008 C 
ENDBRANCH   1  23
TORSDOF 11
ENDMDL
MODEL 6
REMARK VINA RESULT:      -6.9      1.537      4.432
REMARK  11 active torsions:
REMARK  status: ('A' for Active; 'I' for Inactive)
REMARK    1  A    between atoms: C2_2  and  N3_3 
REMARK    2  A    between atoms: N3_3  and  C5_5 
REMARK    3  A    between atoms: N3_3  and  C7_7 
REMARK    4  A    between atoms: C7_7  and  C8_8 
REMARK    5  A    between atoms: C9_9  and  C10_10 
REMARK    6  A    between atoms: C10_10  and  O11_11 
REMARK    7  A    between atoms: O11_11  and  C12_12 
REMARK    8  A    between atoms: C12_12  and  C14_14 
REMARK    9  A    between atoms: C14_14  and  O15_15 
REMARK   10  A    between atoms: C14_14  and  C16_16 
REMARK   11  A    between atoms: C14_14  and  C22_22 
ROOT
ATOM      1  C14 ZIN A   1      18.506   1.937  10.961  0.00  0.00     0.176 C 
ENDROOT
BRANCH   1   2
ATOM      2  C12 ZIN A   1      17.946   0.871  11.869  0.00  0.00     0.299 C 
ATOM      3  O13 ZIN A   1      16.756   0.669  11.901  0.00  0.00    -0.261 OA
BRANCH   2   4
ATOM      4  O11 ZIN A   1      18.771   0.146  12.640  0.00  0.00    -0.307 OA
BRANCH   4   5
ATOM      5  C10 ZIN A   1      18.317  -0.160  13.985  0.00  0.00     0.272 C 
BRANCH   5   6
ATOM      6  C9  ZIN A   1      18.722   0.921  14.898  0.00  0.00    -0.078 C 
ATOM      7  C8  ZIN A   1      19.045   1.784  15.627  0.00  0.00    -0.077 C 
BRANCH   7   8
ATOM      8  C7  ZIN A   1      19.449   2.864  16.540  0.00  0.00     0.328 C 
BRANCH   8   9
ATOM      9  N3  ZIN A   1      19.060   4.160  15.968  0.00  0.00    -0.062 N 
ATOM     10  H4  ZIN A   1      18.779   4.033  15.007  0.00  0.00     0.280 HD
BRANCH   9  11
ATOM     11  C2  ZIN A   1      17.938   4.718  16.736  0.00  0.00     0.231 C 
ATOM     12  C1  ZIN A   1      18.063   4.295  18.201  0.00  0.00     0.034 C 
ENDBRANCH   9  11
BRANCH   9  13
ATOM     13  C5  ZIN A   1      20.201   5.083  16.027  0.00  0.00     0.231 C 
ATOM     14  C6  ZIN A   1      20.319   5.834  14.700  0.00  0.00     0.034 C 
ENDBRANCH   9  13
ENDBRANCH   8   9
ENDBRANCH   7   8
ENDBRANCH   5   6
ENDBRANCH   4   5
ENDBRANCH   2   4
ENDBRANCH   1   2
BRANCH   1  15
ATOM     15  O15 ZIN A   1      19.927   1.984  11.104  0.00  0.00    -0.374 OA
ATOM     16  H42 ZIN A   1      20.403   1.412  10.486  0.00  0.00     0.211 HD
ENDBRANCH   1  15
BRANCH   1  17
ATOM     17  C16 ZIN A   1      17.918   3.273  11.333  0.00  0.00    -0.014 A 
ATOM     18  C21 ZIN A   1      17.724   3.597  12.663  0.00  0.00     0.011 A 
ATOM     19  C20 ZIN A   1      17.189   4.825  13.004  0.00  0.00     0.001 A 
ATOM     20  C19 ZIN A   1      16.838   5.725  12.016  0.00  0.00     0.000 A 
ATOM     21  C18 ZIN A   1      17.026   5.399  10.686  0.00  0.00     0.001 A 
ATOM     22  C17 ZIN A   1      17.566   4.173  10.345  0.00  0.00     0.011 A 
ENDBRANCH   1  17
BRANCH   1  23
ATOM     23  C22 ZIN A   1      18.150   1.610   9.510  0.00  0.00     0.035 C 
ATOM     24  C27 ZIN A   1      17.670   0.159   9.416  0.00  0.00     0.008 C 
ATOM     25  C26 ZIN A   1      17.314  -0.168   7.965  0.00  0.00     0.001 C 
ATOM     26  C25 ZIN A   1      18.550   0.019   7.082  0.00  0.00     0.000 C 
ATOM     27  C24 ZIN A   1      19.029   1.469   7.175  0.00  0.00     0.001 C 
ATOM     28  C23 ZIN A   1      19.385   1.796   8.627  0.00  0.00     0.008 C 
ENDBRANCH   1  23
TORSDOF 11
ENDMDL
MODEL 7
REMARK VINA RESULT:      -6.9      3.001      5.265
REMARK  11 active torsions:
REMARK  status: ('A' for Active; 'I' for Inactive)
REMARK    1  A    between atoms: C2_2  and  N3_3 
REMARK    2  A    between atoms: N3_3  and  C5_5 
REMARK    3  A    between atoms: N3_3  and  C7_7 
REMARK    4  A    between atoms: C7_7  and  C8_8 
REMARK    5  A    between atoms: C9_9  and  C10_10 
REMARK    6  A    between atoms: C10_10  and  O11_11 
REMARK    7  A    between atoms: O11_11  and  C12_12 
REMARK    8  A    between atoms: C12_12  and  C14_14 
REMARK    9  A    between atoms: C14_14  and  O15_15 
REMARK   10  A    between atoms: C14_14  and  C16_16 
REMARK   11  A    between atoms: C14_14  and  C22_22 
ROOT
ATOM      1  C14 ZIN A   1      18.059   1.125  11.115  0.00  0.00     0.176 C 
ENDROOT
BRANCH   1   2
ATOM      2  C12 ZIN A   1      19.028   0.208  11.816  0.00  0.00     0.299 C 
ATOM      3  O13 ZIN A   1      20.216   0.328  11.629  0.00  0.00    -0.261 OA
BRANCH   2   4
ATOM      4  O11 ZIN A   1      18.573  -0.740  12.649  0.00  0.00    -0.307 OA
BRANCH   4   5
ATOM      5  C10 ZIN A   1      19.114  -2.078  12.486  0.00  0.00     0.272 C 
BRANCH   5   6
ATOM      6  C9  ZIN A   1      18.404  -2.765  11.395  0.00  0.00    -0.078 C 
ATOM      7  C8  ZIN A   1      17.838  -3.313  10.524  0.00  0.00    -0.077 C 
BRANCH   7   8
ATOM      8  C7  ZIN A   1      17.130  -4.000   9.433  0.00  0.00     0.328 C 
BRANCH   8   9
ATOM      9  N3  ZIN A   1      18.104  -4.660   8.555  0.00  0.00    -0.062 N 
ATOM     10  H4  ZIN A   1      17.640  -4.980   7.717  0.00  0.00     0.280 HD
BRANCH   9  11
ATOM     11  C2  ZIN A   1      19.163  -3.707   8.194  0.00  0.00     0.231 C 
ATOM     12  C1  ZIN A   1      19.073  -3.387   6.700  0.00  0.00     0.034 C 
ENDBRANCH   9  11
BRANCH   9  13
ATOM     13  C5  ZIN A   1      18.696  -5.808   9.255  0.00  0.00     0.231 C 
ATOM     14  C6  ZIN A   1      20.216  -5.778   9.088  0.00  0.00     0.034 C 
ENDBRANCH   9  13
ENDBRANCH   8   9
ENDBRANCH   7   8
ENDBRANCH   5   6
ENDBRANCH   4   5
ENDBRANCH   2   4
ENDBRANCH   1   2
BRANCH   1  15
ATOM     15  O15 ZIN A   1      16.731   0.845  11.562  0.00  0.00    -0.374 OA
ATOM     16  H42 ZIN A   1      16.182   0.396  10.905  0.00  0.00     0.211 HD
ENDBRANCH   1  15
BRANCH   1  17
ATOM     17  C16 ZIN A   1      18.146   0.905   9.627  0.00  0.00    -0.014 A 
ATOM     18  C21 ZIN A   1      17.325  -0.027   9.018  0.00  0.00     0.011 A 
ATOM     19  C20 ZIN A   1      17.402  -0.225   7.651  0.00  0.00     0.001 A 
ATOM     20  C19 ZIN A   1      18.304   0.499   6.897  0.00  0.00     0.000 A 
ATOM     21  C18 ZIN A   1      19.129   1.426   7.507  0.00  0.00     0.001 A 
ATOM     22  C17 ZIN A   1      19.050   1.628   8.872  0.00  0.00     0.011 A 
ENDBRANCH   1  17
BRANCH   1  23
ATOM     23  C22 ZIN A   1      18.409   2.579  11.436  0.00  0.00     0.035 C 
ATOM     24  C27 ZIN A   1      18.505   2.759  12.953  0.00  0.00     0.008 C 
ATOM     25  C26 ZIN A   1      18.855   4.212  13.274  0.00  0.00     0.001 C 
ATOM     26  C25 ZIN A   1      17.766   5.134  12.720  0.00  0.00     0.000 C 
ATOM     27  C24 ZIN A   1      17.670   4.955  11.203  0.00  0.00     0.001 C 
ATOM     28  C23 ZIN A   1      17.321   3.500  10.881  0.00  0.00     0.008 C 
ENDBRANCH   1  23
TORSDOF 11
ENDMDL
MODEL 8
REMARK VINA RESULT:      -6.8      2.184      5.053
REMARK  11 active torsions:
REMARK  status: ('A' for Active; 'I' for Inactive)
REMARK    1  A    between atoms: C2_2  and  N3_3 
REMARK    2  A    between atoms: N3_3  and  C5_5 
REMARK    3  A    between atoms: N3_3  and  C7_7 
REMARK    4  A    between atoms: C7_7  and  C8_8 
REMARK    5  A    between atoms: C9_9  and  C10_10 
REMARK    6  A    between atoms: C10_10  and  O11_11 
REMARK    7  A    between atoms: O11_11  and  C12_12 
REMARK    8  A    between atoms: C12_12  and  C14_14 
REMARK    9  A    between atoms: C14_14  and  O15_15 
REMARK   10  A    between atoms: C14_14  and  C16_16 
REMARK   11  A    between atoms: C14_14  and  C22_22 
ROOT
ATOM      1  C14 ZIN A   1      18.835  -1.134  12.459  0.00  0.00     0.176 C 
ENDROOT
BRANCH   1   2
ATOM      2  C12 ZIN A   1      17.976  -0.277  11.565  0.00  0.00     0.299 C 
ATOM      3  O13 ZIN A   1      16.785  -0.470  11.506  0.00  0.00    -0.261 OA
BRANCH   2   4
ATOM      4  O11 ZIN A   1      18.533   0.702  10.836  0.00  0.00    -0.307 OA
BRANCH   4   5
ATOM      5  C10 ZIN A   1      17.686   1.828  10.485  0.00  0.00     0.272 C 
BRANCH   5   6
ATOM      6  C9  ZIN A   1      17.706   2.817  11.574  0.00  0.00    -0.078 C 
ATOM      7  C8  ZIN A   1      17.723   3.606  12.444  0.00  0.00    -0.077 C 
BRANCH   7   8
ATOM      8  C7  ZIN A   1      17.744   4.596  13.532  0.00  0.00     0.328 C 
BRANCH   8   9
ATOM      9  N3  ZIN A   1      18.923   4.370  14.378  0.00  0.00    -0.062 N 
ATOM     10  H4  ZIN A   1      19.440   3.577  14.029  0.00  0.00     0.280 HD
BRANCH   9  11
ATOM     11  C2  ZIN A   1      19.780   5.563  14.353  0.00  0.00     0.231 C 
ATOM     12  C1  ZIN A   1      19.017   6.751  14.942  0.00  0.00     0.034 C 
ENDBRANCH   9  11
BRANCH   9  13
ATOM     13  C5  ZIN A   1      18.492   4.106  15.758  0.00  0.00     0.231 C 
ATOM     14  C6  ZIN A   1      19.626   3.424  16.524  0.00  0.00     0.034 C 
ENDBRANCH   9  13
ENDBRANCH   8   9
ENDBRANCH   7   8
ENDBRANCH   5   6
ENDBRANCH   4   5
ENDBRANCH   2   4
ENDBRANCH   1   2
BRANCH   1  15
ATOM     15  O15 ZIN A   1      20.180  -0.652  12.430  0.00  0.00    -0.374 OA
ATOM     16  H42 ZIN A   1      20.315   0.168  12.925  0.00  0.00     0.211 HD
ENDBRANCH   1  15
BRANCH   1  17
ATOM     17  C16 ZIN A   1      18.801  -2.559  11.973  0.00  0.00    -0.014 A 
ATOM     18  C21 ZIN A   1      19.950  -3.147  11.475  0.00  0.00     0.011 A 
ATOM     19  C20 ZIN A   1      19.919  -4.457  11.034  0.00  0.00     0.001 A 
ATOM     20  C19 ZIN A   1      18.740  -5.175  11.079  0.00  0.00     0.000 A 
ATOM     21  C18 ZIN A   1      17.590  -4.585  11.570  0.00  0.00     0.001 A 
ATOM     22  C17 ZIN A   1      17.621  -3.277  12.017  0.00  0.00     0.011 A 
ENDBRANCH   1  17
BRANCH   1  23
ATOM     23  C22 ZIN A   1      18.303  -1.071  13.892  0.00  0.00     0.035 C 
ATOM     24  C27 ZIN A   1      17.990   0.382  14.257  0.00  0.00     0.008 C 
ATOM     25  C26 ZIN A   1      17.457   0.445  15.690  0.00  0.00     0.001 C 
ATOM     26  C25 ZIN A   1      18.512  -0.108  16.651  0.00  0.00     0.000 C 
ATOM     27  C24 ZIN A   1      18.824  -1.561  16.286  0.00  0.00     0.001 C 
ATOM     28  C23 ZIN A   1      19.357  -1.624  14.853  0.00  0.00     0.008 C 
ENDBRANCH   1  23
TORSDOF 11
ENDMDL
MODEL 9
REMARK VINA RESULT:      -6.8      2.219      5.380
REMARK  11 active torsions:
REMARK  status: ('A' for Active; 'I' for Inactive)
REMARK    1  A    between atoms: C2_2  and  N3_3 
REMARK    2  A    between atoms: N3_3  and  C5_5 
REMARK    3  A    between atoms: N3_3  and  C7_7 
REMARK    4  A    between atoms: C7_7  and  C8_8 
REMARK    5  A    between atoms: C9_9  and  C10_10 
REMARK    6  A    between atoms: C10_10  and  O11_11 
REMARK    7  A    between atoms: O11_11  and  C12_12 
REMARK    8  A    between atoms: C12_12  and  C14_14 
REMARK    9  A    between atoms: C14_14  and  O15_15 
REMARK   10  A    between atoms: C14_14  and  C16_16 
REMARK   11  A    between atoms: C14_14  and  C22_22 
ROOT
ATOM      1  C14 ZIN A   1      18.959  -1.043  12.147  0.00  0.00     0.176 C 
ENDROOT
BRANCH   1   2
ATOM      2  C12 ZIN A   1      18.313  -0.150  11.119  0.00  0.00     0.299 C 
ATOM      3  O13 ZIN A   1      17.129  -0.243  10.896  0.00  0.00    -0.261 OA
BRANCH   2   4
ATOM      4  O11 ZIN A   1      19.052   0.748  10.451  0.00  0.00    -0.307 OA
BRANCH   4   5
ATOM      5  C10 ZIN A   1      18.361   1.585   9.486  0.00  0.00     0.272 C 
BRANCH   5   6
ATOM      6  C9  ZIN A   1      17.951   2.843  10.131  0.00  0.00    -0.078 C 
ATOM      7  C8  ZIN A   1      17.625   3.847  10.646  0.00  0.00    -0.077 C 
BRANCH   7   8
ATOM      8  C7  ZIN A   1      17.216   5.105  11.290  0.00  0.00     0.328 C 
BRANCH   8   9
ATOM      9  N3  ZIN A   1      16.900   4.853  12.702  0.00  0.00    -0.062 N 
ATOM     10  H4  ZIN A   1      16.103   4.236  12.763  0.00  0.00     0.280 HD
BRANCH   9  11
ATOM     11  C2  ZIN A   1      18.055   4.226  13.358  0.00  0.00     0.231 C 
ATOM     12  C1  ZIN A   1      19.050   5.308  13.782  0.00  0.00     0.034 C 
ENDBRANCH   9  11
BRANCH   9  13
ATOM     13  C5  ZIN A   1      16.589   6.124  13.368  0.00  0.00     0.231 C 
ATOM     14  C6  ZIN A   1      15.404   5.926  14.315  0.00  0.00     0.034 C 
ENDBRANCH   9  13
ENDBRANCH   8   9
ENDBRANCH   7   8
ENDBRANCH   5   6
ENDBRANCH   4   5
ENDBRANCH   2   4
ENDBRANCH   1   2
BRANCH   1  15
ATOM     15  O15 ZIN A   1      20.341  -0.702  12.272  0.00  0.00    -0.374 OA
ATOM     16  H42 ZIN A   1      20.751  -0.415  11.444  0.00  0.00     0.211 HD
ENDBRANCH   1  15
BRANCH   1  17
ATOM     17  C16 ZIN A   1      18.832  -2.480  11.716  0.00  0.00    -0.014 A 
ATOM     18  C21 ZIN A   1      17.591  -3.090  11.699  0.00  0.00     0.011 A 
ATOM     19  C20 ZIN A   1      17.475  -4.408  11.299  0.00  0.00     0.001 A 
ATOM     20  C19 ZIN A   1      18.599  -5.120  10.926  0.00  0.00     0.000 A 
ATOM     21  C18 ZIN A   1      19.841  -4.512  10.949  0.00  0.00     0.001 A 
ATOM     22  C17 ZIN A   1      19.957  -3.193  11.344  0.00  0.00     0.011 A 
ENDBRANCH   1  17
BRANCH   1  23
ATOM     23  C22 ZIN A   1      18.264  -0.852  13.497  0.00  0.00     0.035 C 
ATOM     24  C27 ZIN A   1      18.206   0.639  13.835  0.00  0.00     0.008 C 
ATOM     25  C26 ZIN A   1      17.510   0.830  15.184  0.00  0.00     0.001 C 
ATOM     26  C25 ZIN A   1      18.294   0.090  16.271  0.00  0.00     0.000 C 
ATOM     27  C24 ZIN A   1      18.352  -1.401  15.933  0.00  0.00     0.001 C 
ATOM     28  C23 ZIN A   1      19.047  -1.592  14.583  0.00  0.00     0.008 C 
ENDBRANCH   1  23
TORSDOF 11
ENDMDL
