MODEL 1
REMARK VINA RESULT:      -6.5      0.000      0.000
REMARK  2 active torsions:
REMARK  status: ('A' for Active; 'I' for Inactive)
REMARK    1  A    between atoms: N1_1  and  S2_2 
REMARK    2  A    between atoms: S2_2  and  C5_5 
ROOT
ATOM      1  C5  ZIN A   1      18.839   1.864  16.503  0.00  0.00     0.102 A 
ATOM      2  C6  ZIN A   1      18.942   3.141  15.978  0.00  0.00     0.054 A 
ATOM      3  C7  ZIN A   1      18.951   3.321  14.614  0.00  0.00     0.110 A 
ATOM      4  C8  ZIN A   1      18.857   2.232  13.754  0.00  0.00     0.058 A 
ATOM      5  C9  ZIN A   1      18.756   0.952  14.285  0.00  0.00     0.056 A 
ATOM      6  C10 ZIN A   1      18.754   0.773  15.655  0.00  0.00     0.059 A 
ATOM      7 Cl11 ZIN A   1      18.627  -0.827  16.318  0.00  0.00    -0.083 Cl
ATOM      8  N12 ZIN A   1      18.859   2.429  12.376  0.00  0.00    -0.349 N 
ATOM      9  C13 ZIN A   1      19.302   3.553  11.762  0.00  0.00     0.221 C 
ATOM     10  N14 ZIN A   1      19.444   4.704  12.310  0.00  0.00    -0.155 NA
ATOM     11  S15 ZIN A   1      19.085   4.935  13.912  0.00  0.00     0.286 S 
ATOM     12  O16 ZIN A   1      17.784   5.505  13.959  0.00  0.00    -0.198 OA
ATOM     13  O17 ZIN A   1      20.226   5.541  14.502  0.00  0.00    -0.198 OA
ATOM     14  H22 ZIN A   1      18.519   1.712  11.817  0.00  0.00     0.166 HD
ENDROOT
BRANCH   1  15
ATOM     15  S2  ZIN A   1      18.826   1.627  18.248  0.00  0.00     0.258 S 
ATOM     16  O3  ZIN A   1      19.978   0.855  18.558  0.00  0.00    -0.201 OA
ATOM     17  O4  ZIN A   1      17.506   1.224  18.588  0.00  0.00    -0.201 OA
BRANCH  15  18
ATOM     18  N1  ZIN A   1      19.056   3.111  18.946  0.00  0.00    -0.324 N 
ATOM     19  H18 ZIN A   1      18.469   3.849  18.721  0.00  0.00     0.169 HD
ATOM     20  H19 ZIN A   1      19.776   3.240  19.583  0.00  0.00     0.169 HD
ENDBRANCH  15  18
ENDBRANCH   1  15
TORSDOF 2
ENDMDL
MODEL 2
REMARK VINA RESULT:      -6.4      6.743      8.482
REMARK  2 active torsions:
REMARK  status: ('A' for Active; 'I' for Inactive)
REMARK    1  A    between atoms: N1_1  and  S2_2 
REMARK    2  A    between atoms: S2_2  and  C5_5 
ROOT
ATOM      1  C5  ZIN A   1      18.402  -0.553   7.756  0.00  0.00     0.102 A 
ATOM      2  C6  ZIN A   1      17.914  -0.758   9.035  0.00  0.00     0.054 A 
ATOM      3  C7  ZIN A   1      17.844   0.296   9.917  0.00  0.00     0.110 A 
ATOM      4  C8  ZIN A   1      18.258   1.569   9.536  0.00  0.00     0.058 A 
ATOM      5  C9  ZIN A   1      18.749   1.769   8.252  0.00  0.00     0.056 A 
ATOM      6  C10 ZIN A   1      18.825   0.708   7.370  0.00  0.00     0.059 A 
ATOM      7 Cl11 ZIN A   1      19.439   0.960   5.766  0.00  0.00    -0.083 Cl
ATOM      8  N12 ZIN A   1      18.173   2.627  10.436  0.00  0.00    -0.349 N 
ATOM      9  C13 ZIN A   1      18.058   2.486  11.779  0.00  0.00     0.221 C 
ATOM     10  N14 ZIN A   1      17.658   1.433  12.394  0.00  0.00    -0.155 NA
ATOM     11  S15 ZIN A   1      17.230   0.069  11.555  0.00  0.00     0.286 S 
ATOM     12  O16 ZIN A   1      15.812   0.079  11.461  0.00  0.00    -0.198 OA
ATOM     13  O17 ZIN A   1      17.968  -1.005  12.120  0.00  0.00    -0.198 OA
ATOM     14  H22 ZIN A   1      18.199   3.529  10.077  0.00  0.00     0.166 HD
ENDROOT
BRANCH   1  15
ATOM     15  S2  ZIN A   1      18.493  -1.897   6.621  0.00  0.00     0.258 S 
ATOM     16  O3  ZIN A   1      19.872  -2.212   6.481  0.00  0.00    -0.201 OA
ATOM     17  O4  ZIN A   1      17.660  -1.553   5.523  0.00  0.00    -0.201 OA
BRANCH  15  18
ATOM     18  N1  ZIN A   1      17.787  -3.205   7.353  0.00  0.00    -0.324 N 
ATOM     19  H18 ZIN A   1      17.349  -3.883   6.816  0.00  0.00     0.169 HD
ATOM     20  H19 ZIN A   1      17.816  -3.293   8.318  0.00  0.00     0.169 HD
ENDBRANCH  15  18
ENDBRANCH   1  15
TORSDOF 2
ENDMDL
MODEL 3
REMARK VINA RESULT:      -6.4      1.989      2.252
REMARK  2 active torsions:
REMARK  status: ('A' for Active; 'I' for Inactive)
REMARK    1  A    between atoms: N1_1  and  S2_2 
REMARK    2  A    between atoms: S2_2  and  C5_5 
ROOT
ATOM      1  C5  ZIN A   1      18.764   0.831  15.814  0.00  0.00     0.102 A 
ATOM      2  C6  ZIN A   1      18.634   1.754  14.791  0.00  0.00     0.054 A 
ATOM      3  C7  ZIN A   1      18.837   1.362  13.487  0.00  0.00     0.110 A 
ATOM      4  C8  ZIN A   1      19.171   0.046  13.186  0.00  0.00     0.058 A 
ATOM      5  C9  ZIN A   1      19.302  -0.876  14.216  0.00  0.00     0.056 A 
ATOM      6  C10 ZIN A   1      19.104  -0.479  15.525  0.00  0.00     0.059 A 
ATOM      7 Cl11 ZIN A   1      19.268  -1.633  16.813  0.00  0.00    -0.083 Cl
ATOM      8  N12 ZIN A   1      19.366  -0.338  11.862  0.00  0.00    -0.349 N 
ATOM      9  C13 ZIN A   1      19.615   0.519  10.842  0.00  0.00     0.221 C 
ATOM     10  N14 ZIN A   1      19.365   1.777  10.839  0.00  0.00    -0.155 NA
ATOM     11  S15 ZIN A   1      18.684   2.514  12.159  0.00  0.00     0.286 S 
ATOM     12  O16 ZIN A   1      17.294   2.633  11.886  0.00  0.00    -0.198 OA
ATOM     13  O17 ZIN A   1      19.515   3.620  12.482  0.00  0.00    -0.198 OA
ATOM     14  H22 ZIN A   1      19.320  -1.286  11.656  0.00  0.00     0.166 HD
ENDROOT
BRANCH   1  15
ATOM     15  S2  ZIN A   1      18.503   1.326  17.485  0.00  0.00     0.258 S 
ATOM     16  O3  ZIN A   1      19.765   1.236  18.132  0.00  0.00    -0.201 OA
ATOM     17  O4  ZIN A   1      17.348   0.631  17.934  0.00  0.00    -0.201 OA
BRANCH  15  18
ATOM     18  N1  ZIN A   1      18.103   2.933  17.464  0.00  0.00    -0.324 N 
ATOM     19  H18 ZIN A   1      18.329   3.479  16.695  0.00  0.00     0.169 HD
ATOM     20  H19 ZIN A   1      17.641   3.327  18.220  0.00  0.00     0.169 HD
ENDBRANCH  15  18
ENDBRANCH   1  15
TORSDOF 2
ENDMDL
MODEL 4
REMARK VINA RESULT:      -6.4      8.707     10.574
REMARK  2 active torsions:
REMARK  status: ('A' for Active; 'I' for Inactive)
REMARK    1  A    between atoms: N1_1  and  S2_2 
REMARK    2  A    between atoms: S2_2  and  C5_5 
ROOT
ATOM      1  C5  ZIN A   1      18.946  -1.749   6.770  0.00  0.00     0.102 A 
ATOM      2  C6  ZIN A   1      18.990  -2.994   7.375  0.00  0.00     0.054 A 
ATOM      3  C7  ZIN A   1      19.105  -3.085   8.743  0.00  0.00     0.110 A 
ATOM      4  C8  ZIN A   1      19.176  -1.939   9.527  0.00  0.00     0.058 A 
ATOM      5  C9  ZIN A   1      19.133  -0.692   8.916  0.00  0.00     0.056 A 
ATOM      6  C10 ZIN A   1      19.025  -0.602   7.541  0.00  0.00     0.059 A 
ATOM      7 Cl11 ZIN A   1      18.971   0.957   6.778  0.00  0.00    -0.083 Cl
ATOM      8  N12 ZIN A   1      19.283  -2.046  10.911  0.00  0.00    -0.349 N 
ATOM      9  C13 ZIN A   1      19.686  -3.162  11.566  0.00  0.00     0.221 C 
ATOM     10  N14 ZIN A   1      19.684  -4.354  11.092  0.00  0.00    -0.155 NA
ATOM     11  S15 ZIN A   1      19.168  -4.656   9.545  0.00  0.00     0.286 S 
ATOM     12  O16 ZIN A   1      17.826  -5.112   9.647  0.00  0.00    -0.198 OA
ATOM     13  O17 ZIN A   1      20.200  -5.396   8.909  0.00  0.00    -0.198 OA
ATOM     14  H22 ZIN A   1      19.054  -1.267  11.444  0.00  0.00     0.166 HD
ENDROOT
BRANCH   1  15
ATOM     15  S2  ZIN A   1      18.798  -1.625   5.019  0.00  0.00     0.258 S 
ATOM     16  O3  ZIN A   1      19.981  -0.987   4.560  0.00  0.00    -0.201 OA
ATOM     17  O4  ZIN A   1      17.494  -1.122   4.761  0.00  0.00    -0.201 OA
BRANCH  15  18
ATOM     18  N1  ZIN A   1      18.833  -3.166   4.414  0.00  0.00    -0.324 N 
ATOM     19  H18 ZIN A   1      19.376  -3.370   3.637  0.00  0.00     0.169 HD
ATOM     20  H19 ZIN A   1      18.312  -3.865   4.839  0.00  0.00     0.169 HD
ENDBRANCH  15  18
ENDBRANCH   1  15
TORSDOF 2
ENDMDL
MODEL 5
REMARK VINA RESULT:      -6.4      7.646      8.815
REMARK  2 active torsions:
REMARK  status: ('A' for Active; 'I' for Inactive)
REMARK    1  A    between atoms: N1_1  and  S2_2 
REMARK    2  A    between atoms: S2_2  and  C5_5 
ROOT
ATOM      1  C5  ZIN A   1      18.116  -0.498   9.412  0.00  0.00     0.102 A 
ATOM      2  C6  ZIN A   1      18.353  -1.626   8.645  0.00  0.00     0.054 A 
ATOM      3  C7  ZIN A   1      18.769  -1.490   7.340  0.00  0.00     0.110 A 
ATOM      4  C8  ZIN A   1      18.956  -0.230   6.782  0.00  0.00     0.058 A 
ATOM      5  C9  ZIN A   1      18.715   0.899   7.555  0.00  0.00     0.056 A 
ATOM      6  C10 ZIN A   1      18.291   0.761   8.863  0.00  0.00     0.059 A 
ATOM      7 Cl11 ZIN A   1      17.991   2.173   9.828  0.00  0.00    -0.083 Cl
ATOM      8  N12 ZIN A   1      19.384  -0.108   5.463  0.00  0.00    -0.349 N 
ATOM      9  C13 ZIN A   1      19.303  -1.092   4.535  0.00  0.00     0.221 C 
ATOM     10  N14 ZIN A   1      19.172  -2.346   4.777  0.00  0.00    -0.155 NA
ATOM     11  S15 ZIN A   1      19.075  -2.908   6.334  0.00  0.00     0.286 S 
ATOM     12  O16 ZIN A   1      20.373  -3.375   6.678  0.00  0.00    -0.198 OA
ATOM     13  O17 ZIN A   1      17.909  -3.716   6.404  0.00  0.00    -0.198 OA
ATOM     14  H22 ZIN A   1      19.768   0.741   5.190  0.00  0.00     0.166 HD
ENDROOT
BRANCH   1  15
ATOM     15  S2  ZIN A   1      17.586  -0.664  11.083  0.00  0.00     0.258 S 
ATOM     16  O3  ZIN A   1      16.282  -0.103  11.149  0.00  0.00    -0.201 OA
ATOM     17  O4  ZIN A   1      18.665  -0.219  11.894  0.00  0.00    -0.201 OA
BRANCH  15  18
ATOM     18  N1  ZIN A   1      17.413  -2.284  11.384  0.00  0.00    -0.324 N 
ATOM     19  H18 ZIN A   1      18.026  -2.919  10.984  0.00  0.00     0.169 HD
ATOM     20  H19 ZIN A   1      16.699  -2.595  11.963  0.00  0.00     0.169 HD
ENDBRANCH  15  18
ENDBRANCH   1  15
TORSDOF 2
ENDMDL
MODEL 6
REMARK VINA RESULT:      -6.3      5.583      7.017
REMARK  2 active torsions:
REMARK  status: ('A' for Active; 'I' for Inactive)
REMARK    1  A    between atoms: N1_1  and  S2_2 
REMARK    2  A    between atoms: S2_2  and  C5_5 
ROOT
ATOM      1  C5  ZIN A   1      19.334   1.422  10.578  0.00  0.00     0.102 A 
ATOM      2  C6  ZIN A   1      18.915   1.407   9.259  0.00  0.00     0.054 A 
ATOM      3  C7  ZIN A   1      19.018   0.248   8.522  0.00  0.00     0.110 A 
ATOM      4  C8  ZIN A   1      19.537  -0.910   9.091  0.00  0.00     0.058 A 
ATOM      5  C9  ZIN A   1      19.958  -0.889  10.415  0.00  0.00     0.056 A 
ATOM      6  C10 ZIN A   1      19.860   0.276  11.150  0.00  0.00     0.059 A 
ATOM      7 Cl11 ZIN A   1      20.386   0.301  12.805  0.00  0.00    -0.083 Cl
ATOM      8  N12 ZIN A   1      19.627  -2.077   8.337  0.00  0.00    -0.349 N 
ATOM      9  C13 ZIN A   1      19.590  -2.121   6.983  0.00  0.00     0.221 C 
ATOM     10  N14 ZIN A   1      19.124  -1.206   6.213  0.00  0.00    -0.155 NA
ATOM     11  S15 ZIN A   1      18.497   0.196   6.837  0.00  0.00     0.286 S 
ATOM     12  O16 ZIN A   1      17.085   0.036   6.855  0.00  0.00    -0.198 OA
ATOM     13  O17 ZIN A   1      19.155   1.267   6.175  0.00  0.00    -0.198 OA
ATOM     14  H22 ZIN A   1      19.723  -2.916   8.814  0.00  0.00     0.166 HD
ENDROOT
BRANCH   1  15
ATOM     15  S2  ZIN A   1      19.204   2.901  11.526  0.00  0.00     0.258 S 
ATOM     16  O3  ZIN A   1      18.628   2.531  12.771  0.00  0.00    -0.201 OA
ATOM     17  O4  ZIN A   1      18.636   3.880  10.668  0.00  0.00    -0.201 OA
BRANCH  15  18
ATOM     18  N1  ZIN A   1      20.746   3.408  11.858  0.00  0.00    -0.324 N 
ATOM     19  H18 ZIN A   1      20.952   3.802  12.719  0.00  0.00     0.169 HD
ATOM     20  H19 ZIN A   1      21.443   3.307  11.190  0.00  0.00     0.169 HD
ENDBRANCH  15  18
ENDBRANCH   1  15
TORSDOF 2
ENDMDL
MODEL 7
REMARK VINA RESULT:      -6.3      7.308      8.809
REMARK  2 active torsions:
REMARK  status: ('A' for Active; 'I' for Inactive)
REMARK    1  A    between atoms: N1_1  and  S2_2 
REMARK    2  A    between atoms: S2_2  and  C5_5 
ROOT
ATOM      1  C5  ZIN A   1      18.814   0.392   8.927  0.00  0.00     0.102 A 
ATOM      2  C6  ZIN A   1      18.838   0.208   7.555  0.00  0.00     0.054 A 
ATOM      3  C7  ZIN A   1      18.930  -1.065   7.038  0.00  0.00     0.110 A 
ATOM      4  C8  ZIN A   1      18.997  -2.170   7.880  0.00  0.00     0.058 A 
ATOM      5  C9  ZIN A   1      18.975  -1.980   9.257  0.00  0.00     0.056 A 
ATOM      6  C10 ZIN A   1      18.889  -0.701   9.774  0.00  0.00     0.059 A 
ATOM      7 Cl11 ZIN A   1      18.861  -0.464  11.494  0.00  0.00    -0.083 Cl
ATOM      8  N12 ZIN A   1      19.081  -3.451   7.343  0.00  0.00    -0.349 N 
ATOM      9  C13 ZIN A   1      19.464  -3.728   6.073  0.00  0.00     0.221 C 
ATOM     10  N14 ZIN A   1      19.460  -2.904   5.090  0.00  0.00    -0.155 NA
ATOM     11  S15 ZIN A   1      18.966  -1.335   5.295  0.00  0.00     0.286 S 
ATOM     12  O16 ZIN A   1      17.619  -1.271   4.847  0.00  0.00    -0.198 OA
ATOM     13  O17 ZIN A   1      20.002  -0.511   4.778  0.00  0.00    -0.198 OA
ATOM     14  H22 ZIN A   1      18.849  -4.198   7.919  0.00  0.00     0.166 HD
ENDROOT
BRANCH   1  15
ATOM     15  S2  ZIN A   1      18.695   2.018   9.596  0.00  0.00     0.258 S 
ATOM     16  O3  ZIN A   1      17.542   2.027  10.425  0.00  0.00    -0.201 OA
ATOM     17  O4  ZIN A   1      18.877   2.913   8.507  0.00  0.00    -0.201 OA
BRANCH  15  18
ATOM     18  N1  ZIN A   1      19.995   2.231  10.600  0.00  0.00    -0.324 N 
ATOM     19  H18 ZIN A   1      20.779   1.670  10.503  0.00  0.00     0.169 HD
ATOM     20  H19 ZIN A   1      19.972   2.921  11.282  0.00  0.00     0.169 HD
ENDBRANCH  15  18
ENDBRANCH   1  15
TORSDOF 2
ENDMDL
MODEL 8
REMARK VINA RESULT:      -6.2      2.965      5.090
REMARK  2 active torsions:
REMARK  status: ('A' for Active; 'I' for Inactive)
REMARK    1  A    between atoms: N1_1  and  S2_2 
REMARK    2  A    between atoms: S2_2  and  C5_5 
ROOT
ATOM      1  C5  ZIN A   1      19.466   0.615  13.717  0.00  0.00     0.102 A 
ATOM      2  C6  ZIN A   1      19.303   1.701  14.560  0.00  0.00     0.054 A 
ATOM      3  C7  ZIN A   1      18.927   1.501  15.868  0.00  0.00     0.110 A 
ATOM      4  C8  ZIN A   1      18.710   0.216  16.355  0.00  0.00     0.058 A 
ATOM      5  C9  ZIN A   1      18.873  -0.871  15.506  0.00  0.00     0.056 A 
ATOM      6  C10 ZIN A   1      19.244  -0.667  14.190  0.00  0.00     0.059 A 
ATOM      7 Cl11 ZIN A   1      19.448  -2.026  13.129  0.00  0.00    -0.083 Cl
ATOM      8  N12 ZIN A   1      18.338   0.027  17.684  0.00  0.00    -0.349 N 
ATOM      9  C13 ZIN A   1      17.814   0.991  18.478  0.00  0.00     0.221 C 
ATOM     10  N14 ZIN A   1      17.903   2.257  18.285  0.00  0.00    -0.155 NA
ATOM     11  S15 ZIN A   1      18.706   2.863  16.968  0.00  0.00     0.286 S 
ATOM     12  O16 ZIN A   1      20.002   3.234  17.418  0.00  0.00    -0.198 OA
ATOM     13  O17 ZIN A   1      17.813   3.763  16.326  0.00  0.00    -0.198 OA
ATOM     14  H22 ZIN A   1      18.464  -0.856  18.066  0.00  0.00     0.166 HD
ENDROOT
BRANCH   1  15
ATOM     15  S2  ZIN A   1      19.948   0.865  12.041  0.00  0.00     0.258 S 
ATOM     16  O3  ZIN A   1      20.003   2.271  11.845  0.00  0.00    -0.201 OA
ATOM     17  O4  ZIN A   1      19.137   0.002  11.257  0.00  0.00    -0.201 OA
BRANCH  15  18
ATOM     18  N1  ZIN A   1      21.502   0.311  11.891  0.00  0.00    -0.324 N 
ATOM     19  H18 ZIN A   1      21.687  -0.474  11.353  0.00  0.00     0.169 HD
ATOM     20  H19 ZIN A   1      22.227   0.775  12.338  0.00  0.00     0.169 HD
ENDBRANCH  15  18
ENDBRANCH   1  15
TORSDOF 2
ENDMDL
MODEL 9
REMARK VINA RESULT:      -6.2      4.016      6.055
REMARK  2 active torsions:
REMARK  status: ('A' for Active; 'I' for Inactive)
REMARK    1  A    between atoms: N1_1  and  S2_2 
REMARK    2  A    between atoms: S2_2  and  C5_5 
ROOT
ATOM      1  C5  ZIN A   1      19.434  -0.066  12.869  0.00  0.00     0.102 A 
ATOM      2  C6  ZIN A   1      19.189  -0.737  14.055  0.00  0.00     0.054 A 
ATOM      3  C7  ZIN A   1      18.791  -0.033  15.169  0.00  0.00     0.110 A 
ATOM      4  C8  ZIN A   1      18.629   1.347  15.116  0.00  0.00     0.058 A 
ATOM      5  C9  ZIN A   1      18.878   2.017  13.924  0.00  0.00     0.056 A 
ATOM      6  C10 ZIN A   1      19.285   1.309  12.808  0.00  0.00     0.059 A 
ATOM      7 Cl11 ZIN A   1      19.595   2.147  11.319  0.00  0.00    -0.083 Cl
ATOM      8  N12 ZIN A   1      18.217   2.045  16.247  0.00  0.00    -0.349 N 
ATOM      9  C13 ZIN A   1      18.294   1.568  17.514  0.00  0.00     0.221 C 
ATOM     10  N14 ZIN A   1      18.404   0.334  17.848  0.00  0.00    -0.155 NA
ATOM     11  S15 ZIN A   1      18.474  -0.857  16.697  0.00  0.00     0.286 S 
ATOM     12  O16 ZIN A   1      17.166  -1.404  16.598  0.00  0.00    -0.198 OA
ATOM     13  O17 ZIN A   1      19.627  -1.635  16.986  0.00  0.00    -0.198 OA
ATOM     14  H22 ZIN A   1      17.850   2.935  16.121  0.00  0.00     0.166 HD
ENDROOT
BRANCH   1  15
ATOM     15  S2  ZIN A   1      19.943  -0.961  11.439  0.00  0.00     0.258 S 
ATOM     16  O3  ZIN A   1      19.150  -0.482  10.363  0.00  0.00    -0.201 OA
ATOM     17  O4  ZIN A   1      19.993  -2.329  11.819  0.00  0.00    -0.201 OA
BRANCH  15  18
ATOM     18  N1  ZIN A   1      21.502  -0.510  11.108  0.00  0.00    -0.324 N 
ATOM     19  H18 ZIN A   1      21.809  -0.467  10.189  0.00  0.00     0.169 HD
ATOM     20  H19 ZIN A   1      22.106  -0.286  11.833  0.00  0.00     0.169 HD
ENDBRANCH  15  18
ENDBRANCH   1  15
TORSDOF 2
ENDMDL
