MODEL 1
REMARK VINA RESULT:      -8.1      0.000      0.000
REMARK  8 active torsions:
REMARK  status: ('A' for Active; 'I' for Inactive)
REMARK    1  A    between atoms: C2_2  and  C4_4 
REMARK    2  A    between atoms: C4_4  and  O5_5 
REMARK    3  A    between atoms: O5_5  and  C6_6 
REMARK    4  A    between atoms: C6_6  and  C7_7 
REMARK    5  A    between atoms: C7_7  and  N8_8 
REMARK    6  A    between atoms: N11_11  and  C12_12 
REMARK    7  A    between atoms: C12_12  and  C14_13 
REMARK    8  A    between atoms: C12_12  and  C20_19 
ROOT
ATOM      1  C12 <0> d   1      19.444   0.803  11.673  0.00  0.00     0.289 C 
ENDROOT
BRANCH   1   2
ATOM      2  N11 <0> d   1      18.955  -0.039  10.573  0.00  0.00     0.105 N 
ATOM      3  C10 <0> d   1      18.527  -1.355  11.066  0.00  0.00     0.304 C 
ATOM      4  C9  <0> d   1      17.954  -2.170   9.905  0.00  0.00     0.302 C 
ATOM      5  N8  <0> d   1      18.973  -2.311   8.857  0.00  0.00     0.093 N 
ATOM      6  C28 <0> d   1      19.401  -0.994   8.363  0.00  0.00     0.302 C 
ATOM      7  C27 <0> d   1      19.976  -0.179   9.524  0.00  0.00     0.304 C 
BRANCH   5   8
ATOM      8  C7  <0> d   1      18.484  -3.153   7.756  0.00  0.00     0.298 C 
BRANCH   8   9
ATOM      9  C6  <0> d   1      19.663  -3.877   7.105  0.00  0.00     0.198 C 
BRANCH   9  10
ATOM     10  O5  <0> d   1      20.027  -3.205   5.897  0.00  0.00    -0.379 OA
BRANCH  10  11
ATOM     11  C4  <0> d   1      18.926  -2.940   5.025  0.00  0.00     0.280 C 
BRANCH  11  12
ATOM     12  C2  <0> d   1      18.963  -1.495   4.597  0.00  0.00     0.197 C 
ATOM     13  O1  <0> d   1      17.941  -0.942   4.228  0.00  0.00    -0.646 OA
ATOM     14  O3  <0> d   1      20.015  -0.878   4.623  0.00  0.00    -0.646 OA
ENDBRANCH  11  12
ENDBRANCH  10  11
ENDBRANCH   9  10
ENDBRANCH   8   9
ENDBRANCH   5   8
ENDBRANCH   1   2
BRANCH   1  15
ATOM     15  C14 <0> d   1      18.953   2.215  11.481  0.00  0.00    -0.021 A 
ATOM     16  C19 <0> d   1      19.559   3.255  12.161  0.00  0.00     0.010 A 
ATOM     17  C18 <0> d   1      19.113   4.551  11.982  0.00  0.00     0.001 A 
ATOM     18  C17 <0> d   1      18.054   4.806  11.130  0.00  0.00     0.000 A 
ATOM     19  C16 <0> d   1      17.445   3.765  10.454  0.00  0.00     0.001 A 
ATOM     20  C15 <0> d   1      17.895   2.470  10.630  0.00  0.00     0.010 A 
ENDBRANCH   1  15
BRANCH   1  21
ATOM     21  C20 <0> d   1      18.929   0.265  12.984  0.00  0.00    -0.021 A 
ATOM     22  C26 <0> d   1      19.672  -0.660  13.691  0.00  0.00     0.011 A 
ATOM     23  C25 <0> d   1      19.204  -1.149  14.895  0.00  0.00     0.024 A 
ATOM     24  C23 <0> d   1      17.986  -0.719  15.389  0.00  0.00     0.034 A 
ATOM     25  C22 <0> d   1      17.239   0.204  14.678  0.00  0.00     0.024 A 
ATOM     26 Cl24 <0> d   1      17.392  -1.338  16.898  0.00  0.00    -0.084 Cl
ATOM     27  C21 <0> d   1      17.711   0.696  13.476  0.00  0.00     0.011 A 
ENDBRANCH   1  21
TORSDOF 8
ENDMDL
MODEL 2
REMARK VINA RESULT:      -7.7      2.480      4.565
REMARK  8 active torsions:
REMARK  status: ('A' for Active; 'I' for Inactive)
REMARK    1  A    between atoms: C2_2  and  C4_4 
REMARK    2  A    between atoms: C4_4  and  O5_5 
REMARK    3  A    between atoms: O5_5  and  C6_6 
REMARK    4  A    between atoms: C6_6  and  C7_7 
REMARK    5  A    between atoms: C7_7  and  N8_8 
REMARK    6  A    between atoms: N11_11  and  C12_12 
REMARK    7  A    between atoms: C12_12  and  C14_13 
REMARK    8  A    between atoms: C12_12  and  C20_19 
ROOT
ATOM      1  C12 <0> d   1      19.424  -1.270  12.466  0.00  0.00     0.289 C 
ENDROOT
BRANCH   1   2
ATOM      2  N11 <0> d   1      19.026  -0.221  11.518  0.00  0.00     0.105 N 
ATOM      3  C10 <0> d   1      18.762  -0.784  10.187  0.00  0.00     0.304 C 
ATOM      4  C9  <0> d   1      18.275   0.327   9.254  0.00  0.00     0.302 C 
ATOM      5  N8  <0> d   1      19.292   1.385   9.182  0.00  0.00     0.093 N 
ATOM      6  C28 <0> d   1      19.555   1.949  10.514  0.00  0.00     0.302 C 
ATOM      7  C27 <0> d   1      20.043   0.838  11.447  0.00  0.00     0.304 C 
BRANCH   5   8
ATOM      8  C7  <0> d   1      18.893   2.435   8.236  0.00  0.00     0.298 C 
BRANCH   8   9
ATOM      9  C6  <0> d   1      18.412   1.793   6.934  0.00  0.00     0.198 C 
BRANCH   9  10
ATOM     10  O5  <0> d   1      19.474   1.028   6.359  0.00  0.00    -0.379 OA
BRANCH  10  11
ATOM     11  C4  <0> d   1      19.114   0.347   5.155  0.00  0.00     0.280 C 
BRANCH  11  12
ATOM     12  C2  <0> d   1      19.404  -1.124   5.306  0.00  0.00     0.197 C 
ATOM     13  O1  <0> d   1      19.689  -1.793   4.327  0.00  0.00    -0.646 OA
ATOM     14  O3  <0> d   1      19.358  -1.645   6.408  0.00  0.00    -0.646 OA
ENDBRANCH  11  12
ENDBRANCH  10  11
ENDBRANCH   9  10
ENDBRANCH   8   9
ENDBRANCH   5   8
ENDBRANCH   1   2
BRANCH   1  15
ATOM     15  C14 <0> d   1      18.856  -0.962  13.826  0.00  0.00    -0.021 A 
ATOM     16  C19 <0> d   1      17.857  -0.015  13.960  0.00  0.00     0.010 A 
ATOM     17  C18 <0> d   1      17.333   0.265  15.208  0.00  0.00     0.001 A 
ATOM     18  C17 <0> d   1      17.813  -0.397  16.324  0.00  0.00     0.000 A 
ATOM     19  C16 <0> d   1      18.814  -1.340  16.190  0.00  0.00     0.001 A 
ATOM     20  C15 <0> d   1      19.336  -1.622  14.942  0.00  0.00     0.010 A 
ENDBRANCH   1  15
BRANCH   1  21
ATOM     21  C20 <0> d   1      18.898  -2.601  11.991  0.00  0.00    -0.021 A 
ATOM     22  C26 <0> d   1      19.778  -3.601  11.622  0.00  0.00     0.011 A 
ATOM     23  C25 <0> d   1      19.296  -4.823  11.193  0.00  0.00     0.024 A 
ATOM     24  C23 <0> d   1      17.933  -5.042  11.122  0.00  0.00     0.034 A 
ATOM     25  C22 <0> d   1      17.052  -4.039  11.486  0.00  0.00     0.024 A 
ATOM     26 Cl24 <0> d   1      17.327  -6.574  10.575  0.00  0.00    -0.084 Cl
ATOM     27  C21 <0> d   1      17.534  -2.819  11.921  0.00  0.00     0.011 A 
ENDBRANCH   1  21
TORSDOF 8
ENDMDL
MODEL 3
REMARK VINA RESULT:      -7.7      5.476      8.595
REMARK  8 active torsions:
REMARK  status: ('A' for Active; 'I' for Inactive)
REMARK    1  A    between atoms: C2_2  and  C4_4 
REMARK    2  A    between atoms: C4_4  and  O5_5 
REMARK    3  A    between atoms: O5_5  and  C6_6 
REMARK    4  A    between atoms: C6_6  and  C7_7 
REMARK    5  A    between atoms: C7_7  and  N8_8 
REMARK    6  A    between atoms: N11_11  and  C12_12 
REMARK    7  A    between atoms: C12_12  and  C14_13 
REMARK    8  A    between atoms: C12_12  and  C20_19 
ROOT
ATOM      1  C12 <0> d   1      19.672  -1.157  11.923  0.00  0.00     0.289 C 
ENDROOT
BRANCH   1   2
ATOM      2  N11 <0> d   1      19.074  -0.587  13.137  0.00  0.00     0.105 N 
ATOM      3  C10 <0> d   1      19.923   0.474  13.696  0.00  0.00     0.304 C 
ATOM      4  C9  <0> d   1      19.228   1.093  14.910  0.00  0.00     0.302 C 
ATOM      5  N8  <0> d   1      18.971   0.048  15.911  0.00  0.00     0.093 N 
ATOM      6  C28 <0> d   1      18.120  -1.013  15.352  0.00  0.00     0.302 C 
ATOM      7  C27 <0> d   1      18.816  -1.633  14.137  0.00  0.00     0.304 C 
BRANCH   5   8
ATOM      8  C7  <0> d   1      18.371   0.617  17.125  0.00  0.00     0.298 C 
BRANCH   8   9
ATOM      9  C6  <0> d   1      19.417   0.658  18.240  0.00  0.00     0.198 C 
BRANCH   9  10
ATOM     10  O5  <0> d   1      19.654   2.015  18.622  0.00  0.00    -0.379 OA
BRANCH  10  11
ATOM     11  C4  <0> d   1      18.623   2.920  18.221  0.00  0.00     0.280 C 
BRANCH  11  12
ATOM     12  C2  <0> d   1      19.194   3.941  17.270  0.00  0.00     0.197 C 
ATOM     13  O1  <0> d   1      18.577   4.966  17.034  0.00  0.00    -0.646 OA
ATOM     14  O3  <0> d   1      20.274   3.742  16.740  0.00  0.00    -0.646 OA
ENDBRANCH  11  12
ENDBRANCH  10  11
ENDBRANCH   9  10
ENDBRANCH   8   9
ENDBRANCH   5   8
ENDBRANCH   1   2
BRANCH   1  15
ATOM     15  C14 <0> d   1      19.054  -2.501  11.640  0.00  0.00    -0.021 A 
ATOM     16  C19 <0> d   1      19.855  -3.623  11.536  0.00  0.00     0.010 A 
ATOM     17  C18 <0> d   1      19.287  -4.857  11.281  0.00  0.00     0.001 A 
ATOM     18  C17 <0> d   1      17.918  -4.969  11.122  0.00  0.00     0.000 A 
ATOM     19  C16 <0> d   1      17.118  -3.846  11.221  0.00  0.00     0.001 A 
ATOM     20  C15 <0> d   1      17.685  -2.612  11.480  0.00  0.00     0.010 A 
ENDBRANCH   1  15
BRANCH   1  21
ATOM     21  C20 <0> d   1      19.421  -0.233  10.758  0.00  0.00    -0.021 A 
ATOM     22  C26 <0> d   1      20.028  -0.475   9.541  0.00  0.00     0.011 A 
ATOM     23  C25 <0> d   1      19.793   0.369   8.471  0.00  0.00     0.024 A 
ATOM     24  C23 <0> d   1      18.959   1.461   8.623  0.00  0.00     0.034 A 
ATOM     25  C22 <0> d   1      18.355   1.706   9.844  0.00  0.00     0.024 A 
ATOM     26 Cl24 <0> d   1      18.669   2.526   7.283  0.00  0.00    -0.084 Cl
ATOM     27  C21 <0> d   1      18.586   0.859  10.911  0.00  0.00     0.011 A 
ENDBRANCH   1  21
TORSDOF 8
ENDMDL
MODEL 4
REMARK VINA RESULT:      -7.6      1.325      2.473
REMARK  8 active torsions:
REMARK  status: ('A' for Active; 'I' for Inactive)
REMARK    1  A    between atoms: C2_2  and  C4_4 
REMARK    2  A    between atoms: C4_4  and  O5_5 
REMARK    3  A    between atoms: O5_5  and  C6_6 
REMARK    4  A    between atoms: C6_6  and  C7_7 
REMARK    5  A    between atoms: C7_7  and  N8_8 
REMARK    6  A    between atoms: N11_11  and  C12_12 
REMARK    7  A    between atoms: C12_12  and  C14_13 
REMARK    8  A    between atoms: C12_12  and  C20_19 
ROOT
ATOM      1  C12 <0> d   1      19.469   0.914  11.335  0.00  0.00     0.289 C 
ENDROOT
BRANCH   1   2
ATOM      2  N11 <0> d   1      18.897   0.172  10.204  0.00  0.00     0.105 N 
ATOM      3  C10 <0> d   1      18.892  -1.273  10.469  0.00  0.00     0.304 C 
ATOM      4  C9  <0> d   1      18.219  -2.000   9.304  0.00  0.00     0.302 C 
ATOM      5  N8  <0> d   1      18.939  -1.700   8.059  0.00  0.00     0.093 N 
ATOM      6  C28 <0> d   1      18.943  -0.254   7.793  0.00  0.00     0.302 C 
ATOM      7  C27 <0> d   1      19.617   0.474   8.958  0.00  0.00     0.304 C 
BRANCH   5   8
ATOM      8  C7  <0> d   1      18.366  -2.441   6.927  0.00  0.00     0.298 C 
BRANCH   8   9
ATOM      9  C6  <0> d   1      19.478  -2.813   5.945  0.00  0.00     0.198 C 
BRANCH   9  10
ATOM     10  O5  <0> d   1      20.382  -3.726   6.572  0.00  0.00    -0.379 OA
BRANCH  10  11
ATOM     11  C4  <0> d   1      19.820  -5.014   6.832  0.00  0.00     0.280 C 
BRANCH  11  12
ATOM     12  C2  <0> d   1      20.655  -5.726   7.866  0.00  0.00     0.197 C 
ATOM     13  O1  <0> d   1      20.126  -6.196   8.858  0.00  0.00    -0.646 OA
ATOM     14  O3  <0> d   1      21.859  -5.835   7.706  0.00  0.00    -0.646 OA
ENDBRANCH  11  12
ENDBRANCH  10  11
ENDBRANCH   9  10
ENDBRANCH   8   9
ENDBRANCH   5   8
ENDBRANCH   1   2
BRANCH   1  15
ATOM     15  C14 <0> d   1      18.954   2.330  11.320  0.00  0.00    -0.021 A 
ATOM     16  C19 <0> d   1      17.821   2.646  10.593  0.00  0.00     0.010 A 
ATOM     17  C18 <0> d   1      17.345   3.943  10.582  0.00  0.00     0.001 A 
ATOM     18  C17 <0> d   1      18.007   4.928  11.293  0.00  0.00     0.000 A 
ATOM     19  C16 <0> d   1      19.142   4.613  12.016  0.00  0.00     0.001 A 
ATOM     20  C15 <0> d   1      19.615   3.314  12.030  0.00  0.00     0.010 A 
ENDBRANCH   1  15
BRANCH   1  21
ATOM     21  C20 <0> d   1      19.069   0.247  12.626  0.00  0.00    -0.021 A 
ATOM     22  C26 <0> d   1      19.960  -0.581  13.282  0.00  0.00     0.011 A 
ATOM     23  C25 <0> d   1      19.596  -1.188  14.469  0.00  0.00     0.024 A 
ATOM     24  C23 <0> d   1      18.335  -0.974  14.996  0.00  0.00     0.034 A 
ATOM     25  C22 <0> d   1      17.441  -0.148  14.337  0.00  0.00     0.024 A 
ATOM     26 Cl24 <0> d   1      17.874  -1.742  16.483  0.00  0.00    -0.084 Cl
ATOM     27  C21 <0> d   1      17.808   0.462  13.153  0.00  0.00     0.011 A 
ENDBRANCH   1  21
TORSDOF 8
ENDMDL
MODEL 5
REMARK VINA RESULT:      -7.6      4.843      7.506
REMARK  8 active torsions:
REMARK  status: ('A' for Active; 'I' for Inactive)
REMARK    1  A    between atoms: C2_2  and  C4_4 
REMARK    2  A    between atoms: C4_4  and  O5_5 
REMARK    3  A    between atoms: O5_5  and  C6_6 
REMARK    4  A    between atoms: C6_6  and  C7_7 
REMARK    5  A    between atoms: C7_7  and  N8_8 
REMARK    6  A    between atoms: N11_11  and  C12_12 
REMARK    7  A    between atoms: C12_12  and  C14_13 
REMARK    8  A    between atoms: C12_12  and  C20_19 
ROOT
ATOM      1  C12 <0> d   1      19.443   1.509  10.894  0.00  0.00     0.289 C 
ENDROOT
BRANCH   1   2
ATOM      2  N11 <0> d   1      19.150   0.479  11.901  0.00  0.00     0.105 N 
ATOM      3  C10 <0> d   1      17.855   0.728  12.549  0.00  0.00     0.304 C 
ATOM      4  C9  <0> d   1      17.553  -0.406  13.530  0.00  0.00     0.302 C 
ATOM      5  N8  <0> d   1      18.630  -0.490  14.527  0.00  0.00     0.093 N 
ATOM      6  C28 <0> d   1      19.925  -0.740  13.878  0.00  0.00     0.302 C 
ATOM      7  C27 <0> d   1      20.228   0.396  12.897  0.00  0.00     0.304 C 
BRANCH   5   8
ATOM      8  C7  <0> d   1      18.338  -1.520  15.532  0.00  0.00     0.298 C 
BRANCH   8   9
ATOM      9  C6  <0> d   1      17.337  -0.971  16.550  0.00  0.00     0.198 C 
BRANCH   9  10
ATOM     10  O5  <0> d   1      17.430   0.455  16.589  0.00  0.00    -0.379 OA
BRANCH  10  11
ATOM     11  C4  <0> d   1      17.758   0.980  17.877  0.00  0.00     0.280 C 
BRANCH  11  12
ATOM     12  C2  <0> d   1      19.220   1.345  17.912  0.00  0.00     0.197 C 
ATOM     13  O1  <0> d   1      20.022   0.598  18.447  0.00  0.00    -0.646 OA
ATOM     14  O3  <0> d   1      19.601   2.385  17.402  0.00  0.00    -0.646 OA
ENDBRANCH  11  12
ENDBRANCH  10  11
ENDBRANCH   9  10
ENDBRANCH   8   9
ENDBRANCH   5   8
ENDBRANCH   1   2
BRANCH   1  15
ATOM     15  C14 <0> d   1      18.900   1.075   9.558  0.00  0.00    -0.021 A 
ATOM     16  C19 <0> d   1      19.368   1.663   8.397  0.00  0.00     0.010 A 
ATOM     17  C18 <0> d   1      18.874   1.262   7.170  0.00  0.00     0.001 A 
ATOM     18  C17 <0> d   1      17.905   0.278   7.104  0.00  0.00     0.000 A 
ATOM     19  C16 <0> d   1      17.433  -0.307   8.264  0.00  0.00     0.001 A 
ATOM     20  C15 <0> d   1      17.931   0.092   9.491  0.00  0.00     0.010 A 
ENDBRANCH   1  15
BRANCH   1  21
ATOM     21  C20 <0> d   1      18.795   2.808  11.302  0.00  0.00    -0.021 A 
ATOM     22  C26 <0> d   1      19.405   3.619  12.240  0.00  0.00     0.011 A 
ATOM     23  C25 <0> d   1      18.814   4.813  12.610  0.00  0.00     0.024 A 
ATOM     24  C23 <0> d   1      17.608   5.191  12.049  0.00  0.00     0.034 A 
ATOM     25  C22 <0> d   1      16.996   4.376  11.114  0.00  0.00     0.024 A 
ATOM     26 Cl24 <0> d   1      16.862   6.686  12.518  0.00  0.00    -0.084 Cl
ATOM     27  C21 <0> d   1      17.589   3.184  10.740  0.00  0.00     0.011 A 
ENDBRANCH   1  21
TORSDOF 8
ENDMDL
MODEL 6
REMARK VINA RESULT:      -7.6      2.134      4.339
REMARK  8 active torsions:
REMARK  status: ('A' for Active; 'I' for Inactive)
REMARK    1  A    between atoms: C2_2  and  C4_4 
REMARK    2  A    between atoms: C4_4  and  O5_5 
REMARK    3  A    between atoms: O5_5  and  C6_6 
REMARK    4  A    between atoms: C6_6  and  C7_7 
REMARK    5  A    between atoms: C7_7  and  N8_8 
REMARK    6  A    between atoms: N11_11  and  C12_12 
REMARK    7  A    between atoms: C12_12  and  C14_13 
REMARK    8  A    between atoms: C12_12  and  C20_19 
ROOT
ATOM      1  C12 <0> d   1      17.766  -1.161  12.299  0.00  0.00     0.289 C 
ENDROOT
BRANCH   1   2
ATOM      2  N11 <0> d   1      18.308  -0.216  11.313  0.00  0.00     0.105 N 
ATOM      3  C10 <0> d   1      17.229   0.512  10.632  0.00  0.00     0.304 C 
ATOM      4  C9  <0> d   1      17.836   1.539   9.674  0.00  0.00     0.302 C 
ATOM      5  N8  <0> d   1      18.696   0.850   8.702  0.00  0.00     0.093 N 
ATOM      6  C28 <0> d   1      19.777   0.122   9.383  0.00  0.00     0.302 C 
ATOM      7  C27 <0> d   1      19.169  -0.906  10.341  0.00  0.00     0.304 C 
BRANCH   5   8
ATOM      8  C7  <0> d   1      19.239   1.796   7.716  0.00  0.00     0.298 C 
BRANCH   8   9
ATOM      9  C6  <0> d   1      18.863   1.336   6.307  0.00  0.00     0.198 C 
BRANCH   9  10
ATOM     10  O5  <0> d   1      17.762   0.428   6.380  0.00  0.00    -0.379 OA
BRANCH  10  11
ATOM     11  C4  <0> d   1      17.815  -0.628   5.419  0.00  0.00     0.280 C 
BRANCH  11  12
ATOM     12  C2  <0> d   1      19.178  -1.272   5.456  0.00  0.00     0.197 C 
ATOM     13  O1  <0> d   1      19.504  -1.953   6.413  0.00  0.00    -0.646 OA
ATOM     14  O3  <0> d   1      19.952  -1.115   4.526  0.00  0.00    -0.646 OA
ENDBRANCH  11  12
ENDBRANCH  10  11
ENDBRANCH   9  10
ENDBRANCH   8   9
ENDBRANCH   5   8
ENDBRANCH   1   2
BRANCH   1  15
ATOM     15  C14 <0> d   1      18.280  -2.546  12.003  0.00  0.00    -0.021 A 
ATOM     16  C19 <0> d   1      19.636  -2.809  12.067  0.00  0.00     0.010 A 
ATOM     17  C18 <0> d   1      20.108  -4.080  11.801  0.00  0.00     0.001 A 
ATOM     18  C17 <0> d   1      19.224  -5.088  11.462  0.00  0.00     0.000 A 
ATOM     19  C16 <0> d   1      17.869  -4.825  11.393  0.00  0.00     0.001 A 
ATOM     20  C15 <0> d   1      17.397  -3.554  11.664  0.00  0.00     0.010 A 
ENDBRANCH   1  15
BRANCH   1  21
ATOM     21  C20 <0> d   1      18.202  -0.748  13.681  0.00  0.00    -0.021 A 
ATOM     22  C26 <0> d   1      18.801   0.482  13.879  0.00  0.00     0.011 A 
ATOM     23  C25 <0> d   1      19.194   0.864  15.148  0.00  0.00     0.024 A 
ATOM     24  C23 <0> d   1      18.998   0.011  16.218  0.00  0.00     0.034 A 
ATOM     25  C22 <0> d   1      18.403  -1.222  16.020  0.00  0.00     0.024 A 
ATOM     26 Cl24 <0> d   1      19.499   0.486  17.811  0.00  0.00    -0.084 Cl
ATOM     27  C21 <0> d   1      18.005  -1.602  14.751  0.00  0.00     0.011 A 
ENDBRANCH   1  21
TORSDOF 8
ENDMDL
MODEL 7
REMARK VINA RESULT:      -7.6      4.205      6.676
REMARK  8 active torsions:
REMARK  status: ('A' for Active; 'I' for Inactive)
REMARK    1  A    between atoms: C2_2  and  C4_4 
REMARK    2  A    between atoms: C4_4  and  O5_5 
REMARK    3  A    between atoms: O5_5  and  C6_6 
REMARK    4  A    between atoms: C6_6  and  C7_7 
REMARK    5  A    between atoms: C7_7  and  N8_8 
REMARK    6  A    between atoms: N11_11  and  C12_12 
REMARK    7  A    between atoms: C12_12  and  C14_13 
REMARK    8  A    between atoms: C12_12  and  C20_19 
ROOT
ATOM      1  C12 <0> d   1      19.469  -0.771  13.084  0.00  0.00     0.289 C 
ENDROOT
BRANCH   1   2
ATOM      2  N11 <0> d   1      18.985   0.400  12.342  0.00  0.00     0.105 N 
ATOM      3  C10 <0> d   1      18.247  -0.005  11.138  0.00  0.00     0.304 C 
ATOM      4  C9  <0> d   1      17.694   1.238  10.439  0.00  0.00     0.302 C 
ATOM      5  N8  <0> d   1      18.803   2.138  10.093  0.00  0.00     0.093 N 
ATOM      6  C28 <0> d   1      19.541   2.544  11.298  0.00  0.00     0.302 C 
ATOM      7  C27 <0> d   1      20.095   1.301  11.997  0.00  0.00     0.304 C 
BRANCH   5   8
ATOM      8  C7  <0> d   1      18.319   3.310   9.352  0.00  0.00     0.298 C 
BRANCH   8   9
ATOM      9  C6  <0> d   1      18.039   4.452  10.330  0.00  0.00     0.198 C 
BRANCH   9  10
ATOM     10  O5  <0> d   1      16.770   4.245  10.954  0.00  0.00    -0.379 OA
BRANCH  10  11
ATOM     11  C4  <0> d   1      16.501   5.142  12.034  0.00  0.00     0.280 C 
BRANCH  11  12
ATOM     12  C2  <0> d   1      17.367   4.781  13.213  0.00  0.00     0.197 C 
ATOM     13  O1  <0> d   1      17.382   3.635  13.631  0.00  0.00    -0.646 OA
ATOM     14  O3  <0> d   1      18.057   5.634  13.746  0.00  0.00    -0.646 OA
ENDBRANCH  11  12
ENDBRANCH  10  11
ENDBRANCH   9  10
ENDBRANCH   8   9
ENDBRANCH   5   8
ENDBRANCH   1   2
BRANCH   1  15
ATOM     15  C14 <0> d   1      18.859  -0.781  14.461  0.00  0.00    -0.021 A 
ATOM     16  C19 <0> d   1      19.309  -1.681  15.411  0.00  0.00     0.010 A 
ATOM     17  C18 <0> d   1      18.753  -1.687  16.676  0.00  0.00     0.001 A 
ATOM     18  C17 <0> d   1      17.740  -0.800  16.990  0.00  0.00     0.000 A 
ATOM     19  C16 <0> d   1      17.286   0.096  16.040  0.00  0.00     0.001 A 
ATOM     20  C15 <0> d   1      17.846   0.105  14.776  0.00  0.00     0.010 A 
ENDBRANCH   1  15
BRANCH   1  21
ATOM     21  C20 <0> d   1      19.075  -2.028  12.350  0.00  0.00    -0.021 A 
ATOM     22  C26 <0> d   1      17.743  -2.384  12.254  0.00  0.00     0.011 A 
ATOM     23  C25 <0> d   1      17.381  -3.532  11.576  0.00  0.00     0.024 A 
ATOM     24  C23 <0> d   1      18.353  -4.331  11.002  0.00  0.00     0.034 A 
ATOM     25  C22 <0> d   1      19.687  -3.978  11.103  0.00  0.00     0.024 A 
ATOM     26 Cl24 <0> d   1      17.900  -5.778  10.158  0.00  0.00    -0.084 Cl
ATOM     27  C21 <0> d   1      20.048  -2.826  11.777  0.00  0.00     0.011 A 
ENDBRANCH   1  21
TORSDOF 8
ENDMDL
MODEL 8
REMARK VINA RESULT:      -7.6      2.551      3.241
REMARK  8 active torsions:
REMARK  status: ('A' for Active; 'I' for Inactive)
REMARK    1  A    between atoms: C2_2  and  C4_4 
REMARK    2  A    between atoms: C4_4  and  O5_5 
REMARK    3  A    between atoms: O5_5  and  C6_6 
REMARK    4  A    between atoms: C6_6  and  C7_7 
REMARK    5  A    between atoms: C7_7  and  N8_8 
REMARK    6  A    between atoms: N11_11  and  C12_12 
REMARK    7  A    between atoms: C12_12  and  C14_13 
REMARK    8  A    between atoms: C12_12  and  C20_19 
ROOT
ATOM      1  C12 <0> d   1      19.614  -0.886  11.871  0.00  0.00     0.289 C 
ENDROOT
BRANCH   1   2
ATOM      2  N11 <0> d   1      19.073  -2.088  11.224  0.00  0.00     0.105 N 
ATOM      3  C10 <0> d   1      17.747  -2.425  11.760  0.00  0.00     0.304 C 
ATOM      4  C9  <0> d   1      17.186  -3.632  11.006  0.00  0.00     0.302 C 
ATOM      5  N8  <0> d   1      18.110  -4.767  11.146  0.00  0.00     0.093 N 
ATOM      6  C28 <0> d   1      19.437  -4.430  10.609  0.00  0.00     0.302 C 
ATOM      7  C27 <0> d   1      19.998  -3.222  11.363  0.00  0.00     0.304 C 
BRANCH   5   8
ATOM      8  C7  <0> d   1      17.569  -5.969  10.497  0.00  0.00     0.298 C 
BRANCH   8   9
ATOM      9  C6  <0> d   1      16.393  -5.580   9.600  0.00  0.00     0.198 C 
BRANCH   9  10
ATOM     10  O5  <0> d   1      16.614  -6.082   8.280  0.00  0.00    -0.379 OA
BRANCH  10  11
ATOM     11  C4  <0> d   1      17.542  -5.312   7.514  0.00  0.00     0.280 C 
BRANCH  11  12
ATOM     12  C2  <0> d   1      18.609  -6.222   6.959  0.00  0.00     0.197 C 
ATOM     13  O1  <0> d   1      19.783  -5.902   7.036  0.00  0.00    -0.646 OA
ATOM     14  O3  <0> d   1      18.297  -7.279   6.437  0.00  0.00    -0.646 OA
ENDBRANCH  11  12
ENDBRANCH  10  11
ENDBRANCH   9  10
ENDBRANCH   8   9
ENDBRANCH   5   8
ENDBRANCH   1   2
BRANCH   1  15
ATOM     15  C14 <0> d   1      19.328   0.319  11.014  0.00  0.00    -0.021 A 
ATOM     16  C19 <0> d   1      19.705   1.579  11.443  0.00  0.00     0.010 A 
ATOM     17  C18 <0> d   1      19.447   2.684  10.655  0.00  0.00     0.001 A 
ATOM     18  C17 <0> d   1      18.804   2.532   9.440  0.00  0.00     0.000 A 
ATOM     19  C16 <0> d   1      18.423   1.274   9.013  0.00  0.00     0.001 A 
ATOM     20  C15 <0> d   1      18.685   0.167   9.800  0.00  0.00     0.010 A 
ENDBRANCH   1  15
BRANCH   1  21
ATOM     21  C20 <0> d   1      18.966  -0.708  13.221  0.00  0.00    -0.021 A 
ATOM     22  C26 <0> d   1      19.479  -1.362  14.325  0.00  0.00     0.011 A 
ATOM     23  C25 <0> d   1      18.889  -1.194  15.564  0.00  0.00     0.024 A 
ATOM     24  C23 <0> d   1      17.779  -0.379  15.696  0.00  0.00     0.034 A 
ATOM     25  C22 <0> d   1      17.263   0.271  14.590  0.00  0.00     0.024 A 
ATOM     26 Cl24 <0> d   1      17.033  -0.175  17.250  0.00  0.00    -0.084 Cl
ATOM     27  C21 <0> d   1      17.856   0.107  13.352  0.00  0.00     0.011 A 
ENDBRANCH   1  21
TORSDOF 8
ENDMDL
MODEL 9
REMARK VINA RESULT:      -7.4      5.335      7.940
REMARK  8 active torsions:
REMARK  status: ('A' for Active; 'I' for Inactive)
REMARK    1  A    between atoms: C2_2  and  C4_4 
REMARK    2  A    between atoms: C4_4  and  O5_5 
REMARK    3  A    between atoms: O5_5  and  C6_6 
REMARK    4  A    between atoms: C6_6  and  C7_7 
REMARK    5  A    between atoms: C7_7  and  N8_8 
REMARK    6  A    between atoms: N11_11  and  C12_12 
REMARK    7  A    between atoms: C12_12  and  C14_13 
REMARK    8  A    between atoms: C12_12  and  C20_19 
ROOT
ATOM      1  C12 <0> d   1      17.849  -0.558  12.391  0.00  0.00     0.289 C 
ENDROOT
BRANCH   1   2
ATOM      2  N11 <0> d   1      18.485  -0.406  13.707  0.00  0.00     0.105 N 
ATOM      3  C10 <0> d   1      18.516  -1.685  14.430  0.00  0.00     0.304 C 
ATOM      4  C9  <0> d   1      19.255  -1.500  15.756  0.00  0.00     0.302 C 
ATOM      5  N8  <0> d   1      18.578  -0.466  16.552  0.00  0.00     0.093 N 
ATOM      6  C28 <0> d   1      18.548   0.814  15.829  0.00  0.00     0.302 C 
ATOM      7  C27 <0> d   1      17.808   0.629  14.502  0.00  0.00     0.304 C 
BRANCH   5   8
ATOM      8  C7  <0> d   1      19.215  -0.312  17.867  0.00  0.00     0.298 C 
BRANCH   8   9
ATOM      9  C6  <0> d   1      18.583   0.868  18.605  0.00  0.00     0.198 C 
BRANCH   9  10
ATOM     10  O5  <0> d   1      19.521   1.944  18.677  0.00  0.00    -0.379 OA
BRANCH  10  11
ATOM     11  C4  <0> d   1      18.926   3.240  18.598  0.00  0.00     0.280 C 
BRANCH  11  12
ATOM     12  C2  <0> d   1      19.248   3.860  17.262  0.00  0.00     0.197 C 
ATOM     13  O1  <0> d   1      20.331   3.654  16.740  0.00  0.00    -0.646 OA
ATOM     14  O3  <0> d   1      18.424   4.562  16.702  0.00  0.00    -0.646 OA
ENDBRANCH  11  12
ENDBRANCH  10  11
ENDBRANCH   9  10
ENDBRANCH   8   9
ENDBRANCH   5   8
ENDBRANCH   1   2
BRANCH   1  15
ATOM     15  C14 <0> d   1      18.237   0.598  11.508  0.00  0.00    -0.021 A 
ATOM     16  C19 <0> d   1      17.593   0.791  10.299  0.00  0.00     0.010 A 
ATOM     17  C18 <0> d   1      17.945   1.855   9.490  0.00  0.00     0.001 A 
ATOM     18  C17 <0> d   1      18.948   2.722   9.886  0.00  0.00     0.000 A 
ATOM     19  C16 <0> d   1      19.594   2.526  11.092  0.00  0.00     0.001 A 
ATOM     20  C15 <0> d   1      19.239   1.464  11.903  0.00  0.00     0.010 A 
ENDBRANCH   1  15
BRANCH   1  21
ATOM     21  C20 <0> d   1      18.305  -1.849  11.760  0.00  0.00    -0.021 A 
ATOM     22  C26 <0> d   1      17.374  -2.770  11.319  0.00  0.00     0.011 A 
ATOM     23  C25 <0> d   1      17.793  -3.951  10.735  0.00  0.00     0.024 A 
ATOM     24  C23 <0> d   1      19.143  -4.215  10.600  0.00  0.00     0.034 A 
ATOM     25  C22 <0> d   1      20.075  -3.295  11.046  0.00  0.00     0.024 A 
ATOM     26 Cl24 <0> d   1      19.670  -5.700   9.873  0.00  0.00    -0.084 Cl
ATOM     27  C21 <0> d   1      19.657  -2.112  11.626  0.00  0.00     0.011 A 
ENDBRANCH   1  21
TORSDOF 8
ENDMDL
