MODEL 1
REMARK VINA RESULT:      -9.8      0.000      0.000
REMARK  12 active torsions:
REMARK  status: ('A' for Active; 'I' for Inactive)
REMARK    1  A    between atoms: C2_2  and  C3_3 
REMARK    2  A    between atoms: C3_3  and  C4_4 
REMARK    3  A    between atoms: C4_4  and  C5_5 
REMARK    4  A    between atoms: C5_5  and  C6_6 
REMARK    5  A    between atoms: C6_6  and  C7_7 
REMARK    6  A    between atoms: C16_16  and  C17_17 
REMARK    7  A    between atoms: C17_17  and  C19_18 
REMARK    8  A    between atoms: C17_17  and  C21_20 
REMARK    9  A    between atoms: C25_24  and  N26_25 
REMARK   10  A    between atoms: N26_25  and  S27_26 
REMARK   11  A    between atoms: S27_26  and  C30_29 
REMARK   12  A    between atoms: C33_32  and  C34_33 
ROOT
ATOM      1  C17 ZIN A   1      19.063   0.158  14.887  0.00  0.00     0.039 C 
ENDROOT
BRANCH   1   2
ATOM      2  C16 ZIN A   1      18.908   0.724  13.474  0.00  0.00     0.163 C 
ATOM      3  C14 ZIN A   1      17.613   0.230  12.858  0.00  0.00     0.144 C 
ATOM      4  C13 ZIN A   1      17.571  -1.207  12.382  0.00  0.00     0.118 C 
ATOM      5  O15 ZIN A   1      16.653   0.955  12.751  0.00  0.00    -0.297 OA
ATOM      6  C4  ZIN A   1      18.781  -1.452  11.473  0.00  0.00     0.077 C 
ATOM      7  O43 ZIN A   1      19.994  -1.048  12.167  0.00  0.00    -0.309 OA
ATOM      8  C41 ZIN A   1      20.039   0.232  12.594  0.00  0.00     0.271 C 
ATOM      9  O42 ZIN A   1      20.952   0.960  12.284  0.00  0.00    -0.264 OA
BRANCH   6  10
ATOM     10  C3  ZIN A   1      18.865  -2.939  11.123  0.00  0.00     0.038 C 
BRANCH  10  11
ATOM     11  C2  ZIN A   1      17.895  -3.727  12.007  0.00  0.00    -0.002 C 
ATOM     12  C1  ZIN A   1      16.971  -4.568  11.124  0.00  0.00     0.005 C 
ENDBRANCH  10  11
ENDBRANCH   6  10
BRANCH   6  13
ATOM     13  C5  ZIN A   1      18.630  -0.633  10.189  0.00  0.00     0.043 C 
BRANCH  13  14
ATOM     14  C6  ZIN A   1      18.185  -1.551   9.049  0.00  0.00     0.041 C 
BRANCH  14  15
ATOM     15  C7  ZIN A   1      18.529  -0.914   7.727  0.00  0.00    -0.058 A 
ATOM     16  C12 ZIN A   1      19.031  -1.687   6.697  0.00  0.00     0.007 A 
ATOM     17  C11 ZIN A   1      19.343  -1.104   5.483  0.00  0.00     0.001 A 
ATOM     18  C10 ZIN A   1      19.162   0.254   5.303  0.00  0.00     0.000 A 
ATOM     19  C9  ZIN A   1      18.665   1.029   6.335  0.00  0.00     0.001 A 
ATOM     20  C8  ZIN A   1      18.349   0.445   7.547  0.00  0.00     0.007 A 
ENDBRANCH  14  15
ENDBRANCH  13  14
ENDBRANCH   6  13
ENDBRANCH   1   2
BRANCH   1  21
ATOM     21  C19 ZIN A   1      17.980  -0.894  15.135  0.00  0.00     0.006 C 
ATOM     22  C20 ZIN A   1      18.547  -2.015  16.009  0.00  0.00     0.006 C 
ENDBRANCH   1  21
BRANCH   1  23
ATOM     23  C21 ZIN A   1      18.923   1.270  15.893  0.00  0.00    -0.051 A 
ATOM     24  C40 ZIN A   1      19.452   2.517  15.620  0.00  0.00     0.037 A 
ATOM     25  C25 ZIN A   1      19.317   3.545  16.545  0.00  0.00     0.043 A 
ATOM     26  C24 ZIN A   1      18.660   3.311  17.746  0.00  0.00     0.030 A 
ATOM     27  C23 ZIN A   1      18.138   2.062  18.015  0.00  0.00     0.003 A 
ATOM     28  C22 ZIN A   1      18.269   1.041  17.089  0.00  0.00     0.007 A 
BRANCH  25  29
ATOM     29  N26 ZIN A   1      19.846   4.808  16.270  0.00  0.00    -0.279 N 
ATOM     30  H71 ZIN A   1      20.698   5.070  16.650  0.00  0.00     0.179 HD
BRANCH  29  31
ATOM     31  S27 ZIN A   1      19.015   5.858  15.295  0.00  0.00     0.280 S 
ATOM     32  O28 ZIN A   1      17.714   5.979  15.854  0.00  0.00    -0.199 OA
ATOM     33  O29 ZIN A   1      19.874   6.969  15.077  0.00  0.00    -0.199 OA
BRANCH  31  34
ATOM     34  C30 ZIN A   1      18.813   5.071  13.732  0.00  0.00     0.171 A 
ATOM     35  N39 ZIN A   1      19.876   4.771  13.011  0.00  0.00    -0.247 NA
ATOM     36  C38 ZIN A   1      19.774   4.177  11.838  0.00  0.00     0.134 A 
ATOM     37  C33 ZIN A   1      18.535   3.855  11.315  0.00  0.00     0.065 A 
ATOM     38  C32 ZIN A   1      17.395   4.160  12.042  0.00  0.00     0.021 A 
ATOM     39  C31 ZIN A   1      17.543   4.779  13.273  0.00  0.00     0.046 A 
BRANCH  37  40
ATOM     40  C34 ZIN A   1      18.426   3.182   9.971  0.00  0.00     0.418 C 
ATOM     41  F35 ZIN A   1      19.610   2.491   9.697  0.00  0.00    -0.166 F 
ATOM     42  F36 ZIN A   1      17.354   2.283   9.985  0.00  0.00    -0.166 F 
ATOM     43  F37 ZIN A   1      18.211   4.148   8.982  0.00  0.00    -0.166 F 
ENDBRANCH  37  40
ENDBRANCH  31  34
ENDBRANCH  29  31
ENDBRANCH  25  29
ENDBRANCH   1  23
TORSDOF 12
ENDMDL
MODEL 2
REMARK VINA RESULT:      -9.8      4.401      9.004
REMARK  12 active torsions:
REMARK  status: ('A' for Active; 'I' for Inactive)
REMARK    1  A    between atoms: C2_2  and  C3_3 
REMARK    2  A    between atoms: C3_3  and  C4_4 
REMARK    3  A    between atoms: C4_4  and  C5_5 
REMARK    4  A    between atoms: C5_5  and  C6_6 
REMARK    5  A    between atoms: C6_6  and  C7_7 
REMARK    6  A    between atoms: C16_16  and  C17_17 
REMARK    7  A    between atoms: C17_17  and  C19_18 
REMARK    8  A    between atoms: C17_17  and  C21_20 
REMARK    9  A    between atoms: C25_24  and  N26_25 
REMARK   10  A    between atoms: N26_25  and  S27_26 
REMARK   11  A    between atoms: S27_26  and  C30_29 
REMARK   12  A    between atoms: C33_32  and  C34_33 
ROOT
ATOM      1  C17 ZIN A   1      18.981   0.951   9.360  0.00  0.00     0.039 C 
ENDROOT
BRANCH   1   2
ATOM      2  C16 ZIN A   1      19.074  -0.308  10.224  0.00  0.00     0.163 C 
ATOM      3  C14 ZIN A   1      17.905  -0.362  11.190  0.00  0.00     0.144 C 
ATOM      4  C13 ZIN A   1      17.945   0.570  12.384  0.00  0.00     0.118 C 
ATOM      5  O15 ZIN A   1      16.979  -1.116  11.013  0.00  0.00    -0.297 OA
ATOM      6  C4  ZIN A   1      19.295   0.393  13.091  0.00  0.00     0.077 C 
ATOM      7  O43 ZIN A   1      20.369   0.556  12.123  0.00  0.00    -0.309 OA
ATOM      8  C41 ZIN A   1      20.341  -0.270  11.056  0.00  0.00     0.271 C 
ATOM      9  O42 ZIN A   1      21.294  -0.956  10.774  0.00  0.00    -0.264 OA
BRANCH   6  10
ATOM     10  C3  ZIN A   1      19.436   1.446  14.192  0.00  0.00     0.038 C 
BRANCH  10  11
ATOM     11  C2  ZIN A   1      18.323   2.487  14.049  0.00  0.00    -0.002 C 
ATOM     12  C1  ZIN A   1      18.390   3.468  15.220  0.00  0.00     0.005 C 
ENDBRANCH  10  11
ENDBRANCH   6  10
BRANCH   6  13
ATOM     13  C5  ZIN A   1      19.369  -1.005  13.708  0.00  0.00     0.043 C 
BRANCH  13  14
ATOM     14  C6  ZIN A   1      18.065  -1.303  14.451  0.00  0.00     0.041 C 
BRANCH  14  15
ATOM     15  C7  ZIN A   1      18.182  -0.836  15.879  0.00  0.00    -0.058 A 
ATOM     16  C12 ZIN A   1      19.279  -1.199  16.637  0.00  0.00     0.007 A 
ATOM     17  C11 ZIN A   1      19.389  -0.767  17.946  0.00  0.00     0.001 A 
ATOM     18  C10 ZIN A   1      18.397   0.020  18.499  0.00  0.00     0.000 A 
ATOM     19  C9  ZIN A   1      17.297   0.380  17.742  0.00  0.00     0.001 A 
ATOM     20  C8  ZIN A   1      17.189  -0.049  16.433  0.00  0.00     0.007 A 
ENDBRANCH  14  15
ENDBRANCH  13  14
ENDBRANCH   6  13
ENDBRANCH   1   2
BRANCH   1  21
ATOM     21  C19 ZIN A   1      17.735   1.747   9.754  0.00  0.00     0.006 C 
ATOM     22  C20 ZIN A   1      18.125   3.201  10.032  0.00  0.00     0.006 C 
ENDBRANCH   1  21
BRANCH   1  23
ATOM     23  C21 ZIN A   1      18.888   0.559   7.909  0.00  0.00    -0.051 A 
ATOM     24  C40 ZIN A   1      18.425  -0.697   7.563  0.00  0.00     0.037 A 
ATOM     25  C25 ZIN A   1      18.333  -1.056   6.224  0.00  0.00     0.043 A 
ATOM     26  C24 ZIN A   1      18.718  -0.156   5.238  0.00  0.00     0.030 A 
ATOM     27  C23 ZIN A   1      19.184   1.095   5.591  0.00  0.00     0.003 A 
ATOM     28  C22 ZIN A   1      19.269   1.452   6.925  0.00  0.00     0.007 A 
BRANCH  25  29
ATOM     29  N26 ZIN A   1      17.861  -2.322   5.870  0.00  0.00    -0.279 N 
ATOM     30  H71 ZIN A   1      17.026  -2.410   5.385  0.00  0.00     0.179 HD
BRANCH  29  31
ATOM     31  S27 ZIN A   1      18.727  -3.673   6.280  0.00  0.00     0.280 S 
ATOM     32  O28 ZIN A   1      18.218  -4.732   5.481  0.00  0.00    -0.199 OA
ATOM     33  O29 ZIN A   1      20.094  -3.288   6.281  0.00  0.00    -0.199 OA
BRANCH  31  34
ATOM     34  C30 ZIN A   1      18.319  -4.068   7.948  0.00  0.00     0.171 A 
ATOM     35  N39 ZIN A   1      17.162  -4.640   8.218  0.00  0.00    -0.247 NA
ATOM     36  C38 ZIN A   1      16.816  -4.958   9.450  0.00  0.00     0.134 A 
ATOM     37  C33 ZIN A   1      17.659  -4.690  10.512  0.00  0.00     0.065 A 
ATOM     38  C32 ZIN A   1      18.881  -4.084  10.268  0.00  0.00     0.021 A 
ATOM     39  C31 ZIN A   1      19.212  -3.770   8.959  0.00  0.00     0.046 A 
BRANCH  37  40
ATOM     40  C34 ZIN A   1      17.253  -5.050  11.918  0.00  0.00     0.418 C 
ATOM     41  F35 ZIN A   1      17.960  -4.256  12.826  0.00  0.00    -0.166 F 
ATOM     42  F36 ZIN A   1      15.880  -4.832  12.078  0.00  0.00    -0.166 F 
ATOM     43  F37 ZIN A   1      17.541  -6.398  12.156  0.00  0.00    -0.166 F 
ENDBRANCH  37  40
ENDBRANCH  31  34
ENDBRANCH  29  31
ENDBRANCH  25  29
ENDBRANCH   1  23
TORSDOF 12
ENDMDL
MODEL 3
REMARK VINA RESULT:      -9.2      2.729      5.486
REMARK  12 active torsions:
REMARK  status: ('A' for Active; 'I' for Inactive)
REMARK    1  A    between atoms: C2_2  and  C3_3 
REMARK    2  A    between atoms: C3_3  and  C4_4 
REMARK    3  A    between atoms: C4_4  and  C5_5 
REMARK    4  A    between atoms: C5_5  and  C6_6 
REMARK    5  A    between atoms: C6_6  and  C7_7 
REMARK    6  A    between atoms: C16_16  and  C17_17 
REMARK    7  A    between atoms: C17_17  and  C19_18 
REMARK    8  A    between atoms: C17_17  and  C21_20 
REMARK    9  A    between atoms: C25_24  and  N26_25 
REMARK   10  A    between atoms: N26_25  and  S27_26 
REMARK   11  A    between atoms: S27_26  and  C30_29 
REMARK   12  A    between atoms: C33_32  and  C34_33 
ROOT
ATOM      1  C17 ZIN A   1      17.915   2.259  10.424  0.00  0.00     0.039 C 
ENDROOT
BRANCH   1   2
ATOM      2  C16 ZIN A   1      18.049   1.141  11.460  0.00  0.00     0.163 C 
ATOM      3  C14 ZIN A   1      19.482   0.645  11.504  0.00  0.00     0.144 C 
ATOM      4  C13 ZIN A   1      19.951  -0.233  10.363  0.00  0.00     0.118 C 
ATOM      5  O15 ZIN A   1      20.220   0.940  12.413  0.00  0.00    -0.297 OA
ATOM      6  C4  ZIN A   1      18.943  -1.376  10.185  0.00  0.00     0.077 C 
ATOM      7  O43 ZIN A   1      17.606  -0.820  10.050  0.00  0.00    -0.309 OA
ATOM      8  C41 ZIN A   1      17.180  -0.036  11.063  0.00  0.00     0.271 C 
ATOM      9  O42 ZIN A   1      16.141  -0.265  11.634  0.00  0.00    -0.264 OA
BRANCH   6  10
ATOM     10  C3  ZIN A   1      19.293  -2.175   8.928  0.00  0.00     0.038 C 
BRANCH  10  11
ATOM     11  C2  ZIN A   1      18.292  -1.845   7.818  0.00  0.00    -0.002 C 
ATOM     12  C1  ZIN A   1      19.012  -1.118   6.682  0.00  0.00     0.005 C 
ENDBRANCH  10  11
ENDBRANCH   6  10
BRANCH   6  13
ATOM     13  C5  ZIN A   1      18.994  -2.296  11.406  0.00  0.00     0.043 C 
BRANCH  13  14
ATOM     14  C6  ZIN A   1      19.818  -3.541  11.071  0.00  0.00     0.041 C 
BRANCH  14  15
ATOM     15  C7  ZIN A   1      18.910  -4.613  10.524  0.00  0.00    -0.058 A 
ATOM     16  C12 ZIN A   1      19.336  -5.411   9.479  0.00  0.00     0.007 A 
ATOM     17  C11 ZIN A   1      18.505  -6.397   8.980  0.00  0.00     0.001 A 
ATOM     18  C10 ZIN A   1      17.246  -6.578   9.519  0.00  0.00     0.000 A 
ATOM     19  C9  ZIN A   1      16.818  -5.776  10.561  0.00  0.00     0.001 A 
ATOM     20  C8  ZIN A   1      17.650  -4.793  11.063  0.00  0.00     0.007 A 
ENDBRANCH  14  15
ENDBRANCH  13  14
ENDBRANCH   6  13
ENDBRANCH   1   2
BRANCH   1  21
ATOM     21  C19 ZIN A   1      19.245   2.433   9.688  0.00  0.00     0.006 C 
ATOM     22  C20 ZIN A   1      19.027   2.231   8.186  0.00  0.00     0.006 C 
ENDBRANCH   1  21
BRANCH   1  23
ATOM     23  C21 ZIN A   1      17.555   3.546  11.119  0.00  0.00    -0.051 A 
ATOM     24  C40 ZIN A   1      17.429   3.575  12.494  0.00  0.00     0.037 A 
ATOM     25  C25 ZIN A   1      17.103   4.764  13.135  0.00  0.00     0.043 A 
ATOM     26  C24 ZIN A   1      16.893   5.917  12.389  0.00  0.00     0.030 A 
ATOM     27  C23 ZIN A   1      17.015   5.880  11.014  0.00  0.00     0.003 A 
ATOM     28  C22 ZIN A   1      17.345   4.696  10.379  0.00  0.00     0.007 A 
BRANCH  25  29
ATOM     29  N26 ZIN A   1      16.980   4.799  14.526  0.00  0.00    -0.279 N 
ATOM     30  H71 ZIN A   1      16.107   4.907  14.934  0.00  0.00     0.179 HD
BRANCH  29  31
ATOM     31  S27 ZIN A   1      18.327   4.656  15.479  0.00  0.00     0.280 S 
ATOM     32  O28 ZIN A   1      19.434   5.016  14.665  0.00  0.00    -0.199 OA
ATOM     33  O29 ZIN A   1      18.022   5.303  16.707  0.00  0.00    -0.199 OA
BRANCH  31  34
ATOM     34  C30 ZIN A   1      18.521   2.945  15.854  0.00  0.00     0.171 A 
ATOM     35  N39 ZIN A   1      18.105   2.037  14.993  0.00  0.00    -0.247 NA
ATOM     36  C38 ZIN A   1      18.234   0.746  15.228  0.00  0.00     0.134 A 
ATOM     37  C33 ZIN A   1      18.806   0.296  16.403  0.00  0.00     0.065 A 
ATOM     38  C32 ZIN A   1      19.251   1.220  17.335  0.00  0.00     0.021 A 
ATOM     39  C31 ZIN A   1      19.103   2.569  17.049  0.00  0.00     0.046 A 
BRANCH  37  40
ATOM     40  C34 ZIN A   1      18.944  -1.181  16.668  0.00  0.00     0.418 C 
ATOM     41  F35 ZIN A   1      19.594  -1.790  15.590  0.00  0.00    -0.166 F 
ATOM     42  F36 ZIN A   1      19.691  -1.378  17.835  0.00  0.00    -0.166 F 
ATOM     43  F37 ZIN A   1      17.675  -1.747  16.826  0.00  0.00    -0.166 F 
ENDBRANCH  37  40
ENDBRANCH  31  34
ENDBRANCH  29  31
ENDBRANCH  25  29
ENDBRANCH   1  23
TORSDOF 12
ENDMDL
MODEL 4
REMARK VINA RESULT:      -9.0      4.523      8.861
REMARK  12 active torsions:
REMARK  status: ('A' for Active; 'I' for Inactive)
REMARK    1  A    between atoms: C2_2  and  C3_3 
REMARK    2  A    between atoms: C3_3  and  C4_4 
REMARK    3  A    between atoms: C4_4  and  C5_5 
REMARK    4  A    between atoms: C5_5  and  C6_6 
REMARK    5  A    between atoms: C6_6  and  C7_7 
REMARK    6  A    between atoms: C16_16  and  C17_17 
REMARK    7  A    between atoms: C17_17  and  C19_18 
REMARK    8  A    between atoms: C17_17  and  C21_20 
REMARK    9  A    between atoms: C25_24  and  N26_25 
REMARK   10  A    between atoms: N26_25  and  S27_26 
REMARK   11  A    between atoms: S27_26  and  C30_29 
REMARK   12  A    between atoms: C33_32  and  C34_33 
ROOT
ATOM      1  C17 ZIN A   1      18.128  -0.050  10.303  0.00  0.00     0.039 C 
ENDROOT
BRANCH   1   2
ATOM      2  C16 ZIN A   1      18.825   0.987  11.187  0.00  0.00     0.163 C 
ATOM      3  C14 ZIN A   1      19.894   0.315  12.028  0.00  0.00     0.144 C 
ATOM      4  C13 ZIN A   1      19.432  -0.513  13.210  0.00  0.00     0.118 C 
ATOM      5  O15 ZIN A   1      21.066   0.435  11.767  0.00  0.00    -0.297 OA
ATOM      6  C4  ZIN A   1      18.474   0.338  14.052  0.00  0.00     0.077 C 
ATOM      7  O43 ZIN A   1      17.422   0.866  13.197  0.00  0.00    -0.309 OA
ATOM      8  C41 ZIN A   1      17.825   1.605  12.143  0.00  0.00     0.271 C 
ATOM      9  O42 ZIN A   1      17.402   2.723  11.967  0.00  0.00    -0.264 OA
BRANCH   6  10
ATOM     10  C3  ZIN A   1      17.852  -0.528  15.150  0.00  0.00     0.038 C 
BRANCH  10  11
ATOM     11  C2  ZIN A   1      18.938  -1.395  15.792  0.00  0.00    -0.002 C 
ATOM     12  C1  ZIN A   1      19.061  -1.041  17.275  0.00  0.00     0.005 C 
ENDBRANCH  10  11
ENDBRANCH   6  10
BRANCH   6  13
ATOM     13  C5  ZIN A   1      19.244   1.495  14.690  0.00  0.00     0.043 C 
BRANCH  13  14
ATOM     14  C6  ZIN A   1      18.316   2.272  15.626  0.00  0.00     0.041 C 
BRANCH  14  15
ATOM     15  C7  ZIN A   1      18.627   3.743  15.536  0.00  0.00    -0.058 A 
ATOM     16  C12 ZIN A   1      19.751   4.251  16.161  0.00  0.00     0.007 A 
ATOM     17  C11 ZIN A   1      20.040   5.600  16.075  0.00  0.00     0.001 A 
ATOM     18  C10 ZIN A   1      19.200   6.443  15.372  0.00  0.00     0.000 A 
ATOM     19  C9  ZIN A   1      18.073   5.936  14.751  0.00  0.00     0.001 A 
ATOM     20  C8  ZIN A   1      17.786   4.587  14.833  0.00  0.00     0.007 A 
ENDBRANCH  14  15
ENDBRANCH  13  14
ENDBRANCH   6  13
ENDBRANCH   1   2
BRANCH   1  21
ATOM     21  C19 ZIN A   1      18.751  -1.427  10.545  0.00  0.00     0.006 C 
ATOM     22  C20 ZIN A   1      17.654  -2.425  10.920  0.00  0.00     0.006 C 
ENDBRANCH   1  21
BRANCH   1  23
ATOM     23  C21 ZIN A   1      18.296   0.329   8.855  0.00  0.00    -0.051 A 
ATOM     24  C40 ZIN A   1      17.741  -0.462   7.867  0.00  0.00     0.037 A 
ATOM     25  C25 ZIN A   1      17.891  -0.109   6.532  0.00  0.00     0.043 A 
ATOM     26  C24 ZIN A   1      18.609   1.032   6.194  0.00  0.00     0.030 A 
ATOM     27  C23 ZIN A   1      19.166   1.814   7.186  0.00  0.00     0.003 A 
ATOM     28  C22 ZIN A   1      19.010   1.463   8.516  0.00  0.00     0.007 A 
BRANCH  25  29
ATOM     29  N26 ZIN A   1      17.327  -0.902   5.530  0.00  0.00    -0.279 N 
ATOM     30  H71 ZIN A   1      16.404  -0.766   5.266  0.00  0.00     0.179 HD
BRANCH  29  31
ATOM     31  S27 ZIN A   1      18.235  -2.077   4.795  0.00  0.00     0.280 S 
ATOM     32  O28 ZIN A   1      17.346  -2.804   3.958  0.00  0.00    -0.199 OA
ATOM     33  O29 ZIN A   1      19.407  -1.435   4.313  0.00  0.00    -0.199 OA
BRANCH  31  34
ATOM     34  C30 ZIN A   1      18.760  -3.194   6.052  0.00  0.00     0.171 A 
ATOM     35  N39 ZIN A   1      20.035  -3.513   6.150  0.00  0.00    -0.247 NA
ATOM     36  C38 ZIN A   1      20.475  -4.341   7.078  0.00  0.00     0.134 A 
ATOM     37  C33 ZIN A   1      19.601  -4.916   7.982  0.00  0.00     0.065 A 
ATOM     38  C32 ZIN A   1      18.252  -4.609   7.907  0.00  0.00     0.021 A 
ATOM     39  C31 ZIN A   1      17.829  -3.731   6.921  0.00  0.00     0.046 A 
BRANCH  37  40
ATOM     40  C34 ZIN A   1      20.110  -5.866   9.035  0.00  0.00     0.418 C 
ATOM     41  F35 ZIN A   1      20.153  -5.214  10.271  0.00  0.00    -0.166 F 
ATOM     42  F36 ZIN A   1      19.254  -6.970   9.121  0.00  0.00    -0.166 F 
ATOM     43  F37 ZIN A   1      21.395  -6.299   8.692  0.00  0.00    -0.166 F 
ENDBRANCH  37  40
ENDBRANCH  31  34
ENDBRANCH  29  31
ENDBRANCH  25  29
ENDBRANCH   1  23
TORSDOF 12
ENDMDL
MODEL 5
REMARK VINA RESULT:      -9.0      4.254      8.970
REMARK  12 active torsions:
REMARK  status: ('A' for Active; 'I' for Inactive)
REMARK    1  A    between atoms: C2_2  and  C3_3 
REMARK    2  A    between atoms: C3_3  and  C4_4 
REMARK    3  A    between atoms: C4_4  and  C5_5 
REMARK    4  A    between atoms: C5_5  and  C6_6 
REMARK    5  A    between atoms: C6_6  and  C7_7 
REMARK    6  A    between atoms: C16_16  and  C17_17 
REMARK    7  A    between atoms: C17_17  and  C19_18 
REMARK    8  A    between atoms: C17_17  and  C21_20 
REMARK    9  A    between atoms: C25_24  and  N26_25 
REMARK   10  A    between atoms: N26_25  and  S27_26 
REMARK   11  A    between atoms: S27_26  and  C30_29 
REMARK   12  A    between atoms: C33_32  and  C34_33 
ROOT
ATOM      1  C17 ZIN A   1      18.309  -1.883  10.587  0.00  0.00     0.039 C 
ENDROOT
BRANCH   1   2
ATOM      2  C16 ZIN A   1      17.688  -1.323  11.868  0.00  0.00     0.163 C 
ATOM      3  C14 ZIN A   1      16.909  -0.059  11.557  0.00  0.00     0.144 C 
ATOM      4  C13 ZIN A   1      17.704   1.201  11.284  0.00  0.00     0.118 C 
ATOM      5  O15 ZIN A   1      15.702  -0.058  11.526  0.00  0.00    -0.297 OA
ATOM      6  C4  ZIN A   1      18.704   1.400  12.430  0.00  0.00     0.077 C 
ATOM      7  O43 ZIN A   1      19.483   0.183  12.604  0.00  0.00    -0.309 OA
ATOM      8  C41 ZIN A   1      18.781  -0.944  12.848  0.00  0.00     0.271 C 
ATOM      9  O42 ZIN A   1      19.018  -1.629  13.814  0.00  0.00    -0.264 OA
BRANCH   6  10
ATOM     10  C3  ZIN A   1      19.642   2.562  12.094  0.00  0.00     0.038 C 
BRANCH  10  11
ATOM     11  C2  ZIN A   1      19.060   3.366  10.929  0.00  0.00    -0.002 C 
ATOM     12  C1  ZIN A   1      18.444   4.661  11.462  0.00  0.00     0.005 C 
ENDBRANCH  10  11
ENDBRANCH   6  10
BRANCH   6  13
ATOM     13  C5  ZIN A   1      17.946   1.712  13.721  0.00  0.00     0.043 C 
BRANCH  13  14
ATOM     14  C6  ZIN A   1      18.932   2.197  14.786  0.00  0.00     0.041 C 
BRANCH  14  15
ATOM     15  C7  ZIN A   1      18.670   1.471  16.081  0.00  0.00    -0.058 A 
ATOM     16  C12 ZIN A   1      19.385   1.805  17.216  0.00  0.00     0.007 A 
ATOM     17  C11 ZIN A   1      19.142   1.143  18.405  0.00  0.00     0.001 A 
ATOM     18  C10 ZIN A   1      18.193   0.141  18.457  0.00  0.00     0.000 A 
ATOM     19  C9  ZIN A   1      17.481  -0.197  17.320  0.00  0.00     0.001 A 
ATOM     20  C8  ZIN A   1      17.721   0.468  16.132  0.00  0.00     0.007 A 
ENDBRANCH  14  15
ENDBRANCH  13  14
ENDBRANCH   6  13
ENDBRANCH   1   2
BRANCH   1  21
ATOM     21  C19 ZIN A   1      17.725  -1.150   9.376  0.00  0.00     0.006 C 
ATOM     22  C20 ZIN A   1      18.823  -0.328   8.699  0.00  0.00     0.006 C 
ENDBRANCH   1  21
BRANCH   1  23
ATOM     23  C21 ZIN A   1      18.000  -3.353  10.480  0.00  0.00    -0.051 A 
ATOM     24  C40 ZIN A   1      17.928  -3.953   9.237  0.00  0.00     0.037 A 
ATOM     25  C25 ZIN A   1      17.649  -5.311   9.139  0.00  0.00     0.043 A 
ATOM     26  C24 ZIN A   1      17.433  -6.058  10.290  0.00  0.00     0.030 A 
ATOM     27  C23 ZIN A   1      17.502  -5.450  11.528  0.00  0.00     0.003 A 
ATOM     28  C22 ZIN A   1      17.785  -4.099  11.623  0.00  0.00     0.007 A 
BRANCH  25  29
ATOM     29  N26 ZIN A   1      17.580  -5.922   7.885  0.00  0.00    -0.279 N 
ATOM     30  H71 ZIN A   1      16.801  -6.446   7.643  0.00  0.00     0.179 HD
BRANCH  29  31
ATOM     31  S27 ZIN A   1      18.831  -5.752   6.812  0.00  0.00     0.280 S 
ATOM     32  O28 ZIN A   1      20.026  -5.794   7.580  0.00  0.00    -0.199 OA
ATOM     33  O29 ZIN A   1      18.564  -6.645   5.739  0.00  0.00    -0.199 OA
BRANCH  31  34
ATOM     34  C30 ZIN A   1      18.726  -4.125   6.142  0.00  0.00     0.171 A 
ATOM     35  N39 ZIN A   1      19.572  -3.198   6.547  0.00  0.00    -0.247 NA
ATOM     36  C38 ZIN A   1      19.535  -1.970   6.071  0.00  0.00     0.134 A 
ATOM     37  C33 ZIN A   1      18.590  -1.605   5.129  0.00  0.00     0.065 A 
ATOM     38  C32 ZIN A   1      17.680  -2.551   4.684  0.00  0.00     0.021 A 
ATOM     39  C31 ZIN A   1      17.754  -3.834   5.204  0.00  0.00     0.046 A 
BRANCH  37  40
ATOM     40  C34 ZIN A   1      18.550  -0.196   4.595  0.00  0.00     0.418 C 
ATOM     41  F35 ZIN A   1      17.772   0.602   5.440  0.00  0.00    -0.166 F 
ATOM     42  F36 ZIN A   1      19.850   0.317   4.535  0.00  0.00    -0.166 F 
ATOM     43  F37 ZIN A   1      17.990  -0.200   3.313  0.00  0.00    -0.166 F 
ENDBRANCH  37  40
ENDBRANCH  31  34
ENDBRANCH  29  31
ENDBRANCH  25  29
ENDBRANCH   1  23
TORSDOF 12
ENDMDL
MODEL 6
REMARK VINA RESULT:      -8.9      2.745      4.707
REMARK  12 active torsions:
REMARK  status: ('A' for Active; 'I' for Inactive)
REMARK    1  A    between atoms: C2_2  and  C3_3 
REMARK    2  A    between atoms: C3_3  and  C4_4 
REMARK    3  A    between atoms: C4_4  and  C5_5 
REMARK    4  A    between atoms: C5_5  and  C6_6 
REMARK    5  A    between atoms: C6_6  and  C7_7 
REMARK    6  A    between atoms: C16_16  and  C17_17 
REMARK    7  A    between atoms: C17_17  and  C19_18 
REMARK    8  A    between atoms: C17_17  and  C21_20 
REMARK    9  A    between atoms: C25_24  and  N26_25 
REMARK   10  A    between atoms: N26_25  and  S27_26 
REMARK   11  A    between atoms: S27_26  and  C30_29 
REMARK   12  A    between atoms: C33_32  and  C34_33 
ROOT
ATOM      1  C17 ZIN A   1      18.326   0.305  13.030  0.00  0.00     0.039 C 
ENDROOT
BRANCH   1   2
ATOM      2  C16 ZIN A   1      18.992  -0.796  12.202  0.00  0.00     0.163 C 
ATOM      3  C14 ZIN A   1      20.002  -0.187  11.248  0.00  0.00     0.144 C 
ATOM      4  C13 ZIN A   1      19.463   0.529  10.027  0.00  0.00     0.118 C 
ATOM      5  O15 ZIN A   1      21.189  -0.269  11.454  0.00  0.00    -0.297 OA
ATOM      6  C4  ZIN A   1      18.476  -0.404   9.315  0.00  0.00     0.077 C 
ATOM      7  O43 ZIN A   1      17.480  -0.869  10.269  0.00  0.00    -0.309 OA
ATOM      8  C41 ZIN A   1      17.953  -1.508  11.360  0.00  0.00     0.271 C 
ATOM      9  O42 ZIN A   1      17.559  -2.611  11.654  0.00  0.00    -0.264 OA
BRANCH   6  10
ATOM     10  C3  ZIN A   1      17.781   0.356   8.182  0.00  0.00     0.038 C 
BRANCH  10  11
ATOM     11  C2  ZIN A   1      18.786   1.289   7.502  0.00  0.00    -0.002 C 
ATOM     12  C1  ZIN A   1      18.958   0.874   6.041  0.00  0.00     0.005 C 
ENDBRANCH  10  11
ENDBRANCH   6  10
BRANCH   6  13
ATOM     13  C5  ZIN A   1      19.231  -1.603   8.738  0.00  0.00     0.043 C 
BRANCH  13  14
ATOM     14  C6  ZIN A   1      18.278  -2.442   7.883  0.00  0.00     0.041 C 
BRANCH  14  15
ATOM     15  C7  ZIN A   1      18.223  -3.847   8.426  0.00  0.00    -0.058 A 
ATOM     16  C12 ZIN A   1      17.002  -4.470   8.605  0.00  0.00     0.007 A 
ATOM     17  C11 ZIN A   1      16.951  -5.760   9.098  0.00  0.00     0.001 A 
ATOM     18  C10 ZIN A   1      18.119  -6.424   9.422  0.00  0.00     0.000 A 
ATOM     19  C9  ZIN A   1      19.340  -5.799   9.247  0.00  0.00     0.001 A 
ATOM     20  C8  ZIN A   1      19.392  -4.510   8.749  0.00  0.00     0.007 A 
ENDBRANCH  14  15
ENDBRANCH  13  14
ENDBRANCH   6  13
ENDBRANCH   1   2
BRANCH   1  21
ATOM     21  C19 ZIN A   1      19.083   1.620  12.831  0.00  0.00     0.006 C 
ATOM     22  C20 ZIN A   1      18.085   2.748  12.558  0.00  0.00     0.006 C 
ENDBRANCH   1  21
BRANCH   1  23
ATOM     23  C21 ZIN A   1      18.355  -0.074  14.487  0.00  0.00    -0.051 A 
ATOM     24  C40 ZIN A   1      17.816   0.778  15.432  0.00  0.00     0.037 A 
ATOM     25  C25 ZIN A   1      17.837   0.425  16.776  0.00  0.00     0.043 A 
ATOM     26  C24 ZIN A   1      18.410  -0.779  17.165  0.00  0.00     0.030 A 
ATOM     27  C23 ZIN A   1      18.951  -1.623  16.217  0.00  0.00     0.003 A 
ATOM     28  C22 ZIN A   1      18.924  -1.272  14.879  0.00  0.00     0.007 A 
BRANCH  25  29
ATOM     29  N26 ZIN A   1      17.289   1.282  17.733  0.00  0.00    -0.279 N 
ATOM     30  H71 ZIN A   1      16.342   1.236  17.939  0.00  0.00     0.179 HD
BRANCH  29  31
ATOM     31  S27 ZIN A   1      18.256   2.376  18.515  0.00  0.00     0.280 S 
ATOM     32  O28 ZIN A   1      17.413   3.084  19.414  0.00  0.00    -0.199 OA
ATOM     33  O29 ZIN A   1      19.413   1.665  18.930  0.00  0.00    -0.199 OA
BRANCH  31  34
ATOM     34  C30 ZIN A   1      18.795   3.547  17.313  0.00  0.00     0.171 A 
ATOM     35  N39 ZIN A   1      20.034   3.499  16.866  0.00  0.00    -0.247 NA
ATOM     36  C38 ZIN A   1      20.480   4.350  15.964  0.00  0.00     0.134 A 
ATOM     37  C33 ZIN A   1      19.658   5.341  15.459  0.00  0.00     0.065 A 
ATOM     38  C32 ZIN A   1      18.350   5.427  15.911  0.00  0.00     0.021 A 
ATOM     39  C31 ZIN A   1      17.916   4.510  16.855  0.00  0.00     0.046 A 
BRANCH  37  40
ATOM     40  C34 ZIN A   1      20.177   6.315  14.434  0.00  0.00     0.418 C 
ATOM     41  F35 ZIN A   1      19.338   7.432  14.384  0.00  0.00    -0.166 F 
ATOM     42  F36 ZIN A   1      21.470   6.719  14.786  0.00  0.00    -0.166 F 
ATOM     43  F37 ZIN A   1      20.207   5.699  13.178  0.00  0.00    -0.166 F 
ENDBRANCH  37  40
ENDBRANCH  31  34
ENDBRANCH  29  31
ENDBRANCH  25  29
ENDBRANCH   1  23
TORSDOF 12
ENDMDL
MODEL 7
REMARK VINA RESULT:      -8.8      4.411      8.956
REMARK  12 active torsions:
REMARK  status: ('A' for Active; 'I' for Inactive)
REMARK    1  A    between atoms: C2_2  and  C3_3 
REMARK    2  A    between atoms: C3_3  and  C4_4 
REMARK    3  A    between atoms: C4_4  and  C5_5 
REMARK    4  A    between atoms: C5_5  and  C6_6 
REMARK    5  A    between atoms: C6_6  and  C7_7 
REMARK    6  A    between atoms: C16_16  and  C17_17 
REMARK    7  A    between atoms: C17_17  and  C19_18 
REMARK    8  A    between atoms: C17_17  and  C21_20 
REMARK    9  A    between atoms: C25_24  and  N26_25 
REMARK   10  A    between atoms: N26_25  and  S27_26 
REMARK   11  A    between atoms: S27_26  and  C30_29 
REMARK   12  A    between atoms: C33_32  and  C34_33 
ROOT
ATOM      1  C17 ZIN A   1      17.909   0.308  10.038  0.00  0.00     0.039 C 
ENDROOT
BRANCH   1   2
ATOM      2  C16 ZIN A   1      18.582   1.528  10.670  0.00  0.00     0.163 C 
ATOM      3  C14 ZIN A   1      19.624   1.081  11.678  0.00  0.00     0.144 C 
ATOM      4  C13 ZIN A   1      19.127   0.554  13.008  0.00  0.00     0.118 C 
ATOM      5  O15 ZIN A   1      20.804   1.141  11.428  0.00  0.00    -0.297 OA
ATOM      6  C4  ZIN A   1      18.146   1.576  13.597  0.00  0.00     0.077 C 
ATOM      7  O43 ZIN A   1      17.121   1.882  12.611  0.00  0.00    -0.309 OA
ATOM      8  C41 ZIN A   1      17.556   2.351  11.423  0.00  0.00     0.271 C 
ATOM      9  O42 ZIN A   1      17.141   3.393  10.975  0.00  0.00    -0.264 OA
BRANCH   6  10
ATOM     10  C3  ZIN A   1      17.492   0.992  14.851  0.00  0.00     0.038 C 
BRANCH  10  11
ATOM     11  C2  ZIN A   1      18.071  -0.396  15.129  0.00  0.00    -0.002 C 
ATOM     12  C1  ZIN A   1      17.551  -0.904  16.475  0.00  0.00     0.005 C 
ENDBRANCH  10  11
ENDBRANCH   6  10
BRANCH   6  13
ATOM     13  C5  ZIN A   1      18.901   2.855  13.963  0.00  0.00     0.043 C 
BRANCH  13  14
ATOM     14  C6  ZIN A   1      18.376   3.392  15.297  0.00  0.00     0.041 C 
BRANCH  14  15
ATOM     15  C7  ZIN A   1      17.938   4.824  15.124  0.00  0.00    -0.058 A 
ATOM     16  C12 ZIN A   1      17.258   5.205  13.982  0.00  0.00     0.007 A 
ATOM     17  C11 ZIN A   1      16.852   6.517  13.826  0.00  0.00     0.001 A 
ATOM     18  C10 ZIN A   1      17.134   7.450  14.805  0.00  0.00     0.000 A 
ATOM     19  C9  ZIN A   1      17.818   7.070  15.945  0.00  0.00     0.001 A 
ATOM     20  C8  ZIN A   1      18.221   5.757  16.104  0.00  0.00     0.007 A 
ENDBRANCH  14  15
ENDBRANCH  13  14
ENDBRANCH   6  13
ENDBRANCH   1   2
BRANCH   1  21
ATOM     21  C19 ZIN A   1      18.468  -0.967  10.672  0.00  0.00     0.006 C 
ATOM     22  C20 ZIN A   1      17.344  -1.715  11.393  0.00  0.00     0.006 C 
ENDBRANCH   1  21
BRANCH   1  23
ATOM     23  C21 ZIN A   1      18.182   0.294   8.557  0.00  0.00    -0.051 A 
ATOM     24  C40 ZIN A   1      17.826  -0.807   7.801  0.00  0.00     0.037 A 
ATOM     25  C25 ZIN A   1      18.072  -0.817   6.434  0.00  0.00     0.043 A 
ATOM     26  C24 ZIN A   1      18.687   0.275   5.834  0.00  0.00     0.030 A 
ATOM     27  C23 ZIN A   1      19.045   1.369   6.596  0.00  0.00     0.003 A 
ATOM     28  C22 ZIN A   1      18.793   1.379   7.956  0.00  0.00     0.007 A 
BRANCH  25  29
ATOM     29  N26 ZIN A   1      17.709  -1.926   5.666  0.00  0.00    -0.279 N 
ATOM     30  H71 ZIN A   1      16.959  -1.867   5.054  0.00  0.00     0.179 HD
BRANCH  29  31
ATOM     31  S27 ZIN A   1      18.558  -3.341   5.801  0.00  0.00     0.280 S 
ATOM     32  O28 ZIN A   1      17.957  -4.257   4.896  0.00  0.00    -0.199 OA
ATOM     33  O29 ZIN A   1      19.934  -2.990   5.755  0.00  0.00    -0.199 OA
BRANCH  31  34
ATOM     34  C30 ZIN A   1      18.261  -3.975   7.419  0.00  0.00     0.171 A 
ATOM     35  N39 ZIN A   1      17.090  -4.512   7.704  0.00  0.00    -0.247 NA
ATOM     36  C38 ZIN A   1      16.825  -5.003   8.898  0.00  0.00     0.134 A 
ATOM     37  C33 ZIN A   1      17.770  -4.961   9.906  0.00  0.00     0.065 A 
ATOM     38  C32 ZIN A   1      19.010  -4.398   9.646  0.00  0.00     0.021 A 
ATOM     39  C31 ZIN A   1      19.254  -3.897   8.376  0.00  0.00     0.046 A 
BRANCH  37  40
ATOM     40  C34 ZIN A   1      17.456  -5.518  11.270  0.00  0.00     0.418 C 
ATOM     41  F35 ZIN A   1      17.224  -6.893  11.171  0.00  0.00    -0.166 F 
ATOM     42  F36 ZIN A   1      18.538  -5.288  12.128  0.00  0.00    -0.166 F 
ATOM     43  F37 ZIN A   1      16.316  -4.889  11.780  0.00  0.00    -0.166 F 
ENDBRANCH  37  40
ENDBRANCH  31  34
ENDBRANCH  29  31
ENDBRANCH  25  29
ENDBRANCH   1  23
TORSDOF 12
ENDMDL
MODEL 8
REMARK VINA RESULT:      -8.6      4.425      8.723
REMARK  12 active torsions:
REMARK  status: ('A' for Active; 'I' for Inactive)
REMARK    1  A    between atoms: C2_2  and  C3_3 
REMARK    2  A    between atoms: C3_3  and  C4_4 
REMARK    3  A    between atoms: C4_4  and  C5_5 
REMARK    4  A    between atoms: C5_5  and  C6_6 
REMARK    5  A    between atoms: C6_6  and  C7_7 
REMARK    6  A    between atoms: C16_16  and  C17_17 
REMARK    7  A    between atoms: C17_17  and  C19_18 
REMARK    8  A    between atoms: C17_17  and  C21_20 
REMARK    9  A    between atoms: C25_24  and  N26_25 
REMARK   10  A    between atoms: N26_25  and  S27_26 
REMARK   11  A    between atoms: S27_26  and  C30_29 
REMARK   12  A    between atoms: C33_32  and  C34_33 
ROOT
ATOM      1  C17 ZIN A   1      18.703  -1.683  10.762  0.00  0.00     0.039 C 
ENDROOT
BRANCH   1   2
ATOM      2  C16 ZIN A   1      18.166  -0.954  11.996  0.00  0.00     0.163 C 
ATOM      3  C14 ZIN A   1      17.091   0.034  11.585  0.00  0.00     0.144 C 
ATOM      4  C13 ZIN A   1      17.542   1.315  10.913  0.00  0.00     0.118 C 
ATOM      5  O15 ZIN A   1      15.922  -0.191  11.786  0.00  0.00    -0.297 OA
ATOM      6  C4  ZIN A   1      18.628   1.961  11.782  0.00  0.00     0.077 C 
ATOM      7  O43 ZIN A   1      19.672   0.984  12.051  0.00  0.00    -0.309 OA
ATOM      8  C41 ZIN A   1      19.279  -0.159  12.650  0.00  0.00     0.271 C 
ATOM      9  O42 ZIN A   1      19.797  -0.537  13.673  0.00  0.00    -0.264 OA
BRANCH   6  10
ATOM     10  C3  ZIN A   1      19.228   3.159  11.042  0.00  0.00     0.038 C 
BRANCH  10  11
ATOM     11  C2  ZIN A   1      18.355   3.501   9.832  0.00  0.00    -0.002 C 
ATOM     12  C1  ZIN A   1      17.683   4.856  10.057  0.00  0.00     0.005 C 
ENDBRANCH  10  11
ENDBRANCH   6  10
BRANCH   6  13
ATOM     13  C5  ZIN A   1      18.015   2.432  13.101  0.00  0.00     0.043 C 
BRANCH  13  14
ATOM     14  C6  ZIN A   1      18.953   3.438  13.770  0.00  0.00     0.041 C 
BRANCH  14  15
ATOM     15  C7  ZIN A   1      18.221   4.736  13.993  0.00  0.00    -0.058 A 
ATOM     16  C12 ZIN A   1      18.822   5.753  14.713  0.00  0.00     0.007 A 
ATOM     17  C11 ZIN A   1      18.152   6.945  14.915  0.00  0.00     0.001 A 
ATOM     18  C10 ZIN A   1      16.879   7.118  14.406  0.00  0.00     0.000 A 
ATOM     19  C9  ZIN A   1      16.277   6.100  13.691  0.00  0.00     0.001 A 
ATOM     20  C8  ZIN A   1      16.947   4.909  13.485  0.00  0.00     0.007 A 
ENDBRANCH  14  15
ENDBRANCH  13  14
ENDBRANCH   6  13
ENDBRANCH   1   2
BRANCH   1  21
ATOM     21  C19 ZIN A   1      18.151  -1.020   9.498  0.00  0.00     0.006 C 
ATOM     22  C20 ZIN A   1      19.289  -0.323   8.749  0.00  0.00     0.006 C 
ENDBRANCH   1  21
BRANCH   1  23
ATOM     23  C21 ZIN A   1      18.269  -3.125  10.802  0.00  0.00    -0.051 A 
ATOM     24  C40 ZIN A   1      18.158  -3.844   9.627  0.00  0.00     0.037 A 
ATOM     25  C25 ZIN A   1      17.763  -5.176   9.665  0.00  0.00     0.043 A 
ATOM     26  C24 ZIN A   1      17.471  -5.776  10.883  0.00  0.00     0.030 A 
ATOM     27  C23 ZIN A   1      17.580  -5.051  12.053  0.00  0.00     0.003 A 
ATOM     28  C22 ZIN A   1      17.978  -3.726  12.013  0.00  0.00     0.007 A 
BRANCH  25  29
ATOM     29  N26 ZIN A   1      17.654  -5.907   8.480  0.00  0.00    -0.279 N 
ATOM     30  H71 ZIN A   1      16.867  -6.449   8.315  0.00  0.00     0.179 HD
BRANCH  29  31
ATOM     31  S27 ZIN A   1      18.871  -5.850   7.357  0.00  0.00     0.280 S 
ATOM     32  O28 ZIN A   1      20.090  -5.847   8.088  0.00  0.00    -0.199 OA
ATOM     33  O29 ZIN A   1      18.556  -6.825   6.373  0.00  0.00    -0.199 OA
BRANCH  31  34
ATOM     34  C30 ZIN A   1      18.768  -4.283   6.557  0.00  0.00     0.171 A 
ATOM     35  N39 ZIN A   1      17.737  -4.015   5.779  0.00  0.00    -0.247 NA
ATOM     36  C38 ZIN A   1      17.615  -2.855   5.164  0.00  0.00     0.134 A 
ATOM     37  C33 ZIN A   1      18.580  -1.875   5.307  0.00  0.00     0.065 A 
ATOM     38  C32 ZIN A   1      19.681  -2.123   6.111  0.00  0.00     0.021 A 
ATOM     39  C31 ZIN A   1      19.771  -3.352   6.745  0.00  0.00     0.046 A 
BRANCH  37  40
ATOM     40  C34 ZIN A   1      18.437  -0.554   4.595  0.00  0.00     0.418 C 
ATOM     41  F35 ZIN A   1      17.719   0.335   5.400  0.00  0.00    -0.166 F 
ATOM     42  F36 ZIN A   1      19.706  -0.025   4.333  0.00  0.00    -0.166 F 
ATOM     43  F37 ZIN A   1      17.754  -0.745   3.389  0.00  0.00    -0.166 F 
ENDBRANCH  37  40
ENDBRANCH  31  34
ENDBRANCH  29  31
ENDBRANCH  25  29
ENDBRANCH   1  23
TORSDOF 12
ENDMDL
MODEL 9
REMARK VINA RESULT:      -8.5      2.853      4.539
REMARK  12 active torsions:
REMARK  status: ('A' for Active; 'I' for Inactive)
REMARK    1  A    between atoms: C2_2  and  C3_3 
REMARK    2  A    between atoms: C3_3  and  C4_4 
REMARK    3  A    between atoms: C4_4  and  C5_5 
REMARK    4  A    between atoms: C5_5  and  C6_6 
REMARK    5  A    between atoms: C6_6  and  C7_7 
REMARK    6  A    between atoms: C16_16  and  C17_17 
REMARK    7  A    between atoms: C17_17  and  C19_18 
REMARK    8  A    between atoms: C17_17  and  C21_20 
REMARK    9  A    between atoms: C25_24  and  N26_25 
REMARK   10  A    between atoms: N26_25  and  S27_26 
REMARK   11  A    between atoms: S27_26  and  C30_29 
REMARK   12  A    between atoms: C33_32  and  C34_33 
ROOT
ATOM      1  C17 ZIN A   1      18.308   2.227  12.520  0.00  0.00     0.039 C 
ENDROOT
BRANCH   1   2
ATOM      2  C16 ZIN A   1      17.762   1.661  11.208  0.00  0.00     0.163 C 
ATOM      3  C14 ZIN A   1      17.074   0.333  11.463  0.00  0.00     0.144 C 
ATOM      4  C13 ZIN A   1      17.958  -0.871  11.719  0.00  0.00     0.118 C 
ATOM      5  O15 ZIN A   1      15.871   0.239  11.463  0.00  0.00    -0.297 OA
ATOM      6  C4  ZIN A   1      18.996  -0.958  10.593  0.00  0.00     0.077 C 
ATOM      7  O43 ZIN A   1      19.682   0.319  10.473  0.00  0.00    -0.309 OA
ATOM      8  C41 ZIN A   1      18.902   1.397  10.245  0.00  0.00     0.271 C 
ATOM      9  O42 ZIN A   1      19.108   2.127   9.305  0.00  0.00    -0.264 OA
BRANCH   6  10
ATOM     10  C3  ZIN A   1      20.012  -2.055  10.919  0.00  0.00     0.038 C 
BRANCH  10  11
ATOM     11  C2  ZIN A   1      19.362  -3.097  11.832  0.00  0.00    -0.002 C 
ATOM     12  C1  ZIN A   1      19.799  -4.497  11.398  0.00  0.00     0.005 C 
ENDBRANCH  10  11
ENDBRANCH   6  10
BRANCH   6  13
ATOM     13  C5  ZIN A   1      18.294  -1.287   9.275  0.00  0.00     0.043 C 
BRANCH  13  14
ATOM     14  C6  ZIN A   1      19.294  -1.930   8.312  0.00  0.00     0.041 C 
BRANCH  14  15
ATOM     15  C7  ZIN A   1      19.088  -1.373   6.927  0.00  0.00    -0.058 A 
ATOM     16  C12 ZIN A   1      18.896  -0.015   6.751  0.00  0.00     0.007 A 
ATOM     17  C11 ZIN A   1      18.711   0.498   5.480  0.00  0.00     0.001 A 
ATOM     18  C10 ZIN A   1      18.709  -0.348   4.387  0.00  0.00     0.000 A 
ATOM     19  C9  ZIN A   1      18.896  -1.706   4.564  0.00  0.00     0.001 A 
ATOM     20  C8  ZIN A   1      19.085  -2.219   5.834  0.00  0.00     0.007 A 
ENDBRANCH  14  15
ENDBRANCH  13  14
ENDBRANCH   6  13
ENDBRANCH   1   2
BRANCH   1  21
ATOM     21  C19 ZIN A   1      17.833   1.358  13.686  0.00  0.00     0.006 C 
ATOM     22  C20 ZIN A   1      19.026   0.611  14.286  0.00  0.00     0.006 C 
ENDBRANCH   1  21
BRANCH   1  23
ATOM     23  C21 ZIN A   1      17.806   3.635  12.707  0.00  0.00    -0.051 A 
ATOM     24  C40 ZIN A   1      17.826   4.212  13.963  0.00  0.00     0.037 A 
ATOM     25  C25 ZIN A   1      17.369   5.513  14.135  0.00  0.00     0.043 A 
ATOM     26  C24 ZIN A   1      16.884   6.225  13.045  0.00  0.00     0.030 A 
ATOM     27  C23 ZIN A   1      16.863   5.640  11.794  0.00  0.00     0.003 A 
ATOM     28  C22 ZIN A   1      17.323   4.347  11.625  0.00  0.00     0.007 A 
BRANCH  25  29
ATOM     29  N26 ZIN A   1      17.392   6.101  15.401  0.00  0.00    -0.279 N 
ATOM     30  H71 ZIN A   1      16.637   6.628  15.705  0.00  0.00     0.179 HD
BRANCH  29  31
ATOM     31  S27 ZIN A   1      18.710   5.899  16.384  0.00  0.00     0.280 S 
ATOM     32  O28 ZIN A   1      19.853   5.988  15.544  0.00  0.00    -0.199 OA
ATOM     33  O29 ZIN A   1      18.505   6.742  17.509  0.00  0.00    -0.199 OA
BRANCH  31  34
ATOM     34  C30 ZIN A   1      18.664   4.244  16.986  0.00  0.00     0.171 A 
ATOM     35  N39 ZIN A   1      17.719   3.884  17.832  0.00  0.00    -0.247 NA
ATOM     36  C38 ZIN A   1      17.641   2.656  18.305  0.00  0.00     0.134 A 
ATOM     37  C33 ZIN A   1      18.565   1.696  17.933  0.00  0.00     0.065 A 
ATOM     38  C32 ZIN A   1      19.576   2.039  17.050  0.00  0.00     0.021 A 
ATOM     39  C31 ZIN A   1      19.621   3.339  16.570  0.00  0.00     0.046 A 
BRANCH  37  40
ATOM     40  C34 ZIN A   1      18.474   0.296  18.483  0.00  0.00     0.418 C 
ATOM     41  F35 ZIN A   1      17.719  -0.499  17.614  0.00  0.00    -0.166 F 
ATOM     42  F36 ZIN A   1      19.760  -0.241  18.607  0.00  0.00    -0.166 F 
ATOM     43  F37 ZIN A   1      17.859   0.327  19.739  0.00  0.00    -0.166 F 
ENDBRANCH  37  40
ENDBRANCH  31  34
ENDBRANCH  29  31
ENDBRANCH  25  29
ENDBRANCH   1  23
TORSDOF 12
ENDMDL
