MODEL 1
REMARK VINA RESULT:      -7.3      0.000      0.000
REMARK  4 active torsions:
REMARK  status: ('A' for Active; 'I' for Inactive)
REMARK    1  A    between atoms: C9_8  and  C10_9 
REMARK    2  A    between atoms: C10_9  and  O11_10 
REMARK    3  A    between atoms: O11_10  and  S12_11 
REMARK    4  A    between atoms: S12_11  and  N13_12 
ROOT
ATOM      1  C1  ZIN A   1      17.565   4.294  11.569  0.00  0.00     0.078 C 
ATOM      2  C2  ZIN A   1      18.138   2.950  11.113  0.00  0.00     0.158 C 
ATOM      3  C3  ZIN A   1      18.512   3.030   9.633  0.00  0.00     0.078 C 
ATOM      4  O4  ZIN A   1      19.304   2.641  11.885  0.00  0.00    -0.346 OA
ATOM      5  C5  ZIN A   1      19.060   1.392  12.555  0.00  0.00     0.180 C 
ATOM      6  C7  ZIN A   1      20.289   0.511  12.481  0.00  0.00     0.206 C 
ATOM      7  O8  ZIN A   1      20.518   0.066  11.160  0.00  0.00    -0.348 OA
ATOM      8  C9  ZIN A   1      19.505  -0.670  10.529  0.00  0.00     0.219 C 
ATOM      9  O16 ZIN A   1      19.562  -2.056  10.918  0.00  0.00    -0.315 OA
ATOM     10  C17 ZIN A   1      18.211  -2.536  10.827  0.00  0.00     0.161 C 
ATOM     11  C18 ZIN A   1      17.957  -3.109   9.432  0.00  0.00     0.078 C 
ATOM     12  C19 ZIN A   1      17.975  -3.618  11.882  0.00  0.00     0.078 C 
ATOM     13  O20 ZIN A   1      17.334  -1.426  11.064  0.00  0.00    -0.342 OA
ATOM     14  C21 ZIN A   1      18.087  -0.229  10.803  0.00  0.00     0.221 C 
ATOM     15  C23 ZIN A   1      17.860   0.788  11.848  0.00  0.00     0.191 C 
ATOM     16  O25 ZIN A   1      17.157   1.923  11.305  0.00  0.00    -0.345 OA
ENDROOT
BRANCH   8  17
ATOM     17  C10 ZIN A   1      19.739  -0.610   9.019  0.00  0.00     0.263 C 
BRANCH  17  18
ATOM     18  O11 ZIN A   1      18.666   0.101   8.398  0.00  0.00    -0.254 OA
BRANCH  18  19
ATOM     19  S12 ZIN A   1      18.576  -0.104   6.893  0.00  0.00     0.355 S 
ATOM     20  O14 ZIN A   1      18.895   1.146   6.297  0.00  0.00    -0.176 OA
ATOM     21  O15 ZIN A   1      19.281  -1.304   6.608  0.00  0.00    -0.176 OA
BRANCH  19  22
ATOM     22  N13 ZIN A   1      16.986  -0.400   6.533  0.00  0.00    -0.306 N 
ATOM     23  H36 ZIN A   1      16.406   0.329   6.260  0.00  0.00     0.171 HD
ATOM     24  H37 ZIN A   1      16.634  -1.301   6.596  0.00  0.00     0.171 HD
ENDBRANCH  19  22
ENDBRANCH  18  19
ENDBRANCH  17  18
ENDBRANCH   8  17
TORSDOF 4
ENDMDL
MODEL 2
REMARK VINA RESULT:      -7.0      2.910      4.287
REMARK  4 active torsions:
REMARK  status: ('A' for Active; 'I' for Inactive)
REMARK    1  A    between atoms: C9_8  and  C10_9 
REMARK    2  A    between atoms: C10_9  and  O11_10 
REMARK    3  A    between atoms: O11_10  and  S12_11 
REMARK    4  A    between atoms: S12_11  and  N13_12 
ROOT
ATOM      1  C1  ZIN A   1      18.472  -1.022  15.911  0.00  0.00     0.078 C 
ATOM      2  C2  ZIN A   1      18.436  -0.383  14.522  0.00  0.00     0.158 C 
ATOM      3  C3  ZIN A   1      17.324   0.665  14.470  0.00  0.00     0.078 C 
ATOM      4  O4  ZIN A   1      19.695   0.243  14.251  0.00  0.00    -0.346 OA
ATOM      5  C5  ZIN A   1      20.238  -0.371  13.067  0.00  0.00     0.180 C 
ATOM      6  C7  ZIN A   1      20.826   0.685  12.156  0.00  0.00     0.206 C 
ATOM      7  O8  ZIN A   1      19.815   1.498  11.597  0.00  0.00    -0.348 OA
ATOM      8  C9  ZIN A   1      18.816   0.874  10.835  0.00  0.00     0.219 C 
ATOM      9  O16 ZIN A   1      19.267   0.652   9.485  0.00  0.00    -0.315 OA
ATOM     10  C17 ZIN A   1      18.559  -0.513   9.031  0.00  0.00     0.161 C 
ATOM     11  C18 ZIN A   1      17.255  -0.094   8.350  0.00  0.00     0.078 C 
ATOM     12  C19 ZIN A   1      19.430  -1.295   8.045  0.00  0.00     0.078 C 
ATOM     13  O20 ZIN A   1      18.271  -1.326  10.176  0.00  0.00    -0.342 OA
ATOM     14  C21 ZIN A   1      18.337  -0.470  11.330  0.00  0.00     0.221 C 
ATOM     15  C23 ZIN A   1      19.074  -1.112  12.435  0.00  0.00     0.191 C 
ATOM     16  O25 ZIN A   1      18.188  -1.394  13.537  0.00  0.00    -0.345 OA
ENDROOT
BRANCH   8  17
ATOM     17  C10 ZIN A   1      17.611   1.813  10.764  0.00  0.00     0.263 C 
BRANCH  17  18
ATOM     18  O11 ZIN A   1      17.955   2.974  10.003  0.00  0.00    -0.254 OA
BRANCH  18  19
ATOM     19  S12 ZIN A   1      17.681   4.288  10.720  0.00  0.00     0.355 S 
ATOM     20  O14 ZIN A   1      17.724   5.303   9.727  0.00  0.00    -0.176 OA
ATOM     21  O15 ZIN A   1      16.555   4.062  11.555  0.00  0.00    -0.176 OA
BRANCH  19  22
ATOM     22  N13 ZIN A   1      18.963   4.570  11.731  0.00  0.00    -0.306 N 
ATOM     23  H36 ZIN A   1      18.963   4.203  12.629  0.00  0.00     0.171 HD
ATOM     24  H37 ZIN A   1      19.713   5.104  11.425  0.00  0.00     0.171 HD
ENDBRANCH  19  22
ENDBRANCH  18  19
ENDBRANCH  17  18
ENDBRANCH   8  17
TORSDOF 4
ENDMDL
MODEL 3
REMARK VINA RESULT:      -6.9      3.266      6.014
REMARK  4 active torsions:
REMARK  status: ('A' for Active; 'I' for Inactive)
REMARK    1  A    between atoms: C9_8  and  C10_9 
REMARK    2  A    between atoms: C10_9  and  O11_10 
REMARK    3  A    between atoms: O11_10  and  S12_11 
REMARK    4  A    between atoms: S12_11  and  N13_12 
ROOT
ATOM      1  C1  ZIN A   1      17.413  -3.998  11.104  0.00  0.00     0.078 C 
ATOM      2  C2  ZIN A   1      17.998  -2.630  11.460  0.00  0.00     0.158 C 
ATOM      3  C3  ZIN A   1      18.445  -2.631  12.923  0.00  0.00     0.078 C 
ATOM      4  O4  ZIN A   1      19.122  -2.356  10.617  0.00  0.00    -0.346 OA
ATOM      5  C5  ZIN A   1      18.837  -1.145   9.895  0.00  0.00     0.180 C 
ATOM      6  C7  ZIN A   1      20.062  -0.257   9.862  0.00  0.00     0.206 C 
ATOM      7  O8  ZIN A   1      20.353   0.258  11.145  0.00  0.00    -0.348 OA
ATOM      8  C9  ZIN A   1      19.367   1.022  11.787  0.00  0.00     0.219 C 
ATOM      9  O16 ZIN A   1      19.395   2.386  11.324  0.00  0.00    -0.315 OA
ATOM     10  C17 ZIN A   1      18.047   2.864  11.456  0.00  0.00     0.161 C 
ATOM     11  C18 ZIN A   1      17.858   3.508  12.830  0.00  0.00     0.078 C 
ATOM     12  C19 ZIN A   1      17.752   3.888  10.359  0.00  0.00     0.078 C 
ATOM     13  O20 ZIN A   1      17.167   1.740  11.320  0.00  0.00    -0.342 OA
ATOM     14  C21 ZIN A   1      17.940   0.561  11.606  0.00  0.00     0.221 C 
ATOM     15  C23 ZIN A   1      17.669  -0.511  10.628  0.00  0.00     0.191 C 
ATOM     16  O25 ZIN A   1      17.002  -1.618  11.264  0.00  0.00    -0.345 OA
ENDROOT
BRANCH   8  17
ATOM     17  C10 ZIN A   1      19.676   1.043  13.284  0.00  0.00     0.263 C 
BRANCH  17  18
ATOM     18  O11 ZIN A   1      18.639   0.360  13.994  0.00  0.00    -0.254 OA
BRANCH  18  19
ATOM     19  S12 ZIN A   1      18.695   0.547  15.503  0.00  0.00     0.355 S 
ATOM     20  O14 ZIN A   1      19.251  -0.647  16.036  0.00  0.00    -0.176 OA
ATOM     21  O15 ZIN A   1      19.253   1.834  15.727  0.00  0.00    -0.176 OA
BRANCH  19  22
ATOM     22  N13 ZIN A   1      17.131   0.615  16.046  0.00  0.00    -0.306 N 
ATOM     23  H36 ZIN A   1      16.420   0.891  15.446  0.00  0.00     0.171 HD
ATOM     24  H37 ZIN A   1      16.926   0.380  16.964  0.00  0.00     0.171 HD
ENDBRANCH  19  22
ENDBRANCH  18  19
ENDBRANCH  17  18
ENDBRANCH   8  17
TORSDOF 4
ENDMDL
MODEL 4
REMARK VINA RESULT:      -6.9      2.803      4.845
REMARK  4 active torsions:
REMARK  status: ('A' for Active; 'I' for Inactive)
REMARK    1  A    between atoms: C9_8  and  C10_9 
REMARK    2  A    between atoms: C10_9  and  O11_10 
REMARK    3  A    between atoms: O11_10  and  S12_11 
REMARK    4  A    between atoms: S12_11  and  N13_12 
ROOT
ATOM      1  C1  ZIN A   1      19.352   0.835   6.816  0.00  0.00     0.078 C 
ATOM      2  C2  ZIN A   1      18.925   1.047   8.270  0.00  0.00     0.158 C 
ATOM      3  C3  ZIN A   1      18.890   2.544   8.579  0.00  0.00     0.078 C 
ATOM      4  O4  ZIN A   1      17.623   0.486   8.473  0.00  0.00    -0.346 OA
ATOM      5  C5  ZIN A   1      17.738  -0.514   9.500  0.00  0.00     0.180 C 
ATOM      6  C7  ZIN A   1      16.575  -0.407  10.464  0.00  0.00     0.206 C 
ATOM      7  O8  ZIN A   1      16.657   0.776  11.232  0.00  0.00    -0.348 OA
ATOM      8  C9  ZIN A   1      17.801   0.972  12.018  0.00  0.00     0.219 C 
ATOM      9  O16 ZIN A   1      17.689   0.267  13.270  0.00  0.00    -0.315 OA
ATOM     10  C17 ZIN A   1      19.036  -0.054  13.652  0.00  0.00     0.161 C 
ATOM     11  C18 ZIN A   1      19.608   1.065  14.524  0.00  0.00     0.078 C 
ATOM     12  C19 ZIN A   1      19.053  -1.374  14.426  0.00  0.00     0.078 C 
ATOM     13  O20 ZIN A   1      19.813  -0.183  12.454  0.00  0.00    -0.342 OA
ATOM     14  C21 ZIN A   1      19.112   0.525  11.416  0.00  0.00     0.221 C 
ATOM     15  C23 ZIN A   1      19.078  -0.252  10.162  0.00  0.00     0.191 C 
ATOM     16  O25 ZIN A   1      19.860   0.399   9.142  0.00  0.00    -0.345 OA
ENDROOT
BRANCH   8  17
ATOM     17  C10 ZIN A   1      17.910   2.462  12.344  0.00  0.00     0.263 C 
BRANCH  17  18
ATOM     18  O11 ZIN A   1      17.069   3.206  11.459  0.00  0.00    -0.254 OA
BRANCH  18  19
ATOM     19  S12 ZIN A   1      17.180   4.715  11.620  0.00  0.00     0.355 S 
ATOM     20  O14 ZIN A   1      15.937   5.156  12.148  0.00  0.00    -0.176 OA
ATOM     21  O15 ZIN A   1      18.427   4.959  12.257  0.00  0.00    -0.176 OA
BRANCH  19  22
ATOM     22  N13 ZIN A   1      17.298   5.363  10.100  0.00  0.00    -0.306 N 
ATOM     23  H36 ZIN A   1      18.090   5.862   9.844  0.00  0.00     0.171 HD
ATOM     24  H37 ZIN A   1      16.574   5.245   9.465  0.00  0.00     0.171 HD
ENDBRANCH  19  22
ENDBRANCH  18  19
ENDBRANCH  17  18
ENDBRANCH   8  17
TORSDOF 4
ENDMDL
MODEL 5
REMARK VINA RESULT:      -6.7      4.004      6.683
REMARK  4 active torsions:
REMARK  status: ('A' for Active; 'I' for Inactive)
REMARK    1  A    between atoms: C9_8  and  C10_9 
REMARK    2  A    between atoms: C10_9  and  O11_10 
REMARK    3  A    between atoms: O11_10  and  S12_11 
REMARK    4  A    between atoms: S12_11  and  N13_12 
ROOT
ATOM      1  C1  ZIN A   1      18.035  -2.434  12.572  0.00  0.00     0.078 C 
ATOM      2  C2  ZIN A   1      18.207  -0.928  12.776  0.00  0.00     0.158 C 
ATOM      3  C3  ZIN A   1      17.987  -0.583  14.249  0.00  0.00     0.078 C 
ATOM      4  O4  ZIN A   1      19.530  -0.541  12.387  0.00  0.00    -0.346 OA
ATOM      5  C5  ZIN A   1      19.405   0.434  11.337  0.00  0.00     0.180 C 
ATOM      6  C7  ZIN A   1      20.384   1.567  11.557  0.00  0.00     0.206 C 
ATOM      7  O8  ZIN A   1      20.025   2.339  12.684  0.00  0.00    -0.348 OA
ATOM      8  C9  ZIN A   1      18.761   2.946  12.690  0.00  0.00     0.219 C 
ATOM      9  O16 ZIN A   1      18.783   4.183  11.952  0.00  0.00    -0.315 OA
ATOM     10  C17 ZIN A   1      17.453   4.347  11.437  0.00  0.00     0.161 C 
ATOM     11  C18 ZIN A   1      16.607   5.146  12.430  0.00  0.00     0.078 C 
ATOM     12  C19 ZIN A   1      17.505   5.079  10.095  0.00  0.00     0.078 C 
ATOM     13  O20 ZIN A   1      16.887   3.042  11.257  0.00  0.00    -0.342 OA
ATOM     14  C21 ZIN A   1      17.629   2.140  12.098  0.00  0.00     0.221 C 
ATOM     15  C23 ZIN A   1      17.957   0.889  11.387  0.00  0.00     0.191 C 
ATOM     16  O25 ZIN A   1      17.252  -0.224  11.971  0.00  0.00    -0.345 OA
ENDROOT
BRANCH   8  17
ATOM     17  C10 ZIN A   1      18.398   3.284  14.137  0.00  0.00     0.263 C 
BRANCH  17  18
ATOM     18  O11 ZIN A   1      19.174   2.476  15.024  0.00  0.00    -0.254 OA
BRANCH  18  19
ATOM     19  S12 ZIN A   1      19.044   2.864  16.490  0.00  0.00     0.355 S 
ATOM     20  O14 ZIN A   1      18.632   1.693  17.181  0.00  0.00    -0.176 OA
ATOM     21  O15 ZIN A   1      20.221   3.588  16.819  0.00  0.00    -0.176 OA
BRANCH  19  22
ATOM     22  N13 ZIN A   1      17.788   3.938  16.602  0.00  0.00    -0.306 N 
ATOM     23  H36 ZIN A   1      16.961   3.675  17.036  0.00  0.00     0.171 HD
ATOM     24  H37 ZIN A   1      17.878   4.831  16.233  0.00  0.00     0.171 HD
ENDBRANCH  19  22
ENDBRANCH  18  19
ENDBRANCH  17  18
ENDBRANCH   8  17
TORSDOF 4
ENDMDL
MODEL 6
REMARK VINA RESULT:      -6.6      2.385      3.119
REMARK  4 active torsions:
REMARK  status: ('A' for Active; 'I' for Inactive)
REMARK    1  A    between atoms: C9_8  and  C10_9 
REMARK    2  A    between atoms: C10_9  and  O11_10 
REMARK    3  A    between atoms: O11_10  and  S12_11 
REMARK    4  A    between atoms: S12_11  and  N13_12 
ROOT
ATOM      1  C1  ZIN A   1      17.356   1.910  11.245  0.00  0.00     0.078 C 
ATOM      2  C2  ZIN A   1      17.708   0.491  10.796  0.00  0.00     0.158 C 
ATOM      3  C3  ZIN A   1      17.665   0.413   9.270  0.00  0.00     0.078 C 
ATOM      4  O4  ZIN A   1      19.022   0.157  11.255  0.00  0.00    -0.346 OA
ATOM      5  C5  ZIN A   1      18.905  -1.006  12.094  0.00  0.00     0.180 C 
ATOM      6  C7  ZIN A   1      20.018  -1.986  11.786  0.00  0.00     0.206 C 
ATOM      7  O8  ZIN A   1      19.852  -2.560  10.506  0.00  0.00    -0.348 OA
ATOM      8  C9  ZIN A   1      18.666  -3.264  10.250  0.00  0.00     0.219 C 
ATOM      9  O16 ZIN A   1      18.753  -4.612  10.752  0.00  0.00    -0.315 OA
ATOM     10  C17 ZIN A   1      17.405  -4.987  11.077  0.00  0.00     0.161 C 
ATOM     11  C18 ZIN A   1      16.748  -5.656   9.869  0.00  0.00     0.078 C 
ATOM     12  C19 ZIN A   1      17.410  -5.952  12.264  0.00  0.00     0.078 C 
ATOM     13  O20 ZIN A   1      16.688  -3.795  11.423  0.00  0.00    -0.342 OA
ATOM     14  C21 ZIN A   1      17.404  -2.688  10.846  0.00  0.00     0.221 C 
ATOM     15  C23 ZIN A   1      17.527  -1.570  11.801  0.00  0.00     0.191 C 
ATOM     16  O25 ZIN A   1      16.763  -0.434  11.350  0.00  0.00    -0.345 OA
ENDROOT
BRANCH   8  17
ATOM     17  C10 ZIN A   1      18.480  -3.354   8.735  0.00  0.00     0.263 C 
BRANCH  17  18
ATOM     18  O11 ZIN A   1      19.544  -4.122   8.168  0.00  0.00    -0.254 OA
BRANCH  18  19
ATOM     19  S12 ZIN A   1      19.333  -4.488   6.706  0.00  0.00     0.355 S 
ATOM     20  O14 ZIN A   1      19.993  -3.488   5.942  0.00  0.00    -0.176 OA
ATOM     21  O15 ZIN A   1      19.627  -5.874   6.594  0.00  0.00    -0.176 OA
BRANCH  19  22
ATOM     22  N13 ZIN A   1      17.716  -4.327   6.389  0.00  0.00    -0.306 N 
ATOM     23  H36 ZIN A   1      17.061  -4.689   7.006  0.00  0.00     0.171 HD
ATOM     24  H37 ZIN A   1      17.422  -3.871   5.584  0.00  0.00     0.171 HD
ENDBRANCH  19  22
ENDBRANCH  18  19
ENDBRANCH  17  18
ENDBRANCH   8  17
TORSDOF 4
ENDMDL
MODEL 7
REMARK VINA RESULT:      -6.6      3.297      6.174
REMARK  4 active torsions:
REMARK  status: ('A' for Active; 'I' for Inactive)
REMARK    1  A    between atoms: C9_8  and  C10_9 
REMARK    2  A    between atoms: C10_9  and  O11_10 
REMARK    3  A    between atoms: O11_10  and  S12_11 
REMARK    4  A    between atoms: S12_11  and  N13_12 
ROOT
ATOM      1  C1  ZIN A   1      17.139  -6.420   9.981  0.00  0.00     0.078 C 
ATOM      2  C2  ZIN A   1      17.475  -5.049  10.570  0.00  0.00     0.158 C 
ATOM      3  C3  ZIN A   1      16.630  -4.808  11.821  0.00  0.00     0.078 C 
ATOM      4  O4  ZIN A   1      18.864  -5.004  10.916  0.00  0.00    -0.346 OA
ATOM      5  C5  ZIN A   1      19.462  -3.931  10.168  0.00  0.00     0.180 C 
ATOM      6  C7  ZIN A   1      20.404  -3.141  11.052  0.00  0.00     0.206 C 
ATOM      7  O8  ZIN A   1      19.694  -2.419  12.036  0.00  0.00    -0.348 OA
ATOM      8  C9  ZIN A   1      18.734  -1.491  11.607  0.00  0.00     0.219 C 
ATOM      9  O16 ZIN A   1      19.355  -0.239  11.254  0.00  0.00    -0.315 OA
ATOM     10  C17 ZIN A   1      18.510   0.337  10.245  0.00  0.00     0.161 C 
ATOM     11  C18 ZIN A   1      17.458   1.234  10.900  0.00  0.00     0.078 C 
ATOM     12  C19 ZIN A   1      19.356   1.159   9.271  0.00  0.00     0.078 C 
ATOM     13  O20 ZIN A   1      17.867  -0.736   9.545  0.00  0.00    -0.342 OA
ATOM     14  C21 ZIN A   1      17.910  -1.888  10.405  0.00  0.00     0.221 C 
ATOM     15  C23 ZIN A   1      18.297  -3.102   9.661  0.00  0.00     0.191 C 
ATOM     16  O25 ZIN A   1      17.196  -4.030   9.601  0.00  0.00    -0.345 OA
ENDROOT
BRANCH   8  17
ATOM     17  C10 ZIN A   1      17.780  -1.215  12.769  0.00  0.00     0.263 C 
BRANCH  17  18
ATOM     18  O11 ZIN A   1      18.501  -1.272  14.002  0.00  0.00    -0.254 OA
BRANCH  18  19
ATOM     19  S12 ZIN A   1      18.599   0.064  14.725  0.00  0.00     0.355 S 
ATOM     20  O14 ZIN A   1      17.419   0.784  14.399  0.00  0.00    -0.176 OA
ATOM     21  O15 ZIN A   1      18.987  -0.231  16.060  0.00  0.00    -0.176 OA
BRANCH  19  22
ATOM     22  N13 ZIN A   1      19.858   0.898  14.046  0.00  0.00    -0.306 N 
ATOM     23  H36 ZIN A   1      20.250   1.652  14.514  0.00  0.00     0.171 HD
ATOM     24  H37 ZIN A   1      20.203   0.634  13.179  0.00  0.00     0.171 HD
ENDBRANCH  19  22
ENDBRANCH  18  19
ENDBRANCH  17  18
ENDBRANCH   8  17
TORSDOF 4
ENDMDL
MODEL 8
REMARK VINA RESULT:      -6.6      2.602      4.265
REMARK  4 active torsions:
REMARK  status: ('A' for Active; 'I' for Inactive)
REMARK    1  A    between atoms: C9_8  and  C10_9 
REMARK    2  A    between atoms: C10_9  and  O11_10 
REMARK    3  A    between atoms: O11_10  and  S12_11 
REMARK    4  A    between atoms: S12_11  and  N13_12 
ROOT
ATOM      1  C1  ZIN A   1      17.185  -0.065   6.103  0.00  0.00     0.078 C 
ATOM      2  C2  ZIN A   1      17.878  -0.274   7.451  0.00  0.00     0.158 C 
ATOM      3  C3  ZIN A   1      18.721  -1.549   7.400  0.00  0.00     0.078 C 
ATOM      4  O4  ZIN A   1      18.724   0.847   7.733  0.00  0.00    -0.346 OA
ATOM      5  C5  ZIN A   1      18.274   1.428   8.969  0.00  0.00     0.180 C 
ATOM      6  C7  ZIN A   1      19.460   1.785   9.840  0.00  0.00     0.206 C 
ATOM      7  O8  ZIN A   1      20.114   0.625  10.312  0.00  0.00    -0.348 OA
ATOM      8  C9  ZIN A   1      19.367  -0.288  11.070  0.00  0.00     0.219 C 
ATOM      9  O16 ZIN A   1      19.294   0.130  12.447  0.00  0.00    -0.315 OA
ATOM     10  C17 ZIN A   1      18.050  -0.390  12.941  0.00  0.00     0.161 C 
ATOM     11  C18 ZIN A   1      18.272  -1.777  13.547  0.00  0.00     0.078 C 
ATOM     12  C19 ZIN A   1      17.480   0.553  14.002  0.00  0.00     0.078 C 
ATOM     13  O20 ZIN A   1      17.143  -0.482  11.835  0.00  0.00    -0.342 OA
ATOM     14  C21 ZIN A   1      17.938  -0.508  10.636  0.00  0.00     0.221 C 
ATOM     15  C23 ZIN A   1      17.376   0.379   9.599  0.00  0.00     0.191 C 
ATOM     16  O25 ZIN A   1      16.891  -0.393   8.483  0.00  0.00    -0.345 OA
ENDROOT
BRANCH   8  17
ATOM     17  C10 ZIN A   1      20.087  -1.637  11.041  0.00  0.00     0.263 C 
BRANCH  17  18
ATOM     18  O11 ZIN A   1      19.260  -2.605  10.392  0.00  0.00    -0.254 OA
BRANCH  18  19
ATOM     19  S12 ZIN A   1      19.538  -4.040  10.814  0.00  0.00     0.355 S 
ATOM     20  O14 ZIN A   1      20.580  -3.981  11.779  0.00  0.00    -0.176 OA
ATOM     21  O15 ZIN A   1      18.274  -4.636  11.070  0.00  0.00    -0.176 OA
BRANCH  19  22
ATOM     22  N13 ZIN A   1      20.166  -4.825   9.497  0.00  0.00    -0.306 N 
ATOM     23  H36 ZIN A   1      20.584  -5.694   9.603  0.00  0.00     0.171 HD
ATOM     24  H37 ZIN A   1      20.119  -4.414   8.620  0.00  0.00     0.171 HD
ENDBRANCH  19  22
ENDBRANCH  18  19
ENDBRANCH  17  18
ENDBRANCH   8  17
TORSDOF 4
ENDMDL
MODEL 9
REMARK VINA RESULT:      -6.5      2.606      4.013
REMARK  4 active torsions:
REMARK  status: ('A' for Active; 'I' for Inactive)
REMARK    1  A    between atoms: C9_8  and  C10_9 
REMARK    2  A    between atoms: C10_9  and  O11_10 
REMARK    3  A    between atoms: O11_10  and  S12_11 
REMARK    4  A    between atoms: S12_11  and  N13_12 
ROOT
ATOM      1  C1  ZIN A   1      19.707   3.345  12.705  0.00  0.00     0.078 C 
ATOM      2  C2  ZIN A   1      19.443   2.106  11.849  0.00  0.00     0.158 C 
ATOM      3  C3  ZIN A   1      20.542   1.071  12.095  0.00  0.00     0.078 C 
ATOM      4  O4  ZIN A   1      18.173   1.546  12.197  0.00  0.00    -0.346 OA
ATOM      5  C5  ZIN A   1      17.360   1.545  11.010  0.00  0.00     0.180 C 
ATOM      6  C7  ZIN A   1      16.608   0.236  10.893  0.00  0.00     0.206 C 
ATOM      7  O8  ZIN A   1      17.487  -0.834  10.617  0.00  0.00    -0.348 OA
ATOM      8  C9  ZIN A   1      18.269  -0.760   9.455  0.00  0.00     0.219 C 
ATOM      9  O16 ZIN A   1      17.518  -1.189   8.303  0.00  0.00    -0.315 OA
ATOM     10  C17 ZIN A   1      18.073  -0.468   7.192  0.00  0.00     0.161 C 
ATOM     11  C18 ZIN A   1      19.198  -1.284   6.555  0.00  0.00     0.078 C 
ATOM     12  C19 ZIN A   1      16.981  -0.195   6.156  0.00  0.00     0.078 C 
ATOM     13  O20 ZIN A   1      18.592   0.772   7.689  0.00  0.00    -0.342 OA
ATOM     14  C21 ZIN A   1      18.813   0.604   9.101  0.00  0.00     0.221 C 
ATOM     15  C23 ZIN A   1      18.330   1.771   9.864  0.00  0.00     0.191 C 
ATOM     16  O25 ZIN A   1      19.434   2.475  10.464  0.00  0.00    -0.345 OA
ENDROOT
BRANCH   8  17
ATOM     17  C10 ZIN A   1      19.451  -1.718   9.611  0.00  0.00     0.263 C 
BRANCH  17  18
ATOM     18  O11 ZIN A   1      18.976  -3.066   9.603  0.00  0.00    -0.254 OA
BRANCH  18  19
ATOM     19  S12 ZIN A   1      19.483  -3.908  10.765  0.00  0.00     0.355 S 
ATOM     20  O14 ZIN A   1      18.471  -3.868  11.762  0.00  0.00    -0.176 OA
ATOM     21  O15 ZIN A   1      19.971  -5.117  10.201  0.00  0.00    -0.176 OA
BRANCH  19  22
ATOM     22  N13 ZIN A   1      20.796  -3.126  11.402  0.00  0.00    -0.306 N 
ATOM     23  H36 ZIN A   1      20.822  -2.156  11.420  0.00  0.00     0.171 HD
ATOM     24  H37 ZIN A   1      21.541  -3.636  11.755  0.00  0.00     0.171 HD
ENDBRANCH  19  22
ENDBRANCH  18  19
ENDBRANCH  17  18
ENDBRANCH   8  17
TORSDOF 4
ENDMDL
