MODEL 1
REMARK VINA RESULT:      -6.2      0.000      0.000
REMARK  5 active torsions:
REMARK  status: ('A' for Active; 'I' for Inactive)
REMARK    1  A    between atoms: N1_1  and  C2_2 
REMARK    2  A    between atoms: N6_6  and  C7_7 
REMARK    3  A    between atoms: C10_9  and  O12_10 
REMARK    4  A    between atoms: C13_11  and  C15_12 
REMARK    5  A    between atoms: C15_12  and  O16_13 
ROOT
ATOM      1  C2  ZIN A   1      18.974   2.660  18.406  0.00  0.00     0.725 A 
ATOM      2  N3  ZIN A   1      19.261   1.386  18.627  0.00  0.00    -0.004 NA
ATOM      3  C4  ZIN A   1      19.271   0.517  17.612  0.00  0.00     0.367 A 
ATOM      4  O5  ZIN A   1      19.534  -0.656  17.810  0.00  0.00    -0.244 OA
ATOM      5  N6  ZIN A   1      18.989   0.948  16.365  0.00  0.00    -0.264 N 
ATOM      6  C18 ZIN A   1      18.700   2.252  16.159  0.00  0.00     0.236 A 
ATOM      7  N19 ZIN A   1      18.688   3.087  17.168  0.00  0.00    -0.058 NA
ENDROOT
BRANCH   5   8
ATOM      8  C7  ZIN A   1      18.996   0.008  15.240  0.00  0.00     0.236 C 
ATOM      9  O17 ZIN A   1      20.026   0.366  14.292  0.00  0.00    -0.356 OA
ATOM     10  C13 ZIN A   1      19.635  -0.265  13.052  0.00  0.00     0.176 C 
ATOM     11  C10 ZIN A   1      18.104  -0.077  12.976  0.00  0.00     0.153 C 
ATOM     12  C9  ZIN A   1      17.674   0.108  14.448  0.00  0.00     0.088 C 
BRANCH  10  13
ATOM     13  C15 ZIN A   1      20.316   0.418  11.865  0.00  0.00     0.198 C 
BRANCH  13  14
ATOM     14  O16 ZIN A   1      21.694   0.641  12.171  0.00  0.00    -0.398 OA
ATOM     15  H27 ZIN A   1      22.157  -0.145  12.497  0.00  0.00     0.209 HD
ENDBRANCH  13  14
ENDBRANCH  10  13
BRANCH  11  16
ATOM     16  O12 ZIN A   1      17.481  -1.233  12.413  0.00  0.00    -0.393 OA
ATOM     17  H24 ZIN A   1      16.974  -1.055  11.609  0.00  0.00     0.210 HD
ENDBRANCH  11  16
ENDBRANCH   5   8
BRANCH   1  18
ATOM     18  N1  ZIN A   1      18.965   3.548  19.452  0.00  0.00    -0.231 N 
ATOM     19  H20 ZIN A   1      18.539   4.415  19.350  0.00  0.00     0.174 HD
ATOM     20  H21 ZIN A   1      19.379   3.309  20.296  0.00  0.00     0.174 HD
ENDBRANCH   1  18
TORSDOF 5
ENDMDL
MODEL 2
REMARK VINA RESULT:      -6.2      7.327     10.016
REMARK  5 active torsions:
REMARK  status: ('A' for Active; 'I' for Inactive)
REMARK    1  A    between atoms: N1_1  and  C2_2 
REMARK    2  A    between atoms: N6_6  and  C7_7 
REMARK    3  A    between atoms: C10_9  and  O12_10 
REMARK    4  A    between atoms: C13_11  and  C15_12 
REMARK    5  A    between atoms: C15_12  and  O16_13 
ROOT
ATOM      1  C2  ZIN A   1      18.827  -2.841   4.538  0.00  0.00     0.725 A 
ATOM      2  N3  ZIN A   1      19.230  -1.604   4.288  0.00  0.00    -0.004 NA
ATOM      3  C4  ZIN A   1      19.302  -0.711   5.279  0.00  0.00     0.367 A 
ATOM      4  O5  ZIN A   1      19.673   0.428   5.054  0.00  0.00    -0.244 OA
ATOM      5  N6  ZIN A   1      18.962  -1.078   6.532  0.00  0.00    -0.264 N 
ATOM      6  C18 ZIN A   1      18.554  -2.345   6.767  0.00  0.00     0.236 A 
ATOM      7  N19 ZIN A   1      18.484  -3.204   5.782  0.00  0.00    -0.058 NA
ENDROOT
BRANCH   5   8
ATOM      8  C7  ZIN A   1      19.037  -0.111   7.630  0.00  0.00     0.236 C 
ATOM      9  O17 ZIN A   1      19.997  -0.544   8.618  0.00  0.00    -0.356 OA
ATOM     10  C13 ZIN A   1      19.640   0.161   9.829  0.00  0.00     0.176 C 
ATOM     11  C10 ZIN A   1      18.096   0.133   9.864  0.00  0.00     0.153 C 
ATOM     12  C9  ZIN A   1      17.689  -0.051   8.385  0.00  0.00     0.088 C 
BRANCH  10  13
ATOM     13  C15 ZIN A   1      20.214  -0.553  11.054  0.00  0.00     0.198 C 
BRANCH  13  14
ATOM     14  O16 ZIN A   1      21.639  -0.598  10.954  0.00  0.00    -0.398 OA
ATOM     15  H27 ZIN A   1      21.976  -1.374  10.484  0.00  0.00     0.209 HD
ENDBRANCH  13  14
ENDBRANCH  10  13
BRANCH  11  16
ATOM     16  O12 ZIN A   1      17.581   1.364  10.376  0.00  0.00    -0.393 OA
ATOM     17  H24 ZIN A   1      18.064   1.703  11.142  0.00  0.00     0.210 HD
ENDBRANCH  11  16
ENDBRANCH   5   8
BRANCH   1  18
ATOM     18  N1  ZIN A   1      18.755  -3.754   3.516  0.00  0.00    -0.231 N 
ATOM     19  H20 ZIN A   1      19.491  -3.841   2.890  0.00  0.00     0.174 HD
ATOM     20  H21 ZIN A   1      17.970  -4.317   3.422  0.00  0.00     0.174 HD
ENDBRANCH   1  18
TORSDOF 5
ENDMDL
MODEL 3
REMARK VINA RESULT:      -6.0      5.181      6.930
REMARK  5 active torsions:
REMARK  status: ('A' for Active; 'I' for Inactive)
REMARK    1  A    between atoms: N1_1  and  C2_2 
REMARK    2  A    between atoms: N6_6  and  C7_7 
REMARK    3  A    between atoms: C10_9  and  O12_10 
REMARK    4  A    between atoms: C13_11  and  C15_12 
REMARK    5  A    between atoms: C15_12  and  O16_13 
ROOT
ATOM      1  C2  ZIN A   1      20.117  -0.020  12.171  0.00  0.00     0.725 A 
ATOM      2  N3  ZIN A   1      19.769  -1.287  11.995  0.00  0.00    -0.004 NA
ATOM      3  C4  ZIN A   1      19.208  -1.672  10.845  0.00  0.00     0.367 A 
ATOM      4  O5  ZIN A   1      18.886  -2.836  10.679  0.00  0.00    -0.244 OA
ATOM      5  N6  ZIN A   1      19.001  -0.765   9.869  0.00  0.00    -0.264 N 
ATOM      6  C18 ZIN A   1      19.364   0.522  10.067  0.00  0.00     0.236 A 
ATOM      7  N19 ZIN A   1      19.906   0.882  11.203  0.00  0.00    -0.058 NA
ENDROOT
BRANCH   5   8
ATOM      8  C7  ZIN A   1      18.388  -1.172   8.601  0.00  0.00     0.236 C 
ATOM      9  O17 ZIN A   1      19.373  -1.177   7.545  0.00  0.00    -0.356 OA
ATOM     10  C13 ZIN A   1      18.614  -1.090   6.318  0.00  0.00     0.176 C 
ATOM     11  C10 ZIN A   1      17.485  -0.079   6.620  0.00  0.00     0.153 C 
ATOM     12  C9  ZIN A   1      17.334  -0.134   8.157  0.00  0.00     0.088 C 
BRANCH  10  13
ATOM     13  C15 ZIN A   1      19.496  -0.579   5.177  0.00  0.00     0.198 C 
BRANCH  13  14
ATOM     14  O16 ZIN A   1      19.587  -1.581   4.162  0.00  0.00    -0.398 OA
ATOM     15  H27 ZIN A   1      20.236  -2.273   4.350  0.00  0.00     0.209 HD
ENDBRANCH  13  14
ENDBRANCH  10  13
BRANCH  11  16
ATOM     16  O12 ZIN A   1      16.270  -0.476   5.982  0.00  0.00    -0.393 OA
ATOM     17  H24 ZIN A   1      15.493  -0.437   6.557  0.00  0.00     0.210 HD
ENDBRANCH  11  16
ENDBRANCH   5   8
BRANCH   1  18
ATOM     18  N1  ZIN A   1      20.692   0.370  13.354  0.00  0.00    -0.231 N 
ATOM     19  H20 ZIN A   1      21.400   1.035  13.353  0.00  0.00     0.174 HD
ATOM     20  H21 ZIN A   1      20.388  -0.013  14.192  0.00  0.00     0.174 HD
ENDBRANCH   1  18
TORSDOF 5
ENDMDL
MODEL 4
REMARK VINA RESULT:      -5.8      3.064      5.745
REMARK  5 active torsions:
REMARK  status: ('A' for Active; 'I' for Inactive)
REMARK    1  A    between atoms: N1_1  and  C2_2 
REMARK    2  A    between atoms: N6_6  and  C7_7 
REMARK    3  A    between atoms: C10_9  and  O12_10 
REMARK    4  A    between atoms: C13_11  and  C15_12 
REMARK    5  A    between atoms: C15_12  and  O16_13 
ROOT
ATOM      1  C2  ZIN A   1      20.042  -0.286  10.853  0.00  0.00     0.725 A 
ATOM      2  N3  ZIN A   1      18.792  -0.687  11.033  0.00  0.00    -0.004 NA
ATOM      3  C4  ZIN A   1      18.202  -0.525  12.221  0.00  0.00     0.367 A 
ATOM      4  O5  ZIN A   1      17.053  -0.892  12.391  0.00  0.00    -0.244 OA
ATOM      5  N6  ZIN A   1      18.888   0.050  13.231  0.00  0.00    -0.264 N 
ATOM      6  C18 ZIN A   1      20.162   0.453  13.028  0.00  0.00     0.236 A 
ATOM      7  N19 ZIN A   1      20.725   0.279  11.859  0.00  0.00    -0.058 NA
ENDROOT
BRANCH   5   8
ATOM      8  C7  ZIN A   1      18.255   0.235  14.540  0.00  0.00     0.236 C 
ATOM      9  O17 ZIN A   1      18.672   1.487  15.127  0.00  0.00    -0.356 OA
ATOM     10  C13 ZIN A   1      18.423   1.344  16.544  0.00  0.00     0.176 C 
ATOM     11  C10 ZIN A   1      18.851  -0.103  16.877  0.00  0.00     0.153 C 
ATOM     12  C9  ZIN A   1      18.739  -0.849  15.529  0.00  0.00     0.088 C 
BRANCH  10  13
ATOM     13  C15 ZIN A   1      19.261   2.345  17.340  0.00  0.00     0.198 C 
BRANCH  13  14
ATOM     14  O16 ZIN A   1      19.706   1.734  18.553  0.00  0.00    -0.398 OA
ATOM     15  H27 ZIN A   1      19.331   0.856  18.712  0.00  0.00     0.209 HD
ENDBRANCH  13  14
ENDBRANCH  10  13
BRANCH  11  16
ATOM     16  O12 ZIN A   1      17.970  -0.679  17.843  0.00  0.00    -0.393 OA
ATOM     17  H24 ZIN A   1      18.350  -1.426  18.326  0.00  0.00     0.210 HD
ENDBRANCH  11  16
ENDBRANCH   5   8
BRANCH   1  18
ATOM     18  N1  ZIN A   1      20.643  -0.455   9.631  0.00  0.00    -0.231 N 
ATOM     19  H20 ZIN A   1      21.173   0.262   9.248  0.00  0.00     0.174 HD
ATOM     20  H21 ZIN A   1      20.543  -1.292   9.153  0.00  0.00     0.174 HD
ENDBRANCH   1  18
TORSDOF 5
ENDMDL
MODEL 5
REMARK VINA RESULT:      -5.7      5.091      7.544
REMARK  5 active torsions:
REMARK  status: ('A' for Active; 'I' for Inactive)
REMARK    1  A    between atoms: N1_1  and  C2_2 
REMARK    2  A    between atoms: N6_6  and  C7_7 
REMARK    3  A    between atoms: C10_9  and  O12_10 
REMARK    4  A    between atoms: C13_11  and  C15_12 
REMARK    5  A    between atoms: C15_12  and  O16_13 
ROOT
ATOM      1  C2  ZIN A   1      17.716  -4.124   8.711  0.00  0.00     0.725 A 
ATOM      2  N3  ZIN A   1      18.314  -4.764   9.706  0.00  0.00    -0.004 NA
ATOM      3  C4  ZIN A   1      19.026  -4.081  10.607  0.00  0.00     0.367 A 
ATOM      4  O5  ZIN A   1      19.577  -4.665  11.524  0.00  0.00    -0.244 OA
ATOM      5  N6  ZIN A   1      19.130  -2.741  10.496  0.00  0.00    -0.264 N 
ATOM      6  C18 ZIN A   1      18.513  -2.106   9.475  0.00  0.00     0.236 A 
ATOM      7  N19 ZIN A   1      17.825  -2.793   8.598  0.00  0.00    -0.058 NA
ENDROOT
BRANCH   5   8
ATOM      8  C7  ZIN A   1      19.907  -1.978  11.477  0.00  0.00     0.236 C 
ATOM      9  O17 ZIN A   1      19.036  -1.420  12.485  0.00  0.00    -0.356 OA
ATOM     10  C13 ZIN A   1      19.781  -0.327  13.068  0.00  0.00     0.176 C 
ATOM     11  C10 ZIN A   1      20.486   0.355  11.875  0.00  0.00     0.153 C 
ATOM     12  C9  ZIN A   1      20.570  -0.755  10.803  0.00  0.00     0.088 C 
BRANCH  10  13
ATOM     13  C15 ZIN A   1      18.836   0.655  13.763  0.00  0.00     0.198 C 
BRANCH  13  14
ATOM     14  O16 ZIN A   1      19.552   1.846  14.099  0.00  0.00    -0.398 OA
ATOM     15  H27 ZIN A   1      20.333   2.004  13.549  0.00  0.00     0.209 HD
ENDBRANCH  13  14
ENDBRANCH  10  13
BRANCH  11  16
ATOM     16  O12 ZIN A   1      21.794   0.794  12.246  0.00  0.00    -0.393 OA
ATOM     17  H24 ZIN A   1      21.834   1.219  13.113  0.00  0.00     0.210 HD
ENDBRANCH  11  16
ENDBRANCH   5   8
BRANCH   1  18
ATOM     18  N1  ZIN A   1      16.986  -4.830   7.788  0.00  0.00    -0.231 N 
ATOM     19  H20 ZIN A   1      17.326  -5.670   7.440  0.00  0.00     0.174 HD
ATOM     20  H21 ZIN A   1      16.128  -4.493   7.487  0.00  0.00     0.174 HD
ENDBRANCH   1  18
TORSDOF 5
ENDMDL
MODEL 6
REMARK VINA RESULT:      -5.7      5.301      6.443
REMARK  5 active torsions:
REMARK  status: ('A' for Active; 'I' for Inactive)
REMARK    1  A    between atoms: N1_1  and  C2_2 
REMARK    2  A    between atoms: N6_6  and  C7_7 
REMARK    3  A    between atoms: C10_9  and  O12_10 
REMARK    4  A    between atoms: C13_11  and  C15_12 
REMARK    5  A    between atoms: C15_12  and  O16_13 
ROOT
ATOM      1  C2  ZIN A   1      17.625   3.579  10.506  0.00  0.00     0.725 A 
ATOM      2  N3  ZIN A   1      18.449   3.286   9.511  0.00  0.00    -0.004 NA
ATOM      3  C4  ZIN A   1      18.892   2.035   9.356  0.00  0.00     0.367 A 
ATOM      4  O5  ZIN A   1      19.650   1.761   8.442  0.00  0.00    -0.244 OA
ATOM      5  N6  ZIN A   1      18.493   1.076  10.218  0.00  0.00    -0.264 N 
ATOM      6  C18 ZIN A   1      17.651   1.394  11.226  0.00  0.00     0.236 A 
ATOM      7  N19 ZIN A   1      17.234   2.628  11.366  0.00  0.00    -0.058 NA
ENDROOT
BRANCH   5   8
ATOM      8  C7  ZIN A   1      18.970  -0.300  10.061  0.00  0.00     0.236 C 
ATOM      9  O17 ZIN A   1      17.880  -1.233  10.236  0.00  0.00    -0.356 OA
ATOM     10  C13 ZIN A   1      18.508  -2.494  10.560  0.00  0.00     0.176 C 
ATOM     11  C10 ZIN A   1      19.666  -2.127  11.514  0.00  0.00     0.153 C 
ATOM     12  C9  ZIN A   1      19.976  -0.651  11.180  0.00  0.00     0.088 C 
BRANCH  10  13
ATOM     13  C15 ZIN A   1      17.515  -3.423  11.259  0.00  0.00     0.198 C 
BRANCH  13  14
ATOM     14  O16 ZIN A   1      18.225  -4.494  11.884  0.00  0.00    -0.398 OA
ATOM     15  H27 ZIN A   1      18.563  -4.281  12.765  0.00  0.00     0.209 HD
ENDBRANCH  13  14
ENDBRANCH  10  13
BRANCH  11  16
ATOM     16  O12 ZIN A   1      20.807  -2.949  11.261  0.00  0.00    -0.393 OA
ATOM     17  H24 ZIN A   1      21.136  -2.896  10.353  0.00  0.00     0.210 HD
ENDBRANCH  11  16
ENDBRANCH   5   8
BRANCH   1  18
ATOM     18  N1  ZIN A   1      17.173   4.865  10.661  0.00  0.00    -0.231 N 
ATOM     19  H20 ZIN A   1      16.824   5.352   9.897  0.00  0.00     0.174 HD
ATOM     20  H21 ZIN A   1      17.197   5.287  11.534  0.00  0.00     0.174 HD
ENDBRANCH   1  18
TORSDOF 5
ENDMDL
MODEL 7
REMARK VINA RESULT:      -5.6      5.357      6.980
REMARK  5 active torsions:
REMARK  status: ('A' for Active; 'I' for Inactive)
REMARK    1  A    between atoms: N1_1  and  C2_2 
REMARK    2  A    between atoms: N6_6  and  C7_7 
REMARK    3  A    between atoms: C10_9  and  O12_10 
REMARK    4  A    between atoms: C13_11  and  C15_12 
REMARK    5  A    between atoms: C15_12  and  O16_13 
ROOT
ATOM      1  C2  ZIN A   1      18.292   2.699  11.221  0.00  0.00     0.725 A 
ATOM      2  N3  ZIN A   1      17.415   1.770  11.573  0.00  0.00    -0.004 NA
ATOM      3  C4  ZIN A   1      17.117   0.779  10.728  0.00  0.00     0.367 A 
ATOM      4  O5  ZIN A   1      16.311  -0.077  11.047  0.00  0.00    -0.244 OA
ATOM      5  N6  ZIN A   1      17.714   0.732   9.519  0.00  0.00    -0.264 N 
ATOM      6  C18 ZIN A   1      18.607   1.688   9.179  0.00  0.00     0.236 A 
ATOM      7  N19 ZIN A   1      18.881   2.656  10.018  0.00  0.00    -0.058 NA
ENDROOT
BRANCH   5   8
ATOM      8  C7  ZIN A   1      17.398  -0.349   8.582  0.00  0.00     0.236 C 
ATOM      9  O17 ZIN A   1      18.406  -1.381   8.645  0.00  0.00    -0.356 OA
ATOM     10  C13 ZIN A   1      18.292  -2.101   7.397  0.00  0.00     0.176 C 
ATOM     11  C10 ZIN A   1      18.051  -1.010   6.330  0.00  0.00     0.153 C 
ATOM     12  C9  ZIN A   1      17.451   0.170   7.127  0.00  0.00     0.088 C 
BRANCH  10  13
ATOM     13  C15 ZIN A   1      19.583  -2.864   7.098  0.00  0.00     0.198 C 
BRANCH  13  14
ATOM     14  O16 ZIN A   1      19.831  -2.845   5.690  0.00  0.00    -0.398 OA
ATOM     15  H27 ZIN A   1      19.225  -2.279   5.192  0.00  0.00     0.209 HD
ENDBRANCH  13  14
ENDBRANCH  10  13
BRANCH  11  16
ATOM     16  O12 ZIN A   1      17.128  -1.468   5.341  0.00  0.00    -0.393 OA
ATOM     17  H24 ZIN A   1      17.489  -2.142   4.748  0.00  0.00     0.210 HD
ENDBRANCH  11  16
ENDBRANCH   5   8
BRANCH   1  18
ATOM     18  N1  ZIN A   1      18.595   3.715  12.092  0.00  0.00    -0.231 N 
ATOM     19  H20 ZIN A   1      18.103   4.551  12.053  0.00  0.00     0.174 HD
ATOM     20  H21 ZIN A   1      19.297   3.597  12.751  0.00  0.00     0.174 HD
ENDBRANCH   1  18
TORSDOF 5
ENDMDL
MODEL 8
REMARK VINA RESULT:      -5.5      5.356      6.815
REMARK  5 active torsions:
REMARK  status: ('A' for Active; 'I' for Inactive)
REMARK    1  A    between atoms: N1_1  and  C2_2 
REMARK    2  A    between atoms: N6_6  and  C7_7 
REMARK    3  A    between atoms: C10_9  and  O12_10 
REMARK    4  A    between atoms: C13_11  and  C15_12 
REMARK    5  A    between atoms: C15_12  and  O16_13 
ROOT
ATOM      1  C2  ZIN A   1      17.461   3.898  11.226  0.00  0.00     0.725 A 
ATOM      2  N3  ZIN A   1      17.318   2.674  11.714  0.00  0.00    -0.004 NA
ATOM      3  C4  ZIN A   1      17.667   1.615  10.977  0.00  0.00     0.367 A 
ATOM      4  O5  ZIN A   1      17.537   0.488  11.422  0.00  0.00    -0.244 OA
ATOM      5  N6  ZIN A   1      18.165   1.802   9.737  0.00  0.00    -0.264 N 
ATOM      6  C18 ZIN A   1      18.304   3.058   9.257  0.00  0.00     0.236 A 
ATOM      7  N19 ZIN A   1      17.950   4.083   9.992  0.00  0.00    -0.058 NA
ENDROOT
BRANCH   5   8
ATOM      8  C7  ZIN A   1      18.552   0.652   8.917  0.00  0.00     0.236 C 
ATOM      9  O17 ZIN A   1      19.212   1.093   7.711  0.00  0.00    -0.356 OA
ATOM     10  C13 ZIN A   1      19.095  -0.013   6.788  0.00  0.00     0.176 C 
ATOM     11  C10 ZIN A   1      17.663  -0.555   6.997  0.00  0.00     0.153 C 
ATOM     12  C9  ZIN A   1      17.298  -0.107   8.430  0.00  0.00     0.088 C 
BRANCH  10  13
ATOM     13  C15 ZIN A   1      19.277   0.469   5.347  0.00  0.00     0.198 C 
BRANCH  13  14
ATOM     14  O16 ZIN A   1      20.080  -0.470   4.629  0.00  0.00    -0.398 OA
ATOM     15  H27 ZIN A   1      20.993  -0.181   4.489  0.00  0.00     0.209 HD
ENDBRANCH  13  14
ENDBRANCH  10  13
BRANCH  11  16
ATOM     16  O12 ZIN A   1      17.645  -1.980   6.897  0.00  0.00    -0.393 OA
ATOM     17  H24 ZIN A   1      18.013  -2.321   6.071  0.00  0.00     0.210 HD
ENDBRANCH  11  16
ENDBRANCH   5   8
BRANCH   1  18
ATOM     18  N1  ZIN A   1      17.102   4.982  11.986  0.00  0.00    -0.231 N 
ATOM     19  H20 ZIN A   1      17.445   5.863  11.769  0.00  0.00     0.174 HD
ATOM     20  H21 ZIN A   1      16.499   4.869  12.738  0.00  0.00     0.174 HD
ENDBRANCH   1  18
TORSDOF 5
ENDMDL
MODEL 9
REMARK VINA RESULT:      -5.5      4.143      5.231
REMARK  5 active torsions:
REMARK  status: ('A' for Active; 'I' for Inactive)
REMARK    1  A    between atoms: N1_1  and  C2_2 
REMARK    2  A    between atoms: N6_6  and  C7_7 
REMARK    3  A    between atoms: C10_9  and  O12_10 
REMARK    4  A    between atoms: C13_11  and  C15_12 
REMARK    5  A    between atoms: C15_12  and  O16_13 
ROOT
ATOM      1  C2  ZIN A   1      17.952   4.903  14.033  0.00  0.00     0.725 A 
ATOM      2  N3  ZIN A   1      17.109   5.194  13.053  0.00  0.00    -0.004 NA
ATOM      3  C4  ZIN A   1      17.039   4.407  11.976  0.00  0.00     0.367 A 
ATOM      4  O5  ZIN A   1      16.264   4.670  11.072  0.00  0.00    -0.244 OA
ATOM      5  N6  ZIN A   1      17.830   3.317  11.895  0.00  0.00    -0.264 N 
ATOM      6  C18 ZIN A   1      18.683   3.037  12.905  0.00  0.00     0.236 A 
ATOM      7  N19 ZIN A   1      18.742   3.824  13.950  0.00  0.00    -0.058 NA
ENDROOT
BRANCH   5   8
ATOM      8  C7  ZIN A   1      17.765   2.443  10.721  0.00  0.00     0.236 C 
ATOM      9  O17 ZIN A   1      18.200   1.109  11.062  0.00  0.00    -0.356 OA
ATOM     10  C13 ZIN A   1      18.571   0.498   9.806  0.00  0.00     0.176 C 
ATOM     11  C10 ZIN A   1      19.301   1.613   9.023  0.00  0.00     0.153 C 
ATOM     12  C9  ZIN A   1      18.759   2.922   9.640  0.00  0.00     0.088 C 
BRANCH  10  13
ATOM     13  C15 ZIN A   1      19.508  -0.688  10.043  0.00  0.00     0.198 C 
BRANCH  13  14
ATOM     14  O16 ZIN A   1      20.828  -0.344   9.616  0.00  0.00    -0.398 OA
ATOM     15  H27 ZIN A   1      21.361   0.090  10.298  0.00  0.00     0.209 HD
ENDBRANCH  13  14
ENDBRANCH  10  13
BRANCH  11  16
ATOM     16  O12 ZIN A   1      18.982   1.543   7.632  0.00  0.00    -0.393 OA
ATOM     17  H24 ZIN A   1      18.142   1.103   7.443  0.00  0.00     0.210 HD
ENDBRANCH  11  16
ENDBRANCH   5   8
BRANCH   1  18
ATOM     18  N1  ZIN A   1      18.020   5.716  15.137  0.00  0.00    -0.231 N 
ATOM     19  H20 ZIN A   1      18.804   5.691  15.709  0.00  0.00     0.174 HD
ATOM     20  H21 ZIN A   1      17.288   6.318  15.342  0.00  0.00     0.174 HD
ENDBRANCH   1  18
TORSDOF 5
ENDMDL
