MODEL 1
REMARK VINA RESULT:      -6.8      0.000      0.000
REMARK  8 active torsions:
REMARK  status: ('A' for Active; 'I' for Inactive)
REMARK    1  A    between atoms: C2_2  and  N3_3 
REMARK    2  A    between atoms: N3_3  and  C4_4 
REMARK    3  A    between atoms: N7_6  and  C8_7 
REMARK    4  A    between atoms: C8_7  and  C9_8 
REMARK    5  A    between atoms: C9_8  and  C10_9 
REMARK    6  A    between atoms: C10_9  and  O11_10 
REMARK    7  A    between atoms: C19_18  and  S20_19 
REMARK    8  A    between atoms: S20_19  and  N21_20 
ROOT
ATOM      1  C4  <0> d   1      17.977  -0.450   8.246  0.00  0.00     0.274 C 
ATOM      2  C6  <0> d   1      17.112   0.257   9.278  0.00  0.00     0.176 C 
ATOM      3  N7  <0> d   1      17.837   0.393  10.556  0.00  0.00    -0.304 N 
ATOM      4  S13 <0> d   1      18.173  -1.040  11.350  0.00  0.00     0.268 S 
ATOM      5  O14 <0> d   1      19.364  -0.833  12.098  0.00  0.00    -0.200 OA
ATOM      6  O15 <0> d   1      16.954  -1.496  11.920  0.00  0.00    -0.200 OA
ATOM      7  C16 <0> d   1      18.578  -2.147  10.025  0.00  0.00     0.130 A 
ATOM      8  C17 <0> d   1      18.449  -1.811   8.725  0.00  0.00     0.009 A 
ATOM      9  C18 <0> d   1      18.807  -2.845   7.862  0.00  0.00     0.044 A 
ATOM     10  C19 <0> d   1      19.225  -3.968   8.438  0.00  0.00     0.121 A 
ATOM     11  S24 <0> d   1      19.180  -3.784  10.185  0.00  0.00    -0.062 SA
ENDROOT
BRANCH  10  12
ATOM     12  S20 <0> d   1      19.741  -5.419   7.581  0.00  0.00     0.263 S 
ATOM     13  O22 <0> d   1      19.556  -6.503   8.480  0.00  0.00    -0.200 OA
ATOM     14  O23 <0> d   1      19.135  -5.362   6.296  0.00  0.00    -0.200 OA
BRANCH  12  15
ATOM     15  N21 <0> d   1      21.373  -5.288   7.335  0.00  0.00    -0.324 N 
ATOM     16  H43 <0> d   1      21.884  -6.062   7.051  0.00  0.00     0.169 HD
ATOM     17  H44 <0> d   1      21.818  -4.438   7.475  0.00  0.00     0.169 HD
ENDBRANCH  12  15
ENDBRANCH  10  12
BRANCH   1  18
ATOM     18  N3  <0> d   1      17.198  -0.624   7.013  0.00  0.00     0.093 N 
ATOM     19  H30 <0> d   1      16.219  -0.438   7.173  0.00  0.00     0.316 HD
BRANCH  18  20
ATOM     20  C2  <0> d   1      17.725   0.222   5.934  0.00  0.00     0.266 C 
ATOM     21  C1  <0> d   1      18.938   1.001   6.442  0.00  0.00     0.037 C 
ENDBRANCH  18  20
ENDBRANCH   1  18
BRANCH   3  22
ATOM     22  C8  <0> d   1      18.235   1.697  11.094  0.00  0.00     0.137 C 
BRANCH  22  23
ATOM     23  C9  <0> d   1      18.565   2.645   9.939  0.00  0.00     0.047 C 
BRANCH  23  24
ATOM     24  C10 <0> d   1      17.906   4.003  10.191  0.00  0.00     0.168 C 
BRANCH  24  25
ATOM     25  O11 <0> d   1      16.872   3.857  11.166  0.00  0.00    -0.396 OA
ATOM     26  C12 <0> d   1      16.573   5.058  11.880  0.00  0.00     0.201 C 
ENDBRANCH  24  25
ENDBRANCH  23  24
ENDBRANCH  22  23
ENDBRANCH   3  22
TORSDOF 8
ENDMDL
MODEL 2
REMARK VINA RESULT:      -6.8      3.334      4.925
REMARK  8 active torsions:
REMARK  status: ('A' for Active; 'I' for Inactive)
REMARK    1  A    between atoms: C2_2  and  N3_3 
REMARK    2  A    between atoms: N3_3  and  C4_4 
REMARK    3  A    between atoms: N7_6  and  C8_7 
REMARK    4  A    between atoms: C8_7  and  C9_8 
REMARK    5  A    between atoms: C9_8  and  C10_9 
REMARK    6  A    between atoms: C10_9  and  O11_10 
REMARK    7  A    between atoms: C19_18  and  S20_19 
REMARK    8  A    between atoms: S20_19  and  N21_20 
ROOT
ATOM      1  C4  <0> d   1      19.425  -1.522  11.019  0.00  0.00     0.274 C 
ATOM      2  C6  <0> d   1      19.770  -0.457  12.048  0.00  0.00     0.176 C 
ATOM      3  N7  <0> d   1      18.719   0.578  12.096  0.00  0.00    -0.304 N 
ATOM      4  S13 <0> d   1      18.560   1.508  10.715  0.00  0.00     0.268 S 
ATOM      5  O14 <0> d   1      17.200   1.915  10.641  0.00  0.00    -0.200 OA
ATOM      6  O15 <0> d   1      19.656   2.412  10.694  0.00  0.00    -0.200 OA
ATOM      7  C16 <0> d   1      18.823   0.336   9.410  0.00  0.00     0.130 A 
ATOM      8  C17 <0> d   1      19.206  -0.937   9.636  0.00  0.00     0.009 A 
ATOM      9  C18 <0> d   1      19.369  -1.669   8.460  0.00  0.00     0.044 A 
ATOM     10  C19 <0> d   1      19.114  -1.019   7.328  0.00  0.00     0.121 A 
ATOM     11  S24 <0> d   1      18.639   0.633   7.693  0.00  0.00    -0.062 SA
ENDROOT
BRANCH  10  12
ATOM     12  S20 <0> d   1      19.236  -1.709   5.711  0.00  0.00     0.263 S 
ATOM     13  O22 <0> d   1      19.809  -0.703   4.889  0.00  0.00    -0.200 OA
ATOM     14  O23 <0> d   1      19.804  -3.002   5.869  0.00  0.00    -0.200 OA
BRANCH  12  15
ATOM     15  N21 <0> d   1      17.692  -1.941   5.160  0.00  0.00    -0.324 N 
ATOM     16  H43 <0> d   1      17.393  -1.495   4.352  0.00  0.00     0.169 HD
ATOM     17  H44 <0> d   1      17.086  -2.523   5.645  0.00  0.00     0.169 HD
ENDBRANCH  12  15
ENDBRANCH  10  12
BRANCH   1  18
ATOM     18  N3  <0> d   1      20.524  -2.494  10.955  0.00  0.00     0.093 N 
ATOM     19  H30 <0> d   1      21.383  -2.093  11.300  0.00  0.00     0.316 HD
BRANCH  18  20
ATOM     20  C2  <0> d   1      20.185  -3.721  11.689  0.00  0.00     0.266 C 
ATOM     21  C1  <0> d   1      18.725  -4.089  11.421  0.00  0.00     0.037 C 
ENDBRANCH  18  20
ENDBRANCH   1  18
BRANCH   3  22
ATOM     22  C8  <0> d   1      17.872   0.777  13.274  0.00  0.00     0.137 C 
BRANCH  22  23
ATOM     23  C9  <0> d   1      18.184  -0.301  14.315  0.00  0.00     0.047 C 
BRANCH  23  24
ATOM     24  C10 <0> d   1      18.445   0.359  15.670  0.00  0.00     0.168 C 
BRANCH  24  25
ATOM     25  O11 <0> d   1      18.815  -0.640  16.623  0.00  0.00    -0.396 OA
ATOM     26  C12 <0> d   1      19.188  -0.116  17.899  0.00  0.00     0.201 C 
ENDBRANCH  24  25
ENDBRANCH  23  24
ENDBRANCH  22  23
ENDBRANCH   3  22
TORSDOF 8
ENDMDL
MODEL 3
REMARK VINA RESULT:      -6.8      4.801      7.996
REMARK  8 active torsions:
REMARK  status: ('A' for Active; 'I' for Inactive)
REMARK    1  A    between atoms: C2_2  and  N3_3 
REMARK    2  A    between atoms: N3_3  and  C4_4 
REMARK    3  A    between atoms: N7_6  and  C8_7 
REMARK    4  A    between atoms: C8_7  and  C9_8 
REMARK    5  A    between atoms: C9_8  and  C10_9 
REMARK    6  A    between atoms: C10_9  and  O11_10 
REMARK    7  A    between atoms: C19_18  and  S20_19 
REMARK    8  A    between atoms: S20_19  and  N21_20 
ROOT
ATOM      1  C4  <0> d   1      18.265   0.845  13.115  0.00  0.00     0.274 C 
ATOM      2  C6  <0> d   1      17.598   1.588  11.968  0.00  0.00     0.176 C 
ATOM      3  N7  <0> d   1      18.341   2.822  11.647  0.00  0.00    -0.304 N 
ATOM      4  S13 <0> d   1      18.332   3.998  12.837  0.00  0.00     0.268 S 
ATOM      5  O14 <0> d   1      19.542   4.732  12.706  0.00  0.00    -0.200 OA
ATOM      6  O15 <0> d   1      17.042   4.594  12.824  0.00  0.00    -0.200 OA
ATOM      7  C16 <0> d   1      18.456   3.054  14.334  0.00  0.00     0.130 A 
ATOM      8  C17 <0> d   1      18.404   1.707  14.356  0.00  0.00     0.009 A 
ATOM      9  C18 <0> d   1      18.503   1.184  15.645  0.00  0.00     0.044 A 
ATOM     10  C19 <0> d   1      18.645   2.070  16.626  0.00  0.00     0.121 A 
ATOM     11  S24 <0> d   1      18.655   3.694  15.953  0.00  0.00    -0.062 SA
ENDROOT
BRANCH  10  12
ATOM     12  S20 <0> d   1      18.799   1.678  18.336  0.00  0.00     0.263 S 
ATOM     13  O22 <0> d   1      17.518   1.233  18.762  0.00  0.00    -0.200 OA
ATOM     14  O23 <0> d   1      19.976   0.892  18.463  0.00  0.00    -0.200 OA
BRANCH  12  15
ATOM     15  N21 <0> d   1      19.093   3.095  19.140  0.00  0.00    -0.324 N 
ATOM     16  H43 <0> d   1      18.892   3.166  20.086  0.00  0.00     0.169 HD
ATOM     17  H44 <0> d   1      19.466   3.853  18.664  0.00  0.00     0.169 HD
ENDBRANCH  12  15
ENDBRANCH  10  12
BRANCH   1  18
ATOM     18  N3  <0> d   1      17.460  -0.339  13.445  0.00  0.00     0.093 N 
ATOM     19  H30 <0> d   1      16.475  -0.148  13.342  0.00  0.00     0.316 HD
BRANCH  18  20
ATOM     20  C2  <0> d   1      17.861  -1.493  12.629  0.00  0.00     0.266 C 
ATOM     21  C1  <0> d   1      19.267  -1.939  13.033  0.00  0.00     0.037 C 
ENDBRANCH  18  20
ENDBRANCH   1  18
BRANCH   3  22
ATOM     22  C8  <0> d   1      19.039   3.005  10.373  0.00  0.00     0.137 C 
BRANCH  22  23
ATOM     23  C9  <0> d   1      18.440   2.065   9.324  0.00  0.00     0.047 C 
BRANCH  23  24
ATOM     24  C10 <0> d   1      19.536   1.622   8.352  0.00  0.00     0.168 C 
BRANCH  24  25
ATOM     25  O11 <0> d   1      19.559   0.195   8.278  0.00  0.00    -0.396 OA
ATOM     26  C12 <0> d   1      19.833  -0.447   9.525  0.00  0.00     0.201 C 
ENDBRANCH  24  25
ENDBRANCH  23  24
ENDBRANCH  22  23
ENDBRANCH   3  22
TORSDOF 8
ENDMDL
MODEL 4
REMARK VINA RESULT:      -6.8      4.102      7.810
REMARK  8 active torsions:
REMARK  status: ('A' for Active; 'I' for Inactive)
REMARK    1  A    between atoms: C2_2  and  N3_3 
REMARK    2  A    between atoms: N3_3  and  C4_4 
REMARK    3  A    between atoms: N7_6  and  C8_7 
REMARK    4  A    between atoms: C8_7  and  C9_8 
REMARK    5  A    between atoms: C9_8  and  C10_9 
REMARK    6  A    between atoms: C10_9  and  O11_10 
REMARK    7  A    between atoms: C19_18  and  S20_19 
REMARK    8  A    between atoms: S20_19  and  N21_20 
ROOT
ATOM      1  C4  <0> d   1      18.956   3.314  13.166  0.00  0.00     0.274 C 
ATOM      2  C6  <0> d   1      19.612   3.012  11.828  0.00  0.00     0.176 C 
ATOM      3  N7  <0> d   1      18.982   1.838  11.194  0.00  0.00    -0.304 N 
ATOM      4  S13 <0> d   1      19.200   0.384  11.993  0.00  0.00     0.268 S 
ATOM      5  O14 <0> d   1      18.068  -0.424  11.703  0.00  0.00    -0.200 OA
ATOM      6  O15 <0> d   1      20.541  -0.023  11.757  0.00  0.00    -0.200 OA
ATOM      7  C16 <0> d   1      19.086   0.845  13.702  0.00  0.00     0.130 A 
ATOM      8  C17 <0> d   1      18.998   2.127  14.110  0.00  0.00     0.009 A 
ATOM      9  C18 <0> d   1      18.939   2.249  15.497  0.00  0.00     0.044 A 
ATOM     10  C19 <0> d   1      18.961   1.112  16.186  0.00  0.00     0.121 A 
ATOM     11  S24 <0> d   1      19.074  -0.245  15.074  0.00  0.00    -0.062 SA
ENDROOT
BRANCH  10  12
ATOM     12  S20 <0> d   1      18.891   0.984  17.941  0.00  0.00     0.263 S 
ATOM     13  O22 <0> d   1      19.812   1.939  18.449  0.00  0.00    -0.200 OA
ATOM     14  O23 <0> d   1      17.513   0.972  18.288  0.00  0.00    -0.200 OA
BRANCH  12  15
ATOM     15  N21 <0> d   1      19.489  -0.505  18.349  0.00  0.00    -0.324 N 
ATOM     16  H43 <0> d   1      19.309  -0.876  19.226  0.00  0.00     0.169 HD
ATOM     17  H44 <0> d   1      20.020  -1.006  17.710  0.00  0.00     0.169 HD
ENDBRANCH  12  15
ENDBRANCH  10  12
BRANCH   1  18
ATOM     18  N3  <0> d   1      19.653   4.445  13.792  0.00  0.00     0.093 N 
ATOM     19  H30 <0> d   1      20.462   4.715  13.253  0.00  0.00     0.316 HD
BRANCH  18  20
ATOM     20  C2  <0> d   1      18.744   5.584  13.983  0.00  0.00     0.266 C 
ATOM     21  C1  <0> d   1      19.285   6.488  15.091  0.00  0.00     0.037 C 
ENDBRANCH  18  20
ENDBRANCH   1  18
BRANCH   3  22
ATOM     22  C8  <0> d   1      18.217   1.938   9.949  0.00  0.00     0.137 C 
BRANCH  22  23
ATOM     23  C9  <0> d   1      19.181   2.058   8.767  0.00  0.00     0.047 C 
BRANCH  23  24
ATOM     24  C10 <0> d   1      19.072   0.807   7.893  0.00  0.00     0.168 C 
BRANCH  24  25
ATOM     25  O11 <0> d   1      19.760  -0.276   8.523  0.00  0.00    -0.396 OA
ATOM     26  C12 <0> d   1      19.046  -1.513   8.495  0.00  0.00     0.201 C 
ENDBRANCH  24  25
ENDBRANCH  23  24
ENDBRANCH  22  23
ENDBRANCH   3  22
TORSDOF 8
ENDMDL
MODEL 5
REMARK VINA RESULT:      -6.7      3.238      4.600
REMARK  8 active torsions:
REMARK  status: ('A' for Active; 'I' for Inactive)
REMARK    1  A    between atoms: C2_2  and  N3_3 
REMARK    2  A    between atoms: N3_3  and  C4_4 
REMARK    3  A    between atoms: N7_6  and  C8_7 
REMARK    4  A    between atoms: C8_7  and  C9_8 
REMARK    5  A    between atoms: C9_8  and  C10_9 
REMARK    6  A    between atoms: C10_9  and  O11_10 
REMARK    7  A    between atoms: C19_18  and  S20_19 
REMARK    8  A    between atoms: S20_19  and  N21_20 
ROOT
ATOM      1  C4  <0> d   1      19.289   1.049  10.432  0.00  0.00     0.274 C 
ATOM      2  C6  <0> d   1      18.546   0.867  11.746  0.00  0.00     0.176 C 
ATOM      3  N7  <0> d   1      18.895  -0.426  12.365  0.00  0.00    -0.304 N 
ATOM      4  S13 <0> d   1      18.396  -1.784  11.525  0.00  0.00     0.268 S 
ATOM      5  O14 <0> d   1      19.323  -2.820  11.821  0.00  0.00    -0.200 OA
ATOM      6  O15 <0> d   1      16.993  -1.901  11.720  0.00  0.00    -0.200 OA
ATOM      7  C16 <0> d   1      18.653  -1.325   9.832  0.00  0.00     0.130 A 
ATOM      8  C17 <0> d   1      19.022  -0.083   9.458  0.00  0.00     0.009 A 
ATOM      9  C18 <0> d   1      19.145   0.051   8.076  0.00  0.00     0.044 A 
ATOM     10  C19 <0> d   1      18.901  -1.043   7.359  0.00  0.00     0.121 A 
ATOM     11  S24 <0> d   1      18.473  -2.366   8.434  0.00  0.00    -0.062 SA
ENDROOT
BRANCH  10  12
ATOM     12  S20 <0> d   1      18.991  -1.148   5.603  0.00  0.00     0.263 S 
ATOM     13  O22 <0> d   1      19.373   0.141   5.143  0.00  0.00    -0.200 OA
ATOM     14  O23 <0> d   1      19.727  -2.328   5.309  0.00  0.00    -0.200 OA
BRANCH  12  15
ATOM     15  N21 <0> d   1      17.453  -1.406   5.047  0.00  0.00    -0.324 N 
ATOM     16  H43 <0> d   1      17.305  -1.628   4.115  0.00  0.00     0.169 HD
ATOM     17  H44 <0> d   1      16.700  -1.334   5.655  0.00  0.00     0.169 HD
ENDBRANCH  12  15
ENDBRANCH  10  12
BRANCH   1  18
ATOM     18  N3  <0> d   1      18.864   2.315   9.818  0.00  0.00     0.093 N 
ATOM     19  H30 <0> d   1      18.608   2.180   8.851  0.00  0.00     0.316 HD
BRANCH  18  20
ATOM     20  C2  <0> d   1      17.763   2.924  10.575  0.00  0.00     0.266 C 
ATOM     21  C1  <0> d   1      17.678   4.414  10.242  0.00  0.00     0.037 C 
ENDBRANCH  18  20
ENDBRANCH   1  18
BRANCH   3  22
ATOM     22  C8  <0> d   1      19.629  -0.514  13.629  0.00  0.00     0.137 C 
BRANCH  22  23
ATOM     23  C9  <0> d   1      18.684  -0.989  14.735  0.00  0.00     0.047 C 
BRANCH  23  24
ATOM     24  C10 <0> d   1      18.723   0.003  15.899  0.00  0.00     0.168 C 
BRANCH  24  25
ATOM     25  O11 <0> d   1      19.114  -0.678  17.093  0.00  0.00    -0.396 OA
ATOM     26  C12 <0> d   1      19.329   0.185  18.211  0.00  0.00     0.201 C 
ENDBRANCH  24  25
ENDBRANCH  23  24
ENDBRANCH  22  23
ENDBRANCH   3  22
TORSDOF 8
ENDMDL
MODEL 6
REMARK VINA RESULT:      -6.7      4.034      6.842
REMARK  8 active torsions:
REMARK  status: ('A' for Active; 'I' for Inactive)
REMARK    1  A    between atoms: C2_2  and  N3_3 
REMARK    2  A    between atoms: N3_3  and  C4_4 
REMARK    3  A    between atoms: N7_6  and  C8_7 
REMARK    4  A    between atoms: C8_7  and  C9_8 
REMARK    5  A    between atoms: C9_8  and  C10_9 
REMARK    6  A    between atoms: C10_9  and  O11_10 
REMARK    7  A    between atoms: C19_18  and  S20_19 
REMARK    8  A    between atoms: S20_19  and  N21_20 
ROOT
ATOM      1  C4  <0> d   1      18.381  -1.429  11.645  0.00  0.00     0.274 C 
ATOM      2  C6  <0> d   1      17.953  -0.738  10.360  0.00  0.00     0.176 C 
ATOM      3  N7  <0> d   1      18.736   0.494  10.148  0.00  0.00    -0.304 N 
ATOM      4  S13 <0> d   1      18.481   1.712  11.265  0.00  0.00     0.268 S 
ATOM      5  O14 <0> d   1      19.687   2.459  11.351  0.00  0.00    -0.200 OA
ATOM      6  O15 <0> d   1      17.216   2.289  10.970  0.00  0.00    -0.200 OA
ATOM      7  C16 <0> d   1      18.308   0.826  12.792  0.00  0.00     0.130 A 
ATOM      8  C17 <0> d   1      18.262  -0.520  12.855  0.00  0.00     0.009 A 
ATOM      9  C18 <0> d   1      18.103  -0.995  14.157  0.00  0.00     0.044 A 
ATOM     10  C19 <0> d   1      18.040  -0.071  15.111  0.00  0.00     0.121 A 
ATOM     11  S24 <0> d   1      18.173   1.527  14.392  0.00  0.00    -0.062 SA
ENDROOT
BRANCH  10  12
ATOM     12  S20 <0> d   1      17.849  -0.398  16.832  0.00  0.00     0.263 S 
ATOM     13  O22 <0> d   1      16.822  -1.373  16.942  0.00  0.00    -0.200 OA
ATOM     14  O23 <0> d   1      19.159  -0.587  17.351  0.00  0.00    -0.200 OA
BRANCH  12  15
ATOM     15  N21 <0> d   1      17.262   0.982  17.532  0.00  0.00    -0.324 N 
ATOM     16  H43 <0> d   1      17.442   1.845  17.128  0.00  0.00     0.169 HD
ATOM     17  H44 <0> d   1      16.737   0.927  18.346  0.00  0.00     0.169 HD
ENDBRANCH  12  15
ENDBRANCH  10  12
BRANCH   1  18
ATOM     18  N3  <0> d   1      17.535  -2.611  11.854  0.00  0.00     0.093 N 
ATOM     19  H30 <0> d   1      16.761  -2.622  11.206  0.00  0.00     0.316 HD
BRANCH  18  20
ATOM     20  C2  <0> d   1      18.322  -3.847  11.751  0.00  0.00     0.266 C 
ATOM     21  C1  <0> d   1      17.401  -5.055  11.922  0.00  0.00     0.037 C 
ENDBRANCH  18  20
ENDBRANCH   1  18
BRANCH   3  22
ATOM     22  C8  <0> d   1      19.675   0.641   9.033  0.00  0.00     0.137 C 
BRANCH  22  23
ATOM     23  C9  <0> d   1      19.058   1.544   7.963  0.00  0.00     0.047 C 
BRANCH  23  24
ATOM     24  C10 <0> d   1      18.521   0.683   6.818  0.00  0.00     0.168 C 
BRANCH  24  25
ATOM     25  O11 <0> d   1      19.349   0.852   5.665  0.00  0.00    -0.396 OA
ATOM     26  C12 <0> d   1      19.098  -0.095   4.625  0.00  0.00     0.201 C 
ENDBRANCH  24  25
ENDBRANCH  23  24
ENDBRANCH  22  23
ENDBRANCH   3  22
TORSDOF 8
ENDMDL
MODEL 7
REMARK VINA RESULT:      -6.5      3.728      7.276
REMARK  8 active torsions:
REMARK  status: ('A' for Active; 'I' for Inactive)
REMARK    1  A    between atoms: C2_2  and  N3_3 
REMARK    2  A    between atoms: N3_3  and  C4_4 
REMARK    3  A    between atoms: N7_6  and  C8_7 
REMARK    4  A    between atoms: C8_7  and  C9_8 
REMARK    5  A    between atoms: C9_8  and  C10_9 
REMARK    6  A    between atoms: C10_9  and  O11_10 
REMARK    7  A    between atoms: C19_18  and  S20_19 
REMARK    8  A    between atoms: S20_19  and  N21_20 
ROOT
ATOM      1  C4  <0> d   1      18.979   2.017  12.335  0.00  0.00     0.274 C 
ATOM      2  C6  <0> d   1      19.392   1.269  11.077  0.00  0.00     0.176 C 
ATOM      3  N7  <0> d   1      18.440   0.181  10.785  0.00  0.00    -0.304 N 
ATOM      4  S13 <0> d   1      18.406  -1.065  11.901  0.00  0.00     0.268 S 
ATOM      5  O14 <0> d   1      17.092  -1.607  11.880  0.00  0.00    -0.200 OA
ATOM      6  O15 <0> d   1      19.581  -1.838  11.697  0.00  0.00    -0.200 OA
ATOM      7  C16 <0> d   1      18.596  -0.222  13.449  0.00  0.00     0.130 A 
ATOM      8  C17 <0> d   1      18.853   1.099  13.537  0.00  0.00     0.009 A 
ATOM      9  C18 <0> d   1      18.981   1.538  14.854  0.00  0.00     0.044 A 
ATOM     10  C19 <0> d   1      18.818   0.614  15.796  0.00  0.00     0.121 A 
ATOM     11  S24 <0> d   1      18.487  -0.940  15.044  0.00  0.00    -0.062 SA
ENDROOT
BRANCH  10  12
ATOM     12  S20 <0> d   1      18.920   0.902  17.531  0.00  0.00     0.263 S 
ATOM     13  O22 <0> d   1      19.308  -0.331  18.120  0.00  0.00    -0.200 OA
ATOM     14  O23 <0> d   1      19.657   2.107  17.694  0.00  0.00    -0.200 OA
BRANCH  12  15
ATOM     15  N21 <0> d   1      17.385   1.215  18.068  0.00  0.00    -0.324 N 
ATOM     16  H43 <0> d   1      16.674   1.383  17.430  0.00  0.00     0.169 HD
ATOM     17  H44 <0> d   1      17.199   1.232  19.020  0.00  0.00     0.169 HD
ENDBRANCH  12  15
ENDBRANCH  10  12
BRANCH   1  18
ATOM     18  N3  <0> d   1      19.985   3.047  12.628  0.00  0.00     0.093 N 
ATOM     19  H30 <0> d   1      20.869   2.822  12.196  0.00  0.00     0.316 HD
BRANCH  18  20
ATOM     20  C2  <0> d   1      19.517   4.375  12.208  0.00  0.00     0.266 C 
ATOM     21  C1  <0> d   1      18.016   4.494  12.474  0.00  0.00     0.037 C 
ENDBRANCH  18  20
ENDBRANCH   1  18
BRANCH   3  22
ATOM     22  C8  <0> d   1      17.582   0.191   9.597  0.00  0.00     0.137 C 
BRANCH  22  23
ATOM     23  C9  <0> d   1      18.294   0.929   8.461  0.00  0.00     0.047 C 
BRANCH  23  24
ATOM     24  C10 <0> d   1      18.585  -0.050   7.322  0.00  0.00     0.168 C 
BRANCH  24  25
ATOM     25  O11 <0> d   1      18.824   0.680   6.117  0.00  0.00    -0.396 OA
ATOM     26  C12 <0> d   1      19.320  -0.120   5.042  0.00  0.00     0.201 C 
ENDBRANCH  24  25
ENDBRANCH  23  24
ENDBRANCH  22  23
ENDBRANCH   3  22
TORSDOF 8
ENDMDL
MODEL 8
REMARK VINA RESULT:      -6.3      1.745      1.934
REMARK  8 active torsions:
REMARK  status: ('A' for Active; 'I' for Inactive)
REMARK    1  A    between atoms: C2_2  and  N3_3 
REMARK    2  A    between atoms: N3_3  and  C4_4 
REMARK    3  A    between atoms: N7_6  and  C8_7 
REMARK    4  A    between atoms: C8_7  and  C9_8 
REMARK    5  A    between atoms: C9_8  and  C10_9 
REMARK    6  A    between atoms: C10_9  and  O11_10 
REMARK    7  A    between atoms: C19_18  and  S20_19 
REMARK    8  A    between atoms: S20_19  and  N21_20 
ROOT
ATOM      1  C4  <0> d   1      18.326  -0.806   8.305  0.00  0.00     0.274 C 
ATOM      2  C6  <0> d   1      17.655   0.485   8.749  0.00  0.00     0.176 C 
ATOM      3  N7  <0> d   1      18.052   0.828  10.128  0.00  0.00    -0.304 N 
ATOM      4  S13 <0> d   1      17.526  -0.230  11.313  0.00  0.00     0.268 S 
ATOM      5  O14 <0> d   1      18.480  -0.182  12.366  0.00  0.00    -0.200 OA
ATOM      6  O15 <0> d   1      16.137   0.007  11.496  0.00  0.00    -0.200 OA
ATOM      7  C16 <0> d   1      17.689  -1.815  10.536  0.00  0.00     0.130 A 
ATOM      8  C17 <0> d   1      18.023  -1.963   9.238  0.00  0.00     0.009 A 
ATOM      9  C18 <0> d   1      18.071  -3.299   8.842  0.00  0.00     0.044 A 
ATOM     10  C19 <0> d   1      17.804  -4.198   9.785  0.00  0.00     0.121 A 
ATOM     11  S24 <0> d   1      17.449  -3.375  11.297  0.00  0.00    -0.062 SA
ENDROOT
BRANCH  10  12
ATOM     12  S20 <0> d   1      17.803  -5.945   9.553  0.00  0.00     0.263 S 
ATOM     13  O22 <0> d   1      19.093  -6.284   9.062  0.00  0.00    -0.200 OA
ATOM     14  O23 <0> d   1      17.249  -6.506  10.735  0.00  0.00    -0.200 OA
BRANCH  12  15
ATOM     15  N21 <0> d   1      16.735  -6.277   8.332  0.00  0.00    -0.324 N 
ATOM     16  H43 <0> d   1      15.969  -5.702   8.189  0.00  0.00     0.169 HD
ATOM     17  H44 <0> d   1      16.877  -7.048   7.761  0.00  0.00     0.169 HD
ENDBRANCH  12  15
ENDBRANCH  10  12
BRANCH   1  18
ATOM     18  N3  <0> d   1      17.855  -1.146   6.956  0.00  0.00     0.093 N 
ATOM     19  H30 <0> d   1      17.134  -0.509   6.652  0.00  0.00     0.316 HD
BRANCH  18  20
ATOM     20  C2  <0> d   1      18.970  -1.172   6.000  0.00  0.00     0.266 C 
ATOM     21  C1  <0> d   1      18.996   0.137   5.210  0.00  0.00     0.037 C 
ENDBRANCH  18  20
ENDBRANCH   1  18
BRANCH   3  22
ATOM     22  C8  <0> d   1      18.852   2.015  10.438  0.00  0.00     0.137 C 
BRANCH  22  23
ATOM     23  C9  <0> d   1      18.023   2.980  11.289  0.00  0.00     0.047 C 
BRANCH  23  24
ATOM     24  C10 <0> d   1      17.515   4.125  10.410  0.00  0.00     0.168 C 
BRANCH  24  25
ATOM     25  O11 <0> d   1      16.337   4.686  10.992  0.00  0.00    -0.396 OA
ATOM     26  C12 <0> d   1      16.538   5.234  12.296  0.00  0.00     0.201 C 
ENDBRANCH  24  25
ENDBRANCH  23  24
ENDBRANCH  22  23
ENDBRANCH   3  22
TORSDOF 8
ENDMDL
MODEL 9
REMARK VINA RESULT:      -6.1      3.804      5.319
REMARK  8 active torsions:
REMARK  status: ('A' for Active; 'I' for Inactive)
REMARK    1  A    between atoms: C2_2  and  N3_3 
REMARK    2  A    between atoms: N3_3  and  C4_4 
REMARK    3  A    between atoms: N7_6  and  C8_7 
REMARK    4  A    between atoms: C8_7  and  C9_8 
REMARK    5  A    between atoms: C9_8  and  C10_9 
REMARK    6  A    between atoms: C10_9  and  O11_10 
REMARK    7  A    between atoms: C19_18  and  S20_19 
REMARK    8  A    between atoms: S20_19  and  N21_20 
ROOT
ATOM      1  C4  <0> d   1      17.522  -1.615  11.458  0.00  0.00     0.274 C 
ATOM      2  C6  <0> d   1      18.314  -1.547  12.755  0.00  0.00     0.176 C 
ATOM      3  N7  <0> d   1      18.385  -0.158  13.247  0.00  0.00    -0.304 N 
ATOM      4  S13 <0> d   1      19.253   0.902  12.287  0.00  0.00     0.268 S 
ATOM      5  O14 <0> d   1      18.689   2.193  12.477  0.00  0.00    -0.200 OA
ATOM      6  O15 <0> d   1      20.630   0.607  12.479  0.00  0.00    -0.200 OA
ATOM      7  C16 <0> d   1      18.833   0.390  10.642  0.00  0.00     0.130 A 
ATOM      8  C17 <0> d   1      18.098  -0.711  10.384  0.00  0.00     0.009 A 
ATOM      9  C18 <0> d   1      17.910  -0.927   9.019  0.00  0.00     0.044 A 
ATOM     10  C19 <0> d   1      18.458  -0.029   8.205  0.00  0.00     0.121 A 
ATOM     11  S24 <0> d   1      19.289   1.194   9.154  0.00  0.00    -0.062 SA
ENDROOT
BRANCH  10  12
ATOM     12  S20 <0> d   1      18.365  -0.063   6.446  0.00  0.00     0.263 S 
ATOM     13  O22 <0> d   1      16.993  -0.230   6.120  0.00  0.00    -0.200 OA
ATOM     14  O23 <0> d   1      19.148   1.029   5.982  0.00  0.00    -0.200 OA
BRANCH  12  15
ATOM     15  N21 <0> d   1      19.137  -1.439   5.941  0.00  0.00    -0.324 N 
ATOM     16  H43 <0> d   1      18.740  -1.991   5.250  0.00  0.00     0.169 HD
ATOM     17  H44 <0> d   1      19.986  -1.691   6.336  0.00  0.00     0.169 HD
ENDBRANCH  12  15
ENDBRANCH  10  12
BRANCH   1  18
ATOM     18  N3  <0> d   1      17.531  -3.000  10.968  0.00  0.00     0.093 N 
ATOM     19  H30 <0> d   1      17.770  -3.037   9.989  0.00  0.00     0.316 HD
BRANCH  18  20
ATOM     20  C2  <0> d   1      18.442  -3.834  11.764  0.00  0.00     0.266 C 
ATOM     21  C1  <0> d   1      19.400  -4.576  10.831  0.00  0.00     0.037 C 
ENDBRANCH  18  20
ENDBRANCH   1  18
BRANCH   3  22
ATOM     22  C8  <0> d   1      17.740   0.264  14.492  0.00  0.00     0.137 C 
BRANCH  22  23
ATOM     23  C9  <0> d   1      18.779   0.313  15.614  0.00  0.00     0.047 C 
BRANCH  23  24
ATOM     24  C10 <0> d   1      18.870  -1.060  16.284  0.00  0.00     0.168 C 
BRANCH  24  25
ATOM     25  O11 <0> d   1      19.200  -0.895  17.664  0.00  0.00    -0.396 OA
ATOM     26  C12 <0> d   1      19.345   0.468  18.069  0.00  0.00     0.201 C 
ENDBRANCH  24  25
ENDBRANCH  23  24
ENDBRANCH  22  23
ENDBRANCH   3  22
TORSDOF 8
ENDMDL
