MODEL 1
REMARK VINA RESULT:      -5.7      0.000      0.000
REMARK  1 active torsions:
REMARK  status: ('A' for Active; 'I' for Inactive)
REMARK    1  A    between atoms: C6_6  and  C7_7 
REMARK       I    between atoms: C7_7  and  N8_8 
ROOT
ATOM      1  C1  <0> d   1      16.715   5.384  13.394  0.00  0.00     0.187 C 
ATOM      2  N2  <0> d   1      17.471   4.253  12.852  0.00  0.00    -0.205 N 
ATOM      3  N3  <0> d   1      18.380   3.560  13.664  0.00  0.00    -0.060 NA
ATOM      4  N4  <0> d   1      19.048   2.564  13.191  0.00  0.00    -0.110 NA
ATOM      5  C5  <0> d   1      18.885   2.172  11.914  0.00  0.00     0.197 A 
ATOM      6  C6  <0> d   1      19.451   1.160  11.146  0.00  0.00     0.173 A 
ATOM      7  N10 <0> d   1      18.905   1.238   9.913  0.00  0.00    -0.234 NA
ATOM      8  C11 <0> d   1      18.051   2.219   9.873  0.00  0.00     0.222 A 
ATOM      9  N12 <0> d   1      18.002   2.830  11.090  0.00  0.00    -0.237 N 
ATOM     10  C13 <0> d   1      17.292   3.870  11.569  0.00  0.00     0.352 A 
ATOM     11  O14 <0> d   1      16.503   4.457  10.856  0.00  0.00    -0.244 OA
ENDROOT
BRANCH   6  12
ATOM     12  C7  <0> d   1      20.456   0.187  11.594  0.00  0.00     0.272 C 
ATOM     13  N8  <0> d   1      21.590   0.614  12.185  0.00  0.00    -0.365 N 
ATOM     14  H18 <0> d   1      21.742   1.563  12.315  0.00  0.00     0.159 HD
ATOM     15  H19 <0> d   1      22.253  -0.029  12.481  0.00  0.00     0.159 HD
ATOM     16  O9  <0> d   1      20.265  -1.003  11.432  0.00  0.00    -0.266 OA
ENDBRANCH   6  12
TORSDOF 1
ENDMDL
MODEL 2
REMARK VINA RESULT:      -5.7      4.420      6.213
REMARK  1 active torsions:
REMARK  status: ('A' for Active; 'I' for Inactive)
REMARK    1  A    between atoms: C6_6  and  C7_7 
REMARK       I    between atoms: C7_7  and  N8_8 
ROOT
ATOM      1  C1  <0> d   1      19.278  -0.492  18.218  0.00  0.00     0.187 C 
ATOM      2  N2  <0> d   1      19.297   0.829  17.584  0.00  0.00    -0.205 N 
ATOM      3  N3  <0> d   1      19.609   1.968  18.340  0.00  0.00    -0.060 NA
ATOM      4  N4  <0> d   1      19.626   3.132  17.787  0.00  0.00    -0.110 NA
ATOM      5  C5  <0> d   1      19.347   3.274  16.478  0.00  0.00     0.197 A 
ATOM      6  C6  <0> d   1      19.290   4.374  15.629  0.00  0.00     0.173 A 
ATOM      7  N10 <0> d   1      18.956   3.917  14.403  0.00  0.00    -0.234 NA
ATOM      8  C11 <0> d   1      18.806   2.626  14.442  0.00  0.00     0.222 A 
ATOM      9  N12 <0> d   1      19.038   2.179  15.708  0.00  0.00    -0.237 N 
ATOM     10  C13 <0> d   1      19.020   0.954  16.269  0.00  0.00     0.352 A 
ATOM     11  O14 <0> d   1      18.755  -0.026  15.599  0.00  0.00    -0.244 OA
ENDROOT
BRANCH   6  12
ATOM     12  C7  <0> d   1      19.547   5.773  15.997  0.00  0.00     0.272 C 
ATOM     13  N8  <0> d   1      19.070   6.261  17.159  0.00  0.00    -0.365 N 
ATOM     14  H18 <0> d   1      18.558   5.688  17.753  0.00  0.00     0.159 HD
ATOM     15  H19 <0> d   1      19.240   7.184  17.403  0.00  0.00     0.159 HD
ATOM     16  O9  <0> d   1      20.189   6.490  15.254  0.00  0.00    -0.266 OA
ENDBRANCH   6  12
TORSDOF 1
ENDMDL
MODEL 3
REMARK VINA RESULT:      -5.7      3.848      5.335
REMARK  1 active torsions:
REMARK  status: ('A' for Active; 'I' for Inactive)
REMARK    1  A    between atoms: C6_6  and  C7_7 
REMARK       I    between atoms: C7_7  and  N8_8 
ROOT
ATOM      1  C1  <0> d   1      18.351   2.336  10.948  0.00  0.00     0.187 C 
ATOM      2  N2  <0> d   1      18.526   1.519   9.744  0.00  0.00    -0.205 N 
ATOM      3  N3  <0> d   1      19.049   2.091   8.576  0.00  0.00    -0.060 NA
ATOM      4  N4  <0> d   1      19.204   1.376   7.514  0.00  0.00    -0.110 NA
ATOM      5  C5  <0> d   1      18.869   0.073   7.509  0.00  0.00     0.197 A 
ATOM      6  C6  <0> d   1      18.923  -0.923   6.539  0.00  0.00     0.173 A 
ATOM      7  N10 <0> d   1      18.450  -2.056   7.101  0.00  0.00    -0.234 NA
ATOM      8  C11 <0> d   1      18.113  -1.826   8.336  0.00  0.00     0.222 A 
ATOM      9  N12 <0> d   1      18.354  -0.519   8.638  0.00  0.00    -0.237 N 
ATOM     10  C13 <0> d   1      18.190   0.211   9.758  0.00  0.00     0.352 A 
ATOM     11  O14 <0> d   1      17.743  -0.299  10.766  0.00  0.00    -0.244 OA
ENDROOT
BRANCH   6  12
ATOM     12  C7  <0> d   1      19.405  -0.769   5.160  0.00  0.00     0.272 C 
ATOM     13  N8  <0> d   1      19.514   0.460   4.618  0.00  0.00    -0.365 N 
ATOM     14  H18 <0> d   1      19.273   1.243   5.138  0.00  0.00     0.159 HD
ATOM     15  H19 <0> d   1      19.832   0.562   3.708  0.00  0.00     0.159 HD
ATOM     16  O9  <0> d   1      19.707  -1.750   4.508  0.00  0.00    -0.266 OA
ENDBRANCH   6  12
TORSDOF 1
ENDMDL
MODEL 4
REMARK VINA RESULT:      -5.6      6.412      7.373
REMARK  1 active torsions:
REMARK  status: ('A' for Active; 'I' for Inactive)
REMARK    1  A    between atoms: C6_6  and  C7_7 
REMARK       I    between atoms: C7_7  and  N8_8 
ROOT
ATOM      1  C1  <0> d   1      18.431   0.213   5.108  0.00  0.00     0.187 C 
ATOM      2  N2  <0> d   1      18.729  -0.992   5.886  0.00  0.00    -0.205 N 
ATOM      3  N3  <0> d   1      19.646  -1.934   5.399  0.00  0.00    -0.060 NA
ATOM      4  N4  <0> d   1      19.911  -2.997   6.079  0.00  0.00    -0.110 NA
ATOM      5  C5  <0> d   1      19.316  -3.219   7.265  0.00  0.00     0.197 A 
ATOM      6  C6  <0> d   1      19.402  -4.247   8.198  0.00  0.00     0.173 A 
ATOM      7  N10 <0> d   1      18.567  -3.938   9.214  0.00  0.00    -0.234 NA
ATOM      8  C11 <0> d   1      17.981  -2.803   8.969  0.00  0.00     0.222 A 
ATOM      9  N12 <0> d   1      18.412  -2.316   7.772  0.00  0.00    -0.237 N 
ATOM     10  C13 <0> d   1      18.126  -1.198   7.076  0.00  0.00     0.352 A 
ATOM     11  O14 <0> d   1      17.335  -0.386   7.514  0.00  0.00    -0.244 OA
ENDROOT
BRANCH   6  12
ATOM     12  C7  <0> d   1      20.245  -5.446   8.098  0.00  0.00     0.272 C 
ATOM     13  N8  <0> d   1      21.390  -5.405   7.389  0.00  0.00    -0.365 N 
ATOM     14  H18 <0> d   1      21.658  -4.585   6.945  0.00  0.00     0.159 HD
ATOM     15  H19 <0> d   1      21.947  -6.197   7.323  0.00  0.00     0.159 HD
ATOM     16  O9  <0> d   1      19.910  -6.474   8.655  0.00  0.00    -0.266 OA
ENDBRANCH   6  12
TORSDOF 1
ENDMDL
MODEL 5
REMARK VINA RESULT:      -5.6      2.969      4.965
REMARK  1 active torsions:
REMARK  status: ('A' for Active; 'I' for Inactive)
REMARK    1  A    between atoms: C6_6  and  C7_7 
REMARK       I    between atoms: C7_7  and  N8_8 
ROOT
ATOM      1  C1  <0> d   1      18.820  -1.550   6.042  0.00  0.00     0.187 C 
ATOM      2  N2  <0> d   1      19.078  -0.833   7.293  0.00  0.00    -0.205 N 
ATOM      3  N3  <0> d   1      19.590  -1.518   8.404  0.00  0.00    -0.060 NA
ATOM      4  N4  <0> d   1      19.818  -0.892   9.507  0.00  0.00    -0.110 NA
ATOM      5  C5  <0> d   1      19.570   0.426   9.612  0.00  0.00     0.197 A 
ATOM      6  C6  <0> d   1      19.713   1.345  10.647  0.00  0.00     0.173 A 
ATOM      7  N10 <0> d   1      19.302   2.543  10.179  0.00  0.00    -0.234 NA
ATOM      8  C11 <0> d   1      18.920   2.424   8.941  0.00  0.00     0.222 A 
ATOM      9  N12 <0> d   1      19.068   1.129   8.543  0.00  0.00    -0.237 N 
ATOM     10  C13 <0> d   1      18.828   0.491   7.380  0.00  0.00     0.352 A 
ATOM     11  O14 <0> d   1      18.390   1.100   6.424  0.00  0.00    -0.244 OA
ENDROOT
BRANCH   6  12
ATOM     12  C7  <0> d   1      20.218   1.063  11.997  0.00  0.00     0.272 C 
ATOM     13  N8  <0> d   1      21.457   0.559  12.161  0.00  0.00    -0.365 N 
ATOM     14  H18 <0> d   1      22.015   0.381  11.387  0.00  0.00     0.159 HD
ATOM     15  H19 <0> d   1      21.791   0.373  13.052  0.00  0.00     0.159 HD
ATOM     16  O9  <0> d   1      19.519   1.286  12.967  0.00  0.00    -0.266 OA
ENDBRANCH   6  12
TORSDOF 1
ENDMDL
MODEL 6
REMARK VINA RESULT:      -5.6      4.339      5.390
REMARK  1 active torsions:
REMARK  status: ('A' for Active; 'I' for Inactive)
REMARK    1  A    between atoms: C6_6  and  C7_7 
REMARK       I    between atoms: C7_7  and  N8_8 
ROOT
ATOM      1  C1  <0> d   1      17.578  -1.048  11.873  0.00  0.00     0.187 C 
ATOM      2  N2  <0> d   1      17.956  -0.466  13.163  0.00  0.00    -0.205 N 
ATOM      3  N3  <0> d   1      18.367  -1.295  14.216  0.00  0.00    -0.060 NA
ATOM      4  N4  <0> d   1      18.700  -0.787  15.353  0.00  0.00    -0.110 NA
ATOM      5  C5  <0> d   1      18.660   0.544  15.549  0.00  0.00     0.197 A 
ATOM      6  C6  <0> d   1      18.953   1.358  16.638  0.00  0.00     0.173 A 
ATOM      7  N10 <0> d   1      18.728   2.634  16.257  0.00  0.00    -0.234 NA
ATOM      8  C11 <0> d   1      18.320   2.658  15.022  0.00  0.00     0.222 A 
ATOM      9  N12 <0> d   1      18.261   1.386  14.538  0.00  0.00    -0.237 N 
ATOM     10  C13 <0> d   1      17.914   0.872  13.341  0.00  0.00     0.352 A 
ATOM     11  O14 <0> d   1      17.566   1.604  12.435  0.00  0.00    -0.244 OA
ENDROOT
BRANCH   6  12
ATOM     12  C7  <0> d   1      19.422   0.912  17.956  0.00  0.00     0.272 C 
ATOM     13  N8  <0> d   1      19.487  -0.404  18.238  0.00  0.00    -0.365 N 
ATOM     14  H18 <0> d   1      19.223  -1.057  17.570  0.00  0.00     0.159 HD
ATOM     15  H19 <0> d   1      19.797  -0.699  19.108  0.00  0.00     0.159 HD
ATOM     16  O9  <0> d   1      19.753   1.730  18.794  0.00  0.00    -0.266 OA
ENDBRANCH   6  12
TORSDOF 1
ENDMDL
MODEL 7
REMARK VINA RESULT:      -5.5      3.561      5.201
REMARK  1 active torsions:
REMARK  status: ('A' for Active; 'I' for Inactive)
REMARK    1  A    between atoms: C6_6  and  C7_7 
REMARK       I    between atoms: C7_7  and  N8_8 
ROOT
ATOM      1  C1  <0> d   1      18.530   0.333   5.553  0.00  0.00     0.187 C 
ATOM      2  N2  <0> d   1      18.886   0.203   6.969  0.00  0.00    -0.205 N 
ATOM      3  N3  <0> d   1      19.311   1.325   7.693  0.00  0.00    -0.060 NA
ATOM      4  N4  <0> d   1      19.626   1.215   8.938  0.00  0.00    -0.110 NA
ATOM      5  C5  <0> d   1      19.552   0.026   9.563  0.00  0.00     0.197 A 
ATOM      6  C6  <0> d   1      19.819  -0.387  10.864  0.00  0.00     0.173 A 
ATOM      7  N10 <0> d   1      19.564  -1.712  10.925  0.00  0.00    -0.234 NA
ATOM      8  C11 <0> d   1      19.164  -2.135   9.762  0.00  0.00     0.222 A 
ATOM      9  N12 <0> d   1      19.138  -1.094   8.883  0.00  0.00    -0.237 N 
ATOM     10  C13 <0> d   1      18.801  -0.997   7.582  0.00  0.00     0.352 A 
ATOM     11  O14 <0> d   1      18.427  -1.977   6.968  0.00  0.00    -0.244 OA
ENDROOT
BRANCH   6  12
ATOM     12  C7  <0> d   1      20.290   0.461  11.967  0.00  0.00     0.272 C 
ATOM     13  N8  <0> d   1      21.611   0.634  12.166  0.00  0.00    -0.365 N 
ATOM     14  H18 <0> d   1      22.252   0.197  11.582  0.00  0.00     0.159 HD
ATOM     15  H19 <0> d   1      21.923   1.194  12.894  0.00  0.00     0.159 HD
ATOM     16  O9  <0> d   1      19.488   1.009  12.699  0.00  0.00    -0.266 OA
ENDBRANCH   6  12
TORSDOF 1
ENDMDL
MODEL 8
REMARK VINA RESULT:      -5.5      3.936      5.572
REMARK  1 active torsions:
REMARK  status: ('A' for Active; 'I' for Inactive)
REMARK    1  A    between atoms: C6_6  and  C7_7 
REMARK       I    between atoms: C7_7  and  N8_8 
ROOT
ATOM      1  C1  <0> d   1      18.464  -1.972   6.752  0.00  0.00     0.187 C 
ATOM      2  N2  <0> d   1      18.804  -1.637   8.137  0.00  0.00    -0.205 N 
ATOM      3  N3  <0> d   1      19.603  -0.520   8.414  0.00  0.00    -0.060 NA
ATOM      4  N4  <0> d   1      19.906  -0.221   9.631  0.00  0.00    -0.110 NA
ATOM      5  C5  <0> d   1      19.460  -0.974  10.654  0.00  0.00     0.197 A 
ATOM      6  C6  <0> d   1      19.618  -0.900  12.034  0.00  0.00     0.173 A 
ATOM      7  N10 <0> d   1      18.939  -1.935  12.572  0.00  0.00    -0.234 NA
ATOM      8  C11 <0> d   1      18.381  -2.632  11.626  0.00  0.00     0.222 A 
ATOM      9  N12 <0> d   1      18.674  -2.077  10.417  0.00  0.00    -0.237 N 
ATOM     10  C13 <0> d   1      18.344  -2.400   9.151  0.00  0.00     0.352 A 
ATOM     11  O14 <0> d   1      17.644  -3.368   8.926  0.00  0.00    -0.244 OA
ENDROOT
BRANCH   6  12
ATOM     12  C7  <0> d   1      20.382   0.117  12.768  0.00  0.00     0.272 C 
ATOM     13  N8  <0> d   1      21.506   0.633  12.232  0.00  0.00    -0.365 N 
ATOM     14  H18 <0> d   1      21.810   0.333  11.360  0.00  0.00     0.159 HD
ATOM     15  H19 <0> d   1      22.010   1.305  12.716  0.00  0.00     0.159 HD
ATOM     16  O9  <0> d   1      20.001   0.494  13.860  0.00  0.00    -0.266 OA
ENDBRANCH   6  12
TORSDOF 1
ENDMDL
MODEL 9
REMARK VINA RESULT:      -5.4      6.399      7.511
REMARK  1 active torsions:
REMARK  status: ('A' for Active; 'I' for Inactive)
REMARK    1  A    between atoms: C6_6  and  C7_7 
REMARK       I    between atoms: C7_7  and  N8_8 
ROOT
ATOM      1  C1  <0> d   1      17.930  -4.042  11.503  0.00  0.00     0.187 C 
ATOM      2  N2  <0> d   1      18.288  -3.537  10.175  0.00  0.00    -0.205 N 
ATOM      3  N3  <0> d   1      17.963  -2.224   9.810  0.00  0.00    -0.060 NA
ATOM      4  N4  <0> d   1      18.275  -1.775   8.643  0.00  0.00    -0.110 NA
ATOM      5  C5  <0> d   1      18.917  -2.558   7.756  0.00  0.00     0.197 A 
ATOM      6  C6  <0> d   1      19.372  -2.355   6.457  0.00  0.00     0.173 A 
ATOM      7  N10 <0> d   1      19.951  -3.505   6.051  0.00  0.00    -0.234 NA
ATOM      8  C11 <0> d   1      19.884  -4.390   7.001  0.00  0.00     0.222 A 
ATOM      9  N12 <0> d   1      19.251  -3.851   8.081  0.00  0.00    -0.237 N 
ATOM     10  C13 <0> d   1      18.937  -4.334   9.299  0.00  0.00     0.352 A 
ATOM     11  O14 <0> d   1      19.232  -5.473   9.604  0.00  0.00    -0.244 OA
ENDROOT
BRANCH   6  12
ATOM     12  C7  <0> d   1      19.245  -1.118   5.675  0.00  0.00     0.272 C 
ATOM     13  N8  <0> d   1      18.291  -0.219   5.986  0.00  0.00    -0.365 N 
ATOM     14  H18 <0> d   1      17.688  -0.389   6.727  0.00  0.00     0.159 HD
ATOM     15  H19 <0> d   1      18.207   0.597   5.470  0.00  0.00     0.159 HD
ATOM     16  O9  <0> d   1      20.001  -0.906   4.746  0.00  0.00    -0.266 OA
ENDBRANCH   6  12
TORSDOF 1
ENDMDL
