MODEL 1
REMARK VINA RESULT:      -8.4      0.000      0.000
REMARK  3 active torsions:
REMARK  status: ('A' for Active; 'I' for Inactive)
REMARK    1  A    between atoms: C7_7  and  N8_8 
REMARK    2  A    between atoms: C13_13  and  S14_14 
REMARK    3  A    between atoms: S14_14  and  N15_15 
ROOT
ATOM      1  N8  ZIN A   1      18.722   2.515  10.890  0.00  0.00    -0.292 N 
ATOM      2  C9  ZIN A   1      17.769   3.367  11.323  0.00  0.00     0.262 C 
ATOM      3  O10 ZIN A   1      16.711   3.459  10.730  0.00  0.00    -0.267 OA
ATOM      4  C11 ZIN A   1      18.026   4.184  12.522  0.00  0.00     0.060 A 
ATOM      5  C12 ZIN A   1      17.001   4.862  13.178  0.00  0.00     0.046 A 
ATOM      6  C13 ZIN A   1      17.294   5.619  14.294  0.00  0.00     0.102 A 
ATOM      7  C18 ZIN A   1      18.596   5.709  14.762  0.00  0.00     0.059 A 
ATOM      8 Cl19 ZIN A   1      18.942   6.671  16.166  0.00  0.00    -0.083 Cl
ATOM      9  C20 ZIN A   1      19.622   5.038  14.120  0.00  0.00     0.055 A 
ATOM     10  C21 ZIN A   1      19.344   4.272  13.003  0.00  0.00     0.047 A 
ATOM     11  N22 ZIN A   1      20.336   3.570  12.326  0.00  0.00    -0.368 N 
ATOM     12  C23 ZIN A   1      19.965   2.324  11.638  0.00  0.00     0.188 C 
ATOM     13  C25 ZIN A   1      19.778   1.211  12.669  0.00  0.00     0.056 C 
ATOM     14  H37 ZIN A   1      21.251   3.892  12.314  0.00  0.00     0.161 HD
ENDROOT
BRANCH   1  15
ATOM     15  C7  ZIN A   1      18.514   1.795   9.709  0.00  0.00     0.045 A 
ATOM     16  C2  ZIN A   1      17.692   0.675   9.713  0.00  0.00    -0.035 A 
ATOM     17  C1  ZIN A   1      17.017   0.238  10.988  0.00  0.00     0.050 C 
ATOM     18  C3  ZIN A   1      17.488  -0.034   8.545  0.00  0.00     0.009 A 
ATOM     19  C4  ZIN A   1      18.107   0.365   7.375  0.00  0.00     0.001 A 
ATOM     20  C5  ZIN A   1      18.931   1.476   7.370  0.00  0.00     0.002 A 
ATOM     21  C6  ZIN A   1      19.138   2.190   8.534  0.00  0.00     0.030 A 
ENDBRANCH   1  15
BRANCH   6  22
ATOM     22  S14 ZIN A   1      16.002   6.480  15.130  0.00  0.00     0.258 S 
ATOM     23  O16 ZIN A   1      15.981   5.978  16.458  0.00  0.00    -0.201 OA
ATOM     24  O17 ZIN A   1      16.173   7.856  14.820  0.00  0.00    -0.201 OA
BRANCH  22  25
ATOM     25  N15 ZIN A   1      14.573   6.017  14.432  0.00  0.00    -0.324 N 
ATOM     26  H34 ZIN A   1      13.789   6.581  14.514  0.00  0.00     0.169 HD
ATOM     27  H35 ZIN A   1      14.522   5.182  13.942  0.00  0.00     0.169 HD
ENDBRANCH  22  25
ENDBRANCH   6  22
TORSDOF 3
ENDMDL
MODEL 2
REMARK VINA RESULT:      -7.8      6.081      8.912
REMARK  3 active torsions:
REMARK  status: ('A' for Active; 'I' for Inactive)
REMARK    1  A    between atoms: C7_7  and  N8_8 
REMARK    2  A    between atoms: C13_13  and  S14_14 
REMARK    3  A    between atoms: S14_14  and  N15_15 
ROOT
ATOM      1  N8  ZIN A   1      18.421  -0.096  11.185  0.00  0.00    -0.292 N 
ATOM      2  C9  ZIN A   1      18.856  -0.772  10.101  0.00  0.00     0.262 C 
ATOM      3  O10 ZIN A   1      19.481  -0.199   9.229  0.00  0.00    -0.267 OA
ATOM      4  C11 ZIN A   1      18.566  -2.212   9.987  0.00  0.00     0.060 A 
ATOM      5  C12 ZIN A   1      19.215  -3.018   9.055  0.00  0.00     0.046 A 
ATOM      6  C13 ZIN A   1      18.904  -4.360   8.983  0.00  0.00     0.102 A 
ATOM      7  C18 ZIN A   1      17.952  -4.909   9.830  0.00  0.00     0.059 A 
ATOM      8 Cl19 ZIN A   1      17.574  -6.600   9.721  0.00  0.00    -0.083 Cl
ATOM      9  C20 ZIN A   1      17.302  -4.119  10.763  0.00  0.00     0.055 A 
ATOM     10  C21 ZIN A   1      17.606  -2.773  10.849  0.00  0.00     0.047 A 
ATOM     11  N22 ZIN A   1      16.990  -1.937  11.774  0.00  0.00    -0.368 N 
ATOM     12  C23 ZIN A   1      17.746  -0.783  12.286  0.00  0.00     0.188 C 
ATOM     13  C25 ZIN A   1      18.781  -1.266  13.303  0.00  0.00     0.056 C 
ATOM     14  H37 ZIN A   1      16.086  -2.114  12.077  0.00  0.00     0.161 HD
ENDROOT
BRANCH   1  15
ATOM     15  C7  ZIN A   1      18.626   1.285  11.260  0.00  0.00     0.045 A 
ATOM     16  C2  ZIN A   1      19.838   1.784  11.721  0.00  0.00    -0.035 A 
ATOM     17  C1  ZIN A   1      20.937   0.838  12.133  0.00  0.00     0.050 C 
ATOM     18  C3  ZIN A   1      20.038   3.149  11.794  0.00  0.00     0.009 A 
ATOM     19  C4  ZIN A   1      19.030   4.018  11.417  0.00  0.00     0.001 A 
ATOM     20  C5  ZIN A   1      17.821   3.524  10.964  0.00  0.00     0.002 A 
ATOM     21  C6  ZIN A   1      17.615   2.160  10.888  0.00  0.00     0.030 A 
ENDBRANCH   1  15
BRANCH   6  22
ATOM     22  S14 ZIN A   1      19.722  -5.386   7.806  0.00  0.00     0.258 S 
ATOM     23  O16 ZIN A   1      20.506  -6.306   8.552  0.00  0.00    -0.201 OA
ATOM     24  O17 ZIN A   1      18.732  -5.787   6.870  0.00  0.00    -0.201 OA
BRANCH  22  25
ATOM     25  N15 ZIN A   1      20.788  -4.427   6.977  0.00  0.00    -0.324 N 
ATOM     26  H34 ZIN A   1      21.573  -4.819   6.566  0.00  0.00     0.169 HD
ATOM     27  H35 ZIN A   1      20.626  -3.473   6.905  0.00  0.00     0.169 HD
ENDBRANCH  22  25
ENDBRANCH   6  22
TORSDOF 3
ENDMDL
MODEL 3
REMARK VINA RESULT:      -7.8      3.364      4.048
REMARK  3 active torsions:
REMARK  status: ('A' for Active; 'I' for Inactive)
REMARK    1  A    between atoms: C7_7  and  N8_8 
REMARK    2  A    between atoms: C13_13  and  S14_14 
REMARK    3  A    between atoms: S14_14  and  N15_15 
ROOT
ATOM      1  N8  ZIN A   1      18.575   1.250  11.592  0.00  0.00    -0.292 N 
ATOM      2  C9  ZIN A   1      18.441   0.649  12.792  0.00  0.00     0.262 C 
ATOM      3  O10 ZIN A   1      18.321  -0.559  12.865  0.00  0.00    -0.267 OA
ATOM      4  C11 ZIN A   1      18.443   1.473  14.014  0.00  0.00     0.060 A 
ATOM      5  C12 ZIN A   1      18.593   0.908  15.278  0.00  0.00     0.046 A 
ATOM      6  C13 ZIN A   1      18.582   1.722  16.392  0.00  0.00     0.102 A 
ATOM      7  C18 ZIN A   1      18.423   3.094  16.260  0.00  0.00     0.059 A 
ATOM      8 Cl19 ZIN A   1      18.410   4.099  17.675  0.00  0.00    -0.083 Cl
ATOM      9  C20 ZIN A   1      18.277   3.668  15.009  0.00  0.00     0.055 A 
ATOM     10  C21 ZIN A   1      18.289   2.865  13.883  0.00  0.00     0.047 A 
ATOM     11  N22 ZIN A   1      18.155   3.391  12.602  0.00  0.00    -0.368 N 
ATOM     12  C23 ZIN A   1      18.810   2.690  11.487  0.00  0.00     0.188 C 
ATOM     13  C25 ZIN A   1      20.313   2.970  11.524  0.00  0.00     0.056 C 
ATOM     14  H37 ZIN A   1      17.647   4.203  12.451  0.00  0.00     0.161 HD
ENDROOT
BRANCH   1  15
ATOM     15  C7  ZIN A   1      18.496   0.481  10.427  0.00  0.00     0.045 A 
ATOM     16  C2  ZIN A   1      19.576  -0.299  10.033  0.00  0.00    -0.035 A 
ATOM     17  C1  ZIN A   1      20.833  -0.322  10.864  0.00  0.00     0.050 C 
ATOM     18  C3  ZIN A   1      19.495  -1.057   8.881  0.00  0.00     0.009 A 
ATOM     19  C4  ZIN A   1      18.342  -1.036   8.117  0.00  0.00     0.001 A 
ATOM     20  C5  ZIN A   1      17.268  -0.257   8.504  0.00  0.00     0.002 A 
ATOM     21  C6  ZIN A   1      17.342   0.504   9.654  0.00  0.00     0.030 A 
ENDBRANCH   1  15
BRANCH   6  22
ATOM     22  S14 ZIN A   1      18.771   1.013  17.995  0.00  0.00     0.258 S 
ATOM     23  O16 ZIN A   1      19.926   1.612  18.564  0.00  0.00    -0.201 OA
ATOM     24  O17 ZIN A   1      17.489   1.059  18.606  0.00  0.00    -0.201 OA
BRANCH  22  25
ATOM     25  N15 ZIN A   1      19.131  -0.589  17.783  0.00  0.00    -0.324 N 
ATOM     26  H34 ZIN A   1      18.461  -1.265  17.968  0.00  0.00     0.169 HD
ATOM     27  H35 ZIN A   1      20.012  -0.851  17.474  0.00  0.00     0.169 HD
ENDBRANCH  22  25
ENDBRANCH   6  22
TORSDOF 3
ENDMDL
MODEL 4
REMARK VINA RESULT:      -7.8      5.230      8.273
REMARK  3 active torsions:
REMARK  status: ('A' for Active; 'I' for Inactive)
REMARK    1  A    between atoms: C7_7  and  N8_8 
REMARK    2  A    between atoms: C13_13  and  S14_14 
REMARK    3  A    between atoms: S14_14  and  N15_15 
ROOT
ATOM      1  N8  ZIN A   1      19.139   0.911  10.798  0.00  0.00    -0.292 N 
ATOM      2  C9  ZIN A   1      18.810   1.026   9.495  0.00  0.00     0.262 C 
ATOM      3  O10 ZIN A   1      18.504   2.107   9.030  0.00  0.00    -0.267 OA
ATOM      4  C11 ZIN A   1      18.827  -0.175   8.641  0.00  0.00     0.060 A 
ATOM      5  C12 ZIN A   1      18.778  -0.086   7.252  0.00  0.00     0.046 A 
ATOM      6  C13 ZIN A   1      18.790  -1.240   6.496  0.00  0.00     0.102 A 
ATOM      7  C18 ZIN A   1      18.851  -2.483   7.109  0.00  0.00     0.059 A 
ATOM      8 Cl19 ZIN A   1      18.863  -3.922   6.139  0.00  0.00    -0.083 Cl
ATOM      9  C20 ZIN A   1      18.904  -2.585   8.488  0.00  0.00     0.055 A 
ATOM     10  C21 ZIN A   1      18.896  -1.436   9.259  0.00  0.00     0.047 A 
ATOM     11  N22 ZIN A   1      18.957  -1.482  10.648  0.00  0.00    -0.368 N 
ATOM     12  C23 ZIN A   1      19.595  -0.362  11.357  0.00  0.00     0.188 C 
ATOM     13  C25 ZIN A   1      21.114  -0.471  11.213  0.00  0.00     0.056 C 
ATOM     14  H37 ZIN A   1      18.592  -2.236  11.136  0.00  0.00     0.161 HD
ENDROOT
BRANCH   1  15
ATOM     15  C7  ZIN A   1      19.049   2.032  11.630  0.00  0.00     0.045 A 
ATOM     16  C2  ZIN A   1      18.077   2.086  12.622  0.00  0.00    -0.035 A 
ATOM     17  C1  ZIN A   1      17.123   0.934  12.807  0.00  0.00     0.050 C 
ATOM     18  C3  ZIN A   1      17.990   3.194  13.441  0.00  0.00     0.009 A 
ATOM     19  C4  ZIN A   1      18.865   4.252  13.272  0.00  0.00     0.001 A 
ATOM     20  C5  ZIN A   1      19.829   4.203  12.282  0.00  0.00     0.002 A 
ATOM     21  C6  ZIN A   1      19.921   3.098  11.459  0.00  0.00     0.030 A 
ENDBRANCH   1  15
BRANCH   6  22
ATOM     22  S14 ZIN A   1      18.728  -1.134   4.738  0.00  0.00     0.258 S 
ATOM     23  O16 ZIN A   1      19.796  -1.933   4.250  0.00  0.00    -0.201 OA
ATOM     24  O17 ZIN A   1      17.371  -1.343   4.372  0.00  0.00    -0.201 OA
BRANCH  22  25
ATOM     25  N15 ZIN A   1      19.087   0.429   4.327  0.00  0.00    -0.324 N 
ATOM     26  H34 ZIN A   1      18.465   0.945   3.792  0.00  0.00     0.169 HD
ATOM     27  H35 ZIN A   1      19.920   0.829   4.623  0.00  0.00     0.169 HD
ENDBRANCH  22  25
ENDBRANCH   6  22
TORSDOF 3
ENDMDL
MODEL 5
REMARK VINA RESULT:      -7.7      3.891      4.641
REMARK  3 active torsions:
REMARK  status: ('A' for Active; 'I' for Inactive)
REMARK    1  A    between atoms: C7_7  and  N8_8 
REMARK    2  A    between atoms: C13_13  and  S14_14 
REMARK    3  A    between atoms: S14_14  and  N15_15 
ROOT
ATOM      1  N8  ZIN A   1      19.043  -0.601  12.650  0.00  0.00    -0.292 N 
ATOM      2  C9  ZIN A   1      18.661  -0.584  13.944  0.00  0.00     0.262 C 
ATOM      3  O10 ZIN A   1      18.282  -1.604  14.486  0.00  0.00    -0.267 OA
ATOM      4  C11 ZIN A   1      18.710   0.684  14.692  0.00  0.00     0.060 A 
ATOM      5  C12 ZIN A   1      18.605   0.719  16.080  0.00  0.00     0.046 A 
ATOM      6  C13 ZIN A   1      18.651   1.933  16.734  0.00  0.00     0.102 A 
ATOM      7  C18 ZIN A   1      18.799   3.113  16.020  0.00  0.00     0.059 A 
ATOM      8 Cl19 ZIN A   1      18.851   4.630  16.863  0.00  0.00    -0.083 Cl
ATOM      9  C20 ZIN A   1      18.908   3.091  14.640  0.00  0.00     0.055 A 
ATOM     10  C21 ZIN A   1      18.867   1.882  13.971  0.00  0.00     0.047 A 
ATOM     11  N22 ZIN A   1      18.981   1.802  12.587  0.00  0.00    -0.368 N 
ATOM     12  C23 ZIN A   1      19.585   0.594  12.004  0.00  0.00     0.188 C 
ATOM     13  C25 ZIN A   1      21.101   0.640  12.199  0.00  0.00     0.056 C 
ATOM     14  H37 ZIN A   1      18.674   2.528  12.022  0.00  0.00     0.161 HD
ENDROOT
BRANCH   1  15
ATOM     15  C7  ZIN A   1      18.924  -1.785  11.914  0.00  0.00     0.045 A 
ATOM     16  C2  ZIN A   1      17.909  -1.922  10.976  0.00  0.00    -0.035 A 
ATOM     17  C1  ZIN A   1      16.937  -0.793  10.744  0.00  0.00     0.050 C 
ATOM     18  C3  ZIN A   1      17.794  -3.092  10.251  0.00  0.00     0.009 A 
ATOM     19  C4  ZIN A   1      18.685  -4.129  10.463  0.00  0.00     0.001 A 
ATOM     20  C5  ZIN A   1      19.693  -3.997  11.400  0.00  0.00     0.002 A 
ATOM     21  C6  ZIN A   1      19.813  -2.829  12.129  0.00  0.00     0.030 A 
ENDBRANCH   1  15
BRANCH   6  22
ATOM     22  S14 ZIN A   1      18.519   1.986  18.491  0.00  0.00     0.258 S 
ATOM     23  O16 ZIN A   1      19.789   2.395  18.976  0.00  0.00    -0.201 OA
ATOM     24  O17 ZIN A   1      17.314   2.680  18.781  0.00  0.00    -0.201 OA
BRANCH  22  25
ATOM     25  N15 ZIN A   1      18.297   0.429  19.013  0.00  0.00    -0.324 N 
ATOM     26  H34 ZIN A   1      18.555  -0.313  18.445  0.00  0.00     0.169 HD
ATOM     27  H35 ZIN A   1      17.909   0.261  19.885  0.00  0.00     0.169 HD
ENDBRANCH  22  25
ENDBRANCH   6  22
TORSDOF 3
ENDMDL
MODEL 6
REMARK VINA RESULT:      -7.7      5.897      8.444
REMARK  3 active torsions:
REMARK  status: ('A' for Active; 'I' for Inactive)
REMARK    1  A    between atoms: C7_7  and  N8_8 
REMARK    2  A    between atoms: C13_13  and  S14_14 
REMARK    3  A    between atoms: S14_14  and  N15_15 
ROOT
ATOM      1  N8  ZIN A   1      18.752   0.412  10.946  0.00  0.00    -0.292 N 
ATOM      2  C9  ZIN A   1      18.694  -0.642  10.106  0.00  0.00     0.262 C 
ATOM      3  O10 ZIN A   1      18.567  -1.770  10.543  0.00  0.00    -0.267 OA
ATOM      4  C11 ZIN A   1      18.786  -0.410   8.654  0.00  0.00     0.060 A 
ATOM      5  C12 ZIN A   1      18.454  -1.401   7.733  0.00  0.00     0.046 A 
ATOM      6  C13 ZIN A   1      18.563  -1.137   6.383  0.00  0.00     0.102 A 
ATOM      7  C18 ZIN A   1      18.999   0.104   5.941  0.00  0.00     0.059 A 
ATOM      8 Cl19 ZIN A   1      19.132   0.414   4.238  0.00  0.00    -0.083 Cl
ATOM      9  C20 ZIN A   1      19.329   1.097   6.846  0.00  0.00     0.055 A 
ATOM     10  C21 ZIN A   1      19.222   0.848   8.203  0.00  0.00     0.047 A 
ATOM     11  N22 ZIN A   1      19.531   1.814   9.155  0.00  0.00    -0.368 N 
ATOM     12  C23 ZIN A   1      18.816   1.783  10.440  0.00  0.00     0.188 C 
ATOM     13  C25 ZIN A   1      17.399   2.325  10.244  0.00  0.00     0.056 C 
ATOM     14  H37 ZIN A   1      20.199   2.493   8.973  0.00  0.00     0.161 HD
ENDROOT
BRANCH   1  15
ATOM     15  C7  ZIN A   1      18.744   0.190  12.327  0.00  0.00     0.045 A 
ATOM     16  C2  ZIN A   1      19.935   0.210  13.042  0.00  0.00    -0.035 A 
ATOM     17  C1  ZIN A   1      21.237   0.477  12.332  0.00  0.00     0.050 C 
ATOM     18  C3  ZIN A   1      19.924  -0.009  14.406  0.00  0.00     0.009 A 
ATOM     19  C4  ZIN A   1      18.729  -0.254  15.059  0.00  0.00     0.001 A 
ATOM     20  C5  ZIN A   1      17.543  -0.280  14.349  0.00  0.00     0.002 A 
ATOM     21  C6  ZIN A   1      17.547  -0.062  12.985  0.00  0.00     0.030 A 
ENDBRANCH   1  15
BRANCH   6  22
ATOM     22  S14 ZIN A   1      18.145  -2.385   5.211  0.00  0.00     0.258 S 
ATOM     23  O16 ZIN A   1      17.026  -1.895   4.485  0.00  0.00    -0.201 OA
ATOM     24  O17 ZIN A   1      19.362  -2.777   4.593  0.00  0.00    -0.201 OA
BRANCH  22  25
ATOM     25  N15 ZIN A   1      17.610  -3.699   6.065  0.00  0.00    -0.324 N 
ATOM     26  H34 ZIN A   1      17.805  -3.774   7.011  0.00  0.00     0.169 HD
ATOM     27  H35 ZIN A   1      17.102  -4.394   5.617  0.00  0.00     0.169 HD
ENDBRANCH  22  25
ENDBRANCH   6  22
TORSDOF 3
ENDMDL
MODEL 7
REMARK VINA RESULT:      -7.5      3.519      4.249
REMARK  3 active torsions:
REMARK  status: ('A' for Active; 'I' for Inactive)
REMARK    1  A    between atoms: C7_7  and  N8_8 
REMARK    2  A    between atoms: C13_13  and  S14_14 
REMARK    3  A    between atoms: S14_14  and  N15_15 
ROOT
ATOM      1  N8  ZIN A   1      18.558   0.783  11.884  0.00  0.00    -0.292 N 
ATOM      2  C9  ZIN A   1      18.972   1.604  12.871  0.00  0.00     0.262 C 
ATOM      3  O10 ZIN A   1      19.516   2.659  12.606  0.00  0.00    -0.267 OA
ATOM      4  C11 ZIN A   1      18.758   1.208  14.274  0.00  0.00     0.060 A 
ATOM      5  C12 ZIN A   1      18.899   2.116  15.321  0.00  0.00     0.046 A 
ATOM      6  C13 ZIN A   1      18.693   1.695  16.618  0.00  0.00     0.102 A 
ATOM      7  C18 ZIN A   1      18.349   0.377  16.885  0.00  0.00     0.059 A 
ATOM      8 Cl19 ZIN A   1      18.097  -0.133  18.525  0.00  0.00    -0.083 Cl
ATOM      9  C20 ZIN A   1      18.203  -0.534  15.853  0.00  0.00     0.055 A 
ATOM     10  C21 ZIN A   1      18.403  -0.125  14.547  0.00  0.00     0.047 A 
ATOM     11  N22 ZIN A   1      18.259  -0.997  13.473  0.00  0.00    -0.368 N 
ATOM     12  C23 ZIN A   1      17.824  -0.448  12.179  0.00  0.00     0.188 C 
ATOM     13  C25 ZIN A   1      16.325  -0.151  12.233  0.00  0.00     0.056 C 
ATOM     14  H37 ZIN A   1      18.438  -1.945  13.577  0.00  0.00     0.161 HD
ENDROOT
BRANCH   1  15
ATOM     15  C7  ZIN A   1      18.829   1.118  10.554  0.00  0.00     0.045 A 
ATOM     16  C2  ZIN A   1      19.705   0.341   9.806  0.00  0.00    -0.035 A 
ATOM     17  C1  ZIN A   1      20.360  -0.867  10.425  0.00  0.00     0.050 C 
ATOM     18  C3  ZIN A   1      19.971   0.675   8.492  0.00  0.00     0.009 A 
ATOM     19  C4  ZIN A   1      19.371   1.783   7.922  0.00  0.00     0.001 A 
ATOM     20  C5  ZIN A   1      18.503   2.561   8.667  0.00  0.00     0.002 A 
ATOM     21  C6  ZIN A   1      18.233   2.233   9.981  0.00  0.00     0.030 A 
ENDBRANCH   1  15
BRANCH   6  22
ATOM     22  S14 ZIN A   1      18.869   2.838  17.948  0.00  0.00     0.258 S 
ATOM     23  O16 ZIN A   1      19.627   2.175  18.949  0.00  0.00    -0.201 OA
ATOM     24  O17 ZIN A   1      19.262   4.073  17.365  0.00  0.00    -0.201 OA
BRANCH  22  25
ATOM     25  N15 ZIN A   1      17.361   3.082  18.587  0.00  0.00    -0.324 N 
ATOM     26  H34 ZIN A   1      17.191   2.877  19.519  0.00  0.00     0.169 HD
ATOM     27  H35 ZIN A   1      16.649   3.430  18.028  0.00  0.00     0.169 HD
ENDBRANCH  22  25
ENDBRANCH   6  22
TORSDOF 3
ENDMDL
MODEL 8
REMARK VINA RESULT:      -7.5      3.976      7.191
REMARK  3 active torsions:
REMARK  status: ('A' for Active; 'I' for Inactive)
REMARK    1  A    between atoms: C7_7  and  N8_8 
REMARK    2  A    between atoms: C13_13  and  S14_14 
REMARK    3  A    between atoms: S14_14  and  N15_15 
ROOT
ATOM      1  N8  ZIN A   1      17.954   4.253  14.722  0.00  0.00    -0.292 N 
ATOM      2  C9  ZIN A   1      18.145   3.696  13.508  0.00  0.00     0.262 C 
ATOM      3  O10 ZIN A   1      18.022   4.364  12.499  0.00  0.00    -0.267 OA
ATOM      4  C11 ZIN A   1      18.505   2.270  13.419  0.00  0.00     0.060 A 
ATOM      5  C12 ZIN A   1      18.988   1.709  12.239  0.00  0.00     0.046 A 
ATOM      6  C13 ZIN A   1      19.305   0.367  12.205  0.00  0.00     0.102 A 
ATOM      7  C18 ZIN A   1      19.147  -0.423  13.334  0.00  0.00     0.059 A 
ATOM      8 Cl19 ZIN A   1      19.550  -2.110  13.268  0.00  0.00    -0.083 Cl
ATOM      9  C20 ZIN A   1      18.672   0.123  14.514  0.00  0.00     0.055 A 
ATOM     10  C21 ZIN A   1      18.352   1.468  14.564  0.00  0.00     0.047 A 
ATOM     11  N22 ZIN A   1      17.880   2.069  15.726  0.00  0.00    -0.368 N 
ATOM     12  C23 ZIN A   1      18.183   3.491  15.950  0.00  0.00     0.188 C 
ATOM     13  C25 ZIN A   1      19.643   3.637  16.381  0.00  0.00     0.056 C 
ATOM     14  H37 ZIN A   1      17.368   1.561  16.374  0.00  0.00     0.161 HD
ENDROOT
BRANCH   1  15
ATOM     15  C7  ZIN A   1      17.536   5.585  14.809  0.00  0.00     0.045 A 
ATOM     16  C2  ZIN A   1      18.472   6.611  14.767  0.00  0.00    -0.035 A 
ATOM     17  C1  ZIN A   1      19.937   6.291  14.623  0.00  0.00     0.050 C 
ATOM     18  C3  ZIN A   1      18.056   7.925  14.853  0.00  0.00     0.009 A 
ATOM     19  C4  ZIN A   1      16.712   8.221  14.987  0.00  0.00     0.001 A 
ATOM     20  C5  ZIN A   1      15.779   7.201  15.034  0.00  0.00     0.002 A 
ATOM     21  C6  ZIN A   1      16.188   5.884  14.948  0.00  0.00     0.030 A 
ENDBRANCH   1  15
BRANCH   6  22
ATOM     22  S14 ZIN A   1      19.916  -0.349  10.715  0.00  0.00     0.258 S 
ATOM     23  O16 ZIN A   1      19.277  -1.611  10.585  0.00  0.00    -0.201 OA
ATOM     24  O17 ZIN A   1      19.843   0.666   9.723  0.00  0.00    -0.201 OA
BRANCH  22  25
ATOM     25  N15 ZIN A   1      21.526  -0.661  10.946  0.00  0.00    -0.324 N 
ATOM     26  H34 ZIN A   1      22.038  -0.129  11.573  0.00  0.00     0.169 HD
ATOM     27  H35 ZIN A   1      21.956  -1.377  10.452  0.00  0.00     0.169 HD
ENDBRANCH  22  25
ENDBRANCH   6  22
TORSDOF 3
ENDMDL
MODEL 9
REMARK VINA RESULT:      -7.5      5.893      8.782
REMARK  3 active torsions:
REMARK  status: ('A' for Active; 'I' for Inactive)
REMARK    1  A    between atoms: C7_7  and  N8_8 
REMARK    2  A    between atoms: C13_13  and  S14_14 
REMARK    3  A    between atoms: S14_14  and  N15_15 
ROOT
ATOM      1  N8  ZIN A   1      18.604  -1.184  11.520  0.00  0.00    -0.292 N 
ATOM      2  C9  ZIN A   1      18.470  -0.609  10.307  0.00  0.00     0.262 C 
ATOM      3  O10 ZIN A   1      18.386   0.600  10.205  0.00  0.00    -0.267 OA
ATOM      4  C11 ZIN A   1      18.428  -1.463   9.107  0.00  0.00     0.060 A 
ATOM      5  C12 ZIN A   1      18.575  -0.934   7.827  0.00  0.00     0.046 A 
ATOM      6  C13 ZIN A   1      18.522  -1.774   6.734  0.00  0.00     0.102 A 
ATOM      7  C18 ZIN A   1      18.322  -3.137   6.903  0.00  0.00     0.059 A 
ATOM      8 Cl19 ZIN A   1      18.255  -4.176   5.514  0.00  0.00    -0.083 Cl
ATOM      9  C20 ZIN A   1      18.177  -3.675   8.170  0.00  0.00     0.055 A 
ATOM     10  C21 ZIN A   1      18.232  -2.845   9.275  0.00  0.00     0.047 A 
ATOM     11  N22 ZIN A   1      18.102  -3.335  10.570  0.00  0.00    -0.368 N 
ATOM     12  C23 ZIN A   1      18.795  -2.628  11.658  0.00  0.00     0.188 C 
ATOM     13  C25 ZIN A   1      20.288  -2.956  11.606  0.00  0.00     0.056 C 
ATOM     14  H37 ZIN A   1      17.571  -4.127  10.750  0.00  0.00     0.161 HD
ENDROOT
BRANCH   1  15
ATOM     15  C7  ZIN A   1      18.566  -0.384  12.667  0.00  0.00     0.045 A 
ATOM     16  C2  ZIN A   1      19.674   0.377  13.020  0.00  0.00    -0.035 A 
ATOM     17  C1  ZIN A   1      20.914   0.348  12.165  0.00  0.00     0.050 C 
ATOM     18  C3  ZIN A   1      19.634   1.166  14.153  0.00  0.00     0.009 A 
ATOM     19  C4  ZIN A   1      18.497   1.193  14.940  0.00  0.00     0.001 A 
ATOM     20  C5  ZIN A   1      17.395   0.432  14.593  0.00  0.00     0.002 A 
ATOM     21  C6  ZIN A   1      17.429  -0.359  13.461  0.00  0.00     0.030 A 
ENDBRANCH   1  15
BRANCH   6  22
ATOM     22  S14 ZIN A   1      18.708  -1.112   5.111  0.00  0.00     0.258 S 
ATOM     23  O16 ZIN A   1      19.884  -1.697   4.573  0.00  0.00    -0.201 OA
ATOM     24  O17 ZIN A   1      17.434  -1.213   4.490  0.00  0.00    -0.201 OA
BRANCH  22  25
ATOM     25  N15 ZIN A   1      19.020   0.506   5.275  0.00  0.00    -0.324 N 
ATOM     26  H34 ZIN A   1      18.843   1.111   4.539  0.00  0.00     0.169 HD
ATOM     27  H35 ZIN A   1      19.382   0.847   6.108  0.00  0.00     0.169 HD
ENDBRANCH  22  25
ENDBRANCH   6  22
TORSDOF 3
ENDMDL
