MODEL 1
REMARK VINA RESULT:      -7.0      0.000      0.000
REMARK  4 active torsions:
REMARK  status: ('A' for Active; 'I' for Inactive)
REMARK    1  A    between atoms: C2_2  and  O3_3 
REMARK    2  A    between atoms: O3_3  and  C4_4 
REMARK    3  A    between atoms: C4_4  and  C6_6 
REMARK    4  A    between atoms: C6_6  and  C7_7 
ROOT
ATOM      1  C6  <0> d   1      18.231   0.609  10.160  0.00  0.00     0.078 C 
ATOM      2  C13 <0> d   1      19.462  -0.171  10.632  0.00  0.00     0.052 C 
ATOM      3  C14 <0> d   1      19.480  -0.209  12.162  0.00  0.00     0.236 C 
ATOM      4  N15 <0> d   1      18.265  -0.869  12.652  0.00  0.00    -0.075 N 
ATOM      5  H16 <0> d   1      18.201  -1.794  12.254  0.00  0.00     0.279 HD
ATOM      6  C17 <0> d   1      18.322  -0.971  14.117  0.00  0.00     0.269 C 
ATOM      7  C18 <0> d   1      17.083  -0.088  12.265  0.00  0.00     0.236 C 
ATOM      8  C19 <0> d   1      16.973  -0.046  10.740  0.00  0.00     0.052 C 
ENDROOT
BRANCH   1   9
ATOM      9  C4  <0> d   1      18.323   2.034  10.639  0.00  0.00     0.272 C 
ATOM     10  O5  <0> d   1      19.398   2.512  10.913  0.00  0.00    -0.264 OA
BRANCH   9  11
ATOM     11  O3  <0> d   1      17.210   2.774  10.760  0.00  0.00    -0.321 OA
BRANCH  11  12
ATOM     12  C2  <0> d   1      17.317   4.006  11.521  0.00  0.00     0.174 C 
ATOM     13  C1  <0> d   1      17.146   5.202  10.582  0.00  0.00     0.034 C 
ENDBRANCH  11  12
ENDBRANCH   9  11
ENDBRANCH   1   9
BRANCH   1  14
ATOM     14  C7  <0> d   1      18.164   0.585   8.655  0.00  0.00    -0.040 A 
ATOM     15  C12 <0> d   1      17.209  -0.184   8.018  0.00  0.00     0.008 A 
ATOM     16  C11 <0> d   1      17.145  -0.202   6.637  0.00  0.00     0.001 A 
ATOM     17  C10 <0> d   1      18.043   0.542   5.894  0.00  0.00     0.000 A 
ATOM     18  C9  <0> d   1      19.002   1.307   6.531  0.00  0.00     0.001 A 
ATOM     19  C8  <0> d   1      19.062   1.329   7.912  0.00  0.00     0.008 A 
ENDBRANCH   1  14
TORSDOF 4
ENDMDL
MODEL 2
REMARK VINA RESULT:      -6.8      2.013      3.518
REMARK  4 active torsions:
REMARK  status: ('A' for Active; 'I' for Inactive)
REMARK    1  A    between atoms: C2_2  and  O3_3 
REMARK    2  A    between atoms: O3_3  and  C4_4 
REMARK    3  A    between atoms: C4_4  and  C6_6 
REMARK    4  A    between atoms: C6_6  and  C7_7 
ROOT
ATOM      1  C6  <0> d   1      18.509   0.602  10.162  0.00  0.00     0.078 C 
ATOM      2  C13 <0> d   1      17.150   0.469  10.855  0.00  0.00     0.052 C 
ATOM      3  C14 <0> d   1      17.342   0.577  12.369  0.00  0.00     0.236 C 
ATOM      4  N15 <0> d   1      17.935   1.878  12.699  0.00  0.00    -0.075 N 
ATOM      5  H16 <0> d   1      17.346   2.615  12.342  0.00  0.00     0.279 HD
ATOM      6  C17 <0> d   1      18.048   2.008  14.158  0.00  0.00     0.269 C 
ATOM      7  C18 <0> d   1      19.270   1.984  12.097  0.00  0.00     0.236 C 
ATOM      8  C19 <0> d   1      19.151   1.931  10.573  0.00  0.00     0.052 C 
ENDROOT
BRANCH   1   9
ATOM      9  C4  <0> d   1      19.401  -0.539  10.578  0.00  0.00     0.272 C 
ATOM     10  O5  <0> d   1      20.599  -0.390  10.606  0.00  0.00    -0.264 OA
BRANCH   9  11
ATOM     11  O3  <0> d   1      18.864  -1.721  10.919  0.00  0.00    -0.321 OA
BRANCH  11  12
ATOM     12  C2  <0> d   1      19.496  -2.444  12.007  0.00  0.00     0.174 C 
ATOM     13  C1  <0> d   1      20.022  -3.785  11.492  0.00  0.00     0.034 C 
ENDBRANCH  11  12
ENDBRANCH   9  11
ENDBRANCH   1   9
BRANCH   1  14
ATOM     14  C7  <0> d   1      18.319   0.574   8.668  0.00  0.00    -0.040 A 
ATOM     15  C12 <0> d   1      17.308  -0.189   8.113  0.00  0.00     0.008 A 
ATOM     16  C11 <0> d   1      17.132  -0.211   6.742  0.00  0.00     0.001 A 
ATOM     17  C10 <0> d   1      17.972   0.522   5.925  0.00  0.00     0.000 A 
ATOM     18  C9  <0> d   1      18.986   1.281   6.479  0.00  0.00     0.001 A 
ATOM     19  C8  <0> d   1      19.159   1.307   7.850  0.00  0.00     0.008 A 
ENDBRANCH   1  14
TORSDOF 4
ENDMDL
MODEL 3
REMARK VINA RESULT:      -6.8      0.857      1.259
REMARK  4 active torsions:
REMARK  status: ('A' for Active; 'I' for Inactive)
REMARK    1  A    between atoms: C2_2  and  O3_3 
REMARK    2  A    between atoms: O3_3  and  C4_4 
REMARK    3  A    between atoms: C4_4  and  C6_6 
REMARK    4  A    between atoms: C6_6  and  C7_7 
ROOT
ATOM      1  C6  <0> d   1      18.199   0.937  10.404  0.00  0.00     0.078 C 
ATOM      2  C13 <0> d   1      19.499   0.352  10.961  0.00  0.00     0.052 C 
ATOM      3  C14 <0> d   1      19.458   0.396  12.491  0.00  0.00     0.236 C 
ATOM      4  N15 <0> d   1      18.319  -0.391  12.976  0.00  0.00    -0.075 N 
ATOM      5  H16 <0> d   1      18.393  -1.336  12.629  0.00  0.00     0.279 HD
ATOM      6  C17 <0> d   1      18.327  -0.409  14.445  0.00  0.00     0.269 C 
ATOM      7  C18 <0> d   1      17.063   0.205  12.504  0.00  0.00     0.236 C 
ATOM      8  C19 <0> d   1      17.013   0.153  10.976  0.00  0.00     0.052 C 
ENDROOT
BRANCH   1   9
ATOM      9  C4  <0> d   1      18.085   2.385  10.803  0.00  0.00     0.272 C 
ATOM     10  O5  <0> d   1      17.010   2.935  10.781  0.00  0.00    -0.264 OA
BRANCH   9  11
ATOM     11  O3  <0> d   1      19.179   3.064  11.183  0.00  0.00    -0.321 OA
BRANCH  11  12
ATOM     12  C2  <0> d   1      18.968   4.359  11.805  0.00  0.00     0.174 C 
ATOM     13  C1  <0> d   1      19.238   4.252  13.308  0.00  0.00     0.034 C 
ENDBRANCH  11  12
ENDBRANCH   9  11
ENDBRANCH   1   9
BRANCH   1  14
ATOM     14  C7  <0> d   1      18.199   0.826   8.901  0.00  0.00    -0.040 A 
ATOM     15  C12 <0> d   1      17.320  -0.036   8.271  0.00  0.00     0.008 A 
ATOM     16  C11 <0> d   1      17.318  -0.134   6.893  0.00  0.00     0.001 A 
ATOM     17  C10 <0> d   1      18.200   0.623   6.144  0.00  0.00     0.000 A 
ATOM     18  C9  <0> d   1      19.082   1.482   6.773  0.00  0.00     0.001 A 
ATOM     19  C8  <0> d   1      19.080   1.583   8.152  0.00  0.00     0.008 A 
ENDBRANCH   1  14
TORSDOF 4
ENDMDL
MODEL 4
REMARK VINA RESULT:      -6.7      2.245      5.724
REMARK  4 active torsions:
REMARK  status: ('A' for Active; 'I' for Inactive)
REMARK    1  A    between atoms: C2_2  and  O3_3 
REMARK    2  A    between atoms: O3_3  and  C4_4 
REMARK    3  A    between atoms: C4_4  and  C6_6 
REMARK    4  A    between atoms: C6_6  and  C7_7 
ROOT
ATOM      1  C6  <0> d   1      18.558  -0.576  12.908  0.00  0.00     0.078 C 
ATOM      2  C13 <0> d   1      17.181  -0.453  12.250  0.00  0.00     0.052 C 
ATOM      3  C14 <0> d   1      17.343  -0.494  10.728  0.00  0.00     0.236 C 
ATOM      4  N15 <0> d   1      17.963  -1.764  10.333  0.00  0.00    -0.075 N 
ATOM      5  H16 <0> d   1      17.402  -2.531  10.672  0.00  0.00     0.279 HD
ATOM      6  C17 <0> d   1      18.047  -1.832   8.868  0.00  0.00     0.269 C 
ATOM      7  C18 <0> d   1      19.313  -1.858  10.902  0.00  0.00     0.236 C 
ATOM      8  C19 <0> d   1      19.226  -1.870  12.429  0.00  0.00     0.052 C 
ENDROOT
BRANCH   1   9
ATOM      9  C4  <0> d   1      19.410   0.604  12.520  0.00  0.00     0.272 C 
ATOM     10  O5  <0> d   1      20.614   0.508  12.526  0.00  0.00    -0.264 OA
BRANCH   9  11
ATOM     11  O3  <0> d   1      18.831   1.762  12.167  0.00  0.00    -0.321 OA
BRANCH  11  12
ATOM     12  C2  <0> d   1      19.521   2.569  11.177  0.00  0.00     0.174 C 
ATOM     13  C1  <0> d   1      18.524   3.032  10.112  0.00  0.00     0.034 C 
ENDBRANCH  11  12
ENDBRANCH   9  11
ENDBRANCH   1   9
BRANCH   1  14
ATOM     14  C7  <0> d   1      18.401  -0.614  14.406  0.00  0.00    -0.040 A 
ATOM     15  C12 <0> d   1      17.456   0.186  15.022  0.00  0.00     0.008 A 
ATOM     16  C11 <0> d   1      17.309   0.147  16.396  0.00  0.00     0.001 A 
ATOM     17  C10 <0> d   1      18.113  -0.683  17.155  0.00  0.00     0.000 A 
ATOM     18  C9  <0> d   1      19.061  -1.480  16.539  0.00  0.00     0.001 A 
ATOM     19  C8  <0> d   1      19.204  -1.445  15.164  0.00  0.00     0.008 A 
ENDBRANCH   1  14
TORSDOF 4
ENDMDL
MODEL 5
REMARK VINA RESULT:      -6.6      2.812      6.499
REMARK  4 active torsions:
REMARK  status: ('A' for Active; 'I' for Inactive)
REMARK    1  A    between atoms: C2_2  and  O3_3 
REMARK    2  A    between atoms: O3_3  and  C4_4 
REMARK    3  A    between atoms: C4_4  and  C6_6 
REMARK    4  A    between atoms: C6_6  and  C7_7 
ROOT
ATOM      1  C6  <0> d   1      18.426  -0.198  12.888  0.00  0.00     0.078 C 
ATOM      2  C13 <0> d   1      19.831   0.319  12.565  0.00  0.00     0.052 C 
ATOM      3  C14 <0> d   1      19.924   0.624  11.068  0.00  0.00     0.236 C 
ATOM      4  N15 <0> d   1      18.933   1.644  10.710  0.00  0.00    -0.075 N 
ATOM      5  H16 <0> d   1      19.082   2.470  11.271  0.00  0.00     0.279 HD
ATOM      6  C17 <0> d   1      19.077   1.989   9.289  0.00  0.00     0.269 C 
ATOM      7  C18 <0> d   1      17.579   1.130  10.950  0.00  0.00     0.236 C 
ATOM      8  C19 <0> d   1      17.395   0.845  12.441  0.00  0.00     0.052 C 
ENDROOT
BRANCH   1   9
ATOM      9  C4  <0> d   1      18.183  -1.491  12.155  0.00  0.00     0.272 C 
ATOM     10  O5  <0> d   1      17.057  -1.826  11.877  0.00  0.00    -0.264 OA
BRANCH   9  11
ATOM     11  O3  <0> d   1      19.220  -2.272  11.812  0.00  0.00    -0.321 OA
BRANCH  11  12
ATOM     12  C2  <0> d   1      19.051  -3.115  10.641  0.00  0.00     0.174 C 
ATOM     13  C1  <0> d   1      19.247  -4.580  11.035  0.00  0.00     0.034 C 
ENDBRANCH  11  12
ENDBRANCH   9  11
ENDBRANCH   1   9
BRANCH   1  14
ATOM     14  C7  <0> d   1      18.301  -0.427  14.372  0.00  0.00    -0.040 A 
ATOM     15  C12 <0> d   1      17.339   0.250  15.098  0.00  0.00     0.008 A 
ATOM     16  C11 <0> d   1      17.222   0.036  16.458  0.00  0.00     0.001 A 
ATOM     17  C10 <0> d   1      18.073  -0.848  17.095  0.00  0.00     0.000 A 
ATOM     18  C9  <0> d   1      19.039  -1.522  16.370  0.00  0.00     0.001 A 
ATOM     19  C8  <0> d   1      19.152  -1.311  15.008  0.00  0.00     0.008 A 
ENDBRANCH   1  14
TORSDOF 4
ENDMDL
MODEL 6
REMARK VINA RESULT:      -6.5      1.850      3.745
REMARK  4 active torsions:
REMARK  status: ('A' for Active; 'I' for Inactive)
REMARK    1  A    between atoms: C2_2  and  O3_3 
REMARK    2  A    between atoms: O3_3  and  C4_4 
REMARK    3  A    between atoms: C4_4  and  C6_6 
REMARK    4  A    between atoms: C6_6  and  C7_7 
ROOT
ATOM      1  C6  <0> d   1      18.311   1.729  10.439  0.00  0.00     0.078 C 
ATOM      2  C13 <0> d   1      17.461   2.997  10.560  0.00  0.00     0.052 C 
ATOM      3  C14 <0> d   1      17.586   3.554  11.980  0.00  0.00     0.236 C 
ATOM      4  N15 <0> d   1      18.989   3.876  12.262  0.00  0.00    -0.075 N 
ATOM      5  H16 <0> d   1      19.329   4.529  11.571  0.00  0.00     0.279 HD
ATOM      6  C17 <0> d   1      19.093   4.481  13.597  0.00  0.00     0.269 C 
ATOM      7  C18 <0> d   1      19.800   2.653  12.219  0.00  0.00     0.236 C 
ATOM      8  C19 <0> d   1      19.760   2.061  10.808  0.00  0.00     0.052 C 
ENDROOT
BRANCH   1   9
ATOM      9  C4  <0> d   1      17.782   0.676  11.377  0.00  0.00     0.272 C 
ATOM     10  O5  <0> d   1      16.635   0.722  11.753  0.00  0.00    -0.264 OA
BRANCH   9  11
ATOM     11  O3  <0> d   1      18.584  -0.316  11.794  0.00  0.00    -0.321 OA
BRANCH  11  12
ATOM     12  C2  <0> d   1      18.093  -1.151  12.875  0.00  0.00     0.174 C 
ATOM     13  C1  <0> d   1      19.188  -1.313  13.933  0.00  0.00     0.034 C 
ENDBRANCH  11  12
ENDBRANCH   9  11
ENDBRANCH   1   9
BRANCH   1  14
ATOM     14  C7  <0> d   1      18.256   1.217   9.023  0.00  0.00    -0.040 A 
ATOM     15  C12 <0> d   1      19.085   1.759   8.059  0.00  0.00     0.008 A 
ATOM     16  C11 <0> d   1      19.036   1.287   6.761  0.00  0.00     0.001 A 
ATOM     17  C10 <0> d   1      18.153   0.278   6.425  0.00  0.00     0.000 A 
ATOM     18  C9  <0> d   1      17.320  -0.261   7.387  0.00  0.00     0.001 A 
ATOM     19  C8  <0> d   1      17.372   0.209   8.687  0.00  0.00     0.008 A 
ENDBRANCH   1  14
TORSDOF 4
ENDMDL
MODEL 7
REMARK VINA RESULT:      -6.4      2.459      4.308
REMARK  4 active torsions:
REMARK  status: ('A' for Active; 'I' for Inactive)
REMARK    1  A    between atoms: C2_2  and  O3_3 
REMARK    2  A    between atoms: O3_3  and  C4_4 
REMARK    3  A    between atoms: C4_4  and  C6_6 
REMARK    4  A    between atoms: C6_6  and  C7_7 
ROOT
ATOM      1  C6  <0> d   1      18.531   0.197  12.457  0.00  0.00     0.078 C 
ATOM      2  C13 <0> d   1      17.761   1.202  13.317  0.00  0.00     0.052 C 
ATOM      3  C14 <0> d   1      17.583   0.630  14.726  0.00  0.00     0.236 C 
ATOM      4  N15 <0> d   1      18.898   0.380  15.325  0.00  0.00    -0.075 N 
ATOM      5  H16 <0> d   1      19.433   1.236  15.332  0.00  0.00     0.279 HD
ATOM      6  C17 <0> d   1      18.724  -0.097  16.704  0.00  0.00     0.269 C 
ATOM      7  C18 <0> d   1      19.616  -0.637  14.546  0.00  0.00     0.236 C 
ATOM      8  C19 <0> d   1      19.872  -0.114  13.132  0.00  0.00     0.052 C 
ENDROOT
BRANCH   1   9
ATOM      9  C4  <0> d   1      17.730  -1.071  12.323  0.00  0.00     0.272 C 
ATOM     10  O5  <0> d   1      16.600  -1.031  11.898  0.00  0.00    -0.264 OA
BRANCH   9  11
ATOM     11  O3  <0> d   1      18.271  -2.248  12.677  0.00  0.00    -0.321 OA
BRANCH  11  12
ATOM     12  C2  <0> d   1      18.474  -3.224  11.621  0.00  0.00     0.174 C 
ATOM     13  C1  <0> d   1      19.952  -3.615  11.565  0.00  0.00     0.034 C 
ENDBRANCH  11  12
ENDBRANCH   9  11
ENDBRANCH   1   9
BRANCH   1  14
ATOM     14  C7  <0> d   1      18.778   0.784  11.092  0.00  0.00    -0.040 A 
ATOM     15  C12 <0> d   1      19.417   0.035  10.122  0.00  0.00     0.008 A 
ATOM     16  C11 <0> d   1      19.639   0.573   8.868  0.00  0.00     0.001 A 
ATOM     17  C10 <0> d   1      19.231   1.864   8.587  0.00  0.00     0.000 A 
ATOM     18  C9  <0> d   1      18.597   2.616   9.559  0.00  0.00     0.001 A 
ATOM     19  C8  <0> d   1      18.370   2.075  10.811  0.00  0.00     0.008 A 
ENDBRANCH   1  14
TORSDOF 4
ENDMDL
MODEL 8
REMARK VINA RESULT:      -6.4      2.672      4.384
REMARK  4 active torsions:
REMARK  status: ('A' for Active; 'I' for Inactive)
REMARK    1  A    between atoms: C2_2  and  O3_3 
REMARK    2  A    between atoms: O3_3  and  C4_4 
REMARK    3  A    between atoms: C4_4  and  C6_6 
REMARK    4  A    between atoms: C6_6  and  C7_7 
ROOT
ATOM      1  C6  <0> d   1      18.379  -0.869  12.462  0.00  0.00     0.078 C 
ATOM      2  C13 <0> d   1      19.736  -0.161  12.501  0.00  0.00     0.052 C 
ATOM      3  C14 <0> d   1      19.554   1.249  13.067  0.00  0.00     0.236 C 
ATOM      4  N15 <0> d   1      19.004   1.169  14.424  0.00  0.00    -0.075 N 
ATOM      5  H16 <0> d   1      19.614   0.609  15.001  0.00  0.00     0.279 HD
ATOM      6  C17 <0> d   1      18.902   2.521  14.992  0.00  0.00     0.269 C 
ATOM      7  C18 <0> d   1      17.670   0.556  14.387  0.00  0.00     0.236 C 
ATOM      8  C19 <0> d   1      17.781  -0.881  13.873  0.00  0.00     0.052 C 
ENDROOT
BRANCH   1   9
ATOM      9  C4  <0> d   1      17.453  -0.133  11.529  0.00  0.00     0.272 C 
ATOM     10  O5  <0> d   1      16.317   0.101  11.864  0.00  0.00    -0.264 OA
BRANCH   9  11
ATOM     11  O3  <0> d   1      17.892   0.262  10.323  0.00  0.00    -0.321 OA
BRANCH  11  12
ATOM     12  C2  <0> d   1      17.733   1.667   9.992  0.00  0.00     0.174 C 
ATOM     13  C1  <0> d   1      19.048   2.210   9.428  0.00  0.00     0.034 C 
ENDBRANCH  11  12
ENDBRANCH   9  11
ENDBRANCH   1   9
BRANCH   1  14
ATOM     14  C7  <0> d   1      18.561  -2.285  11.980  0.00  0.00    -0.040 A 
ATOM     15  C12 <0> d   1      19.833  -2.804  11.824  0.00  0.00     0.008 A 
ATOM     16  C11 <0> d   1      19.999  -4.104  11.385  0.00  0.00     0.001 A 
ATOM     17  C10 <0> d   1      18.895  -4.882  11.093  0.00  0.00     0.000 A 
ATOM     18  C9  <0> d   1      17.623  -4.362  11.244  0.00  0.00     0.001 A 
ATOM     19  C8  <0> d   1      17.456  -3.063  11.687  0.00  0.00     0.008 A 
ENDBRANCH   1  14
TORSDOF 4
ENDMDL
MODEL 9
REMARK VINA RESULT:      -6.4      2.697      5.606
REMARK  4 active torsions:
REMARK  status: ('A' for Active; 'I' for Inactive)
REMARK    1  A    between atoms: C2_2  and  O3_3 
REMARK    2  A    between atoms: O3_3  and  C4_4 
REMARK    3  A    between atoms: C4_4  and  C6_6 
REMARK    4  A    between atoms: C6_6  and  C7_7 
ROOT
ATOM      1  C6  <0> d   1      18.805  -1.793  11.972  0.00  0.00     0.078 C 
ATOM      2  C13 <0> d   1      17.476  -2.235  11.353  0.00  0.00     0.052 C 
ATOM      3  C14 <0> d   1      17.753  -3.007  10.061  0.00  0.00     0.236 C 
ATOM      4  N15 <0> d   1      18.572  -4.188  10.358  0.00  0.00    -0.075 N 
ATOM      5  H16 <0> d   1      18.100  -4.760  11.044  0.00  0.00     0.279 HD
ATOM      6  C17 <0> d   1      18.771  -4.967   9.129  0.00  0.00     0.269 C 
ATOM      7  C18 <0> d   1      19.876  -3.770  10.886  0.00  0.00     0.236 C 
ATOM      8  C19 <0> d   1      19.681  -3.028  12.209  0.00  0.00     0.052 C 
ENDROOT
BRANCH   1   9
ATOM      9  C4  <0> d   1      19.510  -0.849  11.033  0.00  0.00     0.272 C 
ATOM     10  O5  <0> d   1      20.691  -0.635  11.164  0.00  0.00    -0.264 OA
BRANCH   9  11
ATOM     11  O3  <0> d   1      18.824  -0.246  10.049  0.00  0.00    -0.321 OA
BRANCH  11  12
ATOM     12  C2  <0> d   1      19.574   0.150   8.870  0.00  0.00     0.174 C 
ATOM     13  C1  <0> d   1      19.324   1.632   8.581  0.00  0.00     0.034 C 
ENDBRANCH  11  12
ENDBRANCH   9  11
ENDBRANCH   1   9
BRANCH   1  14
ATOM     14  C7  <0> d   1      18.546  -1.099  13.284  0.00  0.00    -0.040 A 
ATOM     15  C12 <0> d   1      17.695  -0.011  13.334  0.00  0.00     0.008 A 
ATOM     16  C11 <0> d   1      17.454   0.623  14.538  0.00  0.00     0.001 A 
ATOM     17  C10 <0> d   1      18.071   0.174  15.691  0.00  0.00     0.000 A 
ATOM     18  C9  <0> d   1      18.926  -0.911  15.641  0.00  0.00     0.001 A 
ATOM     19  C8  <0> d   1      19.163  -1.548  14.437  0.00  0.00     0.008 A 
ENDBRANCH   1  14
TORSDOF 4
ENDMDL
