MODEL 1
REMARK VINA RESULT:      -6.8      0.000      0.000
REMARK  10 active torsions:
REMARK  status: ('A' for Active; 'I' for Inactive)
REMARK    1  A    between atoms: C2_2  and  C3_3 
REMARK    2  A    between atoms: C3_3  and  C4_4 
REMARK    3  A    between atoms: C4_4  and  O6_6 
REMARK    4  A    between atoms: O6_6  and  C7_7 
REMARK    5  A    between atoms: C7_7  and  O8_8 
REMARK    6  A    between atoms: O8_8  and  C9_9 
REMARK    7  A    between atoms: C9_9  and  C11_11 
REMARK    8  A    between atoms: C17_17  and  C18_18 
REMARK    9  A    between atoms: C18_18  and  O20_20 
REMARK   10  A    between atoms: C22_22  and  C24_23 
ROOT
ATOM      1  C11 ZIN A   1      18.737   3.804  12.611  0.00  0.00     0.052 C 
ATOM      2  C12 ZIN A   1      17.688   4.228  11.885  0.00  0.00     0.018 C 
ATOM      3  C13 ZIN A   1      17.669   3.993  10.397  0.00  0.00     0.069 C 
ATOM      4  N14 ZIN A   1      16.637   4.870  12.481  0.00  0.00    -0.362 N 
ATOM      5  C15 ZIN A   1      16.777   5.412  13.730  0.00  0.00     0.018 C 
ATOM      6  C16 ZIN A   1      15.787   6.439  14.212  0.00  0.00     0.069 C 
ATOM      7  C17 ZIN A   1      17.789   5.036  14.533  0.00  0.00     0.052 C 
ATOM      8  C22 ZIN A   1      18.792   4.004  14.099  0.00  0.00     0.102 C 
ATOM      9  H44 ZIN A   1      15.789   4.943  12.016  0.00  0.00     0.165 HD
ENDROOT
BRANCH   1  10
ATOM     10  C9  ZIN A   1      19.809   3.151  11.960  0.00  0.00     0.294 C 
ATOM     11  O10 ZIN A   1      20.866   3.732  11.795  0.00  0.00    -0.259 OA
BRANCH  10  12
ATOM     12  O8  ZIN A   1      19.661   1.882  11.522  0.00  0.00    -0.291 OA
BRANCH  12  13
ATOM     13  C7  ZIN A   1      20.476   0.884  12.139  0.00  0.00     0.358 C 
BRANCH  13  14
ATOM     14  O6  ZIN A   1      20.710  -0.198  11.200  0.00  0.00    -0.295 OA
BRANCH  14  15
ATOM     15  C4  ZIN A   1      19.778  -1.161  11.133  0.00  0.00     0.260 C 
ATOM     16  O5  ZIN A   1      19.697  -1.856  10.149  0.00  0.00    -0.265 OA
BRANCH  15  17
ATOM     17  C3  ZIN A   1      18.832  -1.376  12.287  0.00  0.00     0.111 C 
BRANCH  17  18
ATOM     18  C2  ZIN A   1      17.406  -1.529  11.756  0.00  0.00     0.005 C 
ATOM     19  C1  ZIN A   1      16.907  -0.179  11.236  0.00  0.00     0.005 C 
ENDBRANCH  17  18
ENDBRANCH  15  17
ENDBRANCH  14  15
ENDBRANCH  13  14
ENDBRANCH  12  13
ENDBRANCH  10  12
ENDBRANCH   1  10
BRANCH   8  20
ATOM     20  C24 ZIN A   1      18.496   2.701  14.794  0.00  0.00    -0.021 A 
ATOM     21  C30 ZIN A   1      19.100   2.409  16.004  0.00  0.00     0.063 A 
ATOM     22  C28 ZIN A   1      18.823   1.212  16.644  0.00  0.00     0.056 A 
ATOM     23 Cl31 ZIN A   1      20.195   3.546  16.725  0.00  0.00    -0.082 Cl
ATOM     24  C27 ZIN A   1      17.951   0.306  16.068  0.00  0.00     0.026 A 
ATOM     25 Cl29 ZIN A   1      19.576   0.848  18.166  0.00  0.00    -0.083 Cl
ATOM     26  C26 ZIN A   1      17.353   0.597  14.857  0.00  0.00     0.002 A 
ATOM     27  C25 ZIN A   1      17.624   1.794  14.221  0.00  0.00     0.010 A 
ENDBRANCH   8  20
BRANCH   7  28
ATOM     28  C18 ZIN A   1      17.908   5.621  15.815  0.00  0.00     0.291 C 
ATOM     29  O19 ZIN A   1      18.694   6.531  15.998  0.00  0.00    -0.260 OA
BRANCH  28  30
ATOM     30  O20 ZIN A   1      17.150   5.169  16.836  0.00  0.00    -0.323 OA
ATOM     31  C21 ZIN A   1      17.394   5.736  18.125  0.00  0.00     0.213 C 
ENDBRANCH  28  30
ENDBRANCH   7  28
TORSDOF 10
ENDMDL
MODEL 2
REMARK VINA RESULT:      -6.7      3.758      7.769
REMARK  10 active torsions:
REMARK  status: ('A' for Active; 'I' for Inactive)
REMARK    1  A    between atoms: C2_2  and  C3_3 
REMARK    2  A    between atoms: C3_3  and  C4_4 
REMARK    3  A    between atoms: C4_4  and  O6_6 
REMARK    4  A    between atoms: O6_6  and  C7_7 
REMARK    5  A    between atoms: C7_7  and  O8_8 
REMARK    6  A    between atoms: O8_8  and  C9_9 
REMARK    7  A    between atoms: C9_9  and  C11_11 
REMARK    8  A    between atoms: C17_17  and  C18_18 
REMARK    9  A    between atoms: C18_18  and  O20_20 
REMARK   10  A    between atoms: C22_22  and  C24_23 
ROOT
ATOM      1  C11 ZIN A   1      18.398  -1.467   8.228  0.00  0.00     0.052 C 
ATOM      2  C12 ZIN A   1      19.156  -2.129   7.337  0.00  0.00     0.018 C 
ATOM      3  C13 ZIN A   1      19.352  -1.558   5.957  0.00  0.00     0.069 C 
ATOM      4  N14 ZIN A   1      19.752  -3.315   7.669  0.00  0.00    -0.362 N 
ATOM      5  C15 ZIN A   1      19.316  -4.028   8.752  0.00  0.00     0.018 C 
ATOM      6  C16 ZIN A   1      19.683  -5.483   8.883  0.00  0.00     0.069 C 
ATOM      7  C17 ZIN A   1      18.564  -3.445   9.702  0.00  0.00     0.052 C 
ATOM      8  C22 ZIN A   1      18.186  -1.992   9.620  0.00  0.00     0.102 C 
ATOM      9  H44 ZIN A   1      20.487  -3.653   7.133  0.00  0.00     0.165 HD
ENDROOT
BRANCH   1  10
ATOM     10  C9  ZIN A   1      17.790  -0.248   7.848  0.00  0.00     0.294 C 
ATOM     11  O10 ZIN A   1      16.580  -0.179   7.740  0.00  0.00    -0.259 OA
BRANCH  10  12
ATOM     12  O8  ZIN A   1      18.552   0.839   7.606  0.00  0.00    -0.291 OA
BRANCH  12  13
ATOM     13  C7  ZIN A   1      18.895   1.654   8.728  0.00  0.00     0.358 C 
BRANCH  13  14
ATOM     14  O6  ZIN A   1      17.752   1.758   9.617  0.00  0.00    -0.295 OA
BRANCH  14  15
ATOM     15  C4  ZIN A   1      17.790   2.722  10.550  0.00  0.00     0.260 C 
ATOM     16  O5  ZIN A   1      16.937   2.770  11.405  0.00  0.00    -0.265 OA
BRANCH  15  17
ATOM     17  C3  ZIN A   1      18.896   3.745  10.533  0.00  0.00     0.111 C 
BRANCH  17  18
ATOM     18  C2  ZIN A   1      19.725   3.622  11.812  0.00  0.00     0.005 C 
ATOM     19  C1  ZIN A   1      19.324   4.728  12.790  0.00  0.00     0.005 C 
ENDBRANCH  17  18
ENDBRANCH  15  17
ENDBRANCH  14  15
ENDBRANCH  13  14
ENDBRANCH  12  13
ENDBRANCH  10  12
ENDBRANCH   1  10
BRANCH   8  20
ATOM     20  C24 ZIN A   1      19.027  -1.204  10.589  0.00  0.00    -0.021 A 
ATOM     21  C30 ZIN A   1      18.451  -0.659  11.723  0.00  0.00     0.063 A 
ATOM     22  C28 ZIN A   1      19.226   0.061  12.615  0.00  0.00     0.056 A 
ATOM     23 Cl31 ZIN A   1      16.758  -0.889  12.031  0.00  0.00    -0.082 Cl
ATOM     24  C27 ZIN A   1      20.575   0.244  12.368  0.00  0.00     0.026 A 
ATOM     25 Cl29 ZIN A   1      18.505   0.739  14.041  0.00  0.00    -0.083 Cl
ATOM     26  C26 ZIN A   1      21.148  -0.297  11.233  0.00  0.00     0.002 A 
ATOM     27  C25 ZIN A   1      20.376  -1.021  10.344  0.00  0.00     0.010 A 
ENDBRANCH   8  20
BRANCH   7  28
ATOM     28  C18 ZIN A   1      18.125  -4.213  10.805  0.00  0.00     0.291 C 
ATOM     29  O19 ZIN A   1      18.917  -4.554  11.663  0.00  0.00    -0.260 OA
BRANCH  28  30
ATOM     30  O20 ZIN A   1      16.828  -4.570  10.905  0.00  0.00    -0.323 OA
ATOM     31  C21 ZIN A   1      16.244  -5.223   9.775  0.00  0.00     0.213 C 
ENDBRANCH  28  30
ENDBRANCH   7  28
TORSDOF 10
ENDMDL
MODEL 3
REMARK VINA RESULT:      -6.7      3.154      4.999
REMARK  10 active torsions:
REMARK  status: ('A' for Active; 'I' for Inactive)
REMARK    1  A    between atoms: C2_2  and  C3_3 
REMARK    2  A    between atoms: C3_3  and  C4_4 
REMARK    3  A    between atoms: C4_4  and  O6_6 
REMARK    4  A    between atoms: O6_6  and  C7_7 
REMARK    5  A    between atoms: C7_7  and  O8_8 
REMARK    6  A    between atoms: O8_8  and  C9_9 
REMARK    7  A    between atoms: C9_9  and  C11_11 
REMARK    8  A    between atoms: C17_17  and  C18_18 
REMARK    9  A    between atoms: C18_18  and  O20_20 
REMARK   10  A    between atoms: C22_22  and  C24_23 
ROOT
ATOM      1  C11 ZIN A   1      18.355   1.338  14.788  0.00  0.00     0.052 C 
ATOM      2  C12 ZIN A   1      19.065   2.091  15.646  0.00  0.00     0.018 C 
ATOM      3  C13 ZIN A   1      19.341   1.576  17.035  0.00  0.00     0.069 C 
ATOM      4  N14 ZIN A   1      19.540   3.318  15.273  0.00  0.00    -0.362 N 
ATOM      5  C15 ZIN A   1      19.017   3.959  14.183  0.00  0.00     0.018 C 
ATOM      6  C16 ZIN A   1      19.243   5.438  14.009  0.00  0.00     0.069 C 
ATOM      7  C17 ZIN A   1      18.305   3.284  13.264  0.00  0.00     0.052 C 
ATOM      8  C22 ZIN A   1      18.067   1.804  13.390  0.00  0.00     0.102 C 
ATOM      9  H44 ZIN A   1      20.250   3.737  15.784  0.00  0.00     0.165 HD
ENDROOT
BRANCH   1  10
ATOM     10  C9  ZIN A   1      17.873   0.077  15.211  0.00  0.00     0.294 C 
ATOM     11  O10 ZIN A   1      16.793  -0.006  15.766  0.00  0.00    -0.259 OA
BRANCH  10  12
ATOM     12  O8  ZIN A   1      18.609  -1.033  14.998  0.00  0.00    -0.291 OA
BRANCH  12  13
ATOM     13  C7  ZIN A   1      18.229  -1.864  13.899  0.00  0.00     0.358 C 
BRANCH  13  14
ATOM     14  O6  ZIN A   1      19.418  -2.404  13.266  0.00  0.00    -0.295 OA
BRANCH  14  15
ATOM     15  C4  ZIN A   1      19.235  -3.186  12.191  0.00  0.00     0.260 C 
ATOM     16  O5  ZIN A   1      20.190  -3.613  11.585  0.00  0.00    -0.265 OA
BRANCH  15  17
ATOM     17  C3  ZIN A   1      17.841  -3.533  11.739  0.00  0.00     0.111 C 
BRANCH  17  18
ATOM     18  C2  ZIN A   1      17.580  -5.021  11.984  0.00  0.00     0.005 C 
ATOM     19  C1  ZIN A   1      17.068  -5.669  10.696  0.00  0.00     0.005 C 
ENDBRANCH  17  18
ENDBRANCH  15  17
ENDBRANCH  14  15
ENDBRANCH  13  14
ENDBRANCH  12  13
ENDBRANCH  10  12
ENDBRANCH   1  10
BRANCH   8  20
ATOM     20  C24 ZIN A   1      18.960   1.074  12.420  0.00  0.00    -0.021 A 
ATOM     21  C30 ZIN A   1      18.413   0.434  11.322  0.00  0.00     0.063 A 
ATOM     22  C28 ZIN A   1      19.235  -0.233  10.430  0.00  0.00     0.056 A 
ATOM     23 Cl31 ZIN A   1      16.698   0.479  11.057  0.00  0.00    -0.082 Cl
ATOM     24  C27 ZIN A   1      20.602  -0.269  10.643  0.00  0.00     0.026 A 
ATOM     25 Cl29 ZIN A   1      18.550  -1.030   9.048  0.00  0.00    -0.083 Cl
ATOM     26  C26 ZIN A   1      21.145   0.367  11.744  0.00  0.00     0.002 A 
ATOM     27  C25 ZIN A   1      20.326   1.037  12.632  0.00  0.00     0.010 A 
ENDBRANCH   8  20
BRANCH   7  28
ATOM     28  C18 ZIN A   1      17.773   3.978  12.153  0.00  0.00     0.291 C 
ATOM     29  O19 ZIN A   1      16.614   4.348  12.164  0.00  0.00    -0.260 OA
BRANCH  28  30
ATOM     30  O20 ZIN A   1      18.551   4.231  11.080  0.00  0.00    -0.323 OA
ATOM     31  C21 ZIN A   1      18.090   3.747   9.816  0.00  0.00     0.213 C 
ENDBRANCH  28  30
ENDBRANCH   7  28
TORSDOF 10
ENDMDL
MODEL 4
REMARK VINA RESULT:      -6.7      5.081      9.057
REMARK  10 active torsions:
REMARK  status: ('A' for Active; 'I' for Inactive)
REMARK    1  A    between atoms: C2_2  and  C3_3 
REMARK    2  A    between atoms: C3_3  and  C4_4 
REMARK    3  A    between atoms: C4_4  and  O6_6 
REMARK    4  A    between atoms: O6_6  and  C7_7 
REMARK    5  A    between atoms: C7_7  and  O8_8 
REMARK    6  A    between atoms: O8_8  and  C9_9 
REMARK    7  A    between atoms: C9_9  and  C11_11 
REMARK    8  A    between atoms: C17_17  and  C18_18 
REMARK    9  A    between atoms: C18_18  and  O20_20 
REMARK   10  A    between atoms: C22_22  and  C24_23 
ROOT
ATOM      1  C11 ZIN A   1      18.301  -3.439  10.214  0.00  0.00     0.052 C 
ATOM      2  C12 ZIN A   1      17.338  -4.357  10.019  0.00  0.00     0.018 C 
ATOM      3  C13 ZIN A   1      16.528  -4.846  11.191  0.00  0.00     0.069 C 
ATOM      4  N14 ZIN A   1      17.085  -4.852   8.769  0.00  0.00    -0.362 N 
ATOM      5  C15 ZIN A   1      18.010  -4.713   7.770  0.00  0.00     0.018 C 
ATOM      6  C16 ZIN A   1      17.917  -5.580   6.543  0.00  0.00     0.069 C 
ATOM      7  C17 ZIN A   1      19.001  -3.809   7.871  0.00  0.00     0.052 C 
ATOM      8  C22 ZIN A   1      19.123  -2.912   9.072  0.00  0.00     0.102 C 
ATOM      9  H44 ZIN A   1      16.246  -5.305   8.589  0.00  0.00     0.165 HD
ENDROOT
BRANCH   1  10
ATOM     10  C9  ZIN A   1      18.540  -2.955  11.520  0.00  0.00     0.294 C 
ATOM     11  O10 ZIN A   1      19.529  -3.316  12.131  0.00  0.00    -0.259 OA
BRANCH  10  12
ATOM     12  O8  ZIN A   1      17.672  -2.092  12.091  0.00  0.00    -0.291 OA
BRANCH  12  13
ATOM     13  C7  ZIN A   1      18.219  -0.894  12.645  0.00  0.00     0.358 C 
BRANCH  13  14
ATOM     14  O6  ZIN A   1      17.651  -0.667  13.961  0.00  0.00    -0.295 OA
BRANCH  14  15
ATOM     15  C4  ZIN A   1      18.420  -0.972  15.018  0.00  0.00     0.260 C 
ATOM     16  O5  ZIN A   1      19.546  -1.377  14.849  0.00  0.00    -0.265 OA
BRANCH  15  17
ATOM     17  C3  ZIN A   1      17.880  -0.809  16.415  0.00  0.00     0.111 C 
BRANCH  17  18
ATOM     18  C2  ZIN A   1      19.044  -0.712  17.404  0.00  0.00     0.005 C 
ATOM     19  C1  ZIN A   1      18.620   0.128  18.610  0.00  0.00     0.005 C 
ENDBRANCH  17  18
ENDBRANCH  15  17
ENDBRANCH  14  15
ENDBRANCH  13  14
ENDBRANCH  12  13
ENDBRANCH  10  12
ENDBRANCH   1  10
BRANCH   8  20
ATOM     20  C24 ZIN A   1      18.653  -1.528   8.708  0.00  0.00    -0.021 A 
ATOM     21  C30 ZIN A   1      19.323  -0.419   9.193  0.00  0.00     0.063 A 
ATOM     22  C28 ZIN A   1      18.892   0.852   8.854  0.00  0.00     0.056 A 
ATOM     23 Cl31 ZIN A   1      20.710  -0.622  10.216  0.00  0.00    -0.082 Cl
ATOM     24  C27 ZIN A   1      17.785   1.013   8.039  0.00  0.00     0.026 A 
ATOM     25 Cl29 ZIN A   1      19.737   2.244   9.457  0.00  0.00    -0.083 Cl
ATOM     26  C26 ZIN A   1      17.115  -0.096   7.559  0.00  0.00     0.002 A 
ATOM     27  C25 ZIN A   1      17.548  -1.366   7.893  0.00  0.00     0.010 A 
ENDBRANCH   8  20
BRANCH   7  28
ATOM     28  C18 ZIN A   1      19.944  -3.696   6.824  0.00  0.00     0.291 C 
ATOM     29  O19 ZIN A   1      20.852  -4.501   6.733  0.00  0.00    -0.260 OA
BRANCH  28  30
ATOM     30  O20 ZIN A   1      19.838  -2.695   5.926  0.00  0.00    -0.323 OA
ATOM     31  C21 ZIN A   1      19.021  -2.936   4.777  0.00  0.00     0.213 C 
ENDBRANCH  28  30
ENDBRANCH   7  28
TORSDOF 10
ENDMDL
MODEL 5
REMARK VINA RESULT:      -6.6      4.905      8.709
REMARK  10 active torsions:
REMARK  status: ('A' for Active; 'I' for Inactive)
REMARK    1  A    between atoms: C2_2  and  C3_3 
REMARK    2  A    between atoms: C3_3  and  C4_4 
REMARK    3  A    between atoms: C4_4  and  O6_6 
REMARK    4  A    between atoms: O6_6  and  C7_7 
REMARK    5  A    between atoms: C7_7  and  O8_8 
REMARK    6  A    between atoms: O8_8  and  C9_9 
REMARK    7  A    between atoms: C9_9  and  C11_11 
REMARK    8  A    between atoms: C17_17  and  C18_18 
REMARK    9  A    between atoms: C18_18  and  O20_20 
REMARK   10  A    between atoms: C22_22  and  C24_23 
ROOT
ATOM      1  C11 ZIN A   1      18.820  -1.443   9.781  0.00  0.00     0.052 C 
ATOM      2  C12 ZIN A   1      19.773  -0.497   9.845  0.00  0.00     0.018 C 
ATOM      3  C13 ZIN A   1      20.488  -0.249  11.148  0.00  0.00     0.069 C 
ATOM      4  N14 ZIN A   1      20.103   0.242   8.742  0.00  0.00    -0.362 N 
ATOM      5  C15 ZIN A   1      19.254   0.300   7.670  0.00  0.00     0.018 C 
ATOM      6  C16 ZIN A   1      19.414   1.398   6.652  0.00  0.00     0.069 C 
ATOM      7  C17 ZIN A   1      18.278  -0.612   7.515  0.00  0.00     0.052 C 
ATOM      8  C22 ZIN A   1      18.091  -1.734   8.499  0.00  0.00     0.102 C 
ATOM      9  H44 ZIN A   1      20.943   0.727   8.719  0.00  0.00     0.165 HD
ENDROOT
BRANCH   1  10
ATOM     10  C9  ZIN A   1      18.499  -2.182  10.942  0.00  0.00     0.294 C 
ATOM     11  O10 ZIN A   1      19.262  -3.039  11.348  0.00  0.00    -0.259 OA
BRANCH  10  12
ATOM     12  O8  ZIN A   1      17.348  -1.936  11.603  0.00  0.00    -0.291 OA
BRANCH  12  13
ATOM     13  C7  ZIN A   1      17.346  -0.839  12.518  0.00  0.00     0.358 C 
BRANCH  13  14
ATOM     14  O6  ZIN A   1      16.642   0.284  11.926  0.00  0.00    -0.295 OA
BRANCH  14  15
ATOM     15  C4  ZIN A   1      17.334   1.424  11.768  0.00  0.00     0.260 C 
ATOM     16  O5  ZIN A   1      17.825   1.969  12.728  0.00  0.00    -0.265 OA
BRANCH  15  17
ATOM     17  C3  ZIN A   1      17.498   2.023  10.396  0.00  0.00     0.111 C 
BRANCH  17  18
ATOM     18  C2  ZIN A   1      18.470   3.203  10.466  0.00  0.00     0.005 C 
ATOM     19  C1  ZIN A   1      17.700   4.511  10.274  0.00  0.00     0.005 C 
ENDBRANCH  17  18
ENDBRANCH  15  17
ENDBRANCH  14  15
ENDBRANCH  13  14
ENDBRANCH  12  13
ENDBRANCH  10  12
ENDBRANCH   1  10
BRANCH   8  20
ATOM     20  C24 ZIN A   1      18.616  -3.013   7.900  0.00  0.00    -0.021 A 
ATOM     21  C30 ZIN A   1      17.998  -4.217   8.188  0.00  0.00     0.063 A 
ATOM     22  C28 ZIN A   1      18.478  -5.391   7.633  0.00  0.00     0.056 A 
ATOM     23 Cl31 ZIN A   1      16.614  -4.253   9.235  0.00  0.00    -0.082 Cl
ATOM     24  C27 ZIN A   1      19.582  -5.360   6.800  0.00  0.00     0.026 A 
ATOM     25 Cl29 ZIN A   1      17.699  -6.901   7.989  0.00  0.00    -0.083 Cl
ATOM     26  C26 ZIN A   1      20.201  -4.157   6.517  0.00  0.00     0.002 A 
ATOM     27  C25 ZIN A   1      19.718  -2.984   7.067  0.00  0.00     0.010 A 
ENDBRANCH   8  20
BRANCH   7  28
ATOM     28  C18 ZIN A   1      17.414  -0.518   6.400  0.00  0.00     0.291 C 
ATOM     29  O19 ZIN A   1      16.263  -0.155   6.552  0.00  0.00    -0.260 OA
BRANCH  28  30
ATOM     30  O20 ZIN A   1      17.866  -0.832   5.168  0.00  0.00    -0.323 OA
ATOM     31  C21 ZIN A   1      17.204  -1.900   4.486  0.00  0.00     0.213 C 
ENDBRANCH  28  30
ENDBRANCH   7  28
TORSDOF 10
ENDMDL
MODEL 6
REMARK VINA RESULT:      -6.6      4.668      8.958
REMARK  10 active torsions:
REMARK  status: ('A' for Active; 'I' for Inactive)
REMARK    1  A    between atoms: C2_2  and  C3_3 
REMARK    2  A    between atoms: C3_3  and  C4_4 
REMARK    3  A    between atoms: C4_4  and  O6_6 
REMARK    4  A    between atoms: O6_6  and  C7_7 
REMARK    5  A    between atoms: C7_7  and  O8_8 
REMARK    6  A    between atoms: O8_8  and  C9_9 
REMARK    7  A    between atoms: C9_9  and  C11_11 
REMARK    8  A    between atoms: C17_17  and  C18_18 
REMARK    9  A    between atoms: C18_18  and  O20_20 
REMARK   10  A    between atoms: C22_22  and  C24_23 
ROOT
ATOM      1  C11 ZIN A   1      19.063  -1.530  10.577  0.00  0.00     0.052 C 
ATOM      2  C12 ZIN A   1      18.179  -1.682  11.578  0.00  0.00     0.018 C 
ATOM      3  C13 ZIN A   1      18.229  -0.752  12.762  0.00  0.00     0.069 C 
ATOM      4  N14 ZIN A   1      17.233  -2.670  11.534  0.00  0.00    -0.362 N 
ATOM      5  C15 ZIN A   1      17.381  -3.729  10.681  0.00  0.00     0.018 C 
ATOM      6  C16 ZIN A   1      16.579  -4.984  10.907  0.00  0.00     0.069 C 
ATOM      7  C17 ZIN A   1      18.232  -3.663   9.642  0.00  0.00     0.052 C 
ATOM      8  C22 ZIN A   1      19.041  -2.425   9.370  0.00  0.00     0.102 C 
ATOM      9  H44 ZIN A   1      16.455  -2.620  12.111  0.00  0.00     0.165 HD
ENDROOT
BRANCH   1  10
ATOM     10  C9  ZIN A   1      20.031  -0.503  10.660  0.00  0.00     0.294 C 
ATOM     11  O10 ZIN A   1      21.165  -0.763  11.018  0.00  0.00    -0.259 OA
BRANCH  10  12
ATOM     12  O8  ZIN A   1      19.699   0.766  10.340  0.00  0.00    -0.291 OA
BRANCH  12  13
ATOM     13  C7  ZIN A   1      19.798   1.743  11.377  0.00  0.00     0.358 C 
BRANCH  13  14
ATOM     14  O6  ZIN A   1      19.342   3.027  10.878  0.00  0.00    -0.295 OA
BRANCH  14  15
ATOM     15  C4  ZIN A   1      18.016   3.226  10.827  0.00  0.00     0.260 C 
ATOM     16  O5  ZIN A   1      17.260   2.349  11.172  0.00  0.00    -0.265 OA
BRANCH  15  17
ATOM     17  C3  ZIN A   1      17.469   4.544  10.343  0.00  0.00     0.111 C 
BRANCH  17  18
ATOM     18  C2  ZIN A   1      16.496   5.106  11.382  0.00  0.00     0.005 C 
ATOM     19  C1  ZIN A   1      17.256   5.439  12.666  0.00  0.00     0.005 C 
ENDBRANCH  17  18
ENDBRANCH  15  17
ENDBRANCH  14  15
ENDBRANCH  13  14
ENDBRANCH  12  13
ENDBRANCH  10  12
ENDBRANCH   1  10
BRANCH   8  20
ATOM     20  C24 ZIN A   1      18.439  -1.685   8.204  0.00  0.00    -0.021 A 
ATOM     21  C30 ZIN A   1      18.890  -1.932   6.920  0.00  0.00     0.063 A 
ATOM     22  C28 ZIN A   1      18.333  -1.254   5.849  0.00  0.00     0.056 A 
ATOM     23 Cl31 ZIN A   1      20.146  -3.100   6.650  0.00  0.00    -0.082 Cl
ATOM     24  C27 ZIN A   1      17.333  -0.322   6.065  0.00  0.00     0.026 A 
ATOM     25 Cl29 ZIN A   1      18.894  -1.568   4.236  0.00  0.00    -0.083 Cl
ATOM     26  C26 ZIN A   1      16.888  -0.073   7.349  0.00  0.00     0.002 A 
ATOM     27  C25 ZIN A   1      17.440  -0.754   8.418  0.00  0.00     0.010 A 
ENDBRANCH   8  20
BRANCH   7  28
ATOM     28  C18 ZIN A   1      18.365  -4.779   8.784  0.00  0.00     0.291 C 
ATOM     29  O19 ZIN A   1      19.297  -5.549   8.927  0.00  0.00    -0.260 OA
BRANCH  28  30
ATOM     30  O20 ZIN A   1      17.460  -4.990   7.806  0.00  0.00    -0.323 OA
ATOM     31  C21 ZIN A   1      17.815  -5.923   6.783  0.00  0.00     0.213 C 
ENDBRANCH  28  30
ENDBRANCH   7  28
TORSDOF 10
ENDMDL
MODEL 7
REMARK VINA RESULT:      -6.5      4.640      8.929
REMARK  10 active torsions:
REMARK  status: ('A' for Active; 'I' for Inactive)
REMARK    1  A    between atoms: C2_2  and  C3_3 
REMARK    2  A    between atoms: C3_3  and  C4_4 
REMARK    3  A    between atoms: C4_4  and  O6_6 
REMARK    4  A    between atoms: O6_6  and  C7_7 
REMARK    5  A    between atoms: C7_7  and  O8_8 
REMARK    6  A    between atoms: O8_8  and  C9_9 
REMARK    7  A    between atoms: C9_9  and  C11_11 
REMARK    8  A    between atoms: C17_17  and  C18_18 
REMARK    9  A    between atoms: C18_18  and  O20_20 
REMARK   10  A    between atoms: C22_22  and  C24_23 
ROOT
ATOM      1  C11 ZIN A   1      18.282  -2.520   7.700  0.00  0.00     0.052 C 
ATOM      2  C12 ZIN A   1      18.825  -3.061   6.595  0.00  0.00     0.018 C 
ATOM      3  C13 ZIN A   1      19.452  -2.165   5.559  0.00  0.00     0.069 C 
ATOM      4  N14 ZIN A   1      18.815  -4.415   6.402  0.00  0.00    -0.362 N 
ATOM      5  C15 ZIN A   1      17.960  -5.209   7.117  0.00  0.00     0.018 C 
ATOM      6  C16 ZIN A   1      17.665  -6.606   6.637  0.00  0.00     0.069 C 
ATOM      7  C17 ZIN A   1      17.382  -4.757   8.243  0.00  0.00     0.052 C 
ATOM      8  C22 ZIN A   1      17.659  -3.375   8.766  0.00  0.00     0.102 C 
ATOM      9  H44 ZIN A   1      19.416  -4.815   5.754  0.00  0.00     0.165 HD
ENDROOT
BRANCH   1  10
ATOM     10  C9  ZIN A   1      18.303  -1.116   7.864  0.00  0.00     0.294 C 
ATOM     11  O10 ZIN A   1      17.302  -0.461   7.636  0.00  0.00    -0.259 OA
BRANCH  10  12
ATOM     12  O8  ZIN A   1      19.433  -0.500   8.273  0.00  0.00    -0.291 OA
BRANCH  12  13
ATOM     13  C7  ZIN A   1      19.317   0.865   8.679  0.00  0.00     0.358 C 
BRANCH  13  14
ATOM     14  O6  ZIN A   1      19.455   0.953  10.121  0.00  0.00    -0.295 OA
BRANCH  14  15
ATOM     15  C4  ZIN A   1      19.099   2.112  10.698  0.00  0.00     0.260 C 
ATOM     16  O5  ZIN A   1      19.902   2.731  11.356  0.00  0.00    -0.265 OA
BRANCH  15  17
ATOM     17  C3  ZIN A   1      17.699   2.641  10.526  0.00  0.00     0.111 C 
BRANCH  17  18
ATOM     18  C2  ZIN A   1      17.517   3.894  11.385  0.00  0.00     0.005 C 
ATOM     19  C1  ZIN A   1      17.178   5.085  10.487  0.00  0.00     0.005 C 
ENDBRANCH  17  18
ENDBRANCH  15  17
ENDBRANCH  14  15
ENDBRANCH  13  14
ENDBRANCH  12  13
ENDBRANCH  10  12
ENDBRANCH   1  10
BRANCH   8  20
ATOM     20  C24 ZIN A   1      18.591  -3.469   9.946  0.00  0.00    -0.021 A 
ATOM     21  C30 ZIN A   1      18.439  -2.608  11.019  0.00  0.00     0.063 A 
ATOM     22  C28 ZIN A   1      19.293  -2.698  12.105  0.00  0.00     0.056 A 
ATOM     23 Cl31 ZIN A   1      17.170  -1.423  11.007  0.00  0.00    -0.082 Cl
ATOM     24  C27 ZIN A   1      20.305  -3.642  12.112  0.00  0.00     0.026 A 
ATOM     25 Cl29 ZIN A   1      19.099  -1.622  13.453  0.00  0.00    -0.083 Cl
ATOM     26  C26 ZIN A   1      20.458  -4.498  11.037  0.00  0.00     0.002 A 
ATOM     27  C25 ZIN A   1      19.602  -4.412   9.956  0.00  0.00     0.010 A 
ENDBRANCH   8  20
BRANCH   7  28
ATOM     28  C18 ZIN A   1      16.498  -5.602   8.954  0.00  0.00     0.291 C 
ATOM     29  O19 ZIN A   1      16.938  -6.520   9.621  0.00  0.00    -0.260 OA
BRANCH  28  30
ATOM     30  O20 ZIN A   1      15.167  -5.392   8.891  0.00  0.00    -0.323 OA
ATOM     31  C21 ZIN A   1      14.423  -6.210   7.984  0.00  0.00     0.213 C 
ENDBRANCH  28  30
ENDBRANCH   7  28
TORSDOF 10
ENDMDL
MODEL 8
REMARK VINA RESULT:      -6.5      2.929      3.470
REMARK  10 active torsions:
REMARK  status: ('A' for Active; 'I' for Inactive)
REMARK    1  A    between atoms: C2_2  and  C3_3 
REMARK    2  A    between atoms: C3_3  and  C4_4 
REMARK    3  A    between atoms: C4_4  and  O6_6 
REMARK    4  A    between atoms: O6_6  and  C7_7 
REMARK    5  A    between atoms: C7_7  and  O8_8 
REMARK    6  A    between atoms: O8_8  and  C9_9 
REMARK    7  A    between atoms: C9_9  and  C11_11 
REMARK    8  A    between atoms: C17_17  and  C18_18 
REMARK    9  A    between atoms: C18_18  and  O20_20 
REMARK   10  A    between atoms: C22_22  and  C24_23 
ROOT
ATOM      1  C11 ZIN A   1      18.056   3.760  13.177  0.00  0.00     0.052 C 
ATOM      2  C12 ZIN A   1      17.079   4.613  13.531  0.00  0.00     0.018 C 
ATOM      3  C13 ZIN A   1      16.154   5.164  12.477  0.00  0.00     0.069 C 
ATOM      4  N14 ZIN A   1      16.914   4.986  14.837  0.00  0.00    -0.362 N 
ATOM      5  C15 ZIN A   1      17.925   4.803  15.741  0.00  0.00     0.018 C 
ATOM      6  C16 ZIN A   1      17.903   5.555  17.045  0.00  0.00     0.069 C 
ATOM      7  C17 ZIN A   1      18.937   3.957  15.479  0.00  0.00     0.052 C 
ATOM      8  C22 ZIN A   1      18.992   3.175  14.196  0.00  0.00     0.102 C 
ATOM      9  H44 ZIN A   1      16.076   5.382  15.124  0.00  0.00     0.165 HD
ENDROOT
BRANCH   1  10
ATOM     10  C9  ZIN A   1      18.202   3.403  11.817  0.00  0.00     0.294 C 
ATOM     11  O10 ZIN A   1      19.157   3.808  11.180  0.00  0.00    -0.259 OA
BRANCH  10  12
ATOM     12  O8  ZIN A   1      17.283   2.612  11.224  0.00  0.00    -0.291 OA
BRANCH  12  13
ATOM     13  C7  ZIN A   1      17.766   1.447  10.552  0.00  0.00     0.358 C 
BRANCH  13  14
ATOM     14  O6  ZIN A   1      18.195   1.804   9.212  0.00  0.00    -0.295 OA
BRANCH  14  15
ATOM     15  C4  ZIN A   1      18.089   0.860   8.265  0.00  0.00     0.260 C 
ATOM     16  O5  ZIN A   1      17.332  -0.069   8.421  0.00  0.00    -0.265 OA
BRANCH  15  17
ATOM     17  C3  ZIN A   1      18.912   0.957   7.007  0.00  0.00     0.111 C 
BRANCH  17  18
ATOM     18  C2  ZIN A   1      18.121   0.375   5.833  0.00  0.00     0.005 C 
ATOM     19  C1  ZIN A   1      19.089  -0.066   4.734  0.00  0.00     0.005 C 
ENDBRANCH  17  18
ENDBRANCH  15  17
ENDBRANCH  14  15
ENDBRANCH  13  14
ENDBRANCH  12  13
ENDBRANCH  10  12
ENDBRANCH   1  10
BRANCH   8  20
ATOM     20  C24 ZIN A   1      18.607   1.744  14.471  0.00  0.00    -0.021 A 
ATOM     21  C30 ZIN A   1      19.264   0.714  13.822  0.00  0.00     0.063 A 
ATOM     22  C28 ZIN A   1      18.913  -0.601  14.079  0.00  0.00     0.056 A 
ATOM     23 Cl31 ZIN A   1      20.536   1.069  12.695  0.00  0.00    -0.082 Cl
ATOM     24  C27 ZIN A   1      17.898  -0.882  14.976  0.00  0.00     0.026 A 
ATOM     25 Cl29 ZIN A   1      19.742  -1.894  13.270  0.00  0.00    -0.083 Cl
ATOM     26  C26 ZIN A   1      17.240   0.148  15.619  0.00  0.00     0.002 A 
ATOM     27  C25 ZIN A   1      17.594   1.461  15.368  0.00  0.00     0.010 A 
ENDBRANCH   8  20
BRANCH   7  28
ATOM     28  C18 ZIN A   1      19.969   3.797  16.432  0.00  0.00     0.291 C 
ATOM     29  O19 ZIN A   1      19.793   3.091  17.407  0.00  0.00    -0.260 OA
BRANCH  28  30
ATOM     30  O20 ZIN A   1      21.149   4.428  16.262  0.00  0.00    -0.323 OA
ATOM     31  C21 ZIN A   1      21.111   5.727  15.665  0.00  0.00     0.213 C 
ENDBRANCH  28  30
ENDBRANCH   7  28
TORSDOF 10
ENDMDL
MODEL 9
REMARK VINA RESULT:      -6.5      6.120     10.378
REMARK  10 active torsions:
REMARK  status: ('A' for Active; 'I' for Inactive)
REMARK    1  A    between atoms: C2_2  and  C3_3 
REMARK    2  A    between atoms: C3_3  and  C4_4 
REMARK    3  A    between atoms: C4_4  and  O6_6 
REMARK    4  A    between atoms: O6_6  and  C7_7 
REMARK    5  A    between atoms: C7_7  and  O8_8 
REMARK    6  A    between atoms: O8_8  and  C9_9 
REMARK    7  A    between atoms: C9_9  and  C11_11 
REMARK    8  A    between atoms: C17_17  and  C18_18 
REMARK    9  A    between atoms: C18_18  and  O20_20 
REMARK   10  A    between atoms: C22_22  and  C24_23 
ROOT
ATOM      1  C11 ZIN A   1      18.379  -2.132   6.113  0.00  0.00     0.052 C 
ATOM      2  C12 ZIN A   1      18.916  -1.811   4.923  0.00  0.00     0.018 C 
ATOM      3  C13 ZIN A   1      19.432  -0.414   4.693  0.00  0.00     0.069 C 
ATOM      4  N14 ZIN A   1      19.001  -2.738   3.920  0.00  0.00    -0.362 N 
ATOM      5  C15 ZIN A   1      18.238  -3.873   3.962  0.00  0.00     0.018 C 
ATOM      6  C16 ZIN A   1      18.030  -4.676   2.705  0.00  0.00     0.069 C 
ATOM      7  C17 ZIN A   1      17.673  -4.280   5.112  0.00  0.00     0.052 C 
ATOM      8  C22 ZIN A   1      17.866  -3.516   6.393  0.00  0.00     0.102 C 
ATOM      9  H44 ZIN A   1      19.604  -2.589   3.175  0.00  0.00     0.165 HD
ENDROOT
BRANCH   1  10
ATOM     10  C9  ZIN A   1      18.301  -1.148   7.125  0.00  0.00     0.294 C 
ATOM     11  O10 ZIN A   1      17.304  -0.455   7.224  0.00  0.00    -0.259 OA
BRANCH  10  12
ATOM     12  O8  ZIN A   1      19.330  -0.975   7.981  0.00  0.00    -0.291 OA
BRANCH  12  13
ATOM     13  C7  ZIN A   1      19.021  -0.436   9.267  0.00  0.00     0.358 C 
BRANCH  13  14
ATOM     14  O6  ZIN A   1      19.866   0.716   9.525  0.00  0.00    -0.295 OA
BRANCH  14  15
ATOM     15  C4  ZIN A   1      19.322   1.927   9.333  0.00  0.00     0.260 C 
ATOM     16  O5  ZIN A   1      19.016   2.283   8.220  0.00  0.00    -0.265 OA
BRANCH  15  17
ATOM     17  C3  ZIN A   1      19.090   2.844  10.507  0.00  0.00     0.111 C 
BRANCH  17  18
ATOM     18  C2  ZIN A   1      17.628   3.296  10.521  0.00  0.00     0.005 C 
ATOM     19  C1  ZIN A   1      17.556   4.799  10.245  0.00  0.00     0.005 C 
ENDBRANCH  17  18
ENDBRANCH  15  17
ENDBRANCH  14  15
ENDBRANCH  13  14
ENDBRANCH  12  13
ENDBRANCH  10  12
ENDBRANCH   1  10
BRANCH   8  20
ATOM     20  C24 ZIN A   1      18.848  -4.252   7.266  0.00  0.00    -0.021 A 
ATOM     21  C30 ZIN A   1      18.613  -4.372   8.624  0.00  0.00     0.063 A 
ATOM     22  C28 ZIN A   1      19.515  -5.053   9.425  0.00  0.00     0.056 A 
ATOM     23 Cl31 ZIN A   1      17.182  -3.680   9.322  0.00  0.00    -0.082 Cl
ATOM     24  C27 ZIN A   1      20.656  -5.603   8.867  0.00  0.00     0.026 A 
ATOM     25 Cl29 ZIN A   1      19.217  -5.210  11.128  0.00  0.00    -0.083 Cl
ATOM     26  C26 ZIN A   1      20.891  -5.478   7.512  0.00  0.00     0.002 A 
ATOM     27  C25 ZIN A   1      19.989  -4.803   6.711  0.00  0.00     0.010 A 
ENDBRANCH   8  20
BRANCH   7  28
ATOM     28  C18 ZIN A   1      16.884  -5.454   5.118  0.00  0.00     0.291 C 
ATOM     29  O19 ZIN A   1      15.671  -5.372   5.070  0.00  0.00    -0.260 OA
BRANCH  28  30
ATOM     30  O20 ZIN A   1      17.477  -6.664   5.177  0.00  0.00    -0.323 OA
ATOM     31  C21 ZIN A   1      17.272  -7.430   6.367  0.00  0.00     0.213 C 
ENDBRANCH  28  30
ENDBRANCH   7  28
TORSDOF 10
ENDMDL
