MODEL 1
REMARK VINA RESULT:       2.8      0.000      0.000
REMARK  7 active torsions:
REMARK  status: ('A' for Active; 'I' for Inactive)
REMARK    1  A    between atoms: O2_2  and  C3_3 
REMARK    2  A    between atoms: C8_8  and  O9_9 
REMARK    3  A    between atoms: C19_18  and  O20_19 
REMARK    4  A    between atoms: O20_19  and  C21_20 
REMARK    5  A    between atoms: C44_40  and  O45_41 
REMARK    6  A    between atoms: C46_42  and  O47_43 
REMARK    7  A    between atoms: C56_51  and  O58_52 
ROOT
ATOM      1  C3  ZIN A   1      13.807  -6.533   3.590  0.00  0.00     0.101 A 
ATOM      2  C4  ZIN A   1      14.628  -5.815   4.443  0.00  0.00     0.050 A 
ATOM      3  C5  ZIN A   1      15.764  -6.399   4.984  0.00  0.00    -0.011 A 
ATOM      4  C6  ZIN A   1      16.081  -7.703   4.670  0.00  0.00    -0.044 A 
ATOM      5  C7  ZIN A   1      15.263  -8.425   3.809  0.00  0.00     0.047 A 
ATOM      6  C8  ZIN A   1      14.128  -7.849   3.271  0.00  0.00     0.099 A 
ATOM      7  C10 ZIN A   1      17.297  -8.393   5.229  0.00  0.00     0.058 C 
ATOM      8  C11 ZIN A   1      18.245  -7.374   5.863  0.00  0.00     0.120 C 
ATOM      9  N12 ZIN A   1      17.474  -6.458   6.690  0.00  0.00    -0.400 N 
ATOM     10  C13 ZIN A   1      16.622  -5.566   5.913  0.00  0.00     0.151 C 
ATOM     11  C14 ZIN A   1      15.698  -4.792   6.855  0.00  0.00     0.121 C 
ATOM     12  S15 ZIN A   1      16.377  -4.590   8.533  0.00  0.00    -0.154 SA
ATOM     13  C16 ZIN A   1      17.898  -3.720   8.220  0.00  0.00     0.119 C 
ATOM     14  C18 ZIN A   1      19.241  -4.372   8.247  0.00  0.00     0.004 A 
ATOM     15  C19 ZIN A   1      19.527  -5.314   9.226  0.00  0.00     0.096 A 
ATOM     16  C24 ZIN A   1      20.741  -5.988   9.272  0.00  0.00     0.009 A 
ATOM     17  C25 ZIN A   1      21.016  -7.010  10.345  0.00  0.00     0.054 C 
ATOM     18  C26 ZIN A   1      21.691  -5.695   8.306  0.00  0.00     0.114 A 
ATOM     19  O27 ZIN A   1      22.916  -6.224   8.103  0.00  0.00    -0.322 OA
ATOM     20  C28 ZIN A   1      23.314  -5.802   6.785  0.00  0.00     0.352 C 
ATOM     21  O29 ZIN A   1      22.519  -4.632   6.517  0.00  0.00    -0.322 OA
ATOM     22  C30 ZIN A   1      21.438  -4.719   7.326  0.00  0.00     0.114 A 
ATOM     23  C31 ZIN A   1      20.242  -4.048   7.299  0.00  0.00     0.024 A 
ATOM     24  C32 ZIN A   1      19.951  -2.963   6.245  0.00  0.00     0.287 C 
ATOM     25  C34 ZIN A   1      19.663  -3.498   4.871  0.00  0.00     0.220 C 
ATOM     26  O35 ZIN A   1      18.803  -4.665   5.075  0.00  0.00    -0.317 OA
ATOM     27  C36 ZIN A   1      17.480  -4.648   5.078  0.00  0.00     0.292 C 
ATOM     28  O37 ZIN A   1      16.913  -3.849   4.364  0.00  0.00    -0.262 OA
ATOM     29  N38 ZIN A   1      19.209  -1.873   6.972  0.00  0.00     0.139 NA
ATOM     30  C39 ZIN A   1      17.890  -2.405   7.471  0.00  0.00     0.280 C 
ATOM     31  C41 ZIN A   1      17.185  -1.320   8.273  0.00  0.00     0.259 C 
ATOM     32  C43 ZIN A   1      18.032  -0.891   9.447  0.00  0.00     0.017 A 
ATOM     33  C44 ZIN A   1      17.866  -1.514  10.671  0.00  0.00     0.108 A 
ATOM     34  C46 ZIN A   1      18.648  -1.123  11.755  0.00  0.00     0.107 A 
ATOM     35  C49 ZIN A   1      19.580  -0.113  11.593  0.00  0.00    -0.025 A 
ATOM     36  C50 ZIN A   1      20.433   0.314  12.760  0.00  0.00     0.051 C 
ATOM     37  C51 ZIN A   1      19.731   0.509  10.369  0.00  0.00     0.017 A 
ATOM     38  C52 ZIN A   1      18.954   0.125   9.284  0.00  0.00    -0.044 A 
ATOM     39  C53 ZIN A   1      19.139   0.835   7.973  0.00  0.00     0.077 C 
ATOM     40  C54 ZIN A   1      18.203   0.334   6.880  0.00  0.00     0.251 C 
ATOM     41  C56 ZIN A   1      18.896  -0.750   6.056  0.00  0.00     0.389 C 
ATOM     42  N59 ZIN A   1      16.948  -0.116   7.466  0.00  0.00    -0.056 N 
ATOM     43  H60 ZIN A   1      16.641   0.622   8.116  0.00  0.00     0.281 HD
ATOM     44  C61 ZIN A   1      15.885  -0.301   6.488  0.00  0.00     0.271 C 
ATOM     45  H72 ZIN A   1      17.845  -6.164   7.535  0.00  0.00     0.154 HD
ENDROOT
BRANCH   1  46
ATOM     46  O2  ZIN A   1      12.690  -5.956   3.071  0.00  0.00    -0.353 OA
ATOM     47  C1  ZIN A   1      12.794  -5.407   1.756  0.00  0.00     0.210 C 
ENDBRANCH   1  46
BRANCH   6  48
ATOM     48  O9  ZIN A   1      13.331  -8.563   2.431  0.00  0.00    -0.358 OA
ATOM     49  H67 ZIN A   1      12.432  -8.217   2.352  0.00  0.00     0.217 HD
ENDBRANCH   6  48
BRANCH  15  50
ATOM     50  O20 ZIN A   1      18.586  -5.598  10.166  0.00  0.00    -0.278 OA
BRANCH  50  51
ATOM     51  C21 ZIN A   1      18.729  -5.014  11.366  0.00  0.00     0.260 C 
ATOM     52  C22 ZIN A   1      17.718  -5.270  12.454  0.00  0.00     0.126 C 
ATOM     53  O23 ZIN A   1      19.668  -4.282  11.574  0.00  0.00    -0.265 OA
ENDBRANCH  50  51
ENDBRANCH  15  50
BRANCH  41  54
ATOM     54  O58 ZIN A   1      18.085  -1.168   4.971  0.00  0.00    -0.366 OA
ATOM     55  H95 ZIN A   1      18.003  -0.510   4.267  0.00  0.00     0.212 HD
ENDBRANCH  41  54
BRANCH  33  56
ATOM     56  O45 ZIN A   1      16.944  -2.501  10.827  0.00  0.00    -0.357 OA
ATOM     57  H85 ZIN A   1      16.954  -3.163  10.121  0.00  0.00     0.217 HD
ENDBRANCH  33  56
BRANCH  34  58
ATOM     58  O47 ZIN A   1      18.498  -1.730  12.962  0.00  0.00    -0.353 OA
ATOM     59  C48 ZIN A   1      17.797  -1.001  13.971  0.00  0.00     0.210 C 
ENDBRANCH  34  58
TORSDOF 7
ENDMDL
MODEL 2
REMARK VINA RESULT:       3.5      7.129     13.673
REMARK  7 active torsions:
REMARK  status: ('A' for Active; 'I' for Inactive)
REMARK    1  A    between atoms: O2_2  and  C3_3 
REMARK    2  A    between atoms: C8_8  and  O9_9 
REMARK    3  A    between atoms: C19_18  and  O20_19 
REMARK    4  A    between atoms: O20_19  and  C21_20 
REMARK    5  A    between atoms: C44_40  and  O45_41 
REMARK    6  A    between atoms: C46_42  and  O47_43 
REMARK    7  A    between atoms: C56_51  and  O58_52 
ROOT
ATOM      1  C3  ZIN A   1      13.668   6.891  19.172  0.00  0.00     0.101 A 
ATOM      2  C4  ZIN A   1      14.510   6.103  18.408  0.00  0.00     0.050 A 
ATOM      3  C5  ZIN A   1      15.654   6.641  17.837  0.00  0.00    -0.011 A 
ATOM      4  C6  ZIN A   1      15.956   7.971  18.031  0.00  0.00    -0.044 A 
ATOM      5  C7  ZIN A   1      15.117   8.765  18.803  0.00  0.00     0.047 A 
ATOM      6  C8  ZIN A   1      13.974   8.234  19.371  0.00  0.00     0.099 A 
ATOM      7  C10 ZIN A   1      17.180   8.615  17.434  0.00  0.00     0.058 C 
ATOM      8  C11 ZIN A   1      18.147   7.548  16.919  0.00  0.00     0.120 C 
ATOM      9  N12 ZIN A   1      17.398   6.551  16.167  0.00  0.00    -0.400 N 
ATOM     10  C13 ZIN A   1      16.536   5.731  17.008  0.00  0.00     0.151 C 
ATOM     11  C14 ZIN A   1      15.636   4.863  16.126  0.00  0.00     0.121 C 
ATOM     12  S15 ZIN A   1      16.351   4.509  14.489  0.00  0.00    -0.154 SA
ATOM     13  C16 ZIN A   1      17.870   3.685  14.912  0.00  0.00     0.119 C 
ATOM     14  C18 ZIN A   1      19.209   4.342  14.851  0.00  0.00     0.004 A 
ATOM     15  C19 ZIN A   1      19.509   5.188  13.793  0.00  0.00     0.096 A 
ATOM     16  C24 ZIN A   1      20.720   5.865  13.707  0.00  0.00     0.009 A 
ATOM     17  C25 ZIN A   1      21.011   6.782  12.547  0.00  0.00     0.054 C 
ATOM     18  C26 ZIN A   1      21.652   5.672  14.715  0.00  0.00     0.114 A 
ATOM     19  O27 ZIN A   1      22.869   6.228  14.891  0.00  0.00    -0.322 OA
ATOM     20  C28 ZIN A   1      23.243   5.936  16.251  0.00  0.00     0.352 C 
ATOM     21  O29 ZIN A   1      22.450   4.790  16.613  0.00  0.00    -0.322 OA
ATOM     22  C30 ZIN A   1      21.384   4.792  15.778  0.00  0.00     0.114 A 
ATOM     23  C31 ZIN A   1      20.192   4.116  15.844  0.00  0.00     0.024 A 
ATOM     24  C32 ZIN A   1      19.886   3.134  16.991  0.00  0.00     0.287 C 
ATOM     25  C34 ZIN A   1      19.567   3.795  18.302  0.00  0.00     0.220 C 
ATOM     26  O35 ZIN A   1      18.705   4.931  17.971  0.00  0.00    -0.317 OA
ATOM     27  C36 ZIN A   1      17.381   4.903  17.944  0.00  0.00     0.292 C 
ATOM     28  O37 ZIN A   1      16.805   4.170  18.719  0.00  0.00    -0.262 OA
ATOM     29  N38 ZIN A   1      19.165   1.975  16.356  0.00  0.00     0.139 NA
ATOM     30  C39 ZIN A   1      17.854   2.446  15.783  0.00  0.00     0.280 C 
ATOM     31  C41 ZIN A   1      17.172   1.285  15.073  0.00  0.00     0.259 C 
ATOM     32  C43 ZIN A   1      18.046   0.752  13.963  0.00  0.00     0.017 A 
ATOM     33  C44 ZIN A   1      17.902   1.255  12.682  0.00  0.00     0.108 A 
ATOM     34  C46 ZIN A   1      18.708   0.770  11.656  0.00  0.00     0.107 A 
ATOM     35  C49 ZIN A   1      19.642  -0.213  11.932  0.00  0.00    -0.025 A 
ATOM     36  C50 ZIN A   1      20.522  -0.742  10.827  0.00  0.00     0.051 C 
ATOM     37  C51 ZIN A   1      19.772  -0.715  13.212  0.00  0.00     0.017 A 
ATOM     38  C52 ZIN A   1      18.971  -0.236  14.240  0.00  0.00    -0.044 A 
ATOM     39  C53 ZIN A   1      19.133  -0.817  15.615  0.00  0.00     0.077 C 
ATOM     40  C54 ZIN A   1      18.172  -0.222  16.637  0.00  0.00     0.251 C 
ATOM     41  C56 ZIN A   1      18.841   0.941  17.368  0.00  0.00     0.389 C 
ATOM     42  N59 ZIN A   1      16.927   0.161  15.986  0.00  0.00    -0.056 N 
ATOM     43  H60 ZIN A   1      16.637  -0.638  15.404  0.00  0.00     0.281 HD
ATOM     44  C61 ZIN A   1      15.842   0.429  16.921  0.00  0.00     0.271 C 
ATOM     45  H72 ZIN A   1      17.788   6.182  15.361  0.00  0.00     0.154 HD
ENDROOT
BRANCH   1  46
ATOM     46  O2  ZIN A   1      12.544   6.358  19.721  0.00  0.00    -0.353 OA
ATOM     47  C1  ZIN A   1      12.705   5.598  20.921  0.00  0.00     0.210 C 
ENDBRANCH   1  46
BRANCH   6  48
ATOM     48  O9  ZIN A   1      13.156   9.019  20.123  0.00  0.00    -0.358 OA
ATOM     49  H67 ZIN A   1      13.240   8.875  21.075  0.00  0.00     0.217 HD
ENDBRANCH   6  48
BRANCH  15  50
ATOM     50  O20 ZIN A   1      18.587   5.375  12.811  0.00  0.00    -0.278 OA
BRANCH  50  51
ATOM     51  C21 ZIN A   1      18.753   4.674  11.678  0.00  0.00     0.260 C 
ATOM     52  C22 ZIN A   1      17.794   4.858  10.531  0.00  0.00     0.126 C 
ATOM     53  O23 ZIN A   1      19.671   3.895  11.578  0.00  0.00    -0.265 OA
ENDBRANCH  50  51
ENDBRANCH  15  50
BRANCH  41  54
ATOM     54  O58 ZIN A   1      18.005   1.453  18.393  0.00  0.00    -0.366 OA
ATOM     55  H95 ZIN A   1      18.072   2.411  18.511  0.00  0.00     0.212 HD
ENDBRANCH  41  54
BRANCH  33  56
ATOM     56  O45 ZIN A   1      16.977   2.216  12.415  0.00  0.00    -0.357 OA
ATOM     57  H85 ZIN A   1      16.072   1.882  12.343  0.00  0.00     0.217 HD
ENDBRANCH  33  56
BRANCH  34  58
ATOM     58  O47 ZIN A   1      18.579   1.259  10.394  0.00  0.00    -0.353 OA
ATOM     59  C48 ZIN A   1      17.608   0.633   9.553  0.00  0.00     0.210 C 
ENDBRANCH  34  58
TORSDOF 7
ENDMDL
