MODEL 1
REMARK VINA RESULT:      -5.1      0.000      0.000
REMARK  11 active torsions:
REMARK  status: ('A' for Active; 'I' for Inactive)
REMARK    1  A    between atoms: C2_2  and  C3_3 
REMARK    2  A    between atoms: C3_3  and  C4_4 
REMARK    3  A    between atoms: C4_4  and  C5_5 
REMARK    4  A    between atoms: C5_5  and  C6_6 
REMARK    5  A    between atoms: C6_6  and  O7_7 
REMARK    6  A    between atoms: O7_7  and  C8_8 
REMARK    7  A    between atoms: C8_8  and  C10_10 
REMARK    8  A    between atoms: C10_10  and  C11_11 
REMARK    9  A    between atoms: C11_11  and  C12_12 
REMARK   10  A    between atoms: C12_12  and  C14_14 
REMARK   11  A    between atoms: C14_14  and  N15_15 
ROOT
ATOM      1  C8  ZIN A   1      16.962  -0.465  11.460  0.00  0.00     0.259 C 
ATOM      2  O9  ZIN A   1      15.931   0.148  11.611  0.00  0.00    -0.265 OA
ENDROOT
BRANCH   1   3
ATOM      3  O7  ZIN A   1      17.405  -1.279  12.431  0.00  0.00    -0.321 OA
BRANCH   3   4
ATOM      4  C6  ZIN A   1      17.834  -0.655  13.670  0.00  0.00     0.178 C 
BRANCH   4   5
ATOM      5  C5  ZIN A   1      19.018  -1.433  14.249  0.00  0.00     0.027 C 
BRANCH   5   6
ATOM      6  C4  ZIN A   1      19.073  -1.224  15.764  0.00  0.00     0.002 C 
BRANCH   6   7
ATOM      7  C3  ZIN A   1      17.670  -0.909  16.288  0.00  0.00    -0.000 C 
BRANCH   7   8
ATOM      8  C2  ZIN A   1      17.779  -0.094  17.578  0.00  0.00    -0.005 C 
ATOM      9  C1  ZIN A   1      19.200  -0.208  18.134  0.00  0.00     0.005 C 
ENDBRANCH   7   8
ENDBRANCH   6   7
ENDBRANCH   5   6
ENDBRANCH   4   5
ENDBRANCH   3   4
ENDBRANCH   1   3
BRANCH   1  10
ATOM     10  C10 ZIN A   1      17.748  -0.316  10.184  0.00  0.00     0.118 C 
BRANCH  10  11
ATOM     11  C11 ZIN A   1      18.328   1.098  10.104  0.00  0.00     0.090 C 
BRANCH  11  12
ATOM     12  C12 ZIN A   1      19.458   1.234  11.092  0.00  0.00     0.152 C 
ATOM     13  O13 ZIN A   1      19.519   2.203  11.808  0.00  0.00    -0.296 OA
BRANCH  12  14
ATOM     14  C14 ZIN A   1      20.510   0.159  11.186  0.00  0.00     0.307 C 
BRANCH  14  15
ATOM     15  N15 ZIN A   1      21.559   0.583  12.123  0.00  0.00    -0.073 N 
ATOM     16  H16 ZIN A   1      21.379   1.529  12.423  0.00  0.00     0.274 HD
ATOM     17  H17 ZIN A   1      21.564  -0.030  12.923  0.00  0.00     0.274 HD
ATOM     18  H18 ZIN A   1      22.457   0.542  11.663  0.00  0.00     0.274 HD
ENDBRANCH  14  15
ENDBRANCH  12  14
ENDBRANCH  11  12
ENDBRANCH  10  11
ENDBRANCH   1  10
TORSDOF 11
ENDMDL
MODEL 2
REMARK VINA RESULT:      -4.9      2.728      6.479
REMARK  11 active torsions:
REMARK  status: ('A' for Active; 'I' for Inactive)
REMARK    1  A    between atoms: C2_2  and  C3_3 
REMARK    2  A    between atoms: C3_3  and  C4_4 
REMARK    3  A    between atoms: C4_4  and  C5_5 
REMARK    4  A    between atoms: C5_5  and  C6_6 
REMARK    5  A    between atoms: C6_6  and  O7_7 
REMARK    6  A    between atoms: O7_7  and  C8_8 
REMARK    7  A    between atoms: C8_8  and  C10_10 
REMARK    8  A    between atoms: C10_10  and  C11_11 
REMARK    9  A    between atoms: C11_11  and  C12_12 
REMARK   10  A    between atoms: C12_12  and  C14_14 
REMARK   11  A    between atoms: C14_14  and  N15_15 
ROOT
ATOM      1  C8  ZIN A   1      17.023  -0.054  10.893  0.00  0.00     0.259 C 
ATOM      2  O9  ZIN A   1      16.043   0.095  11.586  0.00  0.00    -0.265 OA
ENDROOT
BRANCH   1   3
ATOM      3  O7  ZIN A   1      17.061   0.483   9.664  0.00  0.00    -0.321 OA
BRANCH   3   4
ATOM      4  C6  ZIN A   1      18.193   0.130   8.825  0.00  0.00     0.178 C 
BRANCH   4   5
ATOM      5  C5  ZIN A   1      19.021   1.383   8.533  0.00  0.00     0.027 C 
BRANCH   5   6
ATOM      6  C4  ZIN A   1      19.033   1.647   7.026  0.00  0.00     0.002 C 
BRANCH   6   7
ATOM      7  C3  ZIN A   1      18.378   0.472   6.297  0.00  0.00    -0.000 C 
BRANCH   7   8
ATOM      8  C2  ZIN A   1      19.168   0.157   5.025  0.00  0.00    -0.005 C 
ATOM      9  C1  ZIN A   1      19.155  -1.353   4.778  0.00  0.00     0.005 C 
ENDBRANCH   7   8
ENDBRANCH   6   7
ENDBRANCH   5   6
ENDBRANCH   4   5
ENDBRANCH   3   4
ENDBRANCH   1   3
BRANCH   1  10
ATOM     10  C10 ZIN A   1      18.200  -0.839  11.410  0.00  0.00     0.118 C 
BRANCH  10  11
ATOM     11  C11 ZIN A   1      18.340  -0.616  12.918  0.00  0.00     0.090 C 
BRANCH  11  12
ATOM     12  C12 ZIN A   1      19.392   0.432  13.175  0.00  0.00     0.152 C 
ATOM     13  O13 ZIN A   1      19.577   0.840  14.295  0.00  0.00    -0.296 OA
BRANCH  12  14
ATOM     14  C14 ZIN A   1      20.215   0.970  12.032  0.00  0.00     0.307 C 
BRANCH  14  15
ATOM     15  N15 ZIN A   1      21.620   0.581  12.216  0.00  0.00    -0.073 N 
ATOM     16  H16 ZIN A   1      21.685  -0.424  12.270  0.00  0.00     0.274 HD
ATOM     17  H17 ZIN A   1      22.166   0.913  11.435  0.00  0.00     0.274 HD
ATOM     18  H18 ZIN A   1      21.972   0.987  13.070  0.00  0.00     0.274 HD
ENDBRANCH  14  15
ENDBRANCH  12  14
ENDBRANCH  11  12
ENDBRANCH  10  11
ENDBRANCH   1  10
TORSDOF 11
ENDMDL
MODEL 3
REMARK VINA RESULT:      -4.9      2.277      2.755
REMARK  11 active torsions:
REMARK  status: ('A' for Active; 'I' for Inactive)
REMARK    1  A    between atoms: C2_2  and  C3_3 
REMARK    2  A    between atoms: C3_3  and  C4_4 
REMARK    3  A    between atoms: C4_4  and  C5_5 
REMARK    4  A    between atoms: C5_5  and  C6_6 
REMARK    5  A    between atoms: C6_6  and  O7_7 
REMARK    6  A    between atoms: O7_7  and  C8_8 
REMARK    7  A    between atoms: C8_8  and  C10_10 
REMARK    8  A    between atoms: C10_10  and  C11_11 
REMARK    9  A    between atoms: C11_11  and  C12_12 
REMARK   10  A    between atoms: C12_12  and  C14_14 
REMARK   11  A    between atoms: C14_14  and  N15_15 
ROOT
ATOM      1  C8  ZIN A   1      16.984  -0.015  11.010  0.00  0.00     0.259 C 
ATOM      2  O9  ZIN A   1      15.933   0.086  11.599  0.00  0.00    -0.265 OA
ENDROOT
BRANCH   1   3
ATOM      3  O7  ZIN A   1      17.515  -1.227  10.791  0.00  0.00    -0.321 OA
BRANCH   3   4
ATOM      4  C6  ZIN A   1      17.632  -2.113  11.935  0.00  0.00     0.178 C 
BRANCH   4   5
ATOM      5  C5  ZIN A   1      19.063  -2.064  12.474  0.00  0.00     0.027 C 
BRANCH   5   6
ATOM      6  C4  ZIN A   1      19.064  -1.415  13.860  0.00  0.00     0.002 C 
BRANCH   6   7
ATOM      7  C3  ZIN A   1      19.840  -0.097  13.806  0.00  0.00    -0.000 C 
BRANCH   7   8
ATOM      8  C2  ZIN A   1      18.884   1.069  14.065  0.00  0.00    -0.005 C 
ATOM      9  C1  ZIN A   1      17.615   0.546  14.742  0.00  0.00     0.005 C 
ENDBRANCH   7   8
ENDBRANCH   6   7
ENDBRANCH   5   6
ENDBRANCH   4   5
ENDBRANCH   3   4
ENDBRANCH   1   3
BRANCH   1  10
ATOM     10  C10 ZIN A   1      17.695   1.220  10.522  0.00  0.00     0.118 C 
BRANCH  10  11
ATOM     11  C11 ZIN A   1      19.115   0.852  10.086  0.00  0.00     0.090 C 
BRANCH  11  12
ATOM     12  C12 ZIN A   1      19.199   0.870   8.582  0.00  0.00     0.152 C 
ATOM     13  O13 ZIN A   1      19.252   1.921   7.992  0.00  0.00    -0.296 OA
BRANCH  12  14
ATOM     14  C14 ZIN A   1      19.219  -0.427   7.813  0.00  0.00     0.307 C 
BRANCH  14  15
ATOM     15  N15 ZIN A   1      19.720  -1.502   8.679  0.00  0.00    -0.073 N 
ATOM     16  H16 ZIN A   1      19.405  -1.345   9.625  0.00  0.00     0.274 HD
ATOM     17  H17 ZIN A   1      19.372  -2.389   8.351  0.00  0.00     0.274 HD
ATOM     18  H18 ZIN A   1      20.730  -1.508   8.658  0.00  0.00     0.274 HD
ENDBRANCH  14  15
ENDBRANCH  12  14
ENDBRANCH  11  12
ENDBRANCH  10  11
ENDBRANCH   1  10
TORSDOF 11
ENDMDL
MODEL 4
REMARK VINA RESULT:      -4.9      2.863      5.684
REMARK  11 active torsions:
REMARK  status: ('A' for Active; 'I' for Inactive)
REMARK    1  A    between atoms: C2_2  and  C3_3 
REMARK    2  A    between atoms: C3_3  and  C4_4 
REMARK    3  A    between atoms: C4_4  and  C5_5 
REMARK    4  A    between atoms: C5_5  and  C6_6 
REMARK    5  A    between atoms: C6_6  and  O7_7 
REMARK    6  A    between atoms: O7_7  and  C8_8 
REMARK    7  A    between atoms: C8_8  and  C10_10 
REMARK    8  A    between atoms: C10_10  and  C11_11 
REMARK    9  A    between atoms: C11_11  and  C12_12 
REMARK   10  A    between atoms: C12_12  and  C14_14 
REMARK   11  A    between atoms: C14_14  and  N15_15 
ROOT
ATOM      1  C8  ZIN A   1      17.126   0.675  11.671  0.00  0.00     0.259 C 
ATOM      2  O9  ZIN A   1      16.094   0.047  11.633  0.00  0.00    -0.265 OA
ENDROOT
BRANCH   1   3
ATOM      3  O7  ZIN A   1      17.156   1.943  11.235  0.00  0.00    -0.321 OA
BRANCH   3   4
ATOM      4  C6  ZIN A   1      18.456   2.496  10.901  0.00  0.00     0.178 C 
BRANCH   4   5
ATOM      5  C5  ZIN A   1      18.568   2.654   9.383  0.00  0.00     0.027 C 
BRANCH   5   6
ATOM      6  C4  ZIN A   1      19.459   1.545   8.819  0.00  0.00     0.002 C 
BRANCH   6   7
ATOM      7  C3  ZIN A   1      18.767   0.895   7.619  0.00  0.00    -0.000 C 
BRANCH   7   8
ATOM      8  C2  ZIN A   1      17.491   0.192   8.086  0.00  0.00    -0.005 C 
ATOM      9  C1  ZIN A   1      17.815  -1.256   8.462  0.00  0.00     0.005 C 
ENDBRANCH   7   8
ENDBRANCH   6   7
ENDBRANCH   5   6
ENDBRANCH   4   5
ENDBRANCH   3   4
ENDBRANCH   1   3
BRANCH   1  10
ATOM     10  C10 ZIN A   1      18.379   0.033  12.209  0.00  0.00     0.118 C 
BRANCH  10  11
ATOM     11  C11 ZIN A   1      18.029  -1.314  12.847  0.00  0.00     0.090 C 
BRANCH  11  12
ATOM     12  C12 ZIN A   1      18.603  -2.429  12.012  0.00  0.00     0.152 C 
ATOM     13  O13 ZIN A   1      18.011  -3.477  11.916  0.00  0.00    -0.296 OA
BRANCH  12  14
ATOM     14  C14 ZIN A   1      19.915  -2.237  11.295  0.00  0.00     0.307 C 
BRANCH  14  15
ATOM     15  N15 ZIN A   1      20.790  -3.385  11.560  0.00  0.00    -0.073 N 
ATOM     16  H16 ZIN A   1      20.245  -4.141  11.948  0.00  0.00     0.274 HD
ATOM     17  H17 ZIN A   1      21.220  -3.687  10.699  0.00  0.00     0.274 HD
ATOM     18  H18 ZIN A   1      21.508  -3.117  12.218  0.00  0.00     0.274 HD
ENDBRANCH  14  15
ENDBRANCH  12  14
ENDBRANCH  11  12
ENDBRANCH  10  11
ENDBRANCH   1  10
TORSDOF 11
ENDMDL
MODEL 5
REMARK VINA RESULT:      -4.9      2.473      4.337
REMARK  11 active torsions:
REMARK  status: ('A' for Active; 'I' for Inactive)
REMARK    1  A    between atoms: C2_2  and  C3_3 
REMARK    2  A    between atoms: C3_3  and  C4_4 
REMARK    3  A    between atoms: C4_4  and  C5_5 
REMARK    4  A    between atoms: C5_5  and  C6_6 
REMARK    5  A    between atoms: C6_6  and  O7_7 
REMARK    6  A    between atoms: O7_7  and  C8_8 
REMARK    7  A    between atoms: C8_8  and  C10_10 
REMARK    8  A    between atoms: C10_10  and  C11_11 
REMARK    9  A    between atoms: C11_11  and  C12_12 
REMARK   10  A    between atoms: C12_12  and  C14_14 
REMARK   11  A    between atoms: C14_14  and  N15_15 
ROOT
ATOM      1  C8  ZIN A   1      16.925   0.599  12.102  0.00  0.00     0.259 C 
ATOM      2  O9  ZIN A   1      16.085  -0.063  11.538  0.00  0.00    -0.265 OA
ENDROOT
BRANCH   1   3
ATOM      3  O7  ZIN A   1      17.226   1.826  11.648  0.00  0.00    -0.321 OA
BRANCH   3   4
ATOM      4  C6  ZIN A   1      17.712   1.924  10.284  0.00  0.00     0.178 C 
BRANCH   4   5
ATOM      5  C5  ZIN A   1      18.637   3.137  10.158  0.00  0.00     0.027 C 
BRANCH   5   6
ATOM      6  C4  ZIN A   1      19.579   3.187  11.363  0.00  0.00     0.002 C 
BRANCH   6   7
ATOM      7  C3  ZIN A   1      19.280   4.437  12.193  0.00  0.00    -0.000 C 
BRANCH   7   8
ATOM      8  C2  ZIN A   1      18.966   4.029  13.634  0.00  0.00    -0.005 C 
ATOM      9  C1  ZIN A   1      17.721   4.775  14.116  0.00  0.00     0.005 C 
ENDBRANCH   7   8
ENDBRANCH   6   7
ENDBRANCH   5   6
ENDBRANCH   4   5
ENDBRANCH   3   4
ENDBRANCH   1   3
BRANCH   1  10
ATOM     10  C10 ZIN A   1      17.632   0.048  13.313  0.00  0.00     0.118 C 
BRANCH  10  11
ATOM     11  C11 ZIN A   1      19.142   0.045  13.064  0.00  0.00     0.090 C 
BRANCH  11  12
ATOM     12  C12 ZIN A   1      19.488  -1.051  12.089  0.00  0.00     0.152 C 
ATOM     13  O13 ZIN A   1      19.235  -2.200  12.357  0.00  0.00    -0.296 OA
BRANCH  12  14
ATOM     14  C14 ZIN A   1      20.150  -0.711  10.778  0.00  0.00     0.307 C 
BRANCH  14  15
ATOM     15  N15 ZIN A   1      21.600  -0.593  10.978  0.00  0.00    -0.073 N 
ATOM     16  H16 ZIN A   1      21.889  -1.216  11.718  0.00  0.00     0.274 HD
ATOM     17  H17 ZIN A   1      22.079  -0.839  10.125  0.00  0.00     0.274 HD
ATOM     18  H18 ZIN A   1      21.829   0.357  11.231  0.00  0.00     0.274 HD
ENDBRANCH  14  15
ENDBRANCH  12  14
ENDBRANCH  11  12
ENDBRANCH  10  11
ENDBRANCH   1  10
TORSDOF 11
ENDMDL
MODEL 6
REMARK VINA RESULT:      -4.9      2.406      3.290
REMARK  11 active torsions:
REMARK  status: ('A' for Active; 'I' for Inactive)
REMARK    1  A    between atoms: C2_2  and  C3_3 
REMARK    2  A    between atoms: C3_3  and  C4_4 
REMARK    3  A    between atoms: C4_4  and  C5_5 
REMARK    4  A    between atoms: C5_5  and  C6_6 
REMARK    5  A    between atoms: C6_6  and  O7_7 
REMARK    6  A    between atoms: O7_7  and  C8_8 
REMARK    7  A    between atoms: C8_8  and  C10_10 
REMARK    8  A    between atoms: C10_10  and  C11_11 
REMARK    9  A    between atoms: C11_11  and  C12_12 
REMARK   10  A    between atoms: C12_12  and  C14_14 
REMARK   11  A    between atoms: C14_14  and  N15_15 
ROOT
ATOM      1  C8  ZIN A   1      17.640   2.187  10.606  0.00  0.00     0.259 C 
ATOM      2  O9  ZIN A   1      17.121   3.210  10.987  0.00  0.00    -0.265 OA
ENDROOT
BRANCH   1   3
ATOM      3  O7  ZIN A   1      16.950   1.037  10.629  0.00  0.00    -0.321 OA
BRANCH   3   4
ATOM      4  C6  ZIN A   1      16.958   0.288  11.873  0.00  0.00     0.178 C 
BRANCH   4   5
ATOM      5  C5  ZIN A   1      17.744  -1.011  11.681  0.00  0.00     0.027 C 
BRANCH   5   6
ATOM      6  C4  ZIN A   1      19.043  -0.945  12.488  0.00  0.00     0.002 C 
BRANCH   6   7
ATOM      7  C3  ZIN A   1      18.869  -1.714  13.799  0.00  0.00    -0.000 C 
BRANCH   7   8
ATOM      8  C2  ZIN A   1      18.878  -0.730  14.971  0.00  0.00    -0.005 C 
ATOM      9  C1  ZIN A   1      18.520  -1.472  16.261  0.00  0.00     0.005 C 
ENDBRANCH   7   8
ENDBRANCH   6   7
ENDBRANCH   5   6
ENDBRANCH   4   5
ENDBRANCH   3   4
ENDBRANCH   1   3
BRANCH   1  10
ATOM     10  C10 ZIN A   1      19.061   2.205  10.104  0.00  0.00     0.118 C 
BRANCH  10  11
ATOM     11  C11 ZIN A   1      19.085   1.806   8.627  0.00  0.00     0.090 C 
BRANCH  11  12
ATOM     12  C12 ZIN A   1      19.345   0.326   8.510  0.00  0.00     0.152 C 
ATOM     13  O13 ZIN A   1      20.188  -0.195   9.199  0.00  0.00    -0.296 OA
BRANCH  12  14
ATOM     14  C14 ZIN A   1      18.551  -0.503   7.533  0.00  0.00     0.307 C 
BRANCH  14  15
ATOM     15  N15 ZIN A   1      17.138  -0.510   7.932  0.00  0.00    -0.073 N 
ATOM     16  H16 ZIN A   1      16.558  -0.410   7.112  0.00  0.00     0.274 HD
ATOM     17  H17 ZIN A   1      16.922  -1.380   8.393  0.00  0.00     0.274 HD
ATOM     18  H18 ZIN A   1      16.963   0.259   8.563  0.00  0.00     0.274 HD
ENDBRANCH  14  15
ENDBRANCH  12  14
ENDBRANCH  11  12
ENDBRANCH  10  11
ENDBRANCH   1  10
TORSDOF 11
ENDMDL
MODEL 7
REMARK VINA RESULT:      -4.8      4.990      6.272
REMARK  11 active torsions:
REMARK  status: ('A' for Active; 'I' for Inactive)
REMARK    1  A    between atoms: C2_2  and  C3_3 
REMARK    2  A    between atoms: C3_3  and  C4_4 
REMARK    3  A    between atoms: C4_4  and  C5_5 
REMARK    4  A    between atoms: C5_5  and  C6_6 
REMARK    5  A    between atoms: C6_6  and  O7_7 
REMARK    6  A    between atoms: O7_7  and  C8_8 
REMARK    7  A    between atoms: C8_8  and  C10_10 
REMARK    8  A    between atoms: C10_10  and  C11_11 
REMARK    9  A    between atoms: C11_11  and  C12_12 
REMARK   10  A    between atoms: C12_12  and  C14_14 
REMARK   11  A    between atoms: C14_14  and  N15_15 
ROOT
ATOM      1  C8  ZIN A   1      19.223   0.959   7.871  0.00  0.00     0.259 C 
ATOM      2  O9  ZIN A   1      19.113  -0.129   8.385  0.00  0.00    -0.265 OA
ENDROOT
BRANCH   1   3
ATOM      3  O7  ZIN A   1      19.571   2.019   8.617  0.00  0.00    -0.321 OA
BRANCH   3   4
ATOM      4  C6  ZIN A   1      19.205   1.986  10.022  0.00  0.00     0.178 C 
BRANCH   4   5
ATOM      5  C5  ZIN A   1      17.865   2.698  10.217  0.00  0.00     0.027 C 
BRANCH   5   6
ATOM      6  C4  ZIN A   1      18.112   4.128  10.702  0.00  0.00     0.002 C 
BRANCH   6   7
ATOM      7  C3  ZIN A   1      16.774   4.856  10.847  0.00  0.00    -0.000 C 
BRANCH   7   8
ATOM      8  C2  ZIN A   1      16.704   5.524  12.222  0.00  0.00    -0.005 C 
ATOM      9  C1  ZIN A   1      17.887   5.061  13.074  0.00  0.00     0.005 C 
ENDBRANCH   7   8
ENDBRANCH   6   7
ENDBRANCH   5   6
ENDBRANCH   4   5
ENDBRANCH   3   4
ENDBRANCH   1   3
BRANCH   1  10
ATOM     10  C10 ZIN A   1      18.972   1.126   6.395  0.00  0.00     0.118 C 
BRANCH  10  11
ATOM     11  C11 ZIN A   1      18.172  -0.071   5.876  0.00  0.00     0.090 C 
BRANCH  11  12
ATOM     12  C12 ZIN A   1      19.118  -1.099   5.310  0.00  0.00     0.152 C 
ATOM     13  O13 ZIN A   1      20.003  -0.759   4.563  0.00  0.00    -0.296 OA
BRANCH  12  14
ATOM     14  C14 ZIN A   1      18.959  -2.553   5.677  0.00  0.00     0.307 C 
BRANCH  14  15
ATOM     15  N15 ZIN A   1      18.152  -2.663   6.899  0.00  0.00    -0.073 N 
ATOM     16  H16 ZIN A   1      17.223  -2.312   6.721  0.00  0.00     0.274 HD
ATOM     17  H17 ZIN A   1      18.098  -3.630   7.181  0.00  0.00     0.274 HD
ATOM     18  H18 ZIN A   1      18.581  -2.121   7.636  0.00  0.00     0.274 HD
ENDBRANCH  14  15
ENDBRANCH  12  14
ENDBRANCH  11  12
ENDBRANCH  10  11
ENDBRANCH   1  10
TORSDOF 11
ENDMDL
MODEL 8
REMARK VINA RESULT:      -4.8      3.888      5.583
REMARK  11 active torsions:
REMARK  status: ('A' for Active; 'I' for Inactive)
REMARK    1  A    between atoms: C2_2  and  C3_3 
REMARK    2  A    between atoms: C3_3  and  C4_4 
REMARK    3  A    between atoms: C4_4  and  C5_5 
REMARK    4  A    between atoms: C5_5  and  C6_6 
REMARK    5  A    between atoms: C6_6  and  O7_7 
REMARK    6  A    between atoms: O7_7  and  C8_8 
REMARK    7  A    between atoms: C8_8  and  C10_10 
REMARK    8  A    between atoms: C10_10  and  C11_11 
REMARK    9  A    between atoms: C11_11  and  C12_12 
REMARK   10  A    between atoms: C12_12  and  C14_14 
REMARK   11  A    between atoms: C14_14  and  N15_15 
ROOT
ATOM      1  C8  ZIN A   1      19.029   1.224   7.910  0.00  0.00     0.259 C 
ATOM      2  O9  ZIN A   1      19.068   0.218   8.579  0.00  0.00    -0.265 OA
ENDROOT
BRANCH   1   3
ATOM      3  O7  ZIN A   1      19.070   2.426   8.505  0.00  0.00    -0.321 OA
BRANCH   3   4
ATOM      4  C6  ZIN A   1      19.134   2.442   9.956  0.00  0.00     0.178 C 
BRANCH   4   5
ATOM      5  C5  ZIN A   1      17.808   2.958  10.518  0.00  0.00     0.027 C 
BRANCH   5   6
ATOM      6  C4  ZIN A   1      17.635   2.460  11.955  0.00  0.00     0.002 C 
BRANCH   6   7
ATOM      7  C3  ZIN A   1      18.111   1.010  12.054  0.00  0.00    -0.000 C 
BRANCH   7   8
ATOM      8  C2  ZIN A   1      16.903   0.072  11.999  0.00  0.00    -0.005 C 
ATOM      9  C1  ZIN A   1      17.350  -1.305  11.504  0.00  0.00     0.005 C 
ENDBRANCH   7   8
ENDBRANCH   6   7
ENDBRANCH   5   6
ENDBRANCH   4   5
ENDBRANCH   3   4
ENDBRANCH   1   3
BRANCH   1  10
ATOM     10  C10 ZIN A   1      18.937   1.128   6.409  0.00  0.00     0.118 C 
BRANCH  10  11
ATOM     11  C11 ZIN A   1      18.200  -0.157   6.024  0.00  0.00     0.090 C 
BRANCH  11  12
ATOM     12  C12 ZIN A   1      19.189  -1.165   5.498  0.00  0.00     0.152 C 
ATOM     13  O13 ZIN A   1      19.968  -0.850   4.631  0.00  0.00    -0.296 OA
BRANCH  12  14
ATOM     14  C14 ZIN A   1      19.207  -2.566   6.054  0.00  0.00     0.307 C 
BRANCH  14  15
ATOM     15  N15 ZIN A   1      19.714  -2.539   7.432  0.00  0.00    -0.073 N 
ATOM     16  H16 ZIN A   1      18.947  -2.384   8.069  0.00  0.00     0.274 HD
ATOM     17  H17 ZIN A   1      20.157  -3.419   7.645  0.00  0.00     0.274 HD
ATOM     18  H18 ZIN A   1      20.386  -1.792   7.528  0.00  0.00     0.274 HD
ENDBRANCH  14  15
ENDBRANCH  12  14
ENDBRANCH  11  12
ENDBRANCH  10  11
ENDBRANCH   1  10
TORSDOF 11
ENDMDL
MODEL 9
REMARK VINA RESULT:      -4.8      2.616      5.936
REMARK  11 active torsions:
REMARK  status: ('A' for Active; 'I' for Inactive)
REMARK    1  A    between atoms: C2_2  and  C3_3 
REMARK    2  A    between atoms: C3_3  and  C4_4 
REMARK    3  A    between atoms: C4_4  and  C5_5 
REMARK    4  A    between atoms: C5_5  and  C6_6 
REMARK    5  A    between atoms: C6_6  and  O7_7 
REMARK    6  A    between atoms: O7_7  and  C8_8 
REMARK    7  A    between atoms: C8_8  and  C10_10 
REMARK    8  A    between atoms: C10_10  and  C11_11 
REMARK    9  A    between atoms: C11_11  and  C12_12 
REMARK   10  A    between atoms: C12_12  and  C14_14 
REMARK   11  A    between atoms: C14_14  and  N15_15 
ROOT
ATOM      1  C8  ZIN A   1      17.024  -0.329  11.199  0.00  0.00     0.259 C 
ATOM      2  O9  ZIN A   1      15.973   0.109  11.605  0.00  0.00    -0.265 OA
ENDROOT
BRANCH   1   3
ATOM      3  O7  ZIN A   1      17.714   0.342  10.265  0.00  0.00    -0.321 OA
BRANCH   3   4
ATOM      4  C6  ZIN A   1      17.754   1.788  10.387  0.00  0.00     0.178 C 
BRANCH   4   5
ATOM      5  C5  ZIN A   1      18.834   2.348   9.458  0.00  0.00     0.027 C 
BRANCH   5   6
ATOM      6  C4  ZIN A   1      19.413   1.215   8.608  0.00  0.00     0.002 C 
BRANCH   6   7
ATOM      7  C3  ZIN A   1      19.032   1.430   7.142  0.00  0.00    -0.000 C 
BRANCH   7   8
ATOM      8  C2  ZIN A   1      18.664   0.087   6.509  0.00  0.00    -0.005 C 
ATOM      9  C1  ZIN A   1      17.142  -0.017   6.383  0.00  0.00     0.005 C 
ENDBRANCH   7   8
ENDBRANCH   6   7
ENDBRANCH   5   6
ENDBRANCH   4   5
ENDBRANCH   3   4
ENDBRANCH   1   3
BRANCH   1  10
ATOM     10  C10 ZIN A   1      17.558  -1.629  11.744  0.00  0.00     0.118 C 
BRANCH  10  11
ATOM     11  C11 ZIN A   1      19.079  -1.534  11.890  0.00  0.00     0.090 C 
BRANCH  11  12
ATOM     12  C12 ZIN A   1      19.417  -0.848  13.188  0.00  0.00     0.152 C 
ATOM     13  O13 ZIN A   1      18.972  -1.271  14.228  0.00  0.00    -0.296 OA
BRANCH  12  14
ATOM     14  C14 ZIN A   1      20.313   0.364  13.190  0.00  0.00     0.307 C 
BRANCH  14  15
ATOM     15  N15 ZIN A   1      19.534   1.548  13.573  0.00  0.00    -0.073 N 
ATOM     16  H16 ZIN A   1      19.072   1.924  12.758  0.00  0.00     0.274 HD
ATOM     17  H17 ZIN A   1      18.843   1.289  14.261  0.00  0.00     0.274 HD
ATOM     18  H18 ZIN A   1      20.151   2.246  13.961  0.00  0.00     0.274 HD
ENDBRANCH  14  15
ENDBRANCH  12  14
ENDBRANCH  11  12
ENDBRANCH  10  11
ENDBRANCH   1  10
TORSDOF 11
ENDMDL
