MODEL 1
REMARK VINA RESULT:      -7.2      0.000      0.000
REMARK  11 active torsions:
REMARK  status: ('A' for Active; 'I' for Inactive)
REMARK    1  A    between atoms: C2_2  and  C3_3 
REMARK    2  A    between atoms: C3_3  and  C4_4 
REMARK       I    between atoms: C4_4  and  N6_6 
REMARK    3  A    between atoms: N6_6  and  C7_7 
REMARK    4  A    between atoms: C10_10  and  O11_11 
REMARK    5  A    between atoms: O11_11  and  C12_12 
REMARK    6  A    between atoms: C12_12  and  C13_13 
REMARK    7  A    between atoms: C13_13  and  O15_14 
REMARK    8  A    between atoms: C13_13  and  C16_15 
REMARK    9  A    between atoms: C16_15  and  N17_16 
REMARK   10  A    between atoms: N17_16  and  C20_19 
REMARK   11  A    between atoms: C23_22  and  C24_23 
ROOT
ATOM      1  C7  ZIN A   1      18.781   0.905   8.271  0.00  0.00     0.035 A 
ATOM      2  C8  ZIN A   1      19.016   2.242   8.574  0.00  0.00     0.032 A 
ATOM      3  C9  ZIN A   1      18.552   2.783   9.755  0.00  0.00     0.040 A 
ATOM      4  C10 ZIN A   1      17.846   1.995  10.652  0.00  0.00     0.082 A 
ATOM      5  C23 ZIN A   1      17.604   0.644  10.354  0.00  0.00     0.045 A 
ATOM      6  C27 ZIN A   1      18.074   0.106   9.151  0.00  0.00     0.047 A 
ENDROOT
BRANCH   4   7
ATOM      7  O11 ZIN A   1      17.389   2.528  11.813  0.00  0.00    -0.348 OA
BRANCH   7   8
ATOM      8  C12 ZIN A   1      18.264   3.421  12.505  0.00  0.00     0.209 C 
BRANCH   8   9
ATOM      9  C13 ZIN A   1      18.313   3.040  13.987  0.00  0.00     0.168 C 
BRANCH   9  10
ATOM     10  O15 ZIN A   1      19.351   3.777  14.635  0.00  0.00    -0.392 OA
ATOM     11  H40 ZIN A   1      20.177   3.815  14.133  0.00  0.00     0.210 HD
ENDBRANCH   9  10
BRANCH   9  12
ATOM     12  C16 ZIN A   1      18.590   1.541  14.120  0.00  0.00     0.266 C 
BRANCH  12  13
ATOM     13  N17 ZIN A   1      17.467   0.895  14.812  0.00  0.00    -0.069 N 
ATOM     14  H18 ZIN A   1      16.841   1.600  15.168  0.00  0.00     0.277 HD
ATOM     15  H19 ZIN A   1      16.972   0.300  14.166  0.00  0.00     0.277 HD
BRANCH  13  16
ATOM     16  C20 ZIN A   1      17.979   0.087  15.927  0.00  0.00     0.178 C 
ATOM     17  C21 ZIN A   1      16.859  -0.149  16.942  0.00  0.00     0.039 C 
ATOM     18  C22 ZIN A   1      18.478  -1.258  15.396  0.00  0.00     0.039 C 
ENDBRANCH  13  16
ENDBRANCH  12  13
ENDBRANCH   9  12
ENDBRANCH   8   9
ENDBRANCH   7   8
ENDBRANCH   4   7
BRANCH   5  19
ATOM     19  C24 ZIN A   1      16.857  -0.198  11.297  0.00  0.00     0.158 C 
ATOM     20  C25 ZIN A   1      17.518  -1.399  11.922  0.00  0.00     0.097 C 
ATOM     21  O26 ZIN A   1      15.707   0.075  11.574  0.00  0.00    -0.293 OA
ENDBRANCH   5  19
BRANCH   1  22
ATOM     22  N6  ZIN A   1      19.258   0.367   7.068  0.00  0.00    -0.327 N 
ATOM     23  C4  ZIN A   1      18.429   0.233   6.014  0.00  0.00     0.222 C 
ATOM     24  O5  ZIN A   1      17.252   0.501   6.130  0.00  0.00    -0.273 OA
ATOM     25  H35 ZIN A   1      20.185   0.089   6.995  0.00  0.00     0.169 HD
BRANCH  23  26
ATOM     26  C3  ZIN A   1      18.966  -0.249   4.690  0.00  0.00     0.103 C 
BRANCH  26  27
ATOM     27  C2  ZIN A   1      18.402  -1.639   4.387  0.00  0.00     0.005 C 
ATOM     28  C1  ZIN A   1      19.144  -2.683   5.226  0.00  0.00     0.005 C 
ENDBRANCH  26  27
ENDBRANCH  23  26
ENDBRANCH   1  22
TORSDOF 11
ENDMDL
MODEL 2
REMARK VINA RESULT:      -7.0      1.270      2.450
REMARK  11 active torsions:
REMARK  status: ('A' for Active; 'I' for Inactive)
REMARK    1  A    between atoms: C2_2  and  C3_3 
REMARK    2  A    between atoms: C3_3  and  C4_4 
REMARK       I    between atoms: C4_4  and  N6_6 
REMARK    3  A    between atoms: N6_6  and  C7_7 
REMARK    4  A    between atoms: C10_10  and  O11_11 
REMARK    5  A    between atoms: O11_11  and  C12_12 
REMARK    6  A    between atoms: C12_12  and  C13_13 
REMARK    7  A    between atoms: C13_13  and  O15_14 
REMARK    8  A    between atoms: C13_13  and  C16_15 
REMARK    9  A    between atoms: C16_15  and  N17_16 
REMARK   10  A    between atoms: N17_16  and  C20_19 
REMARK   11  A    between atoms: C23_22  and  C24_23 
ROOT
ATOM      1  C7  ZIN A   1      18.509   0.505   8.290  0.00  0.00     0.035 A 
ATOM      2  C8  ZIN A   1      17.753  -0.406   9.020  0.00  0.00     0.032 A 
ATOM      3  C9  ZIN A   1      17.265  -0.069  10.266  0.00  0.00     0.040 A 
ATOM      4  C10 ZIN A   1      17.524   1.184  10.800  0.00  0.00     0.082 A 
ATOM      5  C23 ZIN A   1      18.287   2.110  10.069  0.00  0.00     0.045 A 
ATOM      6  C27 ZIN A   1      18.782   1.757   8.810  0.00  0.00     0.047 A 
ENDROOT
BRANCH   4   7
ATOM      7  O11 ZIN A   1      17.044   1.513  12.026  0.00  0.00    -0.348 OA
BRANCH   7   8
ATOM      8  C12 ZIN A   1      17.541   0.768  13.139  0.00  0.00     0.209 C 
BRANCH   8   9
ATOM      9  C13 ZIN A   1      18.324   1.700  14.067  0.00  0.00     0.168 C 
BRANCH   9  10
ATOM     10  O15 ZIN A   1      19.683   1.773  13.633  0.00  0.00    -0.392 OA
ATOM     11  H40 ZIN A   1      20.211   0.996  13.863  0.00  0.00     0.210 HD
ENDBRANCH   9  10
BRANCH   9  12
ATOM     12  C16 ZIN A   1      18.272   1.157  15.497  0.00  0.00     0.266 C 
BRANCH  12  13
ATOM     13  N17 ZIN A   1      19.134  -0.027  15.603  0.00  0.00    -0.069 N 
ATOM     14  H18 ZIN A   1      19.050  -0.581  14.765  0.00  0.00     0.277 HD
ATOM     15  H19 ZIN A   1      20.093   0.265  15.719  0.00  0.00     0.277 HD
BRANCH  13  16
ATOM     16  C20 ZIN A   1      18.724  -0.829  16.763  0.00  0.00     0.178 C 
ATOM     17  C21 ZIN A   1      19.222  -0.162  18.047  0.00  0.00     0.039 C 
ATOM     18  C22 ZIN A   1      17.198  -0.929  16.801  0.00  0.00     0.039 C 
ENDBRANCH  13  16
ENDBRANCH  12  13
ENDBRANCH   9  12
ENDBRANCH   8   9
ENDBRANCH   7   8
ENDBRANCH   4   7
BRANCH   5  19
ATOM     19  C24 ZIN A   1      18.567   3.439  10.628  0.00  0.00     0.158 C 
ATOM     20  C25 ZIN A   1      17.649   4.594  10.320  0.00  0.00     0.097 C 
ATOM     21  O26 ZIN A   1      19.537   3.607  11.337  0.00  0.00    -0.293 OA
ENDBRANCH   5  19
BRANCH   1  22
ATOM     22  N6  ZIN A   1      18.999   0.152   7.025  0.00  0.00    -0.327 N 
ATOM     23  C4  ZIN A   1      18.159   0.078   5.973  0.00  0.00     0.222 C 
ATOM     24  O5  ZIN A   1      16.967   0.236   6.137  0.00  0.00    -0.273 OA
ATOM     25  H35 ZIN A   1      19.942  -0.039   6.906  0.00  0.00     0.169 HD
BRANCH  23  26
ATOM     26  C3  ZIN A   1      18.701  -0.200   4.594  0.00  0.00     0.103 C 
BRANCH  26  27
ATOM     27  C2  ZIN A   1      18.182  -1.554   4.106  0.00  0.00     0.005 C 
ATOM     28  C1  ZIN A   1      18.960  -2.676   4.798  0.00  0.00     0.005 C 
ENDBRANCH  26  27
ENDBRANCH  23  26
ENDBRANCH   1  22
TORSDOF 11
ENDMDL
MODEL 3
REMARK VINA RESULT:      -6.8      3.289      8.119
REMARK  11 active torsions:
REMARK  status: ('A' for Active; 'I' for Inactive)
REMARK    1  A    between atoms: C2_2  and  C3_3 
REMARK    2  A    between atoms: C3_3  and  C4_4 
REMARK       I    between atoms: C4_4  and  N6_6 
REMARK    3  A    between atoms: N6_6  and  C7_7 
REMARK    4  A    between atoms: C10_10  and  O11_11 
REMARK    5  A    between atoms: O11_11  and  C12_12 
REMARK    6  A    between atoms: C12_12  and  C13_13 
REMARK    7  A    between atoms: C13_13  and  O15_14 
REMARK    8  A    between atoms: C13_13  and  C16_15 
REMARK    9  A    between atoms: C16_15  and  N17_16 
REMARK   10  A    between atoms: N17_16  and  C20_19 
REMARK   11  A    between atoms: C23_22  and  C24_23 
ROOT
ATOM      1  C7  ZIN A   1      19.320   1.326   9.306  0.00  0.00     0.035 A 
ATOM      2  C8  ZIN A   1      19.708   0.144   9.929  0.00  0.00     0.032 A 
ATOM      3  C9  ZIN A   1      19.645  -1.057   9.253  0.00  0.00     0.040 A 
ATOM      4  C10 ZIN A   1      19.194  -1.095   7.942  0.00  0.00     0.082 A 
ATOM      5  C23 ZIN A   1      18.800   0.094   7.304  0.00  0.00     0.045 A 
ATOM      6  C27 ZIN A   1      18.862   1.305   8.000  0.00  0.00     0.047 A 
ENDROOT
BRANCH   4   7
ATOM      7  O11 ZIN A   1      19.132  -2.276   7.278  0.00  0.00    -0.348 OA
BRANCH   7   8
ATOM      8  C12 ZIN A   1      19.017  -3.460   8.070  0.00  0.00     0.209 C 
BRANCH   8   9
ATOM      9  C13 ZIN A   1      19.759  -4.608   7.381  0.00  0.00     0.168 C 
BRANCH   9  10
ATOM     10  O15 ZIN A   1      20.859  -4.085   6.634  0.00  0.00    -0.392 OA
ATOM     11  H40 ZIN A   1      21.318  -3.354   7.071  0.00  0.00     0.210 HD
ENDBRANCH   9  10
BRANCH   9  12
ATOM     12  C16 ZIN A   1      18.802  -5.340   6.437  0.00  0.00     0.266 C 
BRANCH  12  13
ATOM     13  N17 ZIN A   1      17.800  -4.396   5.927  0.00  0.00    -0.069 N 
ATOM     14  H18 ZIN A   1      16.875  -4.736   6.142  0.00  0.00     0.277 HD
ATOM     15  H19 ZIN A   1      17.935  -3.495   6.360  0.00  0.00     0.277 HD
BRANCH  13  16
ATOM     16  C20 ZIN A   1      17.946  -4.266   4.472  0.00  0.00     0.178 C 
ATOM     17  C21 ZIN A   1      17.441  -5.540   3.791  0.00  0.00     0.039 C 
ATOM     18  C22 ZIN A   1      17.130  -3.068   3.981  0.00  0.00     0.039 C 
ENDBRANCH  13  16
ENDBRANCH  12  13
ENDBRANCH   9  12
ENDBRANCH   8   9
ENDBRANCH   7   8
ENDBRANCH   4   7
BRANCH   5  19
ATOM     19  C24 ZIN A   1      18.321   0.063   5.917  0.00  0.00     0.158 C 
ATOM     20  C25 ZIN A   1      19.308   0.078   4.778  0.00  0.00     0.097 C 
ATOM     21  O26 ZIN A   1      17.130   0.024   5.688  0.00  0.00    -0.293 OA
ENDBRANCH   5  19
BRANCH   1  22
ATOM     22  N6  ZIN A   1      19.389   2.540  10.003  0.00  0.00    -0.327 N 
ATOM     23  C4  ZIN A   1      18.320   2.981  10.695  0.00  0.00     0.222 C 
ATOM     24  O5  ZIN A   1      17.273   2.371  10.648  0.00  0.00    -0.273 OA
ATOM     25  H35 ZIN A   1      20.206   3.063   9.986  0.00  0.00     0.169 HD
BRANCH  23  26
ATOM     26  C3  ZIN A   1      18.426   4.233  11.528  0.00  0.00     0.103 C 
BRANCH  26  27
ATOM     27  C2  ZIN A   1      17.256   5.163  11.201  0.00  0.00     0.005 C 
ATOM     28  C1  ZIN A   1      16.402   5.368  12.454  0.00  0.00     0.005 C 
ENDBRANCH  26  27
ENDBRANCH  23  26
ENDBRANCH   1  22
TORSDOF 11
ENDMDL
MODEL 4
REMARK VINA RESULT:      -6.8      2.609      8.247
REMARK  11 active torsions:
REMARK  status: ('A' for Active; 'I' for Inactive)
REMARK    1  A    between atoms: C2_2  and  C3_3 
REMARK    2  A    between atoms: C3_3  and  C4_4 
REMARK       I    between atoms: C4_4  and  N6_6 
REMARK    3  A    between atoms: N6_6  and  C7_7 
REMARK    4  A    between atoms: C10_10  and  O11_11 
REMARK    5  A    between atoms: O11_11  and  C12_12 
REMARK    6  A    between atoms: C12_12  and  C13_13 
REMARK    7  A    between atoms: C13_13  and  O15_14 
REMARK    8  A    between atoms: C13_13  and  C16_15 
REMARK    9  A    between atoms: C16_15  and  N17_16 
REMARK   10  A    between atoms: N17_16  and  C20_19 
REMARK   11  A    between atoms: C23_22  and  C24_23 
ROOT
ATOM      1  C7  ZIN A   1      17.843  -0.947  12.941  0.00  0.00     0.035 A 
ATOM      2  C8  ZIN A   1      17.503  -0.190  11.825  0.00  0.00     0.032 A 
ATOM      3  C9  ZIN A   1      17.550  -0.746  10.563  0.00  0.00     0.040 A 
ATOM      4  C10 ZIN A   1      17.938  -2.067  10.398  0.00  0.00     0.082 A 
ATOM      5  C23 ZIN A   1      18.284  -2.838  11.520  0.00  0.00     0.045 A 
ATOM      6  C27 ZIN A   1      18.238  -2.264  12.794  0.00  0.00     0.047 A 
ENDROOT
BRANCH   4   7
ATOM      7  O11 ZIN A   1      17.984  -2.612   9.156  0.00  0.00    -0.348 OA
BRANCH   7   8
ATOM      8  C12 ZIN A   1      19.089  -2.245   8.328  0.00  0.00     0.209 C 
BRANCH   8   9
ATOM      9  C13 ZIN A   1      19.045  -3.057   7.031  0.00  0.00     0.168 C 
BRANCH   9  10
ATOM     10  O15 ZIN A   1      20.357  -3.532   6.722  0.00  0.00    -0.392 OA
ATOM     11  H40 ZIN A   1      20.721  -4.139   7.382  0.00  0.00     0.210 HD
ENDBRANCH   9  10
BRANCH   9  12
ATOM     12  C16 ZIN A   1      18.541  -2.170   5.891  0.00  0.00     0.266 C 
BRANCH  12  13
ATOM     13  N17 ZIN A   1      17.708  -1.093   6.440  0.00  0.00    -0.069 N 
ATOM     14  H18 ZIN A   1      16.736  -1.298   6.270  0.00  0.00     0.277 HD
ATOM     15  H19 ZIN A   1      17.867  -1.018   7.434  0.00  0.00     0.277 HD
BRANCH  13  16
ATOM     16  C20 ZIN A   1      18.061   0.178   5.792  0.00  0.00     0.178 C 
ATOM     17  C21 ZIN A   1      18.770   1.085   6.801  0.00  0.00     0.039 C 
ATOM     18  C22 ZIN A   1      18.992  -0.093   4.609  0.00  0.00     0.039 C 
ENDBRANCH  13  16
ENDBRANCH  12  13
ENDBRANCH   9  12
ENDBRANCH   8   9
ENDBRANCH   7   8
ENDBRANCH   4   7
BRANCH   5  19
ATOM     19  C24 ZIN A   1      18.696  -4.238  11.354  0.00  0.00     0.158 C 
ATOM     20  C25 ZIN A   1      17.673  -5.341  11.445  0.00  0.00     0.097 C 
ATOM     21  O26 ZIN A   1      19.861  -4.506  11.143  0.00  0.00    -0.293 OA
ENDBRANCH   5  19
BRANCH   1  22
ATOM     22  N6  ZIN A   1      17.791  -0.372  14.218  0.00  0.00    -0.327 N 
ATOM     23  C4  ZIN A   1      18.872   0.260  14.719  0.00  0.00     0.222 C 
ATOM     24  O5  ZIN A   1      19.915   0.259  14.099  0.00  0.00    -0.273 OA
ATOM     25  H35 ZIN A   1      16.977  -0.429  14.743  0.00  0.00     0.169 HD
BRANCH  23  26
ATOM     26  C3  ZIN A   1      18.784   0.967  16.047  0.00  0.00     0.103 C 
BRANCH  26  27
ATOM     27  C2  ZIN A   1      18.056   0.074  17.052  0.00  0.00     0.005 C 
ATOM     28  C1  ZIN A   1      18.627   0.310  18.452  0.00  0.00     0.005 C 
ENDBRANCH  26  27
ENDBRANCH  23  26
ENDBRANCH   1  22
TORSDOF 11
ENDMDL
MODEL 5
REMARK VINA RESULT:      -6.7      1.910      2.432
REMARK  11 active torsions:
REMARK  status: ('A' for Active; 'I' for Inactive)
REMARK    1  A    between atoms: C2_2  and  C3_3 
REMARK    2  A    between atoms: C3_3  and  C4_4 
REMARK       I    between atoms: C4_4  and  N6_6 
REMARK    3  A    between atoms: N6_6  and  C7_7 
REMARK    4  A    between atoms: C10_10  and  O11_11 
REMARK    5  A    between atoms: O11_11  and  C12_12 
REMARK    6  A    between atoms: C12_12  and  C13_13 
REMARK    7  A    between atoms: C13_13  and  O15_14 
REMARK    8  A    between atoms: C13_13  and  C16_15 
REMARK    9  A    between atoms: C16_15  and  N17_16 
REMARK   10  A    between atoms: N17_16  and  C20_19 
REMARK   11  A    between atoms: C23_22  and  C24_23 
ROOT
ATOM      1  C7  ZIN A   1      17.843  -0.234   6.925  0.00  0.00     0.035 A 
ATOM      2  C8  ZIN A   1      18.644   0.887   6.735  0.00  0.00     0.032 A 
ATOM      3  C9  ZIN A   1      19.191   1.546   7.817  0.00  0.00     0.040 A 
ATOM      4  C10 ZIN A   1      18.948   1.092   9.105  0.00  0.00     0.082 A 
ATOM      5  C23 ZIN A   1      18.141  -0.040   9.305  0.00  0.00     0.045 A 
ATOM      6  C27 ZIN A   1      17.586  -0.697   8.202  0.00  0.00     0.047 A 
ENDROOT
BRANCH   4   7
ATOM      7  O11 ZIN A   1      19.487   1.741  10.167  0.00  0.00    -0.348 OA
BRANCH   7   8
ATOM      8  C12 ZIN A   1      18.949   3.026  10.484  0.00  0.00     0.209 C 
BRANCH   8   9
ATOM      9  C13 ZIN A   1      19.542   3.515  11.807  0.00  0.00     0.168 C 
BRANCH   9  10
ATOM     10  O15 ZIN A   1      20.960   3.344  11.787  0.00  0.00    -0.392 OA
ATOM     11  H40 ZIN A   1      21.291   2.726  12.454  0.00  0.00     0.210 HD
ENDBRANCH   9  10
BRANCH   9  12
ATOM     12  C16 ZIN A   1      18.946   2.707  12.963  0.00  0.00     0.266 C 
BRANCH  12  13
ATOM     13  N17 ZIN A   1      19.725   1.478  13.153  0.00  0.00    -0.069 N 
ATOM     14  H18 ZIN A   1      19.422   0.780  12.491  0.00  0.00     0.277 HD
ATOM     15  H19 ZIN A   1      20.704   1.674  13.011  0.00  0.00     0.277 HD
BRANCH  13  16
ATOM     16  C20 ZIN A   1      19.521   0.976  14.519  0.00  0.00     0.178 C 
ATOM     17  C21 ZIN A   1      19.056   2.123  15.420  0.00  0.00     0.039 C 
ATOM     18  C22 ZIN A   1      18.459  -0.124  14.506  0.00  0.00     0.039 C 
ENDBRANCH  13  16
ENDBRANCH  12  13
ENDBRANCH   9  12
ENDBRANCH   8   9
ENDBRANCH   7   8
ENDBRANCH   4   7
BRANCH   5  19
ATOM     19  C24 ZIN A   1      17.877  -0.527  10.665  0.00  0.00     0.158 C 
ATOM     20  C25 ZIN A   1      16.673  -0.030  11.423  0.00  0.00     0.097 C 
ATOM     21  O26 ZIN A   1      18.628  -1.330  11.178  0.00  0.00    -0.293 OA
ENDBRANCH   5  19
BRANCH   1  22
ATOM     22  N6  ZIN A   1      17.293  -0.895   5.818  0.00  0.00    -0.327 N 
ATOM     23  C4  ZIN A   1      18.051  -1.742   5.093  0.00  0.00     0.222 C 
ATOM     24  O5  ZIN A   1      19.230  -1.870   5.347  0.00  0.00    -0.273 OA
ATOM     25  H35 ZIN A   1      16.367  -0.743   5.573  0.00  0.00     0.169 HD
BRANCH  23  26
ATOM     26  C3  ZIN A   1      17.433  -2.532   3.967  0.00  0.00     0.103 C 
BRANCH  26  27
ATOM     27  C2  ZIN A   1      18.107  -3.902   3.876  0.00  0.00     0.005 C 
ATOM     28  C1  ZIN A   1      17.441  -4.864   4.862  0.00  0.00     0.005 C 
ENDBRANCH  26  27
ENDBRANCH  23  26
ENDBRANCH   1  22
TORSDOF 11
ENDMDL
MODEL 6
REMARK VINA RESULT:      -6.7      3.291      7.218
REMARK  11 active torsions:
REMARK  status: ('A' for Active; 'I' for Inactive)
REMARK    1  A    between atoms: C2_2  and  C3_3 
REMARK    2  A    between atoms: C3_3  and  C4_4 
REMARK       I    between atoms: C4_4  and  N6_6 
REMARK    3  A    between atoms: N6_6  and  C7_7 
REMARK    4  A    between atoms: C10_10  and  O11_11 
REMARK    5  A    between atoms: O11_11  and  C12_12 
REMARK    6  A    between atoms: C12_12  and  C13_13 
REMARK    7  A    between atoms: C13_13  and  O15_14 
REMARK    8  A    between atoms: C13_13  and  C16_15 
REMARK    9  A    between atoms: C16_15  and  N17_16 
REMARK   10  A    between atoms: N17_16  and  C20_19 
REMARK   11  A    between atoms: C23_22  and  C24_23 
ROOT
ATOM      1  C7  ZIN A   1      18.980   0.445   8.759  0.00  0.00     0.035 A 
ATOM      2  C8  ZIN A   1      19.276  -0.716   9.465  0.00  0.00     0.032 A 
ATOM      3  C9  ZIN A   1      19.477  -1.908   8.799  0.00  0.00     0.040 A 
ATOM      4  C10 ZIN A   1      19.387  -1.956   7.416  0.00  0.00     0.082 A 
ATOM      5  C23 ZIN A   1      19.088  -0.788   6.695  0.00  0.00     0.045 A 
ATOM      6  C27 ZIN A   1      18.881   0.414   7.380  0.00  0.00     0.047 A 
ENDROOT
BRANCH   4   7
ATOM      7  O11 ZIN A   1      19.585  -3.128   6.762  0.00  0.00    -0.348 OA
BRANCH   7   8
ATOM      8  C12 ZIN A   1      18.735  -4.220   7.117  0.00  0.00     0.209 C 
BRANCH   8   9
ATOM      9  C13 ZIN A   1      19.586  -5.466   7.373  0.00  0.00     0.168 C 
BRANCH   9  10
ATOM     10  O15 ZIN A   1      18.926  -6.613   6.834  0.00  0.00    -0.392 OA
ATOM     11  H40 ZIN A   1      19.440  -7.430   6.901  0.00  0.00     0.210 HD
ENDBRANCH   9  10
BRANCH   9  12
ATOM     12  C16 ZIN A   1      19.782  -5.650   8.879  0.00  0.00     0.266 C 
BRANCH  12  13
ATOM     13  N17 ZIN A   1      18.475  -5.824   9.525  0.00  0.00    -0.069 N 
ATOM     14  H18 ZIN A   1      17.742  -5.641   8.858  0.00  0.00     0.277 HD
ATOM     15  H19 ZIN A   1      18.391  -6.770   9.866  0.00  0.00     0.277 HD
BRANCH  13  16
ATOM     16  C20 ZIN A   1      18.357  -4.888  10.650  0.00  0.00     0.178 C 
ATOM     17  C21 ZIN A   1      17.463  -5.500  11.732  0.00  0.00     0.039 C 
ATOM     18  C22 ZIN A   1      19.744  -4.610  11.232  0.00  0.00     0.039 C 
ENDBRANCH  13  16
ENDBRANCH  12  13
ENDBRANCH   9  12
ENDBRANCH   8   9
ENDBRANCH   7   8
ENDBRANCH   4   7
BRANCH   5  19
ATOM     19  C24 ZIN A   1      18.990  -0.830   5.231  0.00  0.00     0.158 C 
ATOM     20  C25 ZIN A   1      17.664  -1.115   4.572  0.00  0.00     0.097 C 
ATOM     21  O26 ZIN A   1      19.975  -0.634   4.550  0.00  0.00    -0.293 OA
ENDBRANCH   5  19
BRANCH   1  22
ATOM     22  N6  ZIN A   1      18.778   1.649   9.447  0.00  0.00    -0.327 N 
ATOM     23  C4  ZIN A   1      17.765   1.760  10.329  0.00  0.00     0.222 C 
ATOM     24  O5  ZIN A   1      16.978   0.847  10.467  0.00  0.00    -0.273 OA
ATOM     25  H35 ZIN A   1      19.367   2.403   9.288  0.00  0.00     0.169 HD
BRANCH  23  26
ATOM     26  C3  ZIN A   1      17.610   3.018  11.144  0.00  0.00     0.103 C 
BRANCH  26  27
ATOM     27  C2  ZIN A   1      17.850   4.237  10.251  0.00  0.00     0.005 C 
ATOM     28  C1  ZIN A   1      17.016   5.414  10.761  0.00  0.00     0.005 C 
ENDBRANCH  26  27
ENDBRANCH  23  26
ENDBRANCH   1  22
TORSDOF 11
ENDMDL
MODEL 7
REMARK VINA RESULT:      -6.6      2.682      7.737
REMARK  11 active torsions:
REMARK  status: ('A' for Active; 'I' for Inactive)
REMARK    1  A    between atoms: C2_2  and  C3_3 
REMARK    2  A    between atoms: C3_3  and  C4_4 
REMARK       I    between atoms: C4_4  and  N6_6 
REMARK    3  A    between atoms: N6_6  and  C7_7 
REMARK    4  A    between atoms: C10_10  and  O11_11 
REMARK    5  A    between atoms: O11_11  and  C12_12 
REMARK    6  A    between atoms: C12_12  and  C13_13 
REMARK    7  A    between atoms: C13_13  and  O15_14 
REMARK    8  A    between atoms: C13_13  and  C16_15 
REMARK    9  A    between atoms: C16_15  and  N17_16 
REMARK   10  A    between atoms: N17_16  and  C20_19 
REMARK   11  A    between atoms: C23_22  and  C24_23 
ROOT
ATOM      1  C7  ZIN A   1      18.669  -0.557  14.357  0.00  0.00     0.035 A 
ATOM      2  C8  ZIN A   1      17.749   0.234  13.676  0.00  0.00     0.032 A 
ATOM      3  C9  ZIN A   1      17.314  -0.126  12.417  0.00  0.00     0.040 A 
ATOM      4  C10 ZIN A   1      17.793  -1.283  11.819  0.00  0.00     0.082 A 
ATOM      5  C23 ZIN A   1      18.722  -2.087  12.500  0.00  0.00     0.045 A 
ATOM      6  C27 ZIN A   1      19.161  -1.710  13.774  0.00  0.00     0.047 A 
ENDROOT
BRANCH   4   7
ATOM      7  O11 ZIN A   1      17.365  -1.635  10.581  0.00  0.00    -0.348 OA
BRANCH   7   8
ATOM      8  C12 ZIN A   1      18.166  -1.217   9.475  0.00  0.00     0.209 C 
BRANCH   8   9
ATOM      9  C13 ZIN A   1      17.507  -0.017   8.792  0.00  0.00     0.168 C 
BRANCH   9  10
ATOM     10  O15 ZIN A   1      16.966  -0.422   7.534  0.00  0.00    -0.392 OA
ATOM     11  H40 ZIN A   1      17.603  -0.864   6.956  0.00  0.00     0.210 HD
ENDBRANCH   9  10
BRANCH   9  12
ATOM     12  C16 ZIN A   1      18.549   1.081   8.571  0.00  0.00     0.266 C 
BRANCH  12  13
ATOM     13  N17 ZIN A   1      19.331   1.269   9.800  0.00  0.00    -0.069 N 
ATOM     14  H18 ZIN A   1      18.987   0.648  10.516  0.00  0.00     0.277 HD
ATOM     15  H19 ZIN A   1      20.302   1.066   9.616  0.00  0.00     0.277 HD
BRANCH  13  16
ATOM     16  C20 ZIN A   1      19.200   2.659  10.256  0.00  0.00     0.178 C 
ATOM     17  C21 ZIN A   1      17.720   2.996  10.451  0.00  0.00     0.039 C 
ATOM     18  C22 ZIN A   1      19.942   2.835  11.582  0.00  0.00     0.039 C 
ENDBRANCH  13  16
ENDBRANCH  12  13
ENDBRANCH   9  12
ENDBRANCH   8   9
ENDBRANCH   7   8
ENDBRANCH   4   7
BRANCH   5  19
ATOM     19  C24 ZIN A   1      19.235  -3.312  11.874  0.00  0.00     0.158 C 
ATOM     20  C25 ZIN A   1      18.348  -4.526  11.756  0.00  0.00     0.097 C 
ATOM     21  O26 ZIN A   1      20.372  -3.348  11.452  0.00  0.00    -0.293 OA
ENDBRANCH   5  19
BRANCH   1  22
ATOM     22  N6  ZIN A   1      19.102  -0.181  15.636  0.00  0.00    -0.327 N 
ATOM     23  C4  ZIN A   1      18.485  -0.673  16.728  0.00  0.00     0.222 C 
ATOM     24  O5  ZIN A   1      17.503  -1.375  16.606  0.00  0.00    -0.273 OA
ATOM     25  H35 ZIN A   1      19.847   0.433  15.735  0.00  0.00     0.169 HD
BRANCH  23  26
ATOM     26  C3  ZIN A   1      19.015  -0.352  18.102  0.00  0.00     0.103 C 
BRANCH  26  27
ATOM     27  C2  ZIN A   1      18.238   0.830  18.685  0.00  0.00     0.005 C 
ATOM     28  C1  ZIN A   1      19.030   2.120  18.462  0.00  0.00     0.005 C 
ENDBRANCH  26  27
ENDBRANCH  23  26
ENDBRANCH   1  22
TORSDOF 11
ENDMDL
MODEL 8
REMARK VINA RESULT:      -6.6      2.495      8.564
REMARK  11 active torsions:
REMARK  status: ('A' for Active; 'I' for Inactive)
REMARK    1  A    between atoms: C2_2  and  C3_3 
REMARK    2  A    between atoms: C3_3  and  C4_4 
REMARK       I    between atoms: C4_4  and  N6_6 
REMARK    3  A    between atoms: N6_6  and  C7_7 
REMARK    4  A    between atoms: C10_10  and  O11_11 
REMARK    5  A    between atoms: O11_11  and  C12_12 
REMARK    6  A    between atoms: C12_12  and  C13_13 
REMARK    7  A    between atoms: C13_13  and  O15_14 
REMARK    8  A    between atoms: C13_13  and  C16_15 
REMARK    9  A    between atoms: C16_15  and  N17_16 
REMARK   10  A    between atoms: N17_16  and  C20_19 
REMARK   11  A    between atoms: C23_22  and  C24_23 
ROOT
ATOM      1  C7  ZIN A   1      18.705  -0.514  14.300  0.00  0.00     0.035 A 
ATOM      2  C8  ZIN A   1      17.865   0.382  13.647  0.00  0.00     0.032 A 
ATOM      3  C9  ZIN A   1      17.396   0.104  12.380  0.00  0.00     0.040 A 
ATOM      4  C10 ZIN A   1      17.757  -1.076  11.747  0.00  0.00     0.082 A 
ATOM      5  C23 ZIN A   1      18.605  -1.987  12.399  0.00  0.00     0.045 A 
ATOM      6  C27 ZIN A   1      19.080  -1.693  13.682  0.00  0.00     0.047 A 
ENDROOT
BRANCH   4   7
ATOM      7  O11 ZIN A   1      17.295  -1.348  10.501  0.00  0.00    -0.348 OA
BRANCH   7   8
ATOM      8  C12 ZIN A   1      17.695  -0.463   9.453  0.00  0.00     0.209 C 
BRANCH   8   9
ATOM      9  C13 ZIN A   1      18.365  -1.265   8.336  0.00  0.00     0.168 C 
BRANCH   9  10
ATOM     10  O15 ZIN A   1      19.715  -1.557   8.702  0.00  0.00    -0.392 OA
ATOM     11  H40 ZIN A   1      19.881  -2.494   8.875  0.00  0.00     0.210 HD
ENDBRANCH   9  10
BRANCH   9  12
ATOM     12  C16 ZIN A   1      18.352  -0.448   7.042  0.00  0.00     0.266 C 
BRANCH  12  13
ATOM     13  N17 ZIN A   1      17.300  -0.956   6.153  0.00  0.00    -0.069 N 
ATOM     14  H18 ZIN A   1      16.967  -1.843   6.497  0.00  0.00     0.277 HD
ATOM     15  H19 ZIN A   1      16.536  -0.298   6.124  0.00  0.00     0.277 HD
BRANCH  13  16
ATOM     16  C20 ZIN A   1      17.845  -1.131   4.800  0.00  0.00     0.178 C 
ATOM     17  C21 ZIN A   1      19.117  -0.292   4.649  0.00  0.00     0.039 C 
ATOM     18  C22 ZIN A   1      18.178  -2.606   4.569  0.00  0.00     0.039 C 
ENDBRANCH  13  16
ENDBRANCH  12  13
ENDBRANCH   9  12
ENDBRANCH   8   9
ENDBRANCH   7   8
ENDBRANCH   4   7
BRANCH   5  19
ATOM     19  C24 ZIN A   1      18.994  -3.238  11.737  0.00  0.00     0.158 C 
ATOM     20  C25 ZIN A   1      18.093  -4.444  11.816  0.00  0.00     0.097 C 
ATOM     21  O26 ZIN A   1      20.039  -3.300  11.124  0.00  0.00    -0.293 OA
ENDBRANCH   5  19
BRANCH   1  22
ATOM     22  N6  ZIN A   1      19.175  -0.221  15.588  0.00  0.00    -0.327 N 
ATOM     23  C4  ZIN A   1      18.427  -0.530  16.666  0.00  0.00     0.222 C 
ATOM     24  O5  ZIN A   1      17.312  -0.987  16.519  0.00  0.00    -0.273 OA
ATOM     25  H35 ZIN A   1      20.038   0.206  15.704  0.00  0.00     0.169 HD
BRANCH  23  26
ATOM     26  C3  ZIN A   1      18.975  -0.310  18.052  0.00  0.00     0.103 C 
BRANCH  26  27
ATOM     27  C2  ZIN A   1      18.231   0.850  18.716  0.00  0.00     0.005 C 
ATOM     28  C1  ZIN A   1      18.981   2.156  18.449  0.00  0.00     0.005 C 
ENDBRANCH  26  27
ENDBRANCH  23  26
ENDBRANCH   1  22
TORSDOF 11
ENDMDL
MODEL 9
REMARK VINA RESULT:      -6.5      1.671      3.140
REMARK  11 active torsions:
REMARK  status: ('A' for Active; 'I' for Inactive)
REMARK    1  A    between atoms: C2_2  and  C3_3 
REMARK    2  A    between atoms: C3_3  and  C4_4 
REMARK       I    between atoms: C4_4  and  N6_6 
REMARK    3  A    between atoms: N6_6  and  C7_7 
REMARK    4  A    between atoms: C10_10  and  O11_11 
REMARK    5  A    between atoms: O11_11  and  C12_12 
REMARK    6  A    between atoms: C12_12  and  C13_13 
REMARK    7  A    between atoms: C13_13  and  O15_14 
REMARK    8  A    between atoms: C13_13  and  C16_15 
REMARK    9  A    between atoms: C16_15  and  N17_16 
REMARK   10  A    between atoms: N17_16  and  C20_19 
REMARK   11  A    between atoms: C23_22  and  C24_23 
ROOT
ATOM      1  C7  ZIN A   1      18.575   0.496   8.445  0.00  0.00     0.035 A 
ATOM      2  C8  ZIN A   1      17.988  -0.472   9.252  0.00  0.00     0.032 A 
ATOM      3  C9  ZIN A   1      17.574  -0.161  10.531  0.00  0.00     0.040 A 
ATOM      4  C10 ZIN A   1      17.740   1.125  11.023  0.00  0.00     0.082 A 
ATOM      5  C23 ZIN A   1      18.333   2.110  10.215  0.00  0.00     0.045 A 
ATOM      6  C27 ZIN A   1      18.754   1.783   8.922  0.00  0.00     0.047 A 
ENDROOT
BRANCH   4   7
ATOM      7  O11 ZIN A   1      17.333   1.430  12.280  0.00  0.00    -0.348 OA
BRANCH   7   8
ATOM      8  C12 ZIN A   1      17.561   0.447  13.292  0.00  0.00     0.209 C 
BRANCH   8   9
ATOM      9  C13 ZIN A   1      17.939   1.142  14.602  0.00  0.00     0.168 C 
BRANCH   9  10
ATOM     10  O15 ZIN A   1      17.027   0.751  15.629  0.00  0.00    -0.392 OA
ATOM     11  H40 ZIN A   1      16.667   1.491  16.138  0.00  0.00     0.210 HD
ENDBRANCH   9  10
BRANCH   9  12
ATOM     12  C16 ZIN A   1      17.876   2.659  14.412  0.00  0.00     0.266 C 
BRANCH  12  13
ATOM     13  N17 ZIN A   1      19.237   3.195  14.293  0.00  0.00    -0.069 N 
ATOM     14  H18 ZIN A   1      19.904   2.481  14.545  0.00  0.00     0.277 HD
ATOM     15  H19 ZIN A   1      19.402   3.487  13.342  0.00  0.00     0.277 HD
BRANCH  13  16
ATOM     16  C20 ZIN A   1      19.390   4.347  15.192  0.00  0.00     0.178 C 
ATOM     17  C21 ZIN A   1      18.074   5.125  15.252  0.00  0.00     0.039 C 
ATOM     18  C22 ZIN A   1      19.757   3.856  16.593  0.00  0.00     0.039 C 
ENDBRANCH  13  16
ENDBRANCH  12  13
ENDBRANCH   9  12
ENDBRANCH   8   9
ENDBRANCH   7   8
ENDBRANCH   4   7
BRANCH   5  19
ATOM     19  C24 ZIN A   1      18.514   3.474  10.727  0.00  0.00     0.158 C 
ATOM     20  C25 ZIN A   1      17.489   4.536  10.422  0.00  0.00     0.097 C 
ATOM     21  O26 ZIN A   1      19.488   3.746  11.398  0.00  0.00    -0.293 OA
ENDBRANCH   5  19
BRANCH   1  22
ATOM     22  N6  ZIN A   1      18.991   0.168   7.148  0.00  0.00    -0.327 N 
ATOM     23  C4  ZIN A   1      18.094   0.129   6.142  0.00  0.00     0.222 C 
ATOM     24  O5  ZIN A   1      16.915   0.296   6.374  0.00  0.00    -0.273 OA
ATOM     25  H35 ZIN A   1      19.924  -0.031   6.973  0.00  0.00     0.169 HD
BRANCH  23  26
ATOM     26  C3  ZIN A   1      18.556  -0.122   4.730  0.00  0.00     0.103 C 
BRANCH  26  27
ATOM     27  C2  ZIN A   1      18.766  -1.623   4.521  0.00  0.00     0.005 C 
ATOM     28  C1  ZIN A   1      17.421  -2.290   4.227  0.00  0.00     0.005 C 
ENDBRANCH  26  27
ENDBRANCH  23  26
ENDBRANCH   1  22
TORSDOF 11
ENDMDL
