MODEL 1
REMARK VINA RESULT:      -7.6      0.000      0.000
REMARK  12 active torsions:
REMARK  status: ('A' for Active; 'I' for Inactive)
REMARK    1  A    between atoms: C2_2  and  C4_4 
REMARK    2  A    between atoms: C4_4  and  O6_6 
REMARK    3  A    between atoms: O6_6  and  C7_7 
REMARK    4  A    between atoms: C10_10  and  C11_11 
REMARK    5  A    between atoms: C11_11  and  O12_12 
REMARK    6  A    between atoms: C14_14  and  C15_15 
REMARK    7  A    between atoms: C15_15  and  C17_16 
REMARK    8  A    between atoms: C15_15  and  C27_26 
REMARK    9  A    between atoms: C17_16  and  C18_17 
REMARK   10  A    between atoms: C18_17  and  N19_18 
REMARK   11  A    between atoms: N19_18  and  C21_20 
REMARK   12  A    between atoms: N19_18  and  C24_23 
ROOT
ATOM      1  C15 ZIN A   1      19.244  -1.081  11.318  0.00  0.00     0.056 C 
ENDROOT
BRANCH   1   2
ATOM      2  C14 ZIN A   1      19.100  -0.448  12.678  0.00  0.00    -0.015 A 
ATOM      3  C7  ZIN A   1      19.553   0.846  12.893  0.00  0.00     0.086 A 
ATOM      4  C8  ZIN A   1      19.419   1.426  14.146  0.00  0.00     0.038 A 
ATOM      5  C9  ZIN A   1      18.838   0.713  15.178  0.00  0.00     0.012 A 
ATOM      6  C10 ZIN A   1      18.392  -0.579  14.962  0.00  0.00    -0.034 A 
ATOM      7  C13 ZIN A   1      18.525  -1.159  13.714  0.00  0.00     0.020 A 
BRANCH   3   8
ATOM      8  O6  ZIN A   1      20.123   1.545  11.877  0.00  0.00    -0.278 OA
BRANCH   8   9
ATOM      9  C4  ZIN A   1      19.663   2.787  11.659  0.00  0.00     0.267 C 
ATOM     10  O5  ZIN A   1      20.395   3.737  11.809  0.00  0.00    -0.264 OA
BRANCH   9  11
ATOM     11  C2  ZIN A   1      18.235   2.997  11.225  0.00  0.00     0.078 C 
ATOM     12  C1  ZIN A   1      17.561   4.001  12.160  0.00  0.00     0.020 C 
ATOM     13  C3  ZIN A   1      18.211   3.536   9.793  0.00  0.00     0.020 C 
ENDBRANCH   9  11
ENDBRANCH   8   9
ENDBRANCH   3   8
BRANCH   6  14
ATOM     14  C11 ZIN A   1      17.760  -1.353  16.089  0.00  0.00     0.202 C 
BRANCH  14  15
ATOM     15  O12 ZIN A   1      16.880  -0.497  16.820  0.00  0.00    -0.396 OA
ATOM     16  H44 ZIN A   1      16.672   0.332  16.366  0.00  0.00     0.209 HD
ENDBRANCH  14  15
ENDBRANCH   6  14
ENDBRANCH   1   2
BRANCH   1  17
ATOM     17  C17 ZIN A   1      18.361  -0.337  10.313  0.00  0.00     0.042 C 
BRANCH  17  18
ATOM     18  C18 ZIN A   1      19.105  -0.204   8.982  0.00  0.00     0.237 C 
BRANCH  18  19
ATOM     19  N19 ZIN A   1      18.389  -0.959   7.945  0.00  0.00    -0.064 N 
ATOM     20  H20 ZIN A   1      17.454  -1.164   8.262  0.00  0.00     0.280 HD
BRANCH  19  21
ATOM     21  C21 ZIN A   1      18.325  -0.159   6.714  0.00  0.00     0.180 C 
ATOM     22  C22 ZIN A   1      16.863   0.034   6.306  0.00  0.00     0.039 C 
ATOM     23  C23 ZIN A   1      18.970   1.206   6.959  0.00  0.00     0.039 C 
ENDBRANCH  19  21
BRANCH  19  24
ATOM     24  C24 ZIN A   1      19.101  -2.216   7.675  0.00  0.00     0.180 C 
ATOM     25  C25 ZIN A   1      18.188  -3.399   8.000  0.00  0.00     0.039 C 
ATOM     26  C26 ZIN A   1      19.500  -2.269   6.200  0.00  0.00     0.039 C 
ENDBRANCH  19  24
ENDBRANCH  18  19
ENDBRANCH  17  18
ENDBRANCH   1  17
BRANCH   1  27
ATOM     27  C27 ZIN A   1      18.817  -2.525  11.389  0.00  0.00    -0.050 A 
ATOM     28  C32 ZIN A   1      19.770  -3.526  11.400  0.00  0.00     0.008 A 
ATOM     29  C31 ZIN A   1      19.380  -4.851  11.469  0.00  0.00     0.001 A 
ATOM     30  C30 ZIN A   1      18.037  -5.174  11.518  0.00  0.00     0.000 A 
ATOM     31  C29 ZIN A   1      17.084  -4.172  11.501  0.00  0.00     0.001 A 
ATOM     32  C28 ZIN A   1      17.475  -2.848  11.436  0.00  0.00     0.008 A 
ENDBRANCH   1  27
TORSDOF 12
ENDMDL
MODEL 2
REMARK VINA RESULT:      -7.5      2.365      5.513
REMARK  12 active torsions:
REMARK  status: ('A' for Active; 'I' for Inactive)
REMARK    1  A    between atoms: C2_2  and  C4_4 
REMARK    2  A    between atoms: C4_4  and  O6_6 
REMARK    3  A    between atoms: O6_6  and  C7_7 
REMARK    4  A    between atoms: C10_10  and  C11_11 
REMARK    5  A    between atoms: C11_11  and  O12_12 
REMARK    6  A    between atoms: C14_14  and  C15_15 
REMARK    7  A    between atoms: C15_15  and  C17_16 
REMARK    8  A    between atoms: C15_15  and  C27_26 
REMARK    9  A    between atoms: C17_16  and  C18_17 
REMARK   10  A    between atoms: C18_17  and  N19_18 
REMARK   11  A    between atoms: N19_18  and  C21_20 
REMARK   12  A    between atoms: N19_18  and  C24_23 
ROOT
ATOM      1  C15 ZIN A   1      18.650  -0.665  10.867  0.00  0.00     0.056 C 
ENDROOT
BRANCH   1   2
ATOM      2  C14 ZIN A   1      18.598   0.690  10.210  0.00  0.00    -0.015 A 
ATOM      3  C7  ZIN A   1      19.202   0.887   8.976  0.00  0.00     0.086 A 
ATOM      4  C8  ZIN A   1      19.152   2.135   8.373  0.00  0.00     0.038 A 
ATOM      5  C9  ZIN A   1      18.505   3.180   9.005  0.00  0.00     0.012 A 
ATOM      6  C10 ZIN A   1      17.909   2.983  10.237  0.00  0.00    -0.034 A 
ATOM      7  C13 ZIN A   1      17.958   1.740  10.840  0.00  0.00     0.020 A 
BRANCH   3   8
ATOM      8  O6  ZIN A   1      19.836  -0.143   8.357  0.00  0.00    -0.278 OA
BRANCH   8   9
ATOM      9  C4  ZIN A   1      19.231  -0.676   7.284  0.00  0.00     0.267 C 
ATOM     10  O5  ZIN A   1      19.201  -1.875   7.141  0.00  0.00    -0.264 OA
BRANCH   9  11
ATOM     11  C2  ZIN A   1      18.587   0.222   6.259  0.00  0.00     0.078 C 
ATOM     12  C1  ZIN A   1      19.251   0.002   4.899  0.00  0.00     0.020 C 
ATOM     13  C3  ZIN A   1      17.095  -0.107   6.158  0.00  0.00     0.020 C 
ENDBRANCH   9  11
ENDBRANCH   8   9
ENDBRANCH   3   8
BRANCH   6  14
ATOM     14  C11 ZIN A   1      17.206   4.126  10.923  0.00  0.00     0.202 C 
BRANCH  14  15
ATOM     15  O12 ZIN A   1      17.196   5.265  10.060  0.00  0.00    -0.396 OA
ATOM     16  H44 ZIN A   1      17.825   5.207   9.326  0.00  0.00     0.209 HD
ENDBRANCH  14  15
ENDBRANCH   6  14
ENDBRANCH   1   2
BRANCH   1  17
ATOM     17  C17 ZIN A   1      17.363  -1.432  10.556  0.00  0.00     0.042 C 
BRANCH  17  18
ATOM     18  C18 ZIN A   1      17.715  -2.834  10.052  0.00  0.00     0.237 C 
BRANCH  18  19
ATOM     19  N19 ZIN A   1      17.987  -3.712  11.198  0.00  0.00    -0.064 N 
ATOM     20  H20 ZIN A   1      18.089  -3.154  12.032  0.00  0.00     0.280 HD
BRANCH  19  21
ATOM     21  C21 ZIN A   1      16.871  -4.652  11.371  0.00  0.00     0.180 C 
ATOM     22  C22 ZIN A   1      16.372  -5.109   9.999  0.00  0.00     0.039 C 
ATOM     23  C23 ZIN A   1      17.347  -5.866  12.171  0.00  0.00     0.039 C 
ENDBRANCH  19  21
BRANCH  19  24
ATOM     24  C24 ZIN A   1      19.227  -4.462  10.956  0.00  0.00     0.180 C 
ATOM     25  C25 ZIN A   1      19.531  -4.474   9.457  0.00  0.00     0.039 C 
ATOM     26  C26 ZIN A   1      20.381  -3.794  11.705  0.00  0.00     0.039 C 
ENDBRANCH  19  24
ENDBRANCH  18  19
ENDBRANCH  17  18
ENDBRANCH   1  17
BRANCH   1  27
ATOM     27  C27 ZIN A   1      18.785  -0.495  12.358  0.00  0.00    -0.050 A 
ATOM     28  C32 ZIN A   1      17.736  -0.839  13.190  0.00  0.00     0.008 A 
ATOM     29  C31 ZIN A   1      17.861  -0.688  14.559  0.00  0.00     0.001 A 
ATOM     30  C30 ZIN A   1      19.031  -0.182  15.094  0.00  0.00     0.000 A 
ATOM     31  C29 ZIN A   1      20.077   0.168  14.261  0.00  0.00     0.001 A 
ATOM     32  C28 ZIN A   1      19.953   0.012  12.893  0.00  0.00     0.008 A 
ENDBRANCH   1  27
TORSDOF 12
ENDMDL
MODEL 3
REMARK VINA RESULT:      -7.4      2.808      6.429
REMARK  12 active torsions:
REMARK  status: ('A' for Active; 'I' for Inactive)
REMARK    1  A    between atoms: C2_2  and  C4_4 
REMARK    2  A    between atoms: C4_4  and  O6_6 
REMARK    3  A    between atoms: O6_6  and  C7_7 
REMARK    4  A    between atoms: C10_10  and  C11_11 
REMARK    5  A    between atoms: C11_11  and  O12_12 
REMARK    6  A    between atoms: C14_14  and  C15_15 
REMARK    7  A    between atoms: C15_15  and  C17_16 
REMARK    8  A    between atoms: C15_15  and  C27_26 
REMARK    9  A    between atoms: C17_16  and  C18_17 
REMARK   10  A    between atoms: C18_17  and  N19_18 
REMARK   11  A    between atoms: N19_18  and  C21_20 
REMARK   12  A    between atoms: N19_18  and  C24_23 
ROOT
ATOM      1  C15 ZIN A   1      17.772   0.907  12.721  0.00  0.00     0.056 C 
ENDROOT
BRANCH   1   2
ATOM      2  C14 ZIN A   1      18.038   1.727  11.486  0.00  0.00    -0.015 A 
ATOM      3  C7  ZIN A   1      17.628   3.052  11.429  0.00  0.00     0.086 A 
ATOM      4  C8  ZIN A   1      17.875   3.804  10.291  0.00  0.00     0.038 A 
ATOM      5  C9  ZIN A   1      18.525   3.232   9.213  0.00  0.00     0.012 A 
ATOM      6  C10 ZIN A   1      18.927   1.910   9.269  0.00  0.00    -0.034 A 
ATOM      7  C13 ZIN A   1      18.682   1.158  10.404  0.00  0.00     0.020 A 
BRANCH   3   8
ATOM      8  O6  ZIN A   1      16.990   3.612  12.490  0.00  0.00    -0.278 OA
BRANCH   8   9
ATOM      9  C4  ZIN A   1      17.390   4.839  12.863  0.00  0.00     0.267 C 
ATOM     10  O5  ZIN A   1      16.805   5.814  12.453  0.00  0.00    -0.264 OA
BRANCH   9  11
ATOM     11  C2  ZIN A   1      18.564   4.999  13.793  0.00  0.00     0.078 C 
ATOM     12  C1  ZIN A   1      19.849   5.132  12.973  0.00  0.00     0.020 C 
ATOM     13  C3  ZIN A   1      18.371   6.255  14.646  0.00  0.00     0.020 C 
ENDBRANCH   9  11
ENDBRANCH   8   9
ENDBRANCH   3   8
BRANCH   6  14
ATOM     14  C11 ZIN A   1      19.634   1.289   8.092  0.00  0.00     0.202 C 
BRANCH  14  15
ATOM     15  O12 ZIN A   1      18.766   1.299   6.957  0.00  0.00    -0.396 OA
ATOM     16  H44 ZIN A   1      18.680   2.166   6.536  0.00  0.00     0.209 HD
ENDBRANCH  14  15
ENDBRANCH   6  14
ENDBRANCH   1   2
BRANCH   1  17
ATOM     17  C17 ZIN A   1      18.678   1.387  13.857  0.00  0.00     0.042 C 
BRANCH  17  18
ATOM     18  C18 ZIN A   1      17.889   1.399  15.168  0.00  0.00     0.237 C 
BRANCH  18  19
ATOM     19  N19 ZIN A   1      18.800   1.129  16.289  0.00  0.00    -0.064 N 
ATOM     20  H20 ZIN A   1      19.741   1.028  15.941  0.00  0.00     0.280 HD
BRANCH  19  21
ATOM     21  C21 ZIN A   1      18.747   2.244  17.243  0.00  0.00     0.180 C 
ATOM     22  C22 ZIN A   1      19.236   1.769  18.612  0.00  0.00     0.039 C 
ATOM     23  C23 ZIN A   1      19.643   3.382  16.748  0.00  0.00     0.039 C 
ENDBRANCH  19  21
BRANCH  19  24
ATOM     24  C24 ZIN A   1      18.392  -0.112  16.963  0.00  0.00     0.180 C 
ATOM     25  C25 ZIN A   1      16.918  -0.392  16.668  0.00  0.00     0.039 C 
ATOM     26  C26 ZIN A   1      19.244  -1.274  16.451  0.00  0.00     0.039 C 
ENDBRANCH  19  24
ENDBRANCH  18  19
ENDBRANCH  17  18
ENDBRANCH   1  17
BRANCH   1  27
ATOM     27  C27 ZIN A   1      18.056  -0.544  12.431  0.00  0.00    -0.050 A 
ATOM     28  C32 ZIN A   1      19.248  -1.110  12.843  0.00  0.00     0.008 A 
ATOM     29  C31 ZIN A   1      19.507  -2.443  12.581  0.00  0.00     0.001 A 
ATOM     30  C30 ZIN A   1      18.578  -3.206  11.899  0.00  0.00     0.000 A 
ATOM     31  C29 ZIN A   1      17.389  -2.638  11.482  0.00  0.00     0.001 A 
ATOM     32  C28 ZIN A   1      17.128  -1.307  11.749  0.00  0.00     0.008 A 
ENDBRANCH   1  27
TORSDOF 12
ENDMDL
MODEL 4
REMARK VINA RESULT:      -7.4      2.216      6.109
REMARK  12 active torsions:
REMARK  status: ('A' for Active; 'I' for Inactive)
REMARK    1  A    between atoms: C2_2  and  C4_4 
REMARK    2  A    between atoms: C4_4  and  O6_6 
REMARK    3  A    between atoms: O6_6  and  C7_7 
REMARK    4  A    between atoms: C10_10  and  C11_11 
REMARK    5  A    between atoms: C11_11  and  O12_12 
REMARK    6  A    between atoms: C14_14  and  C15_15 
REMARK    7  A    between atoms: C15_15  and  C17_16 
REMARK    8  A    between atoms: C15_15  and  C27_26 
REMARK    9  A    between atoms: C17_16  and  C18_17 
REMARK   10  A    between atoms: C18_17  and  N19_18 
REMARK   11  A    between atoms: N19_18  and  C21_20 
REMARK   12  A    between atoms: N19_18  and  C24_23 
ROOT
ATOM      1  C15 ZIN A   1      18.606   0.528  10.350  0.00  0.00     0.056 C 
ENDROOT
BRANCH   1   2
ATOM      2  C14 ZIN A   1      18.628  -0.900  10.830  0.00  0.00    -0.015 A 
ATOM      3  C7  ZIN A   1      18.487  -1.181  12.182  0.00  0.00     0.086 A 
ATOM      4  C8  ZIN A   1      18.507  -2.497  12.620  0.00  0.00     0.038 A 
ATOM      5  C9  ZIN A   1      18.671  -3.524  11.711  0.00  0.00     0.012 A 
ATOM      6  C10 ZIN A   1      18.816  -3.241  10.365  0.00  0.00    -0.034 A 
ATOM      7  C13 ZIN A   1      18.797  -1.931   9.925  0.00  0.00     0.020 A 
BRANCH   3   8
ATOM      8  O6  ZIN A   1      18.326  -0.169  13.074  0.00  0.00    -0.278 OA
BRANCH   8   9
ATOM      9  C4  ZIN A   1      19.277  -0.024  14.011  0.00  0.00     0.267 C 
ATOM     10  O5  ZIN A   1      20.427   0.150  13.682  0.00  0.00    -0.264 OA
BRANCH   9  11
ATOM     11  C2  ZIN A   1      18.910  -0.079  15.471  0.00  0.00     0.078 C 
ATOM     12  C1  ZIN A   1      17.432   0.278  15.640  0.00  0.00     0.020 C 
ATOM     13  C3  ZIN A   1      19.158  -1.490  16.008  0.00  0.00     0.020 C 
ENDBRANCH   9  11
ENDBRANCH   8   9
ENDBRANCH   3   8
BRANCH   6  14
ATOM     14  C11 ZIN A   1      18.996  -4.364   9.376  0.00  0.00     0.202 C 
BRANCH  14  15
ATOM     15  O12 ZIN A   1      20.347  -4.827   9.422  0.00  0.00    -0.396 OA
ATOM     16  H44 ZIN A   1      20.860  -4.469  10.161  0.00  0.00     0.209 HD
ENDBRANCH  14  15
ENDBRANCH   6  14
ENDBRANCH   1   2
BRANCH   1  17
ATOM     17  C17 ZIN A   1      17.462   1.279  11.034  0.00  0.00     0.042 C 
BRANCH  17  18
ATOM     18  C18 ZIN A   1      17.620   2.782  10.790  0.00  0.00     0.237 C 
BRANCH  18  19
ATOM     19  N19 ZIN A   1      17.595   3.491  12.077  0.00  0.00    -0.064 N 
ATOM     20  H20 ZIN A   1      16.833   3.143  12.638  0.00  0.00     0.280 HD
BRANCH  19  21
ATOM     21  C21 ZIN A   1      18.864   3.272  12.781  0.00  0.00     0.180 C 
ATOM     22  C22 ZIN A   1      19.934   4.205  12.210  0.00  0.00     0.039 C 
ATOM     23  C23 ZIN A   1      18.678   3.563  14.272  0.00  0.00     0.039 C 
ENDBRANCH  19  21
BRANCH  19  24
ATOM     24  C24 ZIN A   1      17.409   4.929  11.838  0.00  0.00     0.180 C 
ATOM     25  C25 ZIN A   1      17.123   5.168  10.355  0.00  0.00     0.039 C 
ATOM     26  C26 ZIN A   1      16.232   5.436  12.673  0.00  0.00     0.039 C 
ENDBRANCH  19  24
ENDBRANCH  18  19
ENDBRANCH  17  18
ENDBRANCH   1  17
BRANCH   1  27
ATOM     27  C27 ZIN A   1      18.402   0.553   8.858  0.00  0.00    -0.050 A 
ATOM     28  C32 ZIN A   1      19.313   1.204   8.047  0.00  0.00     0.008 A 
ATOM     29  C31 ZIN A   1      19.129   1.224   6.677  0.00  0.00     0.001 A 
ATOM     30  C30 ZIN A   1      18.029   0.601   6.119  0.00  0.00     0.000 A 
ATOM     31  C29 ZIN A   1      17.115  -0.045   6.930  0.00  0.00     0.001 A 
ATOM     32  C28 ZIN A   1      17.302  -0.068   8.300  0.00  0.00     0.008 A 
ENDBRANCH   1  27
TORSDOF 12
ENDMDL
MODEL 5
REMARK VINA RESULT:      -7.4      2.274      6.152
REMARK  12 active torsions:
REMARK  status: ('A' for Active; 'I' for Inactive)
REMARK    1  A    between atoms: C2_2  and  C4_4 
REMARK    2  A    between atoms: C4_4  and  O6_6 
REMARK    3  A    between atoms: O6_6  and  C7_7 
REMARK    4  A    between atoms: C10_10  and  C11_11 
REMARK    5  A    between atoms: C11_11  and  O12_12 
REMARK    6  A    between atoms: C14_14  and  C15_15 
REMARK    7  A    between atoms: C15_15  and  C17_16 
REMARK    8  A    between atoms: C15_15  and  C27_26 
REMARK    9  A    between atoms: C17_16  and  C18_17 
REMARK   10  A    between atoms: C18_17  and  N19_18 
REMARK   11  A    between atoms: N19_18  and  C21_20 
REMARK   12  A    between atoms: N19_18  and  C24_23 
ROOT
ATOM      1  C15 ZIN A   1      17.058  -0.545  11.287  0.00  0.00     0.056 C 
ENDROOT
BRANCH   1   2
ATOM      2  C14 ZIN A   1      17.785   0.560  10.567  0.00  0.00    -0.015 A 
ATOM      3  C7  ZIN A   1      17.809   0.587   9.179  0.00  0.00     0.086 A 
ATOM      4  C8  ZIN A   1      18.479   1.607   8.519  0.00  0.00     0.038 A 
ATOM      5  C9  ZIN A   1      19.125   2.590   9.244  0.00  0.00     0.012 A 
ATOM      6  C10 ZIN A   1      19.105   2.558  10.626  0.00  0.00    -0.034 A 
ATOM      7  C13 ZIN A   1      18.438   1.543  11.287  0.00  0.00     0.020 A 
BRANCH   3   8
ATOM      8  O6  ZIN A   1      17.172  -0.380   8.469  0.00  0.00    -0.278 OA
BRANCH   8   9
ATOM      9  C4  ZIN A   1      17.718  -0.734   7.294  0.00  0.00     0.267 C 
ATOM     10  O5  ZIN A   1      17.262  -0.302   6.262  0.00  0.00    -0.264 OA
BRANCH   9  11
ATOM     11  C2  ZIN A   1      18.901  -1.667   7.264  0.00  0.00     0.078 C 
ATOM     12  C1  ZIN A   1      18.511  -3.005   7.893  0.00  0.00     0.020 C 
ATOM     13  C3  ZIN A   1      19.335  -1.893   5.813  0.00  0.00     0.020 C 
ENDBRANCH   9  11
ENDBRANCH   8   9
ENDBRANCH   3   8
BRANCH   6  14
ATOM     14  C11 ZIN A   1      19.812   3.631  11.413  0.00  0.00     0.202 C 
BRANCH  14  15
ATOM     15  O12 ZIN A   1      21.147   3.209  11.700  0.00  0.00    -0.396 OA
ATOM     16  H44 ZIN A   1      21.229   2.691  12.513  0.00  0.00     0.209 HD
ENDBRANCH  14  15
ENDBRANCH   6  14
ENDBRANCH   1   2
BRANCH   1  17
ATOM     17  C17 ZIN A   1      16.693  -0.080  12.698  0.00  0.00     0.042 C 
BRANCH  17  18
ATOM     18  C18 ZIN A   1      17.775  -0.536  13.681  0.00  0.00     0.237 C 
BRANCH  18  19
ATOM     19  N19 ZIN A   1      17.732   0.310  14.882  0.00  0.00    -0.064 N 
ATOM     20  H20 ZIN A   1      17.015   1.010  14.774  0.00  0.00     0.280 HD
BRANCH  19  21
ATOM     21  C21 ZIN A   1      17.436  -0.521  16.056  0.00  0.00     0.180 C 
ATOM     22  C22 ZIN A   1      18.398  -1.709  16.097  0.00  0.00     0.039 C 
ATOM     23  C23 ZIN A   1      17.602   0.315  17.327  0.00  0.00     0.039 C 
ENDBRANCH  19  21
BRANCH  19  24
ATOM     24  C24 ZIN A   1      19.034   0.967  15.062  0.00  0.00     0.180 C 
ATOM     25  C25 ZIN A   1      20.031   0.415  14.042  0.00  0.00     0.039 C 
ATOM     26  C26 ZIN A   1      18.877   2.475  14.858  0.00  0.00     0.039 C 
ENDBRANCH  19  24
ENDBRANCH  18  19
ENDBRANCH  17  18
ENDBRANCH   1  17
BRANCH   1  27
ATOM     27  C27 ZIN A   1      17.947  -1.759  11.372  0.00  0.00    -0.050 A 
ATOM     28  C32 ZIN A   1      19.317  -1.622  11.247  0.00  0.00     0.008 A 
ATOM     29  C31 ZIN A   1      20.134  -2.734  11.329  0.00  0.00     0.001 A 
ATOM     30  C30 ZIN A   1      19.579  -3.985  11.527  0.00  0.00     0.000 A 
ATOM     31  C29 ZIN A   1      18.209  -4.123  11.646  0.00  0.00     0.001 A 
ATOM     32  C28 ZIN A   1      17.393  -3.009  11.568  0.00  0.00     0.008 A 
ENDBRANCH   1  27
TORSDOF 12
ENDMDL
MODEL 6
REMARK VINA RESULT:      -7.3      1.811      3.833
REMARK  12 active torsions:
REMARK  status: ('A' for Active; 'I' for Inactive)
REMARK    1  A    between atoms: C2_2  and  C4_4 
REMARK    2  A    between atoms: C4_4  and  O6_6 
REMARK    3  A    between atoms: O6_6  and  C7_7 
REMARK    4  A    between atoms: C10_10  and  C11_11 
REMARK    5  A    between atoms: C11_11  and  O12_12 
REMARK    6  A    between atoms: C14_14  and  C15_15 
REMARK    7  A    between atoms: C15_15  and  C17_16 
REMARK    8  A    between atoms: C15_15  and  C27_26 
REMARK    9  A    between atoms: C17_16  and  C18_17 
REMARK   10  A    between atoms: C18_17  and  N19_18 
REMARK   11  A    between atoms: N19_18  and  C21_20 
REMARK   12  A    between atoms: N19_18  and  C24_23 
ROOT
ATOM      1  C15 ZIN A   1      17.255  -1.161  11.612  0.00  0.00     0.056 C 
ENDROOT
BRANCH   1   2
ATOM      2  C14 ZIN A   1      17.694  -0.484  12.884  0.00  0.00    -0.015 A 
ATOM      3  C7  ZIN A   1      17.526   0.885  13.037  0.00  0.00     0.086 A 
ATOM      4  C8  ZIN A   1      17.931   1.505  14.210  0.00  0.00     0.038 A 
ATOM      5  C9  ZIN A   1      18.504   0.759  15.222  0.00  0.00     0.012 A 
ATOM      6  C10 ZIN A   1      18.676  -0.605  15.065  0.00  0.00    -0.034 A 
ATOM      7  C13 ZIN A   1      18.273  -1.225  13.897  0.00  0.00     0.020 A 
BRANCH   3   8
ATOM      8  O6  ZIN A   1      16.962   1.616  12.041  0.00  0.00    -0.278 OA
BRANCH   8   9
ATOM      9  C4  ZIN A   1      17.513   2.811  11.774  0.00  0.00     0.267 C 
ATOM     10  O5  ZIN A   1      17.000   3.821  12.197  0.00  0.00    -0.264 OA
BRANCH   9  11
ATOM     11  C2  ZIN A   1      18.770   2.893  10.947  0.00  0.00     0.078 C 
ATOM     12  C1  ZIN A   1      18.477   3.641   9.646  0.00  0.00     0.020 C 
ATOM     13  C3  ZIN A   1      19.849   3.641  11.734  0.00  0.00     0.020 C 
ENDBRANCH   9  11
ENDBRANCH   8   9
ENDBRANCH   3   8
BRANCH   6  14
ATOM     14  C11 ZIN A   1      19.303  -1.415  16.171  0.00  0.00     0.202 C 
BRANCH  14  15
ATOM     15  O12 ZIN A   1      19.196  -0.699  17.403  0.00  0.00    -0.396 OA
ATOM     16  H44 ZIN A   1      20.049  -0.486  17.808  0.00  0.00     0.209 HD
ENDBRANCH  14  15
ENDBRANCH   6  14
ENDBRANCH   1   2
BRANCH   1  17
ATOM     17  C17 ZIN A   1      17.440  -2.674  11.749  0.00  0.00     0.042 C 
BRANCH  17  18
ATOM     18  C18 ZIN A   1      17.521  -3.305  10.357  0.00  0.00     0.237 C 
BRANCH  18  19
ATOM     19  N19 ZIN A   1      18.413  -4.473  10.402  0.00  0.00    -0.064 N 
ATOM     20  H20 ZIN A   1      18.930  -4.468  11.267  0.00  0.00     0.280 HD
BRANCH  19  21
ATOM     21  C21 ZIN A   1      17.614  -5.702  10.314  0.00  0.00     0.180 C 
ATOM     22  C22 ZIN A   1      17.395  -6.270  11.717  0.00  0.00     0.039 C 
ATOM     23  C23 ZIN A   1      16.260  -5.386   9.675  0.00  0.00     0.039 C 
ENDBRANCH  19  21
BRANCH  19  24
ATOM     24  C24 ZIN A   1      19.350  -4.416   9.271  0.00  0.00     0.180 C 
ATOM     25  C25 ZIN A   1      19.600  -5.829   8.744  0.00  0.00     0.039 C 
ATOM     26  C26 ZIN A   1      18.752  -3.554   8.157  0.00  0.00     0.039 C 
ENDBRANCH  19  24
ENDBRANCH  18  19
ENDBRANCH  17  18
ENDBRANCH   1  17
BRANCH   1  27
ATOM     27  C27 ZIN A   1      18.087  -0.655  10.462  0.00  0.00    -0.050 A 
ATOM     28  C32 ZIN A   1      17.469  -0.149   9.333  0.00  0.00     0.008 A 
ATOM     29  C31 ZIN A   1      18.231   0.319   8.279  0.00  0.00     0.001 A 
ATOM     30  C30 ZIN A   1      19.611   0.273   8.350  0.00  0.00     0.000 A 
ATOM     31  C29 ZIN A   1      20.228  -0.239   9.476  0.00  0.00     0.001 A 
ATOM     32  C28 ZIN A   1      19.465  -0.703  10.532  0.00  0.00     0.008 A 
ENDBRANCH   1  27
TORSDOF 12
ENDMDL
MODEL 7
REMARK VINA RESULT:      -7.2      2.345      5.693
REMARK  12 active torsions:
REMARK  status: ('A' for Active; 'I' for Inactive)
REMARK    1  A    between atoms: C2_2  and  C4_4 
REMARK    2  A    between atoms: C4_4  and  O6_6 
REMARK    3  A    between atoms: O6_6  and  C7_7 
REMARK    4  A    between atoms: C10_10  and  C11_11 
REMARK    5  A    between atoms: C11_11  and  O12_12 
REMARK    6  A    between atoms: C14_14  and  C15_15 
REMARK    7  A    between atoms: C15_15  and  C17_16 
REMARK    8  A    between atoms: C15_15  and  C27_26 
REMARK    9  A    between atoms: C17_16  and  C18_17 
REMARK   10  A    between atoms: C18_17  and  N19_18 
REMARK   11  A    between atoms: N19_18  and  C21_20 
REMARK   12  A    between atoms: N19_18  and  C24_23 
ROOT
ATOM      1  C15 ZIN A   1      18.702  -0.827  11.368  0.00  0.00     0.056 C 
ENDROOT
BRANCH   1   2
ATOM      2  C14 ZIN A   1      18.714   0.367  10.449  0.00  0.00    -0.015 A 
ATOM      3  C7  ZIN A   1      19.183   0.240   9.149  0.00  0.00     0.086 A 
ATOM      4  C8  ZIN A   1      19.192   1.341   8.306  0.00  0.00     0.038 A 
ATOM      5  C9  ZIN A   1      18.737   2.563   8.763  0.00  0.00     0.012 A 
ATOM      6  C10 ZIN A   1      18.275   2.689  10.060  0.00  0.00    -0.034 A 
ATOM      7  C13 ZIN A   1      18.265   1.593  10.903  0.00  0.00     0.020 A 
BRANCH   3   8
ATOM      8  O6  ZIN A   1      19.629  -0.963   8.702  0.00  0.00    -0.278 OA
BRANCH   8   9
ATOM      9  C4  ZIN A   1      18.938  -1.537   7.704  0.00  0.00     0.267 C 
ATOM     10  O5  ZIN A   1      17.760  -1.771   7.841  0.00  0.00    -0.264 OA
BRANCH   9  11
ATOM     11  C2  ZIN A   1      19.631  -1.888   6.413  0.00  0.00     0.078 C 
ATOM     12  C1  ZIN A   1      19.268  -3.319   6.011  0.00  0.00     0.020 C 
ATOM     13  C3  ZIN A   1      19.185  -0.921   5.314  0.00  0.00     0.020 C 
ENDBRANCH   9  11
ENDBRANCH   8   9
ENDBRANCH   3   8
BRANCH   6  14
ATOM     14  C11 ZIN A   1      17.781   4.024  10.555  0.00  0.00     0.202 C 
BRANCH  14  15
ATOM     15  O12 ZIN A   1      17.733   4.947   9.466  0.00  0.00    -0.396 OA
ATOM     16  H44 ZIN A   1      16.970   4.828   8.883  0.00  0.00     0.209 HD
ENDBRANCH  14  15
ENDBRANCH   6  14
ENDBRANCH   1   2
BRANCH   1  17
ATOM     17  C17 ZIN A   1      17.500  -1.714  11.037  0.00  0.00     0.042 C 
BRANCH  17  18
ATOM     18  C18 ZIN A   1      17.800  -3.156  11.452  0.00  0.00     0.237 C 
BRANCH  18  19
ATOM     19  N19 ZIN A   1      18.048  -3.968  10.253  0.00  0.00    -0.064 N 
ATOM     20  H20 ZIN A   1      17.654  -3.508   9.447  0.00  0.00     0.280 HD
BRANCH  19  21
ATOM     21  C21 ZIN A   1      19.495  -4.133  10.064  0.00  0.00     0.180 C 
ATOM     22  C22 ZIN A   1      20.196  -4.086  11.423  0.00  0.00     0.039 C 
ATOM     23  C23 ZIN A   1      19.772  -5.481   9.394  0.00  0.00     0.039 C 
ENDBRANCH  19  21
BRANCH  19  24
ATOM     24  C24 ZIN A   1      17.422  -5.287  10.418  0.00  0.00     0.180 C 
ATOM     25  C25 ZIN A   1      17.100  -5.518  11.896  0.00  0.00     0.039 C 
ATOM     26  C26 ZIN A   1      16.131  -5.344   9.600  0.00  0.00     0.039 C 
ENDBRANCH  19  24
ENDBRANCH  18  19
ENDBRANCH  17  18
ENDBRANCH   1  17
BRANCH   1  27
ATOM     27  C27 ZIN A   1      18.603  -0.360  12.797  0.00  0.00    -0.050 A 
ATOM     28  C32 ZIN A   1      19.698  -0.463  13.634  0.00  0.00     0.008 A 
ATOM     29  C31 ZIN A   1      19.610  -0.030  14.944  0.00  0.00     0.001 A 
ATOM     30  C30 ZIN A   1      18.424   0.496  15.420  0.00  0.00     0.000 A 
ATOM     31  C29 ZIN A   1      17.327   0.593  14.584  0.00  0.00     0.001 A 
ATOM     32  C28 ZIN A   1      17.417   0.165  13.272  0.00  0.00     0.008 A 
ENDBRANCH   1  27
TORSDOF 12
ENDMDL
MODEL 8
REMARK VINA RESULT:      -7.2      1.724      5.225
REMARK  12 active torsions:
REMARK  status: ('A' for Active; 'I' for Inactive)
REMARK    1  A    between atoms: C2_2  and  C4_4 
REMARK    2  A    between atoms: C4_4  and  O6_6 
REMARK    3  A    between atoms: O6_6  and  C7_7 
REMARK    4  A    between atoms: C10_10  and  C11_11 
REMARK    5  A    between atoms: C11_11  and  O12_12 
REMARK    6  A    between atoms: C14_14  and  C15_15 
REMARK    7  A    between atoms: C15_15  and  C17_16 
REMARK    8  A    between atoms: C15_15  and  C27_26 
REMARK    9  A    between atoms: C17_16  and  C18_17 
REMARK   10  A    between atoms: C18_17  and  N19_18 
REMARK   11  A    between atoms: N19_18  and  C21_20 
REMARK   12  A    between atoms: N19_18  and  C24_23 
ROOT
ATOM      1  C15 ZIN A   1      18.263  -0.200   9.890  0.00  0.00     0.056 C 
ENDROOT
BRANCH   1   2
ATOM      2  C14 ZIN A   1      18.060   1.106  10.613  0.00  0.00    -0.015 A 
ATOM      3  C7  ZIN A   1      17.829   1.114  11.981  0.00  0.00     0.086 A 
ATOM      4  C8  ZIN A   1      17.643   2.318  12.644  0.00  0.00     0.038 A 
ATOM      5  C9  ZIN A   1      17.684   3.507  11.939  0.00  0.00     0.012 A 
ATOM      6  C10 ZIN A   1      17.909   3.496  10.575  0.00  0.00    -0.034 A 
ATOM      7  C13 ZIN A   1      18.095   2.297   9.912  0.00  0.00     0.020 A 
BRANCH   3   8
ATOM      8  O6  ZIN A   1      17.789  -0.056  12.671  0.00  0.00    -0.278 OA
BRANCH   8   9
ATOM      9  C4  ZIN A   1      18.544  -0.136  13.779  0.00  0.00     0.267 C 
ATOM     10  O5  ZIN A   1      19.749  -0.127  13.690  0.00  0.00    -0.264 OA
BRANCH   9  11
ATOM     11  C2  ZIN A   1      17.888  -0.236  15.132  0.00  0.00     0.078 C 
ATOM     12  C1  ZIN A   1      18.380  -1.497  15.844  0.00  0.00     0.020 C 
ATOM     13  C3  ZIN A   1      18.249   0.995  15.966  0.00  0.00     0.020 C 
ENDBRANCH   9  11
ENDBRANCH   8   9
ENDBRANCH   3   8
BRANCH   6  14
ATOM     14  C11 ZIN A   1      17.953   4.794   9.810  0.00  0.00     0.202 C 
BRANCH  14  15
ATOM     15  O12 ZIN A   1      16.983   5.695  10.348  0.00  0.00    -0.396 OA
ATOM     16  H44 ZIN A   1      16.798   6.457   9.781  0.00  0.00     0.209 HD
ENDBRANCH  14  15
ENDBRANCH   6  14
ENDBRANCH   1   2
BRANCH   1  17
ATOM     17  C17 ZIN A   1      19.644  -0.763  10.232  0.00  0.00     0.042 C 
BRANCH  17  18
ATOM     18  C18 ZIN A   1      19.502  -2.214  10.698  0.00  0.00     0.237 C 
BRANCH  18  19
ATOM     19  N19 ZIN A   1      18.304  -2.808  10.089  0.00  0.00    -0.064 N 
ATOM     20  H20 ZIN A   1      17.834  -2.116   9.526  0.00  0.00     0.280 HD
BRANCH  19  21
ATOM     21  C21 ZIN A   1      18.695  -3.944   9.244  0.00  0.00     0.180 C 
ATOM     22  C22 ZIN A   1      18.871  -3.470   7.800  0.00  0.00     0.039 C 
ATOM     23  C23 ZIN A   1      20.015  -4.527   9.754  0.00  0.00     0.039 C 
ENDBRANCH  19  21
BRANCH  19  24
ATOM     24  C24 ZIN A   1      17.397  -3.274  11.147  0.00  0.00     0.180 C 
ATOM     25  C25 ZIN A   1      16.767  -4.604  10.731  0.00  0.00     0.039 C 
ATOM     26  C26 ZIN A   1      18.185  -3.467  12.444  0.00  0.00     0.039 C 
ENDBRANCH  19  24
ENDBRANCH  18  19
ENDBRANCH  17  18
ENDBRANCH   1  17
BRANCH   1  27
ATOM     27  C27 ZIN A   1      18.168   0.029   8.403  0.00  0.00    -0.050 A 
ATOM     28  C32 ZIN A   1      19.243   0.563   7.717  0.00  0.00     0.008 A 
ATOM     29  C31 ZIN A   1      19.158   0.770   6.352  0.00  0.00     0.001 A 
ATOM     30  C30 ZIN A   1      17.996   0.450   5.676  0.00  0.00     0.000 A 
ATOM     31  C29 ZIN A   1      16.919  -0.079   6.364  0.00  0.00     0.001 A 
ATOM     32  C28 ZIN A   1      17.006  -0.289   7.728  0.00  0.00     0.008 A 
ENDBRANCH   1  27
TORSDOF 12
ENDMDL
MODEL 9
REMARK VINA RESULT:      -7.1      2.557      6.628
REMARK  12 active torsions:
REMARK  status: ('A' for Active; 'I' for Inactive)
REMARK    1  A    between atoms: C2_2  and  C4_4 
REMARK    2  A    between atoms: C4_4  and  O6_6 
REMARK    3  A    between atoms: O6_6  and  C7_7 
REMARK    4  A    between atoms: C10_10  and  C11_11 
REMARK    5  A    between atoms: C11_11  and  O12_12 
REMARK    6  A    between atoms: C14_14  and  C15_15 
REMARK    7  A    between atoms: C15_15  and  C17_16 
REMARK    8  A    between atoms: C15_15  and  C27_26 
REMARK    9  A    between atoms: C17_16  and  C18_17 
REMARK   10  A    between atoms: C18_17  and  N19_18 
REMARK   11  A    between atoms: N19_18  and  C21_20 
REMARK   12  A    between atoms: N19_18  and  C24_23 
ROOT
ATOM      1  C15 ZIN A   1      19.311  -1.218  12.151  0.00  0.00     0.056 C 
ENDROOT
BRANCH   1   2
ATOM      2  C14 ZIN A   1      18.697  -2.285  11.282  0.00  0.00    -0.015 A 
ATOM      3  C7  ZIN A   1      18.892  -2.259   9.908  0.00  0.00     0.086 A 
ATOM      4  C8  ZIN A   1      18.325  -3.243   9.111  0.00  0.00     0.038 A 
ATOM      5  C9  ZIN A   1      17.565  -4.244   9.686  0.00  0.00     0.012 A 
ATOM      6  C10 ZIN A   1      17.367  -4.264  11.055  0.00  0.00    -0.034 A 
ATOM      7  C13 ZIN A   1      17.931  -3.284  11.851  0.00  0.00     0.020 A 
BRANCH   3   8
ATOM      8  O6  ZIN A   1      19.640  -1.275   9.346  0.00  0.00    -0.278 OA
BRANCH   8   9
ATOM      9  C4  ZIN A   1      19.280  -0.859   8.121  0.00  0.00     0.267 C 
ATOM     10  O5  ZIN A   1      19.716  -1.418   7.141  0.00  0.00    -0.264 OA
BRANCH   9  11
ATOM     11  C2  ZIN A   1      18.332   0.301   7.967  0.00  0.00     0.078 C 
ATOM     12  C1  ZIN A   1      19.083   1.501   7.389  0.00  0.00     0.020 C 
ATOM     13  C3  ZIN A   1      17.193  -0.092   7.022  0.00  0.00     0.020 C 
ENDBRANCH   9  11
ENDBRANCH   8   9
ENDBRANCH   3   8
BRANCH   6  14
ATOM     14  C11 ZIN A   1      16.537  -5.356  11.678  0.00  0.00     0.202 C 
BRANCH  14  15
ATOM     15  O12 ZIN A   1      17.373  -6.187  12.485  0.00  0.00    -0.396 OA
ATOM     16  H44 ZIN A   1      17.773  -5.729  13.238  0.00  0.00     0.209 HD
ENDBRANCH  14  15
ENDBRANCH   6  14
ENDBRANCH   1   2
BRANCH   1  17
ATOM     17  C17 ZIN A   1      18.884  -1.436  13.604  0.00  0.00     0.042 C 
BRANCH  17  18
ATOM     18  C18 ZIN A   1      19.633  -0.454  14.508  0.00  0.00     0.237 C 
BRANCH  18  19
ATOM     19  N19 ZIN A   1      18.664   0.378  15.235  0.00  0.00    -0.064 N 
ATOM     20  H20 ZIN A   1      17.779   0.364  14.751  0.00  0.00     0.280 HD
BRANCH  19  21
ATOM     21  C21 ZIN A   1      18.488  -0.149  16.594  0.00  0.00     0.180 C 
ATOM     22  C22 ZIN A   1      17.028  -0.558  16.798  0.00  0.00     0.039 C 
ATOM     23  C23 ZIN A   1      19.391  -1.369  16.789  0.00  0.00     0.039 C 
ENDBRANCH  19  21
BRANCH  19  24
ATOM     24  C24 ZIN A   1      19.161   1.759  15.305  0.00  0.00     0.180 C 
ATOM     25  C25 ZIN A   1      18.211   2.684  14.543  0.00  0.00     0.039 C 
ATOM     26  C26 ZIN A   1      19.237   2.199  16.768  0.00  0.00     0.039 C 
ENDBRANCH  19  24
ENDBRANCH  18  19
ENDBRANCH  17  18
ENDBRANCH   1  17
BRANCH   1  27
ATOM     27  C27 ZIN A   1      18.843   0.137  11.688  0.00  0.00    -0.050 A 
ATOM     28  C32 ZIN A   1      17.491   0.398  11.570  0.00  0.00     0.008 A 
ATOM     29  C31 ZIN A   1      17.061   1.643  11.149  0.00  0.00     0.001 A 
ATOM     30  C30 ZIN A   1      17.984   2.624  10.838  0.00  0.00     0.000 A 
ATOM     31  C29 ZIN A   1      19.337   2.361  10.950  0.00  0.00     0.001 A 
ATOM     32  C28 ZIN A   1      19.766   1.117  11.376  0.00  0.00     0.008 A 
ENDBRANCH   1  27
TORSDOF 12
ENDMDL
