MODEL 1
REMARK VINA RESULT:      -4.9      0.000      0.000
REMARK  0 active torsions:
REMARK  status: ('A' for Active; 'I' for Inactive)
ROOT
ATOM      1  C1  ZIN A   1      19.487   3.155  16.268  0.00  0.00     0.165 C 
ATOM      2  N2  ZIN A   1      19.109   1.804  16.691  0.00  0.00    -0.266 N 
ATOM      3  C3  ZIN A   1      19.299   1.318  17.924  0.00  0.00     0.370 A 
ATOM      4  O4  ZIN A   1      19.809   1.950  18.828  0.00  0.00    -0.238 OA
ATOM      5  O5  ZIN A   1      18.863   0.055  18.049  0.00  0.00    -0.283 OA
ATOM      6  C6  ZIN A   1      18.323  -0.339  16.752  0.00  0.00     0.146 A 
ATOM      7  C7  ZIN A   1      19.102  -1.526  16.182  0.00  0.00     0.057 C 
ATOM      8  C8  ZIN A   1      16.836  -0.679  16.869  0.00  0.00     0.057 C 
ATOM      9  C9  ZIN A   1      18.519   0.894  15.891  0.00  0.00     0.262 A 
ATOM     10  O10 ZIN A   1      18.215   1.029  14.726  0.00  0.00    -0.269 OA
ENDROOT
TORSDOF 0
ENDMDL
MODEL 2
REMARK VINA RESULT:      -4.7      6.091      7.332
REMARK  0 active torsions:
REMARK  status: ('A' for Active; 'I' for Inactive)
ROOT
ATOM      1  C1  ZIN A   1      17.544  -0.315   8.869  0.00  0.00     0.165 C 
ATOM      2  N2  ZIN A   1      17.673   0.816   9.791  0.00  0.00    -0.266 N 
ATOM      3  C3  ZIN A   1      17.029   0.915  10.960  0.00  0.00     0.370 A 
ATOM      4  O4  ZIN A   1      16.263   0.072  11.382  0.00  0.00    -0.238 OA
ATOM      5  O5  ZIN A   1      17.324   2.050  11.613  0.00  0.00    -0.283 OA
ATOM      6  C6  ZIN A   1      18.271   2.785  10.781  0.00  0.00     0.146 A 
ATOM      7  C7  ZIN A   1      17.688   4.136  10.365  0.00  0.00     0.057 C 
ATOM      8  C8  ZIN A   1      19.597   2.978  11.520  0.00  0.00     0.057 C 
ATOM      9  C9  ZIN A   1      18.462   1.887   9.574  0.00  0.00     0.262 A 
ATOM     10  O10 ZIN A   1      19.170   2.094   8.613  0.00  0.00    -0.269 OA
ENDROOT
TORSDOF 0
ENDMDL
MODEL 3
REMARK VINA RESULT:      -4.5      8.558      9.807
REMARK  0 active torsions:
REMARK  status: ('A' for Active; 'I' for Inactive)
ROOT
ATOM      1  C1  ZIN A   1      20.007  -0.486   9.666  0.00  0.00     0.165 C 
ATOM      2  N2  ZIN A   1      19.456  -0.021   8.391  0.00  0.00    -0.266 N 
ATOM      3  C3  ZIN A   1      19.243   1.264   8.084  0.00  0.00     0.370 A 
ATOM      4  O4  ZIN A   1      19.484   2.187   8.837  0.00  0.00    -0.238 OA
ATOM      5  O5  ZIN A   1      18.731   1.419   6.853  0.00  0.00    -0.283 OA
ATOM      6  C6  ZIN A   1      18.592   0.084   6.280  0.00  0.00     0.146 A 
ATOM      7  C7  ZIN A   1      17.125  -0.216   5.966  0.00  0.00     0.057 C 
ATOM      8  C8  ZIN A   1      19.449  -0.052   5.020  0.00  0.00     0.057 C 
ATOM      9  C9  ZIN A   1      19.106  -0.832   7.373  0.00  0.00     0.262 A 
ATOM     10  O10 ZIN A   1      19.180  -2.042   7.340  0.00  0.00    -0.269 OA
ENDROOT
TORSDOF 0
ENDMDL
MODEL 4
REMARK VINA RESULT:      -4.5     10.000     11.335
REMARK  0 active torsions:
REMARK  status: ('A' for Active; 'I' for Inactive)
ROOT
ATOM      1  C1  ZIN A   1      18.875  -2.675   8.652  0.00  0.00     0.165 C 
ATOM      2  N2  ZIN A   1      18.943  -2.321   7.232  0.00  0.00    -0.266 N 
ATOM      3  C3  ZIN A   1      19.688  -2.967   6.327  0.00  0.00     0.370 A 
ATOM      4  O4  ZIN A   1      20.392  -3.921   6.590  0.00  0.00    -0.238 OA
ATOM      5  O5  ZIN A   1      19.570  -2.442   5.097  0.00  0.00    -0.283 OA
ATOM      6  C6  ZIN A   1      18.640  -1.322   5.201  0.00  0.00     0.146 A 
ATOM      7  C7  ZIN A   1      19.328  -0.013   4.808  0.00  0.00     0.057 C 
ATOM      8  C8  ZIN A   1      17.407  -1.563   4.328  0.00  0.00     0.057 C 
ATOM      9  C9  ZIN A   1      18.257  -1.307   6.668  0.00  0.00     0.262 A 
ATOM     10  O10 ZIN A   1      17.498  -0.539   7.219  0.00  0.00    -0.269 OA
ENDROOT
TORSDOF 0
ENDMDL
MODEL 5
REMARK VINA RESULT:      -4.5      6.462      8.088
REMARK  0 active torsions:
REMARK  status: ('A' for Active; 'I' for Inactive)
ROOT
ATOM      1  C1  ZIN A   1      17.330  -0.297   8.806  0.00  0.00     0.165 C 
ATOM      2  N2  ZIN A   1      17.984   0.963   9.166  0.00  0.00    -0.266 N 
ATOM      3  C3  ZIN A   1      18.878   1.597   8.398  0.00  0.00     0.370 A 
ATOM      4  O4  ZIN A   1      19.245   1.190   7.313  0.00  0.00    -0.238 OA
ATOM      5  O5  ZIN A   1      19.325   2.731   8.961  0.00  0.00    -0.283 OA
ATOM      6  C6  ZIN A   1      18.649   2.862  10.247  0.00  0.00     0.146 A 
ATOM      7  C7  ZIN A   1      19.663   2.855  11.392  0.00  0.00     0.057 C 
ATOM      8  C8  ZIN A   1      17.807   4.139  10.284  0.00  0.00     0.057 C 
ATOM      9  C9  ZIN A   1      17.758   1.637  10.312  0.00  0.00     0.262 A 
ATOM     10  O10 ZIN A   1      17.005   1.325  11.209  0.00  0.00    -0.269 OA
ENDROOT
TORSDOF 0
ENDMDL
MODEL 6
REMARK VINA RESULT:      -4.4      5.987      6.929
REMARK  0 active torsions:
REMARK  status: ('A' for Active; 'I' for Inactive)
ROOT
ATOM      1  C1  ZIN A   1      18.007  -1.951  11.509  0.00  0.00     0.165 C 
ATOM      2  N2  ZIN A   1      18.065  -0.540  11.117  0.00  0.00    -0.266 N 
ATOM      3  C3  ZIN A   1      17.021   0.296  11.151  0.00  0.00     0.370 A 
ATOM      4  O4  ZIN A   1      15.907  -0.028  11.514  0.00  0.00    -0.238 OA
ATOM      5  O5  ZIN A   1      17.342   1.533  10.741  0.00  0.00    -0.283 OA
ATOM      6  C6  ZIN A   1      18.760   1.512  10.396  0.00  0.00     0.146 A 
ATOM      7  C7  ZIN A   1      18.960   1.850   8.918  0.00  0.00     0.057 C 
ATOM      8  C8  ZIN A   1      19.543   2.485  11.280  0.00  0.00     0.057 C 
ATOM      9  C9  ZIN A   1      19.178   0.082  10.681  0.00  0.00     0.262 A 
ATOM     10  O10 ZIN A   1      20.281  -0.400  10.540  0.00  0.00    -0.269 OA
ENDROOT
TORSDOF 0
ENDMDL
MODEL 7
REMARK VINA RESULT:      -4.4      8.939     10.458
REMARK  0 active torsions:
REMARK  status: ('A' for Active; 'I' for Inactive)
ROOT
ATOM      1  C1  ZIN A   1      19.647  -3.584   6.432  0.00  0.00     0.165 C 
ATOM      2  N2  ZIN A   1      19.330  -2.185   6.730  0.00  0.00    -0.266 N 
ATOM      3  C3  ZIN A   1      19.366  -1.194   5.831  0.00  0.00     0.370 A 
ATOM      4  O4  ZIN A   1      19.669  -1.352   4.664  0.00  0.00    -0.238 OA
ATOM      5  O5  ZIN A   1      19.031  -0.008   6.362  0.00  0.00    -0.283 OA
ATOM      6  C6  ZIN A   1      18.740  -0.241   7.772  0.00  0.00     0.146 A 
ATOM      7  C7  ZIN A   1      19.702   0.552   8.659  0.00  0.00     0.057 C 
ATOM      8  C8  ZIN A   1      17.290   0.129   8.090  0.00  0.00     0.057 C 
ATOM      9  C9  ZIN A   1      18.958  -1.732   7.943  0.00  0.00     0.262 A 
ATOM     10  O10 ZIN A   1      18.830  -2.379   8.961  0.00  0.00    -0.269 OA
ENDROOT
TORSDOF 0
ENDMDL
MODEL 8
REMARK VINA RESULT:      -4.3      4.077      5.212
REMARK  0 active torsions:
REMARK  status: ('A' for Active; 'I' for Inactive)
ROOT
ATOM      1  C1  ZIN A   1      17.869   2.107  11.458  0.00  0.00     0.165 C 
ATOM      2  N2  ZIN A   1      17.908   0.744  11.994  0.00  0.00    -0.266 N 
ATOM      3  C3  ZIN A   1      16.889  -0.122  11.932  0.00  0.00     0.370 A 
ATOM      4  O4  ZIN A   1      15.816   0.134  11.422  0.00  0.00    -0.238 OA
ATOM      5  O5  ZIN A   1      17.184  -1.303  12.498  0.00  0.00    -0.283 OA
ATOM      6  C6  ZIN A   1      18.555  -1.207  12.989  0.00  0.00     0.146 A 
ATOM      7  C7  ZIN A   1      18.597  -1.393  14.507  0.00  0.00     0.057 C 
ATOM      8  C8  ZIN A   1      19.447  -2.240  12.297  0.00  0.00     0.057 C 
ATOM      9  C9  ZIN A   1      18.977   0.198  12.608  0.00  0.00     0.262 A 
ATOM     10  O10 ZIN A   1      20.049   0.723  12.817  0.00  0.00    -0.269 OA
ENDROOT
TORSDOF 0
ENDMDL
MODEL 9
REMARK VINA RESULT:      -4.3      1.979      3.127
REMARK  0 active torsions:
REMARK  status: ('A' for Active; 'I' for Inactive)
ROOT
ATOM      1  C1  ZIN A   1      19.691   0.941  13.472  0.00  0.00     0.165 C 
ATOM      2  N2  ZIN A   1      19.230   0.219  14.662  0.00  0.00    -0.266 N 
ATOM      3  C3  ZIN A   1      19.231  -1.113  14.784  0.00  0.00     0.370 A 
ATOM      4  O4  ZIN A   1      19.616  -1.871  13.916  0.00  0.00    -0.238 OA
ATOM      5  O5  ZIN A   1      18.758  -1.519  15.973  0.00  0.00    -0.283 OA
ATOM      6  C6  ZIN A   1      18.405  -0.317  16.722  0.00  0.00     0.146 A 
ATOM      7  C7  ZIN A   1      16.911  -0.305  17.048  0.00  0.00     0.057 C 
ATOM      8  C8  ZIN A   1      19.235  -0.219  18.004  0.00  0.00     0.057 C 
ATOM      9  C9  ZIN A   1      18.757   0.814  15.775  0.00  0.00     0.262 A 
ATOM     10  O10 ZIN A   1      18.632   2.003  15.976  0.00  0.00    -0.269 OA
ENDROOT
TORSDOF 0
ENDMDL
