MODEL 1
REMARK VINA RESULT:      -7.6      0.000      0.000
REMARK  1 active torsions:
REMARK  status: ('A' for Active; 'I' for Inactive)
REMARK    1  A    between atoms: C24_21  and  O25_22 
ROOT
ATOM      1  C1  ZIN A   1      18.801  -2.522   8.660  0.00  0.00     0.270 C 
ATOM      2  N2  ZIN A   1      18.459  -1.097   8.552  0.00  0.00    -0.070 N 
ATOM      3  H3  ZIN A   1      17.994  -0.933   7.671  0.00  0.00     0.279 HD
ATOM      4  C4  ZIN A   1      19.690  -0.302   8.602  0.00  0.00     0.236 C 
ATOM      5  C5  ZIN A   1      20.429  -0.561   9.920  0.00  0.00     0.045 C 
ATOM      6  C6  ZIN A   1      19.491  -0.209  11.073  0.00  0.00     0.031 C 
ATOM      7  C7  ZIN A   1      19.042   1.226  10.939  0.00  0.00    -0.003 C 
ATOM      8  C8  ZIN A   1      19.847   1.997  11.766  0.00  0.00     0.110 C 
ATOM      9  O9  ZIN A   1      20.700   1.210  12.455  0.00  0.00    -0.334 OA
ATOM     10  C10 ZIN A   1      20.216  -0.166  12.411  0.00  0.00     0.212 C 
ATOM     11  C12 ZIN A   1      19.296  -0.352  13.580  0.00  0.00     0.157 C 
ATOM     12  O13 ZIN A   1      19.626   0.100  14.650  0.00  0.00    -0.295 OA
ATOM     13  C14 ZIN A   1      17.984  -1.074  13.484  0.00  0.00     0.081 C 
ATOM     14  C15 ZIN A   1      17.280  -0.706  12.176  0.00  0.00     0.015 C 
ATOM     15  C16 ZIN A   1      18.227  -1.048  10.987  0.00  0.00     0.033 C 
ATOM     16  C18 ZIN A   1      17.555  -0.733   9.649  0.00  0.00     0.197 C 
ATOM     17  C20 ZIN A   1      17.112   0.711   9.497  0.00  0.00     0.072 C 
ATOM     18  C21 ZIN A   1      17.963   1.686  10.220  0.00  0.00    -0.046 C 
ATOM     19  C22 ZIN A   1      17.776   3.056  10.218  0.00  0.00     0.011 C 
ATOM     20  C23 ZIN A   1      18.588   3.873  10.987  0.00  0.00     0.040 C 
ATOM     21  C24 ZIN A   1      19.635   3.380  11.780  0.00  0.00     0.099 C 
ENDROOT
BRANCH  21  22
ATOM     22  O25 ZIN A   1      20.393   4.206  12.550  0.00  0.00    -0.358 OA
ATOM     23  H41 ZIN A   1      19.944   5.021  12.815  0.00  0.00     0.217 HD
ENDBRANCH  21  22
TORSDOF 1
ENDMDL
MODEL 2
REMARK VINA RESULT:      -7.3      2.371      4.721
REMARK  1 active torsions:
REMARK  status: ('A' for Active; 'I' for Inactive)
REMARK    1  A    between atoms: C24_21  and  O25_22 
ROOT
ATOM      1  C1  ZIN A   1      17.903   3.940  11.391  0.00  0.00     0.270 C 
ATOM      2  N2  ZIN A   1      17.877   2.737  12.235  0.00  0.00    -0.070 N 
ATOM      3  H3  ZIN A   1      17.422   2.955  13.109  0.00  0.00     0.279 HD
ATOM      4  C4  ZIN A   1      19.252   2.307  12.502  0.00  0.00     0.236 C 
ATOM      5  C5  ZIN A   1      19.972   2.002  11.183  0.00  0.00     0.045 C 
ATOM      6  C6  ZIN A   1      19.185   0.921  10.446  0.00  0.00     0.031 C 
ATOM      7  C7  ZIN A   1      19.055  -0.299  11.325  0.00  0.00    -0.003 C 
ATOM      8  C8  ZIN A   1      20.044  -1.196  10.947  0.00  0.00     0.110 C 
ATOM      9  O9  ZIN A   1      20.733  -0.716   9.890  0.00  0.00    -0.334 OA
ATOM     10  C10 ZIN A   1      19.959   0.351   9.265  0.00  0.00     0.212 C 
ATOM     11  C12 ZIN A   1      19.070  -0.286   8.238  0.00  0.00     0.157 C 
ATOM     12  O13 ZIN A   1      19.537  -1.143   7.526  0.00  0.00    -0.295 OA
ATOM     13  C14 ZIN A   1      17.630   0.089   8.054  0.00  0.00     0.081 C 
ATOM     14  C15 ZIN A   1      16.968   0.306   9.417  0.00  0.00     0.015 C 
ATOM     15  C16 ZIN A   1      17.765   1.399  10.189  0.00  0.00     0.033 C 
ATOM     16  C18 ZIN A   1      17.122   1.683  11.548  0.00  0.00     0.197 C 
ATOM     17  C20 ZIN A   1      16.999   0.465  12.448  0.00  0.00     0.072 C 
ATOM     18  C21 ZIN A   1      18.073  -0.539  12.258  0.00  0.00    -0.046 C 
ATOM     19  C22 ZIN A   1      18.190  -1.718  12.971  0.00  0.00     0.011 C 
ATOM     20  C23 ZIN A   1      19.194  -2.623  12.666  0.00  0.00     0.040 C 
ATOM     21  C24 ZIN A   1      20.140  -2.400  11.655  0.00  0.00     0.099 C 
ENDROOT
BRANCH  21  22
ATOM     22  O25 ZIN A   1      21.093  -3.324  11.357  0.00  0.00    -0.358 OA
ATOM     23  H41 ZIN A   1      21.755  -3.445  12.051  0.00  0.00     0.217 HD
ENDBRANCH  21  22
TORSDOF 1
ENDMDL
MODEL 3
REMARK VINA RESULT:      -7.2      1.870      4.229
REMARK  1 active torsions:
REMARK  status: ('A' for Active; 'I' for Inactive)
REMARK    1  A    between atoms: C24_21  and  O25_22 
ROOT
ATOM      1  C1  ZIN A   1      18.356  -1.784   9.435  0.00  0.00     0.270 C 
ATOM      2  N2  ZIN A   1      18.520  -2.256  10.816  0.00  0.00    -0.070 N 
ATOM      3  H3  ZIN A   1      18.717  -3.246  10.807  0.00  0.00     0.279 HD
ATOM      4  C4  ZIN A   1      17.278  -2.019  11.557  0.00  0.00     0.236 C 
ATOM      5  C5  ZIN A   1      16.943  -0.522  11.555  0.00  0.00     0.045 C 
ATOM      6  C6  ZIN A   1      18.116   0.232  12.179  0.00  0.00     0.031 C 
ATOM      7  C7  ZIN A   1      18.375  -0.297  13.569  0.00  0.00    -0.003 C 
ATOM      8  C8  ZIN A   1      17.749   0.556  14.467  0.00  0.00     0.110 C 
ATOM      9  O9  ZIN A   1      17.188   1.595  13.812  0.00  0.00    -0.334 OA
ATOM     10  C10 ZIN A   1      17.771   1.684  12.477  0.00  0.00     0.212 C 
ATOM     11  C12 ZIN A   1      18.983   2.563  12.578  0.00  0.00     0.157 C 
ATOM     12  O13 ZIN A   1      18.907   3.574  13.235  0.00  0.00    -0.295 OA
ATOM     13  C14 ZIN A   1      20.283   2.245  11.903  0.00  0.00     0.081 C 
ATOM     14  C15 ZIN A   1      20.577   0.747  12.012  0.00  0.00     0.015 C 
ATOM     15  C16 ZIN A   1      19.385  -0.041  11.389  0.00  0.00     0.033 C 
ATOM     16  C18 ZIN A   1      19.644  -1.547  11.438  0.00  0.00     0.197 C 
ATOM     17  C20 ZIN A   1      19.892  -2.094  12.834  0.00  0.00     0.072 C 
ATOM     18  C21 ZIN A   1      19.175  -1.364  13.906  0.00  0.00    -0.046 C 
ATOM     19  C22 ZIN A   1      19.224  -1.683  15.251  0.00  0.00     0.011 C 
ATOM     20  C23 ZIN A   1      18.572  -0.891  16.182  0.00  0.00     0.040 C 
ATOM     21  C24 ZIN A   1      17.825   0.242  15.829  0.00  0.00     0.099 C 
ENDROOT
BRANCH  21  22
ATOM     22  O25 ZIN A   1      17.224   1.019  16.770  0.00  0.00    -0.358 OA
ATOM     23  H41 ZIN A   1      16.285   1.182  16.605  0.00  0.00     0.217 HD
ENDBRANCH  21  22
TORSDOF 1
ENDMDL
MODEL 4
REMARK VINA RESULT:      -7.1      3.518      5.019
REMARK  1 active torsions:
REMARK  status: ('A' for Active; 'I' for Inactive)
REMARK    1  A    between atoms: C24_21  and  O25_22 
ROOT
ATOM      1  C1  ZIN A   1      18.263  -0.839  14.424  0.00  0.00     0.270 C 
ATOM      2  N2  ZIN A   1      18.685  -0.160  13.191  0.00  0.00    -0.070 N 
ATOM      3  H3  ZIN A   1      19.023   0.764  13.419  0.00  0.00     0.279 HD
ATOM      4  C4  ZIN A   1      17.536  -0.042  12.289  0.00  0.00     0.236 C 
ATOM      5  C5  ZIN A   1      16.986  -1.435  11.955  0.00  0.00     0.045 C 
ATOM      6  C6  ZIN A   1      18.110  -2.254  11.321  0.00  0.00     0.031 C 
ATOM      7  C7  ZIN A   1      18.633  -1.535  10.102  0.00  0.00    -0.003 C 
ATOM      8  C8  ZIN A   1      18.018  -2.091   8.989  0.00  0.00     0.110 C 
ATOM      9  O9  ZIN A   1      17.225  -3.119   9.358  0.00  0.00    -0.334 OA
ATOM     10  C10 ZIN A   1      17.598  -3.547  10.703  0.00  0.00     0.212 C 
ATOM     11  C12 ZIN A   1      18.668  -4.588  10.558  0.00  0.00     0.157 C 
ATOM     12  O13 ZIN A   1      18.535  -5.436   9.708  0.00  0.00    -0.295 OA
ATOM     13  C14 ZIN A   1      19.896  -4.626  11.419  0.00  0.00     0.081 C 
ATOM     14  C15 ZIN A   1      20.420  -3.206  11.645  0.00  0.00     0.015 C 
ATOM     15  C16 ZIN A   1      19.283  -2.351  12.282  0.00  0.00     0.033 C 
ATOM     16  C18 ZIN A   1      19.767  -0.927  12.564  0.00  0.00     0.197 C 
ATOM     17  C20 ZIN A   1      20.284  -0.189  11.341  0.00  0.00     0.072 C 
ATOM     18  C21 ZIN A   1      19.621  -0.578  10.074  0.00  0.00    -0.046 C 
ATOM     19  C22 ZIN A   1      19.903  -0.035   8.833  0.00  0.00     0.011 C 
ATOM     20  C23 ZIN A   1      19.275  -0.522   7.698  0.00  0.00     0.040 C 
ATOM     21  C24 ZIN A   1      18.328  -1.555   7.734  0.00  0.00     0.099 C 
ENDROOT
BRANCH  21  22
ATOM     22  O25 ZIN A   1      17.754  -2.034   6.598  0.00  0.00    -0.358 OA
ATOM     23  H41 ZIN A   1      18.141  -2.861   6.279  0.00  0.00     0.217 HD
ENDBRANCH  21  22
TORSDOF 1
ENDMDL
MODEL 5
REMARK VINA RESULT:      -7.0      1.801      3.799
REMARK  1 active torsions:
REMARK  status: ('A' for Active; 'I' for Inactive)
REMARK    1  A    between atoms: C24_21  and  O25_22 
ROOT
ATOM      1  C1  ZIN A   1      18.885  -1.534   7.758  0.00  0.00     0.270 C 
ATOM      2  N2  ZIN A   1      19.488  -1.671   9.091  0.00  0.00    -0.070 N 
ATOM      3  H3  ZIN A   1      20.208  -2.378   9.059  0.00  0.00     0.279 HD
ATOM      4  C4  ZIN A   1      18.454  -2.081  10.046  0.00  0.00     0.236 C 
ATOM      5  C5  ZIN A   1      17.333  -1.036  10.086  0.00  0.00     0.045 C 
ATOM      6  C6  ZIN A   1      17.945   0.309  10.472  0.00  0.00     0.031 C 
ATOM      7  C7  ZIN A   1      18.656   0.179  11.797  0.00  0.00    -0.003 C 
ATOM      8  C8  ZIN A   1      17.795   0.637  12.784  0.00  0.00     0.110 C 
ATOM      9  O9  ZIN A   1      16.656   1.104  12.230  0.00  0.00    -0.334 OA
ATOM     10  C10 ZIN A   1      16.883   1.347  10.809  0.00  0.00     0.212 C 
ATOM     11  C12 ZIN A   1      17.380   2.756  10.672  0.00  0.00     0.157 C 
ATOM     12  O13 ZIN A   1      16.840   3.622  11.318  0.00  0.00    -0.295 OA
ATOM     13  C14 ZIN A   1      18.516   3.140   9.772  0.00  0.00     0.081 C 
ATOM     14  C15 ZIN A   1      19.621   2.082   9.844  0.00  0.00     0.015 C 
ATOM     15  C16 ZIN A   1      19.013   0.700   9.464  0.00  0.00     0.033 C 
ATOM     16  C18 ZIN A   1      20.086  -0.391   9.484  0.00  0.00     0.197 C 
ATOM     17  C20 ZIN A   1      20.800  -0.540  10.816  0.00  0.00     0.072 C 
ATOM     18  C21 ZIN A   1      19.960  -0.215  11.993  0.00  0.00    -0.046 C 
ATOM     19  C22 ZIN A   1      20.377  -0.293  13.310  0.00  0.00     0.011 C 
ATOM     20  C23 ZIN A   1      19.533   0.104  14.335  0.00  0.00     0.040 C 
ATOM     21  C24 ZIN A   1      18.233   0.579  14.112  0.00  0.00     0.099 C 
ENDROOT
BRANCH  21  22
ATOM     22  O25 ZIN A   1      17.441   0.993  15.137  0.00  0.00    -0.358 OA
ATOM     23  H41 ZIN A   1      17.258   1.943  15.135  0.00  0.00     0.217 HD
ENDBRANCH  21  22
TORSDOF 1
ENDMDL
MODEL 6
REMARK VINA RESULT:      -7.0      2.971      4.478
REMARK  1 active torsions:
REMARK  status: ('A' for Active; 'I' for Inactive)
REMARK    1  A    between atoms: C24_21  and  O25_22 
ROOT
ATOM      1  C1  ZIN A   1      18.464   1.921  13.691  0.00  0.00     0.270 C 
ATOM      2  N2  ZIN A   1      18.595   2.394  12.306  0.00  0.00    -0.070 N 
ATOM      3  H3  ZIN A   1      18.792   3.384  12.311  0.00  0.00     0.279 HD
ATOM      4  C4  ZIN A   1      17.335   2.157  11.596  0.00  0.00     0.236 C 
ATOM      5  C5  ZIN A   1      17.000   0.661  11.606  0.00  0.00     0.045 C 
ATOM      6  C6  ZIN A   1      18.157  -0.094  10.953  0.00  0.00     0.031 C 
ATOM      7  C7  ZIN A   1      18.382   0.435   9.557  0.00  0.00    -0.003 C 
ATOM      8  C8  ZIN A   1      17.734  -0.417   8.675  0.00  0.00     0.110 C 
ATOM      9  O9  ZIN A   1      17.189  -1.456   9.343  0.00  0.00    -0.334 OA
ATOM     10  C10 ZIN A   1      17.804  -1.546  10.663  0.00  0.00     0.212 C 
ATOM     11  C12 ZIN A   1      19.013  -2.425  10.532  0.00  0.00     0.157 C 
ATOM     12  O13 ZIN A   1      18.921  -3.436   9.878  0.00  0.00    -0.295 OA
ATOM     13  C14 ZIN A   1      20.330  -2.108  11.176  0.00  0.00     0.081 C 
ATOM     14  C15 ZIN A   1      20.621  -0.610  11.060  0.00  0.00     0.015 C 
ATOM     15  C16 ZIN A   1      19.445   0.178  11.712  0.00  0.00     0.033 C 
ATOM     16  C18 ZIN A   1      19.703   1.685  11.657  0.00  0.00     0.197 C 
ATOM     17  C20 ZIN A   1      19.918   2.232  10.256  0.00  0.00     0.072 C 
ATOM     18  C21 ZIN A   1      19.174   1.503   9.201  0.00  0.00    -0.046 C 
ATOM     19  C22 ZIN A   1      19.191   1.822   7.855  0.00  0.00     0.011 C 
ATOM     20  C23 ZIN A   1      18.515   1.030   6.941  0.00  0.00     0.040 C 
ATOM     21  C24 ZIN A   1      17.777  -0.103   7.312  0.00  0.00     0.099 C 
ENDROOT
BRANCH  21  22
ATOM     22  O25 ZIN A   1      17.153  -0.879   6.385  0.00  0.00    -0.358 OA
ATOM     23  H41 ZIN A   1      16.253  -0.595   6.175  0.00  0.00     0.217 HD
ENDBRANCH  21  22
TORSDOF 1
ENDMDL
MODEL 7
REMARK VINA RESULT:      -6.9      2.509      4.879
REMARK  1 active torsions:
REMARK  status: ('A' for Active; 'I' for Inactive)
REMARK    1  A    between atoms: C24_21  and  O25_22 
ROOT
ATOM      1  C1  ZIN A   1      19.265   2.071  14.839  0.00  0.00     0.270 C 
ATOM      2  N2  ZIN A   1      18.694   0.772  14.459  0.00  0.00    -0.070 N 
ATOM      3  H3  ZIN A   1      18.230   0.367  15.258  0.00  0.00     0.279 HD
ATOM      4  C4  ZIN A   1      19.774  -0.120  14.026  0.00  0.00     0.236 C 
ATOM      5  C5  ZIN A   1      20.514   0.495  12.831  0.00  0.00     0.045 C 
ATOM      6  C6  ZIN A   1      19.504   0.730  11.710  0.00  0.00     0.031 C 
ATOM      7  C7  ZIN A   1      18.827  -0.573  11.359  0.00  0.00    -0.003 C 
ATOM      8  C8  ZIN A   1      19.473  -1.096  10.248  0.00  0.00     0.110 C 
ATOM      9  O9  ZIN A   1      20.428  -0.244   9.818  0.00  0.00    -0.334 OA
ATOM     10  C10 ZIN A   1      20.180   1.075  10.391  0.00  0.00     0.212 C 
ATOM     11  C12 ZIN A   1      19.275   1.808   9.446  0.00  0.00     0.157 C 
ATOM     12  O13 ZIN A   1      19.501   1.736   8.261  0.00  0.00    -0.295 OA
ATOM     13  C14 ZIN A   1      18.105   2.627   9.902  0.00  0.00     0.081 C 
ATOM     14  C15 ZIN A   1      17.381   1.912  11.045  0.00  0.00     0.015 C 
ATOM     15  C16 ZIN A   1      18.399   1.653  12.195  0.00  0.00     0.033 C 
ATOM     16  C18 ZIN A   1      17.717   0.972  13.383  0.00  0.00     0.197 C 
ATOM     17  C20 ZIN A   1      17.044  -0.347  13.044  0.00  0.00     0.072 C 
ATOM     18  C21 ZIN A   1      17.705  -1.102  11.953  0.00  0.00    -0.046 C 
ATOM     19  C22 ZIN A   1      17.293  -2.334  11.480  0.00  0.00     0.011 C 
ATOM     20  C23 ZIN A   1      17.940  -2.922  10.405  0.00  0.00     0.040 C 
ATOM     21  C24 ZIN A   1      19.034  -2.331   9.757  0.00  0.00     0.099 C 
ENDROOT
BRANCH  21  22
ATOM     22  O25 ZIN A   1      19.626  -2.918   8.683  0.00  0.00    -0.358 OA
ATOM     23  H41 ZIN A   1      20.174  -3.684   8.904  0.00  0.00     0.217 HD
ENDBRANCH  21  22
TORSDOF 1
ENDMDL
MODEL 8
REMARK VINA RESULT:      -6.9      2.304      4.312
REMARK  1 active torsions:
REMARK  status: ('A' for Active; 'I' for Inactive)
REMARK    1  A    between atoms: C24_21  and  O25_22 
ROOT
ATOM      1  C1  ZIN A   1      18.652  -4.520   9.565  0.00  0.00     0.270 C 
ATOM      2  N2  ZIN A   1      19.040  -4.223  10.951  0.00  0.00    -0.070 N 
ATOM      3  H3  ZIN A   1      19.565  -5.001  11.322  0.00  0.00     0.279 HD
ATOM      4  C4  ZIN A   1      17.832  -4.029  11.757  0.00  0.00     0.236 C 
ATOM      5  C5  ZIN A   1      17.002  -2.871  11.189  0.00  0.00     0.045 C 
ATOM      6  C6  ZIN A   1      17.874  -1.616  11.181  0.00  0.00     0.031 C 
ATOM      7  C7  ZIN A   1      18.370  -1.336  12.579  0.00  0.00    -0.003 C 
ATOM      8  C8  ZIN A   1      17.535  -0.379  13.137  0.00  0.00     0.110 C 
ATOM      9  O9  ZIN A   1      16.618   0.027  12.234  0.00  0.00    -0.334 OA
ATOM     10  C10 ZIN A   1      17.065  -0.358  10.899  0.00  0.00     0.212 C 
ATOM     11  C12 ZIN A   1      17.903   0.768  10.368  0.00  0.00     0.157 C 
ATOM     12  O13 ZIN A   1      17.517   1.900  10.534  0.00  0.00    -0.295 OA
ATOM     13  C14 ZIN A   1      19.197   0.553   9.641  0.00  0.00     0.081 C 
ATOM     14  C15 ZIN A   1      19.994  -0.568  10.313  0.00  0.00     0.015 C 
ATOM     15  C16 ZIN A   1      19.117  -1.855  10.340  0.00  0.00     0.033 C 
ATOM     16  C18 ZIN A   1      19.881  -3.021  10.969  0.00  0.00     0.197 C 
ATOM     17  C20 ZIN A   1      20.374  -2.756  12.382  0.00  0.00     0.072 C 
ATOM     18  C21 ZIN A   1      19.505  -1.846  13.165  0.00  0.00    -0.046 C 
ATOM     19  C22 ZIN A   1      19.730  -1.470  14.477  0.00  0.00     0.011 C 
ATOM     20  C23 ZIN A   1      18.893  -0.556  15.096  0.00  0.00     0.040 C 
ATOM     21  C24 ZIN A   1      17.785   0.017  14.457  0.00  0.00     0.099 C 
ENDROOT
BRANCH  21  22
ATOM     22  O25 ZIN A   1      17.002   0.938  15.080  0.00  0.00    -0.358 OA
ATOM     23  H41 ZIN A   1      16.099   0.985  14.738  0.00  0.00     0.217 HD
ENDBRANCH  21  22
TORSDOF 1
ENDMDL
MODEL 9
REMARK VINA RESULT:      -6.8      2.348      3.919
REMARK  1 active torsions:
REMARK  status: ('A' for Active; 'I' for Inactive)
REMARK    1  A    between atoms: C24_21  and  O25_22 
ROOT
ATOM      1  C1  ZIN A   1      19.649  -3.227  12.205  0.00  0.00     0.270 C 
ATOM      2  N2  ZIN A   1      19.925  -1.843  12.612  0.00  0.00    -0.070 N 
ATOM      3  H3  ZIN A   1      20.583  -1.847  13.377  0.00  0.00     0.279 HD
ATOM      4  C4  ZIN A   1      18.677  -1.213  13.052  0.00  0.00     0.236 C 
ATOM      5  C5  ZIN A   1      17.652  -1.226  11.912  0.00  0.00     0.045 C 
ATOM      6  C6  ZIN A   1      18.254  -0.491  10.717  0.00  0.00     0.031 C 
ATOM      7  C7  ZIN A   1      18.639   0.910  11.127  0.00  0.00    -0.003 C 
ATOM      8  C8  ZIN A   1      17.612   1.759  10.739  0.00  0.00     0.110 C 
ATOM      9  O9  ZIN A   1      16.662   1.070  10.072  0.00  0.00    -0.334 OA
ATOM     10  C10 ZIN A   1      17.220  -0.207   9.637  0.00  0.00     0.212 C 
ATOM     11  C12 ZIN A   1      17.833   0.013   8.285  0.00  0.00     0.157 C 
ATOM     12  O13 ZIN A   1      17.223   0.673   7.478  0.00  0.00    -0.295 OA
ATOM     13  C14 ZIN A   1      19.166  -0.547   7.890  0.00  0.00     0.081 C 
ATOM     14  C15 ZIN A   1      20.149  -0.431   9.057  0.00  0.00     0.015 C 
ATOM     15  C16 ZIN A   1      19.546  -1.168  10.291  0.00  0.00     0.033 C 
ATOM     16  C18 ZIN A   1      20.508  -1.114  11.479  0.00  0.00     0.197 C 
ATOM     17  C20 ZIN A   1      20.892   0.291  11.911  0.00  0.00     0.072 C 
ATOM     18  C21 ZIN A   1      19.834   1.304  11.684  0.00  0.00    -0.046 C 
ATOM     19  C22 ZIN A   1      19.937   2.644  12.011  0.00  0.00     0.011 C 
ATOM     20  C23 ZIN A   1      18.914   3.522  11.691  0.00  0.00     0.040 C 
ATOM     21  C24 ZIN A   1      17.735   3.118  11.050  0.00  0.00     0.099 C 
ENDROOT
BRANCH  21  22
ATOM     22  O25 ZIN A   1      16.764   4.011  10.718  0.00  0.00    -0.358 OA
ATOM     23  H41 ZIN A   1      16.769   4.817  11.254  0.00  0.00     0.217 HD
ENDBRANCH  21  22
TORSDOF 1
ENDMDL
