MODEL 1
REMARK VINA RESULT:      -8.0      0.000      0.000
REMARK  1 active torsions:
REMARK  status: ('A' for Active; 'I' for Inactive)
REMARK    1  A    between atoms: C10_10  and  C11_11 
ROOT
ATOM      1  C1  ZIN A   1      17.439  -0.099  13.580  0.00  0.00     0.159 C 
ATOM      2  N2  ZIN A   1      18.471   0.348  12.642  0.00  0.00    -0.320 N 
ATOM      3  C3  ZIN A   1      18.255   1.546  11.978  0.00  0.00     0.049 A 
ATOM      4  C4  ZIN A   1      17.700   2.595  12.712  0.00  0.00     0.032 A 
ATOM      5  C5  ZIN A   1      17.455   3.815  12.121  0.00  0.00     0.026 A 
ATOM      6  C6  ZIN A   1      17.759   4.013  10.784  0.00  0.00     0.035 A 
ATOM      7 Cl7  ZIN A   1      17.448   5.551  10.041  0.00  0.00    -0.084 Cl
ATOM      8  C8  ZIN A   1      18.308   2.990  10.044  0.00  0.00     0.040 A 
ATOM      9  C9  ZIN A   1      18.563   1.742  10.633  0.00  0.00     0.022 A 
ATOM     10  C10 ZIN A   1      19.155   0.696   9.784  0.00  0.00     0.074 C 
ATOM     11  N17 ZIN A   1      20.075  -0.123  10.158  0.00  0.00    -0.279 NA
ATOM     12  C18 ZIN A   1      20.630  -0.093  11.511  0.00  0.00     0.252 C 
ATOM     13  C19 ZIN A   1      19.545  -0.425  12.497  0.00  0.00     0.243 C 
ATOM     14  O20 ZIN A   1      19.647  -1.427  13.173  0.00  0.00    -0.271 OA
ENDROOT
BRANCH  10  15
ATOM     15  C11 ZIN A   1      18.656   0.577   8.395  0.00  0.00    -0.007 A 
ATOM     16  C16 ZIN A   1      19.374   1.141   7.341  0.00  0.00     0.014 A 
ATOM     17  C15 ZIN A   1      18.906   1.023   6.049  0.00  0.00     0.001 A 
ATOM     18  C14 ZIN A   1      17.720   0.355   5.798  0.00  0.00     0.000 A 
ATOM     19  C13 ZIN A   1      17.001  -0.203   6.839  0.00  0.00     0.001 A 
ATOM     20  C12 ZIN A   1      17.462  -0.096   8.136  0.00  0.00     0.014 A 
ENDBRANCH  10  15
TORSDOF 1
ENDMDL
MODEL 2
REMARK VINA RESULT:      -8.0      3.204      4.944
REMARK  1 active torsions:
REMARK  status: ('A' for Active; 'I' for Inactive)
REMARK    1  A    between atoms: C10_10  and  C11_11 
ROOT
ATOM      1  C1  ZIN A   1      17.698   2.754  10.694  0.00  0.00     0.159 C 
ATOM      2  N2  ZIN A   1      18.796   1.785  10.721  0.00  0.00    -0.320 N 
ATOM      3  C3  ZIN A   1      18.946   0.958   9.617  0.00  0.00     0.049 A 
ATOM      4  C4  ZIN A   1      18.760   1.531   8.358  0.00  0.00     0.032 A 
ATOM      5  C5  ZIN A   1      18.891   0.774   7.214  0.00  0.00     0.026 A 
ATOM      6  C6  ZIN A   1      19.210  -0.571   7.305  0.00  0.00     0.035 A 
ATOM      7 Cl7  ZIN A   1      19.374  -1.524   5.864  0.00  0.00    -0.084 Cl
ATOM      8  C8  ZIN A   1      19.399  -1.153   8.539  0.00  0.00     0.040 A 
ATOM      9  C9  ZIN A   1      19.269  -0.394   9.712  0.00  0.00     0.022 A 
ATOM     10  C10 ZIN A   1      19.488  -1.079  10.996  0.00  0.00     0.074 C 
ATOM     11  N17 ZIN A   1      20.118  -0.577  11.999  0.00  0.00    -0.279 NA
ATOM     12  C18 ZIN A   1      20.686   0.769  11.958  0.00  0.00     0.252 C 
ATOM     13  C19 ZIN A   1      19.574   1.770  11.800  0.00  0.00     0.243 C 
ATOM     14  O20 ZIN A   1      19.377   2.578  12.683  0.00  0.00    -0.271 OA
ENDROOT
BRANCH  10  15
ATOM     15  C11 ZIN A   1      18.944  -2.449  11.143  0.00  0.00    -0.007 A 
ATOM     16  C16 ZIN A   1      17.566  -2.653  11.202  0.00  0.00     0.014 A 
ATOM     17  C15 ZIN A   1      17.066  -3.931  11.335  0.00  0.00     0.001 A 
ATOM     18  C14 ZIN A   1      17.929  -5.010  11.420  0.00  0.00     0.000 A 
ATOM     19  C13 ZIN A   1      19.297  -4.814  11.366  0.00  0.00     0.001 A 
ATOM     20  C12 ZIN A   1      19.809  -3.540  11.228  0.00  0.00     0.014 A 
ENDBRANCH  10  15
TORSDOF 1
ENDMDL
MODEL 3
REMARK VINA RESULT:      -7.8      3.121      4.433
REMARK  1 active torsions:
REMARK  status: ('A' for Active; 'I' for Inactive)
REMARK    1  A    between atoms: C10_10  and  C11_11 
ROOT
ATOM      1  C1  ZIN A   1      20.119   0.068  13.594  0.00  0.00     0.159 C 
ATOM      2  N2  ZIN A   1      18.931  -0.278  12.810  0.00  0.00    -0.320 N 
ATOM      3  C3  ZIN A   1      19.032  -1.350  11.936  0.00  0.00     0.049 A 
ATOM      4  C4  ZIN A   1      19.736  -2.472  12.376  0.00  0.00     0.032 A 
ATOM      5  C5  ZIN A   1      19.881  -3.576  11.564  0.00  0.00     0.026 A 
ATOM      6  C6  ZIN A   1      19.326  -3.581  10.295  0.00  0.00     0.035 A 
ATOM      7 Cl7  ZIN A   1      19.510  -4.972   9.273  0.00  0.00    -0.084 Cl
ATOM      8  C8  ZIN A   1      18.627  -2.484   9.844  0.00  0.00     0.040 A 
ATOM      9  C9  ZIN A   1      18.471  -1.353  10.660  0.00  0.00     0.022 A 
ATOM     10  C10 ZIN A   1      17.709  -0.219  10.116  0.00  0.00     0.074 C 
ATOM     11  N17 ZIN A   1      16.867   0.490  10.782  0.00  0.00    -0.279 NA
ATOM     12  C18 ZIN A   1      16.586   0.229  12.193  0.00  0.00     0.252 C 
ATOM     13  C19 ZIN A   1      17.838   0.457  12.996  0.00  0.00     0.243 C 
ATOM     14  O20 ZIN A   1      17.853   1.339  13.828  0.00  0.00    -0.271 OA
ENDROOT
BRANCH  10  15
ATOM     15  C11 ZIN A   1      17.927   0.133   8.694  0.00  0.00    -0.007 A 
ATOM     16  C16 ZIN A   1      17.098  -0.398   7.706  0.00  0.00     0.014 A 
ATOM     17  C15 ZIN A   1      17.303  -0.063   6.384  0.00  0.00     0.001 A 
ATOM     18  C14 ZIN A   1      18.335   0.790   6.035  0.00  0.00     0.000 A 
ATOM     19  C13 ZIN A   1      19.164   1.316   7.009  0.00  0.00     0.001 A 
ATOM     20  C12 ZIN A   1      18.966   0.992   8.336  0.00  0.00     0.014 A 
ENDBRANCH  10  15
TORSDOF 1
ENDMDL
MODEL 4
REMARK VINA RESULT:      -7.7      3.649      6.645
REMARK  1 active torsions:
REMARK  status: ('A' for Active; 'I' for Inactive)
REMARK    1  A    between atoms: C10_10  and  C11_11 
ROOT
ATOM      1  C1  ZIN A   1      17.468  -0.254   8.499  0.00  0.00     0.159 C 
ATOM      2  N2  ZIN A   1      18.513  -0.698   9.425  0.00  0.00    -0.320 N 
ATOM      3  C3  ZIN A   1      18.285  -1.870  10.131  0.00  0.00     0.049 A 
ATOM      4  C4  ZIN A   1      17.686  -2.926   9.444  0.00  0.00     0.032 A 
ATOM      5  C5  ZIN A   1      17.426  -4.121  10.079  0.00  0.00     0.026 A 
ATOM      6  C6  ZIN A   1      17.759  -4.285  11.413  0.00  0.00     0.035 A 
ATOM      7 Cl7  ZIN A   1      17.430  -5.791  12.212  0.00  0.00    -0.084 Cl
ATOM      8  C8  ZIN A   1      18.352  -3.254  12.108  0.00  0.00     0.040 A 
ATOM      9  C9  ZIN A   1      18.623  -2.032  11.474  0.00  0.00     0.022 A 
ATOM     10  C10 ZIN A   1      19.261  -0.976  12.274  0.00  0.00     0.074 C 
ATOM     11  N17 ZIN A   1      20.191  -0.193  11.852  0.00  0.00    -0.279 NA
ATOM     12  C18 ZIN A   1      20.711  -0.278  10.488  0.00  0.00     0.252 C 
ATOM     13  C19 ZIN A   1      19.609   0.051   9.519  0.00  0.00     0.243 C 
ATOM     14  O20 ZIN A   1      19.719   1.029   8.810  0.00  0.00    -0.271 OA
ENDROOT
BRANCH  10  15
ATOM     15  C11 ZIN A   1      18.801  -0.801  13.671  0.00  0.00    -0.007 A 
ATOM     16  C16 ZIN A   1      17.720   0.034  13.953  0.00  0.00     0.014 A 
ATOM     17  C15 ZIN A   1      17.293   0.189  15.256  0.00  0.00     0.001 A 
ATOM     18  C14 ZIN A   1      17.941  -0.474  16.283  0.00  0.00     0.000 A 
ATOM     19  C13 ZIN A   1      19.016  -1.301  16.010  0.00  0.00     0.001 A 
ATOM     20  C12 ZIN A   1      19.450  -1.468  14.710  0.00  0.00     0.014 A 
ENDBRANCH  10  15
TORSDOF 1
ENDMDL
MODEL 5
REMARK VINA RESULT:      -7.4      3.339      5.019
REMARK  1 active torsions:
REMARK  status: ('A' for Active; 'I' for Inactive)
REMARK    1  A    between atoms: C10_10  and  C11_11 
ROOT
ATOM      1  C1  ZIN A   1      20.196   2.996  11.745  0.00  0.00     0.159 C 
ATOM      2  N2  ZIN A   1      19.015   2.143  11.593  0.00  0.00    -0.320 N 
ATOM      3  C3  ZIN A   1      18.588   1.438  12.708  0.00  0.00     0.049 A 
ATOM      4  C4  ZIN A   1      18.623   2.098  13.937  0.00  0.00     0.032 A 
ATOM      5  C5  ZIN A   1      18.216   1.463  15.089  0.00  0.00     0.026 A 
ATOM      6  C6  ZIN A   1      17.766   0.154  15.039  0.00  0.00     0.035 A 
ATOM      7 Cl7  ZIN A   1      17.254  -0.645  16.492  0.00  0.00    -0.084 Cl
ATOM      8  C8  ZIN A   1      17.723  -0.514  13.835  0.00  0.00     0.040 A 
ATOM      9  C9  ZIN A   1      18.134   0.121  12.653  0.00  0.00     0.022 A 
ATOM     10  C10 ZIN A   1      18.057  -0.650  11.403  0.00  0.00     0.074 C 
ATOM     11  N17 ZIN A   1      17.667  -0.180  10.271  0.00  0.00    -0.279 NA
ATOM     12  C18 ZIN A   1      17.257   1.215  10.115  0.00  0.00     0.252 C 
ATOM     13  C19 ZIN A   1      18.433   2.109  10.397  0.00  0.00     0.243 C 
ATOM     14  O20 ZIN A   1      18.866   2.812   9.508  0.00  0.00    -0.271 OA
ENDROOT
BRANCH  10  15
ATOM     15  C11 ZIN A   1      18.458  -2.075  11.451  0.00  0.00    -0.007 A 
ATOM     16  C16 ZIN A   1      17.490  -3.078  11.406  0.00  0.00     0.014 A 
ATOM     17  C15 ZIN A   1      17.870  -4.403  11.447  0.00  0.00     0.001 A 
ATOM     18  C14 ZIN A   1      19.209  -4.739  11.544  0.00  0.00     0.000 A 
ATOM     19  C13 ZIN A   1      20.174  -3.750  11.594  0.00  0.00     0.001 A 
ATOM     20  C12 ZIN A   1      19.806  -2.420  11.548  0.00  0.00     0.014 A 
ENDBRANCH  10  15
TORSDOF 1
ENDMDL
MODEL 6
REMARK VINA RESULT:      -7.4      2.536      5.689
REMARK  1 active torsions:
REMARK  status: ('A' for Active; 'I' for Inactive)
REMARK    1  A    between atoms: C10_10  and  C11_11 
ROOT
ATOM      1  C1  ZIN A   1      20.105   0.248   9.587  0.00  0.00     0.159 C 
ATOM      2  N2  ZIN A   1      18.910   0.501  10.396  0.00  0.00    -0.320 N 
ATOM      3  C3  ZIN A   1      18.975   1.523  11.330  0.00  0.00     0.049 A 
ATOM      4  C4  ZIN A   1      19.630   2.696  10.952  0.00  0.00     0.032 A 
ATOM      5  C5  ZIN A   1      19.737   3.756  11.826  0.00  0.00     0.026 A 
ATOM      6  C6  ZIN A   1      19.192   3.666  13.096  0.00  0.00     0.035 A 
ATOM      7 Cl7  ZIN A   1      19.328   5.002  14.196  0.00  0.00    -0.084 Cl
ATOM      8  C8  ZIN A   1      18.541   2.517  13.487  0.00  0.00     0.040 A 
ATOM      9  C9  ZIN A   1      18.424   1.430  12.607  0.00  0.00     0.022 A 
ATOM     10  C10 ZIN A   1      17.712   0.236  13.088  0.00  0.00     0.074 C 
ATOM     11  N17 ZIN A   1      16.894  -0.466  12.386  0.00  0.00    -0.279 NA
ATOM     12  C18 ZIN A   1      16.592  -0.136  10.994  0.00  0.00     0.252 C 
ATOM     13  C19 ZIN A   1      17.845  -0.266  10.173  0.00  0.00     0.243 C 
ATOM     14  O20 ZIN A   1      17.889  -1.097   9.291  0.00  0.00    -0.271 OA
ENDROOT
BRANCH  10  15
ATOM     15  C11 ZIN A   1      17.954  -0.188  14.486  0.00  0.00    -0.007 A 
ATOM     16  C16 ZIN A   1      19.029  -1.024  14.789  0.00  0.00     0.014 A 
ATOM     17  C15 ZIN A   1      19.252  -1.412  16.093  0.00  0.00     0.001 A 
ATOM     18  C14 ZIN A   1      18.406  -0.983  17.100  0.00  0.00     0.000 A 
ATOM     19  C13 ZIN A   1      17.334  -0.159  16.806  0.00  0.00     0.001 A 
ATOM     20  C12 ZIN A   1      17.104   0.241  15.505  0.00  0.00     0.014 A 
ENDBRANCH  10  15
TORSDOF 1
ENDMDL
MODEL 7
REMARK VINA RESULT:      -7.2      3.682      4.620
REMARK  1 active torsions:
REMARK  status: ('A' for Active; 'I' for Inactive)
REMARK    1  A    between atoms: C10_10  and  C11_11 
ROOT
ATOM      1  C1  ZIN A   1      16.648  -4.765  11.441  0.00  0.00     0.159 C 
ATOM      2  N2  ZIN A   1      17.831  -4.466  10.630  0.00  0.00    -0.320 N 
ATOM      3  C3  ZIN A   1      18.490  -3.271  10.876  0.00  0.00     0.049 A 
ATOM      4  C4  ZIN A   1      18.635  -2.882  12.209  0.00  0.00     0.032 A 
ATOM      5  C5  ZIN A   1      19.276  -1.706  12.533  0.00  0.00     0.026 A 
ATOM      6  C6  ZIN A   1      19.785  -0.895  11.533  0.00  0.00     0.035 A 
ATOM      7 Cl7  ZIN A   1      20.591   0.587  11.943  0.00  0.00    -0.084 Cl
ATOM      8  C8  ZIN A   1      19.652  -1.263  10.212  0.00  0.00     0.040 A 
ATOM      9  C9  ZIN A   1      19.002  -2.458   9.868  0.00  0.00     0.022 A 
ATOM     10  C10 ZIN A   1      18.900  -2.791   8.438  0.00  0.00     0.074 C 
ATOM     11  N17 ZIN A   1      19.056  -3.969   7.945  0.00  0.00    -0.279 NA
ATOM     12  C18 ZIN A   1      19.350  -5.126   8.788  0.00  0.00     0.252 C 
ATOM     13  C19 ZIN A   1      18.193  -5.366   9.718  0.00  0.00     0.243 C 
ATOM     14  O20 ZIN A   1      17.569  -6.402   9.629  0.00  0.00    -0.271 OA
ENDROOT
BRANCH  10  15
ATOM     15  C11 ZIN A   1      18.598  -1.688   7.498  0.00  0.00    -0.007 A 
ATOM     16  C16 ZIN A   1      17.524  -0.832   7.744  0.00  0.00     0.014 A 
ATOM     17  C15 ZIN A   1      17.250   0.196   6.866  0.00  0.00     0.001 A 
ATOM     18  C14 ZIN A   1      18.031   0.373   5.737  0.00  0.00     0.000 A 
ATOM     19  C13 ZIN A   1      19.094  -0.475   5.485  0.00  0.00     0.001 A 
ATOM     20  C12 ZIN A   1      19.381  -1.504   6.359  0.00  0.00     0.014 A 
ENDBRANCH  10  15
TORSDOF 1
ENDMDL
MODEL 8
REMARK VINA RESULT:      -7.2      3.068      4.134
REMARK  1 active torsions:
REMARK  status: ('A' for Active; 'I' for Inactive)
REMARK    1  A    between atoms: C10_10  and  C11_11 
ROOT
ATOM      1  C1  ZIN A   1      20.959   0.606  12.268  0.00  0.00     0.159 C 
ATOM      2  N2  ZIN A   1      19.647   0.676  11.622  0.00  0.00    -0.320 N 
ATOM      3  C3  ZIN A   1      18.962  -0.515  11.435  0.00  0.00     0.049 A 
ATOM      4  C4  ZIN A   1      19.006  -1.449  12.472  0.00  0.00     0.032 A 
ATOM      5  C5  ZIN A   1      18.352  -2.656  12.360  0.00  0.00     0.026 A 
ATOM      6  C6  ZIN A   1      17.640  -2.956  11.210  0.00  0.00     0.035 A 
ATOM      7 Cl7  ZIN A   1      16.817  -4.478  11.070  0.00  0.00    -0.084 Cl
ATOM      8  C8  ZIN A   1      17.584  -2.047  10.177  0.00  0.00     0.040 A 
ATOM      9  C9  ZIN A   1      18.246  -0.813  10.278  0.00  0.00     0.022 A 
ATOM     10  C10 ZIN A   1      18.140   0.112   9.139  0.00  0.00     0.074 C 
ATOM     11  N17 ZIN A   1      17.983   1.385   9.236  0.00  0.00    -0.279 NA
ATOM     12  C18 ZIN A   1      17.899   2.054  10.533  0.00  0.00     0.252 C 
ATOM     13  C19 ZIN A   1      19.202   1.878  11.264  0.00  0.00     0.243 C 
ATOM     14  O20 ZIN A   1      19.868   2.857  11.527  0.00  0.00    -0.271 OA
ENDROOT
BRANCH  10  15
ATOM     15  C11 ZIN A   1      18.220  -0.466   7.777  0.00  0.00    -0.007 A 
ATOM     16  C16 ZIN A   1      19.233  -1.370   7.458  0.00  0.00     0.014 A 
ATOM     17  C15 ZIN A   1      19.300  -1.908   6.190  0.00  0.00     0.001 A 
ATOM     18  C14 ZIN A   1      18.370  -1.545   5.231  0.00  0.00     0.000 A 
ATOM     19  C13 ZIN A   1      17.365  -0.646   5.540  0.00  0.00     0.001 A 
ATOM     20  C12 ZIN A   1      17.285  -0.105   6.807  0.00  0.00     0.014 A 
ENDBRANCH  10  15
TORSDOF 1
ENDMDL
MODEL 9
REMARK VINA RESULT:      -7.2      4.659      6.086
REMARK  1 active torsions:
REMARK  status: ('A' for Active; 'I' for Inactive)
REMARK    1  A    between atoms: C10_10  and  C11_11 
ROOT
ATOM      1  C1  ZIN A   1      16.651  -6.244   7.305  0.00  0.00     0.159 C 
ATOM      2  N2  ZIN A   1      17.885  -5.510   7.595  0.00  0.00    -0.320 N 
ATOM      3  C3  ZIN A   1      17.860  -4.606   8.646  0.00  0.00     0.049 A 
ATOM      4  C4  ZIN A   1      17.172  -4.984   9.800  0.00  0.00     0.032 A 
ATOM      5  C5  ZIN A   1      17.101  -4.140  10.886  0.00  0.00     0.026 A 
ATOM      6  C6  ZIN A   1      17.715  -2.899  10.841  0.00  0.00     0.035 A 
ATOM      7 Cl7  ZIN A   1      17.624  -1.835  12.210  0.00  0.00    -0.084 Cl
ATOM      8  C8  ZIN A   1      18.400  -2.509   9.712  0.00  0.00     0.040 A 
ATOM      9  C9  ZIN A   1      18.481  -3.359   8.599  0.00  0.00     0.022 A 
ATOM     10  C10 ZIN A   1      19.232  -2.881   7.428  0.00  0.00     0.074 C 
ATOM     11  N17 ZIN A   1      20.018  -3.604   6.712  0.00  0.00    -0.279 NA
ATOM     12  C18 ZIN A   1      20.240  -5.020   7.000  0.00  0.00     0.252 C 
ATOM     13  C19 ZIN A   1      18.945  -5.767   6.832  0.00  0.00     0.243 C 
ATOM     14  O20 ZIN A   1      18.863  -6.619   5.972  0.00  0.00    -0.271 OA
ENDROOT
BRANCH  10  15
ATOM     15  C11 ZIN A   1      19.071  -1.459   7.045  0.00  0.00    -0.007 A 
ATOM     16  C16 ZIN A   1      18.691  -1.121   5.747  0.00  0.00     0.014 A 
ATOM     17  C15 ZIN A   1      18.539   0.205   5.398  0.00  0.00     0.001 A 
ATOM     18  C14 ZIN A   1      18.772   1.200   6.331  0.00  0.00     0.000 A 
ATOM     19  C13 ZIN A   1      19.154   0.872   7.620  0.00  0.00     0.001 A 
ATOM     20  C12 ZIN A   1      19.305  -0.451   7.982  0.00  0.00     0.014 A 
ENDBRANCH  10  15
TORSDOF 1
ENDMDL
