MODEL 1
REMARK VINA RESULT:     -10.2      0.000      0.000
REMARK  4 active torsions:
REMARK  status: ('A' for Active; 'I' for Inactive)
REMARK    1  A    between atoms: C2_2  and  C3_3 
REMARK       I    between atoms: C2_2  and  N22_22 
REMARK    2  A    between atoms: C5_5  and  C6_6 
REMARK    3  A    between atoms: C6_6  and  C7_7 
REMARK       I    between atoms: N25_25  and  C26_26 
REMARK    4  A    between atoms: C26_26  and  C28_28 
ROOT
ATOM      1  C3  ZIN A   1      18.446  -2.386   5.041  0.00  0.00     0.071 A 
ATOM      2  C4  ZIN A   1      18.901  -3.525   5.709  0.00  0.00     0.027 A 
ATOM      3  C5  ZIN A   1      18.314  -4.748   5.459  0.00  0.00    -0.051 A 
ATOM      4  C18 ZIN A   1      17.277  -4.849   4.548  0.00  0.00     0.010 A 
ATOM      5  C19 ZIN A   1      16.821  -3.727   3.881  0.00  0.00     0.044 A 
ATOM      6  C20 ZIN A   1      17.395  -2.494   4.125  0.00  0.00     0.132 A 
ATOM      7  F21 ZIN A   1      16.949  -1.398   3.474  0.00  0.00    -0.205 F 
ENDROOT
BRANCH   1   8
ATOM      8  C2  ZIN A   1      19.070  -1.074   5.305  0.00  0.00     0.257 C 
ATOM      9  O1  ZIN A   1      20.042  -0.724   4.665  0.00  0.00    -0.267 OA
ATOM     10  N22 ZIN A   1      18.565  -0.268   6.259  0.00  0.00    -0.345 N 
ATOM     11  C32 ZIN A   1      19.098   1.089   6.452  0.00  0.00     0.146 C 
ATOM     12  C23 ZIN A   1      17.476  -0.730   7.130  0.00  0.00     0.146 C 
ATOM     13  C31 ZIN A   1      19.536   1.246   7.909  0.00  0.00     0.145 C 
ATOM     14  N25 ZIN A   1      18.446   0.784   8.780  0.00  0.00    -0.349 N 
ATOM     15  C24 ZIN A   1      17.916  -0.574   8.591  0.00  0.00     0.145 C 
ATOM     16  C26 ZIN A   1      17.942   1.590   9.735  0.00  0.00     0.224 C 
ATOM     17  O27 ZIN A   1      17.042   1.197  10.448  0.00  0.00    -0.273 OA
BRANCH  16  18
ATOM     18  C28 ZIN A   1      18.494   2.980   9.917  0.00  0.00     0.078 A 
ATOM     19  C30 ZIN A   1      18.879   3.408  11.335  0.00  0.00     0.015 A 
ATOM     20  C29 ZIN A   1      17.629   3.992  10.671  0.00  0.00     0.015 A 
ENDBRANCH  16  18
ENDBRANCH   1   8
BRANCH   3  21
ATOM     21  C6  ZIN A   1      18.803  -5.977   6.180  0.00  0.00     0.100 C 
BRANCH  21  22
ATOM     22  C7  ZIN A   1      19.154  -5.620   7.601  0.00  0.00     0.070 A 
ATOM     23  C17 ZIN A   1      18.095  -5.469   8.601  0.00  0.00     0.006 A 
ATOM     24  C12 ZIN A   1      18.459  -5.137   9.926  0.00  0.00     0.046 A 
ATOM     25  C16 ZIN A   1      16.750  -5.659   8.282  0.00  0.00     0.014 A 
ATOM     26  C10 ZIN A   1      19.884  -4.950  10.229  0.00  0.00     0.272 A 
ATOM     27  C13 ZIN A   1      17.473  -4.991  10.900  0.00  0.00     0.018 A 
ATOM     28  N9  ZIN A   1      20.784  -5.106   9.235  0.00  0.00    -0.243 N 
ATOM     29  O11 ZIN A   1      20.246  -4.658  11.354  0.00  0.00    -0.266 OA
ATOM     30  N8  ZIN A   1      20.396  -5.439   7.938  0.00  0.00    -0.175 NA
ATOM     31  H36 ZIN A   1      21.728  -4.984   9.430  0.00  0.00     0.192 HD
ATOM     32  C14 ZIN A   1      16.151  -5.178  10.561  0.00  0.00     0.001 A 
ATOM     33  C15 ZIN A   1      15.793  -5.510   9.260  0.00  0.00     0.001 A 
ENDBRANCH  21  22
ENDBRANCH   3  21
TORSDOF 4
ENDMDL
MODEL 2
REMARK VINA RESULT:      -9.7      1.486      2.053
REMARK  4 active torsions:
REMARK  status: ('A' for Active; 'I' for Inactive)
REMARK    1  A    between atoms: C2_2  and  C3_3 
REMARK       I    between atoms: C2_2  and  N22_22 
REMARK    2  A    between atoms: C5_5  and  C6_6 
REMARK    3  A    between atoms: C6_6  and  C7_7 
REMARK       I    between atoms: N25_25  and  C26_26 
REMARK    4  A    between atoms: C26_26  and  C28_28 
ROOT
ATOM      1  C3  ZIN A   1      18.352  -2.192   5.237  0.00  0.00     0.071 A 
ATOM      2  C4  ZIN A   1      18.610  -3.289   6.062  0.00  0.00     0.027 A 
ATOM      3  C5  ZIN A   1      17.994  -4.497   5.812  0.00  0.00    -0.051 A 
ATOM      4  C18 ZIN A   1      17.121  -4.626   4.745  0.00  0.00     0.010 A 
ATOM      5  C19 ZIN A   1      16.860  -3.547   3.922  0.00  0.00     0.044 A 
ATOM      6  C20 ZIN A   1      17.466  -2.328   4.163  0.00  0.00     0.132 A 
ATOM      7  F21 ZIN A   1      17.211  -1.274   3.358  0.00  0.00    -0.205 F 
ENDROOT
BRANCH   1   8
ATOM      8  C2  ZIN A   1      19.008  -0.896   5.499  0.00  0.00     0.257 C 
ATOM      9  O1  ZIN A   1      19.989  -0.571   4.860  0.00  0.00    -0.267 OA
ATOM     10  N22 ZIN A   1      18.522  -0.076   6.452  0.00  0.00    -0.345 N 
ATOM     11  C32 ZIN A   1      19.089   1.267   6.643  0.00  0.00     0.146 C 
ATOM     12  C23 ZIN A   1      17.421  -0.510   7.322  0.00  0.00     0.146 C 
ATOM     13  C31 ZIN A   1      19.529   1.416   8.101  0.00  0.00     0.145 C 
ATOM     14  N25 ZIN A   1      18.426   0.982   8.971  0.00  0.00    -0.349 N 
ATOM     15  C24 ZIN A   1      17.863  -0.363   8.783  0.00  0.00     0.145 C 
ATOM     16  C26 ZIN A   1      17.942   1.802   9.924  0.00  0.00     0.224 C 
ATOM     17  O27 ZIN A   1      17.031   1.433  10.637  0.00  0.00    -0.273 OA
BRANCH  16  18
ATOM     18  C28 ZIN A   1      18.529   3.178  10.105  0.00  0.00     0.078 A 
ATOM     19  C30 ZIN A   1      19.296   3.455  11.399  0.00  0.00     0.015 A 
ATOM     20  C29 ZIN A   1      17.913   4.073  11.182  0.00  0.00     0.015 A 
ENDBRANCH  16  18
ENDBRANCH   1   8
BRANCH   3  21
ATOM     21  C6  ZIN A   1      18.270  -5.680   6.704  0.00  0.00     0.100 C 
BRANCH  21  22
ATOM     22  C7  ZIN A   1      17.629  -5.456   8.049  0.00  0.00     0.070 A 
ATOM     23  C17 ZIN A   1      18.460  -5.149   9.213  0.00  0.00     0.006 A 
ATOM     24  C12 ZIN A   1      17.827  -4.941  10.460  0.00  0.00     0.046 A 
ATOM     25  C16 ZIN A   1      19.848  -5.042   9.119  0.00  0.00     0.014 A 
ATOM     26  C10 ZIN A   1      16.363  -5.055  10.523  0.00  0.00     0.272 A 
ATOM     27  C13 ZIN A   1      18.592  -4.642  11.586  0.00  0.00     0.018 A 
ATOM     28  N9  ZIN A   1      15.687  -5.348   9.393  0.00  0.00    -0.243 N 
ATOM     29  O11 ZIN A   1      15.773  -4.889  11.575  0.00  0.00    -0.266 OA
ATOM     30  N8  ZIN A   1      16.338  -5.543   8.176  0.00  0.00    -0.175 NA
ATOM     31  H36 ZIN A   1      14.719  -5.424   9.429  0.00  0.00     0.192 HD
ATOM     32  C14 ZIN A   1      19.962  -4.547  11.469  0.00  0.00     0.001 A 
ATOM     33  C15 ZIN A   1      20.585  -4.745  10.244  0.00  0.00     0.001 A 
ENDBRANCH  21  22
ENDBRANCH   3  21
TORSDOF 4
ENDMDL
MODEL 3
REMARK VINA RESULT:      -9.4      2.868      7.739
REMARK  4 active torsions:
REMARK  status: ('A' for Active; 'I' for Inactive)
REMARK    1  A    between atoms: C2_2  and  C3_3 
REMARK       I    between atoms: C2_2  and  N22_22 
REMARK    2  A    between atoms: C5_5  and  C6_6 
REMARK    3  A    between atoms: C6_6  and  C7_7 
REMARK       I    between atoms: N25_25  and  C26_26 
REMARK    4  A    between atoms: C26_26  and  C28_28 
ROOT
ATOM      1  C3  ZIN A   1      18.206  -4.161  10.590  0.00  0.00     0.071 A 
ATOM      2  C4  ZIN A   1      17.528  -3.064  11.125  0.00  0.00     0.027 A 
ATOM      3  C5  ZIN A   1      18.178  -2.210  11.990  0.00  0.00    -0.051 A 
ATOM      4  C18 ZIN A   1      19.501  -2.436  12.329  0.00  0.00     0.010 A 
ATOM      5  C19 ZIN A   1      20.182  -3.519  11.804  0.00  0.00     0.044 A 
ATOM      6  C20 ZIN A   1      19.542  -4.387  10.939  0.00  0.00     0.132 A 
ATOM      7  F21 ZIN A   1      20.207  -5.445  10.426  0.00  0.00    -0.205 F 
ENDROOT
BRANCH   1   8
ATOM      8  C2  ZIN A   1      17.516  -5.080   9.663  0.00  0.00     0.257 C 
ATOM      9  O1  ZIN A   1      17.071  -6.135  10.073  0.00  0.00    -0.267 OA
ATOM     10  N22 ZIN A   1      17.384  -4.753   8.363  0.00  0.00    -0.345 N 
ATOM     11  C32 ZIN A   1      16.596  -5.599   7.454  0.00  0.00     0.146 C 
ATOM     12  C23 ZIN A   1      18.031  -3.548   7.826  0.00  0.00     0.146 C 
ATOM     13  C31 ZIN A   1      17.473  -6.001   6.268  0.00  0.00     0.145 C 
ATOM     14  N25 ZIN A   1      18.120  -4.795   5.730  0.00  0.00    -0.349 N 
ATOM     15  C24 ZIN A   1      18.912  -3.952   6.637  0.00  0.00     0.145 C 
ATOM     16  C26 ZIN A   1      17.989  -4.469   4.429  0.00  0.00     0.224 C 
ATOM     17  O27 ZIN A   1      18.527  -3.471   3.997  0.00  0.00    -0.273 OA
BRANCH  16  18
ATOM     18  C28 ZIN A   1      17.173  -5.342   3.511  0.00  0.00     0.078 A 
ATOM     19  C30 ZIN A   1      16.905  -4.824   2.096  0.00  0.00     0.015 A 
ATOM     20  C29 ZIN A   1      15.775  -4.853   3.128  0.00  0.00     0.015 A 
ENDBRANCH  16  18
ENDBRANCH   1   8
BRANCH   3  21
ATOM     21  C6  ZIN A   1      17.446  -1.027  12.569  0.00  0.00     0.100 C 
BRANCH  21  22
ATOM     22  C7  ZIN A   1      18.223   0.233  12.284  0.00  0.00     0.070 A 
ATOM     23  C17 ZIN A   1      18.354   0.715  10.908  0.00  0.00     0.006 A 
ATOM     24  C12 ZIN A   1      19.086   1.902  10.675  0.00  0.00     0.046 A 
ATOM     25  C16 ZIN A   1      17.767   0.045   9.834  0.00  0.00     0.014 A 
ATOM     26  C10 ZIN A   1      19.686   2.586  11.828  0.00  0.00     0.272 A 
ATOM     27  C13 ZIN A   1      19.225   2.388   9.376  0.00  0.00     0.018 A 
ATOM     28  N9  ZIN A   1      19.512   2.058  13.058  0.00  0.00    -0.243 N 
ATOM     29  O11 ZIN A   1      20.329   3.609  11.677  0.00  0.00    -0.266 OA
ATOM     30  N8  ZIN A   1      18.781   0.887  13.258  0.00  0.00    -0.175 NA
ATOM     31  H36 ZIN A   1      19.906   2.506  13.824  0.00  0.00     0.192 HD
ATOM     32  C14 ZIN A   1      18.640   1.707   8.331  0.00  0.00     0.001 A 
ATOM     33  C15 ZIN A   1      17.916   0.543   8.559  0.00  0.00     0.001 A 
ENDBRANCH  21  22
ENDBRANCH   3  21
TORSDOF 4
ENDMDL
MODEL 4
REMARK VINA RESULT:      -9.2      3.800      5.739
REMARK  4 active torsions:
REMARK  status: ('A' for Active; 'I' for Inactive)
REMARK    1  A    between atoms: C2_2  and  C3_3 
REMARK       I    between atoms: C2_2  and  N22_22 
REMARK    2  A    between atoms: C5_5  and  C6_6 
REMARK    3  A    between atoms: C6_6  and  C7_7 
REMARK       I    between atoms: N25_25  and  C26_26 
REMARK    4  A    between atoms: C26_26  and  C28_28 
ROOT
ATOM      1  C3  ZIN A   1      18.077   1.371  10.057  0.00  0.00     0.071 A 
ATOM      2  C4  ZIN A   1      17.513   0.238   9.466  0.00  0.00     0.027 A 
ATOM      3  C5  ZIN A   1      18.006  -0.229   8.266  0.00  0.00    -0.051 A 
ATOM      4  C18 ZIN A   1      19.059   0.422   7.645  0.00  0.00     0.010 A 
ATOM      5  C19 ZIN A   1      19.625   1.543   8.223  0.00  0.00     0.044 A 
ATOM      6  C20 ZIN A   1      19.138   2.026   9.423  0.00  0.00     0.132 A 
ATOM      7  F21 ZIN A   1      19.692   3.121   9.986  0.00  0.00    -0.205 F 
ENDROOT
BRANCH   1   8
ATOM      8  C2  ZIN A   1      17.554   1.876  11.341  0.00  0.00     0.257 C 
ATOM      9  O1  ZIN A   1      17.021   2.968  11.393  0.00  0.00    -0.267 OA
ATOM     10  N22 ZIN A   1      17.672   1.130  12.457  0.00  0.00    -0.345 N 
ATOM     11  C32 ZIN A   1      17.050   1.565  13.717  0.00  0.00     0.146 C 
ATOM     12  C23 ZIN A   1      18.429  -0.129  12.439  0.00  0.00     0.146 C 
ATOM     13  C31 ZIN A   1      18.125   1.623  14.804  0.00  0.00     0.145 C 
ATOM     14  N25 ZIN A   1      18.881   0.363  14.785  0.00  0.00    -0.349 N 
ATOM     15  C24 ZIN A   1      19.507  -0.069  13.528  0.00  0.00     0.145 C 
ATOM     16  C26 ZIN A   1      19.000  -0.382  15.902  0.00  0.00     0.224 C 
ATOM     17  O27 ZIN A   1      19.627  -1.420  15.875  0.00  0.00    -0.273 OA
BRANCH  16  18
ATOM     18  C28 ZIN A   1      18.353   0.073  17.185  0.00  0.00     0.078 A 
ATOM     19  C30 ZIN A   1      19.186   0.945  18.126  0.00  0.00     0.015 A 
ATOM     20  C29 ZIN A   1      18.889  -0.511  18.493  0.00  0.00     0.015 A 
ENDBRANCH  16  18
ENDBRANCH   1   8
BRANCH   3  21
ATOM     21  C6  ZIN A   1      17.396  -1.450   7.627  0.00  0.00     0.100 C 
BRANCH  21  22
ATOM     22  C7  ZIN A   1      18.327  -2.622   7.795  0.00  0.00     0.070 A 
ATOM     23  C17 ZIN A   1      18.281  -3.424   9.019  0.00  0.00     0.006 A 
ATOM     24  C12 ZIN A   1      19.165  -4.520   9.142  0.00  0.00     0.046 A 
ATOM     25  C16 ZIN A   1      17.382  -3.144  10.048  0.00  0.00     0.014 A 
ATOM     26  C10 ZIN A   1      20.095  -4.791   8.038  0.00  0.00     0.272 A 
ATOM     27  C13 ZIN A   1      19.141  -5.304  10.295  0.00  0.00     0.018 A 
ATOM     28  N9  ZIN A   1      20.064  -3.989   6.953  0.00  0.00    -0.243 N 
ATOM     29  O11 ZIN A   1      20.879  -5.720   8.101  0.00  0.00    -0.266 OA
ATOM     30  N8  ZIN A   1      19.176  -2.918   6.856  0.00  0.00    -0.175 NA
ATOM     31  H36 ZIN A   1      20.675  -4.164   6.219  0.00  0.00     0.192 HD
ATOM     32  C14 ZIN A   1      18.248  -5.005  11.300  0.00  0.00     0.001 A 
ATOM     33  C15 ZIN A   1      17.375  -3.932  11.177  0.00  0.00     0.001 A 
ENDBRANCH  21  22
ENDBRANCH   3  21
TORSDOF 4
ENDMDL
MODEL 5
REMARK VINA RESULT:      -9.2      2.788      5.308
REMARK  4 active torsions:
REMARK  status: ('A' for Active; 'I' for Inactive)
REMARK    1  A    between atoms: C2_2  and  C3_3 
REMARK       I    between atoms: C2_2  and  N22_22 
REMARK    2  A    between atoms: C5_5  and  C6_6 
REMARK    3  A    between atoms: C6_6  and  C7_7 
REMARK       I    between atoms: N25_25  and  C26_26 
REMARK    4  A    between atoms: C26_26  and  C28_28 
ROOT
ATOM      1  C3  ZIN A   1      18.961  -4.319  10.219  0.00  0.00     0.071 A 
ATOM      2  C4  ZIN A   1      19.395  -4.594   8.920  0.00  0.00     0.027 A 
ATOM      3  C5  ZIN A   1      18.705  -5.498   8.141  0.00  0.00    -0.051 A 
ATOM      4  C18 ZIN A   1      17.581  -6.133   8.643  0.00  0.00     0.010 A 
ATOM      5  C19 ZIN A   1      17.142  -5.867   9.926  0.00  0.00     0.044 A 
ATOM      6  C20 ZIN A   1      17.827  -4.967  10.721  0.00  0.00     0.132 A 
ATOM      7  F21 ZIN A   1      17.398  -4.708  11.975  0.00  0.00    -0.205 F 
ENDROOT
BRANCH   1   8
ATOM      8  C2  ZIN A   1      19.696  -3.353  11.058  0.00  0.00     0.257 C 
ATOM      9  O1  ZIN A   1      20.526  -3.747  11.854  0.00  0.00    -0.267 OA
ATOM     10  N22 ZIN A   1      19.443  -2.034  10.947  0.00  0.00    -0.345 N 
ATOM     11  C32 ZIN A   1      20.249  -1.052  11.686  0.00  0.00     0.146 C 
ATOM     12  C23 ZIN A   1      18.352  -1.552  10.089  0.00  0.00     0.146 C 
ATOM     13  C31 ZIN A   1      19.316  -0.177  12.526  0.00  0.00     0.145 C 
ATOM     14  N25 ZIN A   1      18.225   0.305  11.667  0.00  0.00    -0.349 N 
ATOM     15  C24 ZIN A   1      17.415  -0.676  10.932  0.00  0.00     0.145 C 
ATOM     16  C26 ZIN A   1      17.971   1.624  11.557  0.00  0.00     0.224 C 
ATOM     17  O27 ZIN A   1      17.068   2.011  10.845  0.00  0.00    -0.273 OA
BRANCH  16  18
ATOM     18  C28 ZIN A   1      18.810   2.619  12.316  0.00  0.00     0.078 A 
ATOM     19  C30 ZIN A   1      18.664   4.097  11.945  0.00  0.00     0.015 A 
ATOM     20  C29 ZIN A   1      19.929   3.330  11.552  0.00  0.00     0.015 A 
ENDBRANCH  16  18
ENDBRANCH   1   8
BRANCH   3  21
ATOM     21  C6  ZIN A   1      19.174  -5.796   6.741  0.00  0.00     0.100 C 
BRANCH  21  22
ATOM     22  C7  ZIN A   1      18.164  -5.277   5.751  0.00  0.00     0.070 A 
ATOM     23  C17 ZIN A   1      18.205  -3.875   5.331  0.00  0.00     0.006 A 
ATOM     24  C12 ZIN A   1      17.246  -3.421   4.398  0.00  0.00     0.046 A 
ATOM     25  C16 ZIN A   1      19.171  -2.991   5.813  0.00  0.00     0.014 A 
ATOM     26  C10 ZIN A   1      16.247  -4.379   3.906  0.00  0.00     0.272 A 
ATOM     27  C13 ZIN A   1      17.263  -2.092   3.975  0.00  0.00     0.018 A 
ATOM     28  N9  ZIN A   1      16.289  -5.649   4.359  0.00  0.00    -0.243 N 
ATOM     29  O11 ZIN A   1      15.397  -4.033   3.105  0.00  0.00    -0.266 OA
ATOM     30  N8  ZIN A   1      17.251  -6.071   5.276  0.00  0.00    -0.175 NA
ATOM     31  H36 ZIN A   1      15.632  -6.287   4.037  0.00  0.00     0.192 HD
ATOM     32  C14 ZIN A   1      18.223  -1.236   4.469  0.00  0.00     0.001 A 
ATOM     33  C15 ZIN A   1      19.170  -1.683   5.382  0.00  0.00     0.001 A 
ENDBRANCH  21  22
ENDBRANCH   3  21
TORSDOF 4
ENDMDL
MODEL 6
REMARK VINA RESULT:      -9.2      3.780      5.179
REMARK  4 active torsions:
REMARK  status: ('A' for Active; 'I' for Inactive)
REMARK    1  A    between atoms: C2_2  and  C3_3 
REMARK       I    between atoms: C2_2  and  N22_22 
REMARK    2  A    between atoms: C5_5  and  C6_6 
REMARK    3  A    between atoms: C6_6  and  C7_7 
REMARK       I    between atoms: N25_25  and  C26_26 
REMARK    4  A    between atoms: C26_26  and  C28_28 
ROOT
ATOM      1  C3  ZIN A   1      19.636   0.141   9.621  0.00  0.00     0.071 A 
ATOM      2  C4  ZIN A   1      19.226  -0.952   8.854  0.00  0.00     0.027 A 
ATOM      3  C5  ZIN A   1      18.538  -0.746   7.677  0.00  0.00    -0.051 A 
ATOM      4  C18 ZIN A   1      18.254   0.540   7.252  0.00  0.00     0.010 A 
ATOM      5  C19 ZIN A   1      18.656   1.629   8.003  0.00  0.00     0.044 A 
ATOM      6  C20 ZIN A   1      19.342   1.439   9.189  0.00  0.00     0.132 A 
ATOM      7  F21 ZIN A   1      19.735   2.502   9.922  0.00  0.00    -0.205 F 
ENDROOT
BRANCH   1   8
ATOM      8  C2  ZIN A   1      20.372  -0.072  10.883  0.00  0.00     0.257 C 
ATOM      9  O1  ZIN A   1      21.502  -0.519  10.859  0.00  0.00    -0.267 OA
ATOM     10  N22 ZIN A   1      19.789   0.223  12.061  0.00  0.00    -0.345 N 
ATOM     11  C32 ZIN A   1      20.549   0.130  13.316  0.00  0.00     0.146 C 
ATOM     12  C23 ZIN A   1      18.380   0.637  12.116  0.00  0.00     0.146 C 
ATOM     13  C31 ZIN A   1      19.803  -0.795  14.279  0.00  0.00     0.145 C 
ATOM     14  N25 ZIN A   1      18.394  -0.380  14.333  0.00  0.00    -0.349 N 
ATOM     15  C24 ZIN A   1      17.632  -0.292  13.080  0.00  0.00     0.145 C 
ATOM     16  C26 ZIN A   1      17.811  -0.086  15.512  0.00  0.00     0.224 C 
ATOM     17  O27 ZIN A   1      16.647   0.255  15.545  0.00  0.00    -0.273 OA
BRANCH  16  18
ATOM     18  C28 ZIN A   1      18.604  -0.180  16.790  0.00  0.00     0.078 A 
ATOM     19  C30 ZIN A   1      17.931   0.303  18.077  0.00  0.00     0.015 A 
ATOM     20  C29 ZIN A   1      19.051   1.130  17.442  0.00  0.00     0.015 A 
ENDBRANCH  16  18
ENDBRANCH   1   8
BRANCH   3  21
ATOM     21  C6  ZIN A   1      18.094  -1.925   6.850  0.00  0.00     0.100 C 
BRANCH  21  22
ATOM     22  C7  ZIN A   1      18.959  -3.117   7.171  0.00  0.00     0.070 A 
ATOM     23  C17 ZIN A   1      18.492  -4.124   8.125  0.00  0.00     0.006 A 
ATOM     24  C12 ZIN A   1      19.325  -5.232   8.400  0.00  0.00     0.046 A 
ATOM     25  C16 ZIN A   1      17.249  -4.024   8.752  0.00  0.00     0.014 A 
ATOM     26  C10 ZIN A   1      20.625  -5.310   7.720  0.00  0.00     0.272 A 
ATOM     27  C13 ZIN A   1      18.905  -6.209   9.302  0.00  0.00     0.018 A 
ATOM     28  N9  ZIN A   1      20.967  -4.328   6.860  0.00  0.00    -0.243 N 
ATOM     29  O11 ZIN A   1      21.379  -6.243   7.928  0.00  0.00    -0.266 OA
ATOM     30  N8  ZIN A   1      20.121  -3.248   6.604  0.00  0.00    -0.175 NA
ATOM     31  H36 ZIN A   1      21.824  -4.374   6.407  0.00  0.00     0.192 HD
ATOM     32  C14 ZIN A   1      17.676  -6.086   9.912  0.00  0.00     0.001 A 
ATOM     33  C15 ZIN A   1      16.854  -5.000   9.638  0.00  0.00     0.001 A 
ENDBRANCH  21  22
ENDBRANCH   3  21
TORSDOF 4
ENDMDL
MODEL 7
REMARK VINA RESULT:      -9.2      5.468     10.510
REMARK  4 active torsions:
REMARK  status: ('A' for Active; 'I' for Inactive)
REMARK    1  A    between atoms: C2_2  and  C3_3 
REMARK       I    between atoms: C2_2  and  N22_22 
REMARK    2  A    between atoms: C5_5  and  C6_6 
REMARK    3  A    between atoms: C6_6  and  C7_7 
REMARK       I    between atoms: N25_25  and  C26_26 
REMARK    4  A    between atoms: C26_26  and  C28_28 
ROOT
ATOM      1  C3  ZIN A   1      18.866   0.055  15.323  0.00  0.00     0.071 A 
ATOM      2  C4  ZIN A   1      19.260   1.388  15.462  0.00  0.00     0.027 A 
ATOM      3  C5  ZIN A   1      18.912   2.092  16.595  0.00  0.00    -0.051 A 
ATOM      4  C18 ZIN A   1      18.175   1.482  17.596  0.00  0.00     0.010 A 
ATOM      5  C19 ZIN A   1      17.782   0.162  17.468  0.00  0.00     0.044 A 
ATOM      6  C20 ZIN A   1      18.118  -0.555  16.336  0.00  0.00     0.132 A 
ATOM      7  F21 ZIN A   1      17.734  -1.844  16.211  0.00  0.00    -0.205 F 
ENDROOT
BRANCH   1   8
ATOM      8  C2  ZIN A   1      19.235  -0.705  14.112  0.00  0.00     0.257 C 
ATOM      9  O1  ZIN A   1      19.847  -1.750  14.213  0.00  0.00    -0.267 OA
ATOM     10  N22 ZIN A   1      18.898  -0.236  12.894  0.00  0.00    -0.345 N 
ATOM     11  C32 ZIN A   1      19.151  -1.038  11.688  0.00  0.00     0.146 C 
ATOM     12  C23 ZIN A   1      18.278   1.087  12.748  0.00  0.00     0.146 C 
ATOM     13  C31 ZIN A   1      19.987  -0.210  10.711  0.00  0.00     0.145 C 
ATOM     14  N25 ZIN A   1      19.365   1.114  10.564  0.00  0.00    -0.349 N 
ATOM     15  C24 ZIN A   1      19.117   1.918  11.769  0.00  0.00     0.145 C 
ATOM     16  C26 ZIN A   1      19.030   1.583   9.346  0.00  0.00     0.224 C 
ATOM     17  O27 ZIN A   1      18.517   2.677   9.237  0.00  0.00    -0.273 OA
BRANCH  16  18
ATOM     18  C28 ZIN A   1      19.289   0.748   8.119  0.00  0.00     0.078 A 
ATOM     19  C30 ZIN A   1      18.910   1.347   6.763  0.00  0.00     0.015 A 
ATOM     20  C29 ZIN A   1      18.074   0.211   7.359  0.00  0.00     0.015 A 
ENDBRANCH  16  18
ENDBRANCH   1   8
BRANCH   3  21
ATOM     21  C6  ZIN A   1      19.334   3.530  16.745  0.00  0.00     0.100 C 
BRANCH  21  22
ATOM     22  C7  ZIN A   1      18.119   4.419  16.692  0.00  0.00     0.070 A 
ATOM     23  C17 ZIN A   1      17.654   4.946  15.408  0.00  0.00     0.006 A 
ATOM     24  C12 ZIN A   1      16.507   5.773  15.393  0.00  0.00     0.046 A 
ATOM     25  C16 ZIN A   1      18.299   4.640  14.210  0.00  0.00     0.014 A 
ATOM     26  C10 ZIN A   1      15.848   6.071  16.671  0.00  0.00     0.272 A 
ATOM     27  C13 ZIN A   1      16.038   6.286  14.184  0.00  0.00     0.018 A 
ATOM     28  N9  ZIN A   1      16.358   5.542  17.802  0.00  0.00    -0.243 N 
ATOM     29  O11 ZIN A   1      14.861   6.783  16.709  0.00  0.00    -0.266 OA
ATOM     30  N8  ZIN A   1      17.487   4.723  17.787  0.00  0.00    -0.175 NA
ATOM     31  H36 ZIN A   1      15.926   5.734  18.650  0.00  0.00     0.192 HD
ATOM     32  C14 ZIN A   1      16.696   5.974  13.014  0.00  0.00     0.001 A 
ATOM     33  C15 ZIN A   1      17.818   5.156  13.028  0.00  0.00     0.001 A 
ENDBRANCH  21  22
ENDBRANCH   3  21
TORSDOF 4
ENDMDL
MODEL 8
REMARK VINA RESULT:      -9.0      5.269     10.329
REMARK  4 active torsions:
REMARK  status: ('A' for Active; 'I' for Inactive)
REMARK    1  A    between atoms: C2_2  and  C3_3 
REMARK       I    between atoms: C2_2  and  N22_22 
REMARK    2  A    between atoms: C5_5  and  C6_6 
REMARK    3  A    between atoms: C6_6  and  C7_7 
REMARK       I    between atoms: N25_25  and  C26_26 
REMARK    4  A    between atoms: C26_26  and  C28_28 
ROOT
ATOM      1  C3  ZIN A   1      18.201   4.227  11.907  0.00  0.00     0.071 A 
ATOM      2  C4  ZIN A   1      19.094   4.484  12.949  0.00  0.00     0.027 A 
ATOM      3  C5  ZIN A   1      18.786   5.434  13.900  0.00  0.00    -0.051 A 
ATOM      4  C18 ZIN A   1      17.594   6.134  13.824  0.00  0.00     0.010 A 
ATOM      5  C19 ZIN A   1      16.702   5.886  12.797  0.00  0.00     0.044 A 
ATOM      6  C20 ZIN A   1      16.999   4.940  11.833  0.00  0.00     0.132 A 
ATOM      7  F21 ZIN A   1      16.129   4.698  10.830  0.00  0.00    -0.205 F 
ENDROOT
BRANCH   1   8
ATOM      8  C2  ZIN A   1      18.525   3.211  10.886  0.00  0.00     0.257 C 
ATOM      9  O1  ZIN A   1      18.503   3.507   9.707  0.00  0.00    -0.267 OA
ATOM     10  N22 ZIN A   1      18.839   1.956  11.260  0.00  0.00    -0.345 N 
ATOM     11  C32 ZIN A   1      19.281   0.967  10.266  0.00  0.00     0.146 C 
ATOM     12  C23 ZIN A   1      18.741   1.549  12.668  0.00  0.00     0.146 C 
ATOM     13  C31 ZIN A   1      18.378  -0.264  10.358  0.00  0.00     0.145 C 
ATOM     14  N25 ZIN A   1      18.281  -0.671  11.767  0.00  0.00    -0.349 N 
ATOM     15  C24 ZIN A   1      17.834   0.315  12.761  0.00  0.00     0.145 C 
ATOM     16  C26 ZIN A   1      18.594  -1.928  12.141  0.00  0.00     0.224 C 
ATOM     17  O27 ZIN A   1      18.510  -2.253  13.307  0.00  0.00    -0.273 OA
BRANCH  16  18
ATOM     18  C28 ZIN A   1      19.051  -2.929  11.112  0.00  0.00     0.078 A 
ATOM     19  C30 ZIN A   1      18.808  -4.410  11.410  0.00  0.00     0.015 A 
ATOM     20  C29 ZIN A   1      20.226  -3.837  11.482  0.00  0.00     0.015 A 
ENDBRANCH  16  18
ENDBRANCH   1   8
BRANCH   3  21
ATOM     21  C6  ZIN A   1      19.750   5.713  15.024  0.00  0.00     0.100 C 
BRANCH  21  22
ATOM     22  C7  ZIN A   1      19.056   5.502  16.344  0.00  0.00     0.070 A 
ATOM     23  C17 ZIN A   1      18.847   4.146  16.853  0.00  0.00     0.006 A 
ATOM     24  C12 ZIN A   1      18.197   3.984  18.098  0.00  0.00     0.046 A 
ATOM     25  C16 ZIN A   1      19.286   3.022  16.153  0.00  0.00     0.014 A 
ATOM     26  C10 ZIN A   1      17.753   5.188  18.812  0.00  0.00     0.272 A 
ATOM     27  C13 ZIN A   1      17.988   2.704  18.610  0.00  0.00     0.018 A 
ATOM     28  N9  ZIN A   1      17.987   6.395  18.256  0.00  0.00    -0.243 N 
ATOM     29  O11 ZIN A   1      17.183   5.099  19.885  0.00  0.00    -0.266 OA
ATOM     30  N8  ZIN A   1      18.637   6.525  17.029  0.00  0.00    -0.175 NA
ATOM     31  H36 ZIN A   1      17.697   7.195  18.723  0.00  0.00     0.192 HD
ATOM     32  C14 ZIN A   1      18.425   1.609  17.898  0.00  0.00     0.001 A 
ATOM     33  C15 ZIN A   1      19.070   1.767  16.678  0.00  0.00     0.001 A 
ENDBRANCH  21  22
ENDBRANCH   3  21
TORSDOF 4
ENDMDL
MODEL 9
REMARK VINA RESULT:      -8.9      4.236      7.276
REMARK  4 active torsions:
REMARK  status: ('A' for Active; 'I' for Inactive)
REMARK    1  A    between atoms: C2_2  and  C3_3 
REMARK       I    between atoms: C2_2  and  N22_22 
REMARK    2  A    between atoms: C5_5  and  C6_6 
REMARK    3  A    between atoms: C6_6  and  C7_7 
REMARK       I    between atoms: N25_25  and  C26_26 
REMARK    4  A    between atoms: C26_26  and  C28_28 
ROOT
ATOM      1  C3  ZIN A   1      18.274   2.624  11.101  0.00  0.00     0.071 A 
ATOM      2  C4  ZIN A   1      17.532   1.541  10.625  0.00  0.00     0.027 A 
ATOM      3  C5  ZIN A   1      18.146   0.322  10.426  0.00  0.00    -0.051 A 
ATOM      4  C18 ZIN A   1      19.495   0.169  10.697  0.00  0.00     0.010 A 
ATOM      5  C19 ZIN A   1      20.238   1.235  11.170  0.00  0.00     0.044 A 
ATOM      6  C20 ZIN A   1      19.638   2.464  11.370  0.00  0.00     0.132 A 
ATOM      7  F21 ZIN A   1      20.363   3.505  11.832  0.00  0.00    -0.205 F 
ENDROOT
BRANCH   1   8
ATOM      8  C2  ZIN A   1      17.623   3.931  11.316  0.00  0.00     0.257 C 
ATOM      9  O1  ZIN A   1      17.459   4.689  10.380  0.00  0.00    -0.267 OA
ATOM     10  N22 ZIN A   1      17.217   4.287  12.550  0.00  0.00    -0.345 N 
ATOM     11  C32 ZIN A   1      16.460   5.530  12.760  0.00  0.00     0.146 C 
ATOM     12  C23 ZIN A   1      17.526   3.443  13.712  0.00  0.00     0.146 C 
ATOM     13  C31 ZIN A   1      17.186   6.380  13.804  0.00  0.00     0.145 C 
ATOM     14  N25 ZIN A   1      17.495   5.535  14.966  0.00  0.00    -0.349 N 
ATOM     15  C24 ZIN A   1      18.255   4.295  14.758  0.00  0.00     0.145 C 
ATOM     16  C26 ZIN A   1      17.089   5.892  16.201  0.00  0.00     0.224 C 
ATOM     17  O27 ZIN A   1      17.350   5.186  17.153  0.00  0.00    -0.273 OA
BRANCH  16  18
ATOM     18  C28 ZIN A   1      16.309   7.167  16.399  0.00  0.00     0.078 A 
ATOM     19  C30 ZIN A   1      17.068   8.383  16.934  0.00  0.00     0.015 A 
ATOM     20  C29 ZIN A   1      16.081   7.639  17.837  0.00  0.00     0.015 A 
ENDBRANCH  16  18
ENDBRANCH   1   8
BRANCH   3  21
ATOM     21  C6  ZIN A   1      17.347  -0.847   9.911  0.00  0.00     0.100 C 
BRANCH  21  22
ATOM     22  C7  ZIN A   1      18.161  -1.603   8.894  0.00  0.00     0.070 A 
ATOM     23  C17 ZIN A   1      18.308  -1.077   7.536  0.00  0.00     0.006 A 
ATOM     24  C12 ZIN A   1      19.083  -1.809   6.608  0.00  0.00     0.046 A 
ATOM     25  C16 ZIN A   1      17.720   0.126   7.146  0.00  0.00     0.014 A 
ATOM     26  C10 ZIN A   1      19.693  -3.069   7.052  0.00  0.00     0.272 A 
ATOM     27  C13 ZIN A   1      19.244  -1.331   5.308  0.00  0.00     0.018 A 
ATOM     28  N9  ZIN A   1      19.493  -3.472   8.324  0.00  0.00    -0.243 N 
ATOM     29  O11 ZIN A   1      20.364  -3.738   6.287  0.00  0.00    -0.266 OA
ATOM     30  N8  ZIN A   1      18.729  -2.726   9.220  0.00  0.00    -0.175 NA
ATOM     31  H36 ZIN A   1      19.895  -4.304   8.624  0.00  0.00     0.192 HD
ATOM     32  C14 ZIN A   1      18.649  -0.143   4.944  0.00  0.00     0.001 A 
ATOM     33  C15 ZIN A   1      17.893   0.581   5.858  0.00  0.00     0.001 A 
ENDBRANCH  21  22
ENDBRANCH   3  21
TORSDOF 4
ENDMDL
