MODEL 1
REMARK VINA RESULT:      -7.9      0.000      0.000
REMARK  7 active torsions:
REMARK  status: ('A' for Active; 'I' for Inactive)
REMARK    1  A    between atoms: C3_3  and  C4_4 
REMARK    2  A    between atoms: C5_5  and  C6_6 
REMARK    3  A    between atoms: C12_12  and  N14_13 
REMARK       I    between atoms: N14_13  and  C15_14 
REMARK    4  A    between atoms: C15_14  and  C17_16 
REMARK    5  A    between atoms: C17_16  and  N19_17 
REMARK    6  A    between atoms: C17_16  and  C20_18 
REMARK    7  A    between atoms: C23_21  and  O24_22 
ROOT
ATOM      1  N14 <0> d   1      18.756   0.860  11.624  0.00  0.00    -0.343 N 
ATOM      2  C15 <0> d   1      18.429   0.003  10.636  0.00  0.00     0.256 C 
ATOM      3  O16 <0> d   1      17.263  -0.176  10.351  0.00  0.00    -0.271 OA
ATOM      4  H36 <0> d   1      19.688   1.002  11.853  0.00  0.00     0.163 HD
ENDROOT
BRANCH   1   5
ATOM      5  C12 <0> d   1      17.705   1.576  12.351  0.00  0.00     0.210 C 
ATOM      6  C10 <0> d   1      18.204   2.714  13.210  0.00  0.00     0.251 C 
ATOM      7  N9  <0> d   1      18.184   2.038  14.352  0.00  0.00    -0.293 N 
ATOM      8  O11 <0> d   1      18.518   3.856  12.946  0.00  0.00    -0.271 OA
ATOM      9  C5  <0> d   1      18.707   2.031  15.650  0.00  0.00     0.122 C 
ATOM     10  C27 <0> d   1      17.361   0.980  13.704  0.00  0.00     0.187 C 
ATOM     11  C4  <0> d   1      18.800   0.869  16.330  0.00  0.00    -0.015 C 
ATOM     12  C30 <0> d   1      18.333  -0.483  15.896  0.00  0.00     0.117 C 
ATOM     13  S29 <0> d   1      18.155  -0.618  14.081  0.00  0.00    -0.136 SA
BRANCH   9  14
ATOM     14  C6  <0> d   1      19.154   3.280  16.267  0.00  0.00     0.227 C 
ATOM     15  O7  <0> d   1      18.332   4.081  16.694  0.00  0.00    -0.643 OA
ATOM     16  O8  <0> d   1      20.350   3.525  16.357  0.00  0.00    -0.643 OA
ENDBRANCH   9  14
BRANCH  11  17
ATOM     17  C3  <0> d   1      19.435   0.941  17.646  0.00  0.00     0.006 C 
ATOM     18  C2  <0> d   1      18.694   1.162  18.733  0.00  0.00    -0.030 C 
ATOM     19  C1  <0> d   1      17.191   1.212  18.625  0.00  0.00     0.036 C 
ENDBRANCH  11  17
ENDBRANCH   1   5
BRANCH   2  20
ATOM     20  C17 <0> d   1      19.510  -0.733   9.889  0.00  0.00     0.342 C 
BRANCH  20  21
ATOM     21  N19 <0> d   1      20.826  -0.237  10.317  0.00  0.00     0.096 N 
ATOM     22  H37 <0> d   1      21.031   0.655   9.893  0.00  0.00     0.314 HD
ATOM     23  H38 <0> d   1      20.881  -0.183  11.322  0.00  0.00     0.314 HD
ENDBRANCH  20  21
BRANCH  20  24
ATOM     24  C20 <0> d   1      19.345  -0.502   8.409  0.00  0.00    -0.016 A 
ATOM     25  C26 <0> d   1      19.207   0.785   7.922  0.00  0.00     0.012 A 
ATOM     26  C25 <0> d   1      19.061   1.000   6.565  0.00  0.00     0.037 A 
ATOM     27  C23 <0> d   1      19.043  -0.077   5.692  0.00  0.00     0.065 A 
ATOM     28  C22 <0> d   1      19.177  -1.368   6.183  0.00  0.00     0.037 A 
ATOM     29  C21 <0> d   1      19.328  -1.577   7.539  0.00  0.00     0.012 A 
BRANCH  27  30
ATOM     30  O24 <0> d   1      18.894   0.132   4.357  0.00  0.00    -0.361 OA
ATOM     31  H41 <0> d   1      18.903  -0.678   3.829  0.00  0.00     0.217 HD
ENDBRANCH  27  30
ENDBRANCH  20  24
ENDBRANCH   2  20
TORSDOF 7
ENDMDL
MODEL 2
REMARK VINA RESULT:      -7.8      2.581      9.124
REMARK  7 active torsions:
REMARK  status: ('A' for Active; 'I' for Inactive)
REMARK    1  A    between atoms: C3_3  and  C4_4 
REMARK    2  A    between atoms: C5_5  and  C6_6 
REMARK    3  A    between atoms: C12_12  and  N14_13 
REMARK       I    between atoms: N14_13  and  C15_14 
REMARK    4  A    between atoms: C15_14  and  C17_16 
REMARK    5  A    between atoms: C17_16  and  N19_17 
REMARK    6  A    between atoms: C17_16  and  C20_18 
REMARK    7  A    between atoms: C23_21  and  O24_22 
ROOT
ATOM      1  N14 <0> d   1      18.698  -0.795  11.430  0.00  0.00    -0.343 N 
ATOM      2  C15 <0> d   1      18.360   0.043  12.431  0.00  0.00     0.256 C 
ATOM      3  O16 <0> d   1      17.193   0.207  12.717  0.00  0.00    -0.271 OA
ATOM      4  H36 <0> d   1      19.631  -0.925  11.201  0.00  0.00     0.163 HD
ENDROOT
BRANCH   1   5
ATOM      5  C12 <0> d   1      17.654  -1.506  10.688  0.00  0.00     0.210 C 
ATOM      6  C10 <0> d   1      18.157  -2.663   9.856  0.00  0.00     0.251 C 
ATOM      7  N9  <0> d   1      18.174  -2.002   8.706  0.00  0.00    -0.293 N 
ATOM      8  O11 <0> d   1      18.449  -3.805  10.144  0.00  0.00    -0.271 OA
ATOM      9  C5  <0> d   1      18.727  -2.020   7.420  0.00  0.00     0.122 C 
ATOM     10  C27 <0> d   1      17.350  -0.924   9.319  0.00  0.00     0.187 C 
ATOM     11  C4  <0> d   1      18.852  -0.869   6.726  0.00  0.00    -0.015 C 
ATOM     12  C30 <0> d   1      18.394   0.495   7.131  0.00  0.00     0.117 C 
ATOM     13  S29 <0> d   1      18.175   0.657   8.939  0.00  0.00    -0.136 SA
BRANCH   9  14
ATOM     14  C6  <0> d   1      19.171  -3.283   6.831  0.00  0.00     0.227 C 
ATOM     15  O7  <0> d   1      20.368  -3.533   6.747  0.00  0.00    -0.643 OA
ATOM     16  O8  <0> d   1      18.348  -4.092   6.421  0.00  0.00    -0.643 OA
ENDBRANCH   9  14
BRANCH  11  17
ATOM     17  C3  <0> d   1      19.517  -0.967   5.428  0.00  0.00     0.006 C 
ATOM     18  C2  <0> d   1      18.805  -1.245   4.333  0.00  0.00    -0.030 C 
ATOM     19  C1  <0> d   1      17.302  -1.330   4.412  0.00  0.00     0.036 C 
ENDBRANCH  11  17
ENDBRANCH   1   5
BRANCH   2  20
ATOM     20  C17 <0> d   1      19.434   0.775  13.194  0.00  0.00     0.342 C 
BRANCH  20  21
ATOM     21  N19 <0> d   1      20.755   0.315  12.744  0.00  0.00     0.096 N 
ATOM     22  H37 <0> d   1      20.745   0.095  11.759  0.00  0.00     0.314 HD
ATOM     23  H38 <0> d   1      21.466   0.997  12.956  0.00  0.00     0.314 HD
ENDBRANCH  20  21
BRANCH  20  24
ATOM     24  C20 <0> d   1      19.282   0.497  14.668  0.00  0.00    -0.016 A 
ATOM     25  C26 <0> d   1      19.223   1.547  15.566  0.00  0.00     0.012 A 
ATOM     26  C25 <0> d   1      19.078   1.296  16.916  0.00  0.00     0.037 A 
ATOM     27  C23 <0> d   1      19.002  -0.012  17.372  0.00  0.00     0.065 A 
ATOM     28  C22 <0> d   1      19.066  -1.065  16.470  0.00  0.00     0.037 A 
ATOM     29  C21 <0> d   1      19.206  -0.807  15.121  0.00  0.00     0.012 A 
BRANCH  27  30
ATOM     30  O24 <0> d   1      18.865  -0.262  18.702  0.00  0.00    -0.361 OA
ATOM     31  H41 <0> d   1      18.129  -0.852  18.917  0.00  0.00     0.217 HD
ENDBRANCH  27  30
ENDBRANCH  20  24
ENDBRANCH   2  20
TORSDOF 7
ENDMDL
MODEL 3
REMARK VINA RESULT:      -7.8      5.501      8.616
REMARK  7 active torsions:
REMARK  status: ('A' for Active; 'I' for Inactive)
REMARK    1  A    between atoms: C3_3  and  C4_4 
REMARK    2  A    between atoms: C5_5  and  C6_6 
REMARK    3  A    between atoms: C12_12  and  N14_13 
REMARK       I    between atoms: N14_13  and  C15_14 
REMARK    4  A    between atoms: C15_14  and  C17_16 
REMARK    5  A    between atoms: C17_16  and  N19_17 
REMARK    6  A    between atoms: C17_16  and  C20_18 
REMARK    7  A    between atoms: C23_21  and  O24_22 
ROOT
ATOM      1  N14 <0> d   1      17.901  -2.591   5.487  0.00  0.00    -0.343 N 
ATOM      2  C15 <0> d   1      18.687  -1.607   5.005  0.00  0.00     0.256 C 
ATOM      3  O16 <0> d   1      19.708  -1.883   4.410  0.00  0.00    -0.271 OA
ATOM      4  H36 <0> d   1      17.085  -2.370   5.963  0.00  0.00     0.163 HD
ENDROOT
BRANCH   1   5
ATOM      5  C12 <0> d   1      18.280  -3.992   5.294  0.00  0.00     0.210 C 
ATOM      6  C10 <0> d   1      17.199  -4.987   5.646  0.00  0.00     0.251 C 
ATOM      7  N9  <0> d   1      17.679  -5.285   6.847  0.00  0.00    -0.293 N 
ATOM      8  O11 <0> d   1      16.224  -5.377   5.039  0.00  0.00    -0.271 OA
ATOM      9  C5  <0> d   1      17.320  -5.831   8.084  0.00  0.00     0.122 C 
ATOM     10  C27 <0> d   1      18.967  -4.628   6.489  0.00  0.00     0.187 C 
ATOM     11  C4  <0> d   1      18.007  -5.489   9.195  0.00  0.00    -0.015 C 
ATOM     12  C30 <0> d   1      19.211  -4.610   9.287  0.00  0.00     0.117 C 
ATOM     13  S29 <0> d   1      19.379  -3.489   7.852  0.00  0.00    -0.136 SA
BRANCH   9  14
ATOM     14  C6  <0> d   1      16.200  -6.769   8.174  0.00  0.00     0.227 C 
ATOM     15  O7  <0> d   1      15.060  -6.349   8.332  0.00  0.00    -0.643 OA
ATOM     16  O8  <0> d   1      16.402  -7.974   8.091  0.00  0.00    -0.643 OA
ENDBRANCH   9  14
BRANCH  11  17
ATOM     17  C3  <0> d   1      17.511  -6.040  10.455  0.00  0.00     0.006 C 
ATOM     18  C2  <0> d   1      17.157  -5.221  11.448  0.00  0.00    -0.030 C 
ATOM     19  C1  <0> d   1      17.147  -3.730  11.229  0.00  0.00     0.036 C 
ENDBRANCH  11  17
ENDBRANCH   1   5
BRANCH   2  20
ATOM     20  C17 <0> d   1      18.297  -0.166   5.204  0.00  0.00     0.342 C 
BRANCH  20  21
ATOM     21  N19 <0> d   1      19.264   0.703   4.520  0.00  0.00     0.096 N 
ATOM     22  H37 <0> d   1      20.151   0.236   4.403  0.00  0.00     0.314 HD
ATOM     23  H38 <0> d   1      18.902   1.018   3.633  0.00  0.00     0.314 HD
ENDBRANCH  20  21
BRANCH  20  24
ATOM     24  C20 <0> d   1      18.291   0.154   6.677  0.00  0.00    -0.016 A 
ATOM     25  C26 <0> d   1      19.283   0.955   7.213  0.00  0.00     0.012 A 
ATOM     26  C25 <0> d   1      19.278   1.255   8.562  0.00  0.00     0.037 A 
ATOM     27  C23 <0> d   1      18.281   0.744   9.380  0.00  0.00     0.065 A 
ATOM     28  C22 <0> d   1      17.289  -0.063   8.841  0.00  0.00     0.037 A 
ATOM     29  C21 <0> d   1      17.297  -0.355   7.491  0.00  0.00     0.012 A 
BRANCH  27  30
ATOM     30  O24 <0> d   1      18.276   1.034  10.708  0.00  0.00    -0.361 OA
ATOM     31  H41 <0> d   1      18.548   1.939  10.914  0.00  0.00     0.217 HD
ENDBRANCH  27  30
ENDBRANCH  20  24
ENDBRANCH   2  20
TORSDOF 7
ENDMDL
MODEL 4
REMARK VINA RESULT:      -7.8      3.395      4.403
REMARK  7 active torsions:
REMARK  status: ('A' for Active; 'I' for Inactive)
REMARK    1  A    between atoms: C3_3  and  C4_4 
REMARK    2  A    between atoms: C5_5  and  C6_6 
REMARK    3  A    between atoms: C12_12  and  N14_13 
REMARK       I    between atoms: N14_13  and  C15_14 
REMARK    4  A    between atoms: C15_14  and  C17_16 
REMARK    5  A    between atoms: C17_16  and  N19_17 
REMARK    6  A    between atoms: C17_16  and  C20_18 
REMARK    7  A    between atoms: C23_21  and  O24_22 
ROOT
ATOM      1  N14 <0> d   1      18.338  -1.653  12.070  0.00  0.00    -0.343 N 
ATOM      2  C15 <0> d   1      18.196  -2.914  11.613  0.00  0.00     0.256 C 
ATOM      3  O16 <0> d   1      17.087  -3.376  11.445  0.00  0.00    -0.271 OA
ATOM      4  H36 <0> d   1      19.225  -1.284  12.205  0.00  0.00     0.163 HD
ENDROOT
BRANCH   1   5
ATOM      5  C12 <0> d   1      17.154  -0.842  12.361  0.00  0.00     0.210 C 
ATOM      6  C10 <0> d   1      16.909   0.281  11.380  0.00  0.00     0.251 C 
ATOM      7  N9  <0> d   1      17.438   1.235  12.137  0.00  0.00    -0.293 N 
ATOM      8  O11 <0> d   1      16.403   0.303  10.278  0.00  0.00    -0.271 OA
ATOM      9  C5  <0> d   1      17.979   2.524  12.084  0.00  0.00     0.122 C 
ATOM     10  C27 <0> d   1      17.404   0.318  13.309  0.00  0.00     0.187 C 
ATOM     11  C4  <0> d   1      18.854   2.926  13.031  0.00  0.00    -0.015 C 
ATOM     12  C30 <0> d   1      19.301   2.168  14.238  0.00  0.00     0.117 C 
ATOM     13  S29 <0> d   1      19.062   0.364  14.068  0.00  0.00    -0.136 SA
BRANCH   9  14
ATOM     14  C6  <0> d   1      17.600   3.435  11.003  0.00  0.00     0.227 C 
ATOM     15  O7  <0> d   1      16.635   4.177  11.137  0.00  0.00    -0.643 OA
ATOM     16  O8  <0> d   1      18.247   3.456   9.963  0.00  0.00    -0.643 OA
ENDBRANCH   9  14
BRANCH  11  17
ATOM     17  C3  <0> d   1      19.433   4.256  12.851  0.00  0.00     0.006 C 
ATOM     18  C2  <0> d   1      18.959   5.290  13.549  0.00  0.00    -0.030 C 
ATOM     19  C1  <0> d   1      17.915   5.067  14.614  0.00  0.00     0.036 C 
ENDBRANCH  11  17
ENDBRANCH   1   5
BRANCH   2  20
ATOM     20  C17 <0> d   1      19.414  -3.748  11.314  0.00  0.00     0.342 C 
BRANCH  20  21
ATOM     21  N19 <0> d   1      20.623  -2.932  11.497  0.00  0.00     0.096 N 
ATOM     22  H37 <0> d   1      20.411  -2.075  11.985  0.00  0.00     0.314 HD
ATOM     23  H38 <0> d   1      21.341  -3.454  11.976  0.00  0.00     0.314 HD
ENDBRANCH  20  21
BRANCH  20  24
ATOM     24  C20 <0> d   1      19.351  -4.237   9.890  0.00  0.00    -0.016 A 
ATOM     25  C26 <0> d   1      19.164  -3.336   8.858  0.00  0.00     0.012 A 
ATOM     26  C25 <0> d   1      19.112  -3.780   7.551  0.00  0.00     0.037 A 
ATOM     27  C23 <0> d   1      19.237  -5.134   7.275  0.00  0.00     0.065 A 
ATOM     28  C22 <0> d   1      19.419  -6.037   8.312  0.00  0.00     0.037 A 
ATOM     29  C21 <0> d   1      19.476  -5.587   9.616  0.00  0.00     0.012 A 
BRANCH  27  30
ATOM     30  O24 <0> d   1      19.180  -5.574   5.990  0.00  0.00    -0.361 OA
ATOM     31  H41 <0> d   1      19.572  -6.448   5.857  0.00  0.00     0.217 HD
ENDBRANCH  27  30
ENDBRANCH  20  24
ENDBRANCH   2  20
TORSDOF 7
ENDMDL
MODEL 5
REMARK VINA RESULT:      -7.7      2.805      8.489
REMARK  7 active torsions:
REMARK  status: ('A' for Active; 'I' for Inactive)
REMARK    1  A    between atoms: C3_3  and  C4_4 
REMARK    2  A    between atoms: C5_5  and  C6_6 
REMARK    3  A    between atoms: C12_12  and  N14_13 
REMARK       I    between atoms: N14_13  and  C15_14 
REMARK    4  A    between atoms: C15_14  and  C17_16 
REMARK    5  A    between atoms: C17_16  and  N19_17 
REMARK    6  A    between atoms: C17_16  and  C20_18 
REMARK    7  A    between atoms: C23_21  and  O24_22 
ROOT
ATOM      1  N14 <0> d   1      18.420   1.492  10.850  0.00  0.00    -0.343 N 
ATOM      2  C15 <0> d   1      18.276   2.782  11.214  0.00  0.00     0.256 C 
ATOM      3  O16 <0> d   1      17.186   3.311  11.152  0.00  0.00    -0.271 OA
ATOM      4  H36 <0> d   1      19.292   1.069  10.899  0.00  0.00     0.163 HD
ENDROOT
BRANCH   1   5
ATOM      5  C12 <0> d   1      17.260   0.729  10.382  0.00  0.00     0.210 C 
ATOM      6  C10 <0> d   1      17.338  -0.755  10.653  0.00  0.00     0.251 C 
ATOM      7  N9  <0> d   1      17.736  -1.092   9.433  0.00  0.00    -0.293 N 
ATOM      8  O11 <0> d   1      17.115  -1.413  11.648  0.00  0.00    -0.271 OA
ATOM      9  C5  <0> d   1      18.364  -2.113   8.710  0.00  0.00     0.122 C 
ATOM     10  C27 <0> d   1      17.357   0.261   8.941  0.00  0.00     0.187 C 
ATOM     11  C4  <0> d   1      19.011  -1.823   7.562  0.00  0.00    -0.015 C 
ATOM     12  C30 <0> d   1      19.102  -0.499   6.875  0.00  0.00     0.117 C 
ATOM     13  S29 <0> d   1      18.783   0.904   8.003  0.00  0.00    -0.136 SA
BRANCH   9  14
ATOM     14  C6  <0> d   1      18.320  -3.491   9.199  0.00  0.00     0.227 C 
ATOM     15  O7  <0> d   1      17.415  -4.238   8.848  0.00  0.00    -0.643 OA
ATOM     16  O8  <0> d   1      19.189  -3.899   9.960  0.00  0.00    -0.643 OA
ENDBRANCH   9  14
BRANCH  11  17
ATOM     17  C3  <0> d   1      19.710  -2.934   6.916  0.00  0.00     0.006 C 
ATOM     18  C2  <0> d   1      19.231  -3.456   5.785  0.00  0.00    -0.030 C 
ATOM     19  C1  <0> d   1      18.045  -2.821   5.104  0.00  0.00     0.036 C 
ENDBRANCH  11  17
ENDBRANCH   1   5
BRANCH   2  20
ATOM     20  C17 <0> d   1      19.469   3.567  11.695  0.00  0.00     0.342 C 
BRANCH  20  21
ATOM     21  N19 <0> d   1      20.686   2.762  11.523  0.00  0.00     0.096 N 
ATOM     22  H37 <0> d   1      20.711   1.997  12.180  0.00  0.00     0.314 HD
ATOM     23  H38 <0> d   1      20.766   2.427  10.574  0.00  0.00     0.314 HD
ENDBRANCH  20  21
BRANCH  20  24
ATOM     24  C20 <0> d   1      19.293   3.904  13.153  0.00  0.00    -0.016 A 
ATOM     25  C26 <0> d   1      19.588   5.176  13.608  0.00  0.00     0.012 A 
ATOM     26  C25 <0> d   1      19.423   5.491  14.943  0.00  0.00     0.037 A 
ATOM     27  C23 <0> d   1      18.971   4.525  15.830  0.00  0.00     0.065 A 
ATOM     28  C22 <0> d   1      18.681   3.247  15.373  0.00  0.00     0.037 A 
ATOM     29  C21 <0> d   1      18.843   2.940  14.036  0.00  0.00     0.012 A 
BRANCH  27  30
ATOM     30  O24 <0> d   1      18.813   4.830  17.146  0.00  0.00    -0.361 OA
ATOM     31  H41 <0> d   1      17.890   4.884  17.428  0.00  0.00     0.217 HD
ENDBRANCH  27  30
ENDBRANCH  20  24
ENDBRANCH   2  20
TORSDOF 7
ENDMDL
MODEL 6
REMARK VINA RESULT:      -7.6      3.989      8.339
REMARK  7 active torsions:
REMARK  status: ('A' for Active; 'I' for Inactive)
REMARK    1  A    between atoms: C3_3  and  C4_4 
REMARK    2  A    between atoms: C5_5  and  C6_6 
REMARK    3  A    between atoms: C12_12  and  N14_13 
REMARK       I    between atoms: N14_13  and  C15_14 
REMARK    4  A    between atoms: C15_14  and  C17_16 
REMARK    5  A    between atoms: C17_16  and  N19_17 
REMARK    6  A    between atoms: C17_16  and  C20_18 
REMARK    7  A    between atoms: C23_21  and  O24_22 
ROOT
ATOM      1  N14 <0> d   1      19.436  -1.493  11.490  0.00  0.00    -0.343 N 
ATOM      2  C15 <0> d   1      19.040  -0.382  12.143  0.00  0.00     0.256 C 
ATOM      3  O16 <0> d   1      17.948  -0.344  12.670  0.00  0.00    -0.271 OA
ATOM      4  H36 <0> d   1      20.309  -1.522  11.069  0.00  0.00     0.163 HD
ENDROOT
BRANCH   1   5
ATOM      5  C12 <0> d   1      18.547  -2.654  11.417  0.00  0.00     0.210 C 
ATOM      6  C10 <0> d   1      19.232  -3.941  11.020  0.00  0.00     0.251 C 
ATOM      7  N9  <0> d   1      18.867  -3.897   9.744  0.00  0.00    -0.293 N 
ATOM      8  O11 <0> d   1      19.892  -4.740  11.651  0.00  0.00    -0.271 OA
ATOM      9  C5  <0> d   1      19.189  -4.398   8.478  0.00  0.00     0.122 C 
ATOM     10  C27 <0> d   1      17.869  -2.842  10.071  0.00  0.00     0.187 C 
ATOM     11  C4  <0> d   1      18.853  -3.698   7.373  0.00  0.00    -0.015 C 
ATOM     12  C30 <0> d   1      18.081  -2.421   7.303  0.00  0.00     0.117 C 
ATOM     13  S29 <0> d   1      18.115  -1.488   8.875  0.00  0.00    -0.136 SA
BRANCH   9  14
ATOM     14  C6  <0> d   1      19.889  -5.677   8.351  0.00  0.00     0.227 C 
ATOM     15  O7  <0> d   1      21.100  -5.697   8.171  0.00  0.00    -0.643 OA
ATOM     16  O8  <0> d   1      19.264  -6.727   8.424  0.00  0.00    -0.643 OA
ENDBRANCH   9  14
BRANCH  11  17
ATOM     17  C3  <0> d   1      19.301  -4.253   6.097  0.00  0.00     0.006 C 
ATOM     18  C2  <0> d   1      18.494  -5.053   5.397  0.00  0.00    -0.030 C 
ATOM     19  C1  <0> d   1      17.077  -5.283   5.856  0.00  0.00     0.036 C 
ENDBRANCH  11  17
ENDBRANCH   1   5
BRANCH   2  20
ATOM     20  C17 <0> d   1      19.955   0.813  12.218  0.00  0.00     0.342 C 
BRANCH  20  21
ATOM     21  N19 <0> d   1      20.221   1.138  13.627  0.00  0.00     0.096 N 
ATOM     22  H37 <0> d   1      21.152   0.858  13.894  0.00  0.00     0.314 HD
ATOM     23  H38 <0> d   1      20.073   2.120  13.805  0.00  0.00     0.314 HD
ENDBRANCH  20  21
BRANCH  20  24
ATOM     24  C20 <0> d   1      19.298   1.992  11.548  0.00  0.00    -0.016 A 
ATOM     25  C26 <0> d   1      19.116   1.994  10.177  0.00  0.00     0.012 A 
ATOM     26  C25 <0> d   1      18.509   3.070   9.560  0.00  0.00     0.037 A 
ATOM     27  C23 <0> d   1      18.090   4.156  10.316  0.00  0.00     0.065 A 
ATOM     28  C22 <0> d   1      18.278   4.154  11.691  0.00  0.00     0.037 A 
ATOM     29  C21 <0> d   1      18.881   3.073  12.303  0.00  0.00     0.012 A 
BRANCH  27  30
ATOM     30  O24 <0> d   1      17.498   5.219   9.710  0.00  0.00    -0.361 OA
ATOM     31  H41 <0> d   1      18.001   6.041   9.780  0.00  0.00     0.217 HD
ENDBRANCH  27  30
ENDBRANCH  20  24
ENDBRANCH   2  20
TORSDOF 7
ENDMDL
MODEL 7
REMARK VINA RESULT:      -7.5      2.456      3.070
REMARK  7 active torsions:
REMARK  status: ('A' for Active; 'I' for Inactive)
REMARK    1  A    between atoms: C3_3  and  C4_4 
REMARK    2  A    between atoms: C5_5  and  C6_6 
REMARK    3  A    between atoms: C12_12  and  N14_13 
REMARK       I    between atoms: N14_13  and  C15_14 
REMARK    4  A    between atoms: C15_14  and  C17_16 
REMARK    5  A    between atoms: C17_16  and  N19_17 
REMARK    6  A    between atoms: C17_16  and  C20_18 
REMARK    7  A    between atoms: C23_21  and  O24_22 
ROOT
ATOM      1  N14 <0> d   1      18.946   0.164  11.373  0.00  0.00    -0.343 N 
ATOM      2  C15 <0> d   1      19.221   0.284  10.059  0.00  0.00     0.256 C 
ATOM      3  O16 <0> d   1      20.368   0.215   9.671  0.00  0.00    -0.271 OA
ATOM      4  H36 <0> d   1      18.028   0.221  11.683  0.00  0.00     0.163 HD
ENDROOT
BRANCH   1   5
ATOM      5  C12 <0> d   1      20.032  -0.050  12.332  0.00  0.00     0.210 C 
ATOM      6  C10 <0> d   1      19.766  -1.139  13.344  0.00  0.00     0.251 C 
ATOM      7  N9  <0> d   1      19.399  -0.323  14.324  0.00  0.00    -0.293 N 
ATOM      8  O11 <0> d   1      19.854  -2.348  13.282  0.00  0.00    -0.271 OA
ATOM      9  C5  <0> d   1      18.698  -0.282  15.534  0.00  0.00     0.122 C 
ATOM     10  C27 <0> d   1      19.961   0.830  13.568  0.00  0.00     0.187 C 
ATOM     11  C4  <0> d   1      18.154   0.879  15.957  0.00  0.00    -0.015 C 
ATOM     12  C30 <0> d   1      18.258   2.223  15.313  0.00  0.00     0.117 C 
ATOM     13  S29 <0> d   1      18.676   2.123  13.535  0.00  0.00    -0.136 SA
BRANCH   9  14
ATOM     14  C6  <0> d   1      18.552  -1.496  16.338  0.00  0.00     0.227 C 
ATOM     15  O7  <0> d   1      19.485  -1.890  17.027  0.00  0.00    -0.643 OA
ATOM     16  O8  <0> d   1      17.497  -2.117  16.324  0.00  0.00    -0.643 OA
ENDBRANCH   9  14
BRANCH  11  17
ATOM     17  C3  <0> d   1      17.367   0.812  17.188  0.00  0.00     0.006 C 
ATOM     18  C2  <0> d   1      17.909   1.191  18.348  0.00  0.00    -0.030 C 
ATOM     19  C1  <0> d   1      19.285   1.806  18.372  0.00  0.00     0.036 C 
ENDBRANCH  11  17
ENDBRANCH   1   5
BRANCH   2  20
ATOM     20  C17 <0> d   1      18.104   0.505   9.072  0.00  0.00     0.342 C 
BRANCH  20  21
ATOM     21  N19 <0> d   1      16.888  -0.168   9.552  0.00  0.00     0.096 N 
ATOM     22  H37 <0> d   1      16.937  -1.162   9.391  0.00  0.00     0.314 HD
ATOM     23  H38 <0> d   1      16.724   0.034  10.526  0.00  0.00     0.314 HD
ENDBRANCH  20  21
BRANCH  20  24
ATOM     24  C20 <0> d   1      18.495  -0.064   7.733  0.00  0.00    -0.016 A 
ATOM     25  C26 <0> d   1      18.794   0.785   6.683  0.00  0.00     0.012 A 
ATOM     26  C25 <0> d   1      19.159   0.268   5.455  0.00  0.00     0.037 A 
ATOM     27  C23 <0> d   1      19.216  -1.106   5.274  0.00  0.00     0.065 A 
ATOM     28  C22 <0> d   1      18.912  -1.957   6.327  0.00  0.00     0.037 A 
ATOM     29  C21 <0> d   1      18.552  -1.433   7.553  0.00  0.00     0.012 A 
BRANCH  27  30
ATOM     30  O24 <0> d   1      19.570  -1.618   4.065  0.00  0.00    -0.361 OA
ATOM     31  H41 <0> d   1      20.235  -2.318   4.114  0.00  0.00     0.217 HD
ENDBRANCH  27  30
ENDBRANCH  20  24
ENDBRANCH   2  20
TORSDOF 7
ENDMDL
MODEL 8
REMARK VINA RESULT:      -7.5      2.319      8.423
REMARK  7 active torsions:
REMARK  status: ('A' for Active; 'I' for Inactive)
REMARK    1  A    between atoms: C3_3  and  C4_4 
REMARK    2  A    between atoms: C5_5  and  C6_6 
REMARK    3  A    between atoms: C12_12  and  N14_13 
REMARK       I    between atoms: N14_13  and  C15_14 
REMARK    4  A    between atoms: C15_14  and  C17_16 
REMARK    5  A    between atoms: C17_16  and  N19_17 
REMARK    6  A    between atoms: C17_16  and  C20_18 
REMARK    7  A    between atoms: C23_21  and  O24_22 
ROOT
ATOM      1  N14 <0> d   1      19.113   0.579  12.237  0.00  0.00    -0.343 N 
ATOM      2  C15 <0> d   1      19.054   1.875  12.607  0.00  0.00     0.256 C 
ATOM      3  O16 <0> d   1      19.892   2.657  12.210  0.00  0.00    -0.271 OA
ATOM      4  H36 <0> d   1      18.443  -0.046  12.555  0.00  0.00     0.163 HD
ENDROOT
BRANCH   1   5
ATOM      5  C12 <0> d   1      20.189   0.118  11.357  0.00  0.00     0.210 C 
ATOM      6  C10 <0> d   1      19.822   0.070   9.893  0.00  0.00     0.251 C 
ATOM      7  N9  <0> d   1      19.576  -1.234   9.860  0.00  0.00    -0.293 N 
ATOM      8  O11 <0> d   1      19.767   0.931   9.039  0.00  0.00    -0.271 OA
ATOM      9  C5  <0> d   1      18.912  -2.222   9.125  0.00  0.00     0.122 C 
ATOM     10  C27 <0> d   1      20.251  -1.389  11.178  0.00  0.00     0.187 C 
ATOM     11  C4  <0> d   1      18.518  -3.361   9.733  0.00  0.00    -0.015 C 
ATOM     12  C30 <0> d   1      18.763  -3.771  11.149  0.00  0.00     0.117 C 
ATOM     13  S29 <0> d   1      19.124  -2.350  12.242  0.00  0.00    -0.136 SA
BRANCH   9  14
ATOM     14  C6  <0> d   1      18.645  -2.021   7.700  0.00  0.00     0.227 C 
ATOM     15  O7  <0> d   1      17.657  -1.390   7.346  0.00  0.00    -0.643 OA
ATOM     16  O8  <0> d   1      19.408  -2.483   6.862  0.00  0.00    -0.643 OA
ENDBRANCH   9  14
BRANCH  11  17
ATOM     17  C3  <0> d   1      17.758  -4.301   8.911  0.00  0.00     0.006 C 
ATOM     18  C2  <0> d   1      18.350  -5.396   8.429  0.00  0.00    -0.030 C 
ATOM     19  C1  <0> d   1      19.763  -5.731   8.836  0.00  0.00     0.036 C 
ENDBRANCH  11  17
ENDBRANCH   1   5
BRANCH   2  20
ATOM     20  C17 <0> d   1      17.947   2.350  13.512  0.00  0.00     0.342 C 
BRANCH  20  21
ATOM     21  N19 <0> d   1      17.636   3.754  13.209  0.00  0.00     0.096 N 
ATOM     22  H37 <0> d   1      18.448   4.340  13.333  0.00  0.00     0.314 HD
ATOM     23  H38 <0> d   1      17.260   3.848  12.278  0.00  0.00     0.314 HD
ENDBRANCH  20  21
BRANCH  20  24
ATOM     24  C20 <0> d   1      18.387   2.233  14.948  0.00  0.00    -0.016 A 
ATOM     25  C26 <0> d   1      18.154   1.063  15.649  0.00  0.00     0.012 A 
ATOM     26  C25 <0> d   1      18.561   0.951  16.964  0.00  0.00     0.037 A 
ATOM     27  C23 <0> d   1      19.196   2.016  17.585  0.00  0.00     0.065 A 
ATOM     28  C22 <0> d   1      19.425   3.190  16.882  0.00  0.00     0.037 A 
ATOM     29  C21 <0> d   1      19.020   3.295  15.566  0.00  0.00     0.012 A 
BRANCH  27  30
ATOM     30  O24 <0> d   1      19.593   1.910  18.881  0.00  0.00    -0.361 OA
ATOM     31  H41 <0> d   1      20.218   1.190  19.043  0.00  0.00     0.217 HD
ENDBRANCH  27  30
ENDBRANCH  20  24
ENDBRANCH   2  20
TORSDOF 7
ENDMDL
MODEL 9
REMARK VINA RESULT:      -7.4      3.617      8.389
REMARK  7 active torsions:
REMARK  status: ('A' for Active; 'I' for Inactive)
REMARK    1  A    between atoms: C3_3  and  C4_4 
REMARK    2  A    between atoms: C5_5  and  C6_6 
REMARK    3  A    between atoms: C12_12  and  N14_13 
REMARK       I    between atoms: N14_13  and  C15_14 
REMARK    4  A    between atoms: C15_14  and  C17_16 
REMARK    5  A    between atoms: C17_16  and  N19_17 
REMARK    6  A    between atoms: C17_16  and  C20_18 
REMARK    7  A    between atoms: C23_21  and  O24_22 
ROOT
ATOM      1  N14 <0> d   1      19.158  -0.839  10.870  0.00  0.00    -0.343 N 
ATOM      2  C15 <0> d   1      18.993  -0.181  12.035  0.00  0.00     0.256 C 
ATOM      3  O16 <0> d   1      18.155  -0.557  12.829  0.00  0.00    -0.271 OA
ATOM      4  H36 <0> d   1      19.828  -0.538  10.235  0.00  0.00     0.163 HD
ENDROOT
BRANCH   1   5
ATOM      5  C12 <0> d   1      18.328  -2.005  10.562  0.00  0.00     0.210 C 
ATOM      6  C10 <0> d   1      18.985  -3.019   9.654  0.00  0.00     0.251 C 
ATOM      7  N9  <0> d   1      18.383  -2.612   8.544  0.00  0.00    -0.293 N 
ATOM      8  O11 <0> d   1      19.791  -3.900   9.868  0.00  0.00    -0.271 OA
ATOM      9  C5  <0> d   1      18.481  -2.647   7.149  0.00  0.00     0.122 C 
ATOM     10  C27 <0> d   1      17.416  -1.828   9.361  0.00  0.00     0.187 C 
ATOM     11  C4  <0> d   1      17.908  -1.673   6.410  0.00  0.00    -0.015 C 
ATOM     12  C30 <0> d   1      17.077  -0.530   6.894  0.00  0.00     0.117 C 
ATOM     13  S29 <0> d   1      17.365  -0.146   8.658  0.00  0.00    -0.136 SA
BRANCH   9  14
ATOM     14  C6  <0> d   1      19.204  -3.737   6.492  0.00  0.00     0.227 C 
ATOM     15  O7  <0> d   1      20.392  -3.609   6.223  0.00  0.00    -0.643 OA
ATOM     16  O8  <0> d   1      18.622  -4.777   6.211  0.00  0.00    -0.643 OA
ENDBRANCH   9  14
BRANCH  11  17
ATOM     17  C3  <0> d   1      18.131  -1.743   4.966  0.00  0.00     0.006 C 
ATOM     18  C2  <0> d   1      18.850  -0.798   4.355  0.00  0.00    -0.030 C 
ATOM     19  C1  <0> d   1      19.537   0.269   5.167  0.00  0.00     0.036 C 
ENDBRANCH  11  17
ENDBRANCH   1   5
BRANCH   2  20
ATOM     20  C17 <0> d   1      19.846   1.019  12.351  0.00  0.00     0.342 C 
BRANCH  20  21
ATOM     21  N19 <0> d   1      20.003   1.139  13.807  0.00  0.00     0.096 N 
ATOM     22  H37 <0> d   1      19.591   0.349  14.282  0.00  0.00     0.314 HD
ATOM     23  H38 <0> d   1      20.974   1.247  14.058  0.00  0.00     0.314 HD
ENDBRANCH  20  21
BRANCH  20  24
ATOM     24  C20 <0> d   1      19.185   2.262  11.814  0.00  0.00    -0.016 A 
ATOM     25  C26 <0> d   1      18.666   3.200  12.688  0.00  0.00     0.012 A 
ATOM     26  C25 <0> d   1      18.064   4.343  12.199  0.00  0.00     0.037 A 
ATOM     27  C23 <0> d   1      17.972   4.545  10.830  0.00  0.00     0.065 A 
ATOM     28  C22 <0> d   1      18.490   3.601   9.955  0.00  0.00     0.037 A 
ATOM     29  C21 <0> d   1      19.094   2.462  10.449  0.00  0.00     0.012 A 
BRANCH  27  30
ATOM     30  O24 <0> d   1      17.375   5.667  10.347  0.00  0.00    -0.361 OA
ATOM     31  H41 <0> d   1      17.941   6.451  10.363  0.00  0.00     0.217 HD
ENDBRANCH  27  30
ENDBRANCH  20  24
ENDBRANCH   2  20
TORSDOF 7
ENDMDL
