MODEL 1
REMARK VINA RESULT:      -3.9      0.000      0.000
REMARK  7 active torsions:
REMARK  status: ('A' for Active; 'I' for Inactive)
REMARK    1  A    between atoms: N1_1  and  C2_2 
REMARK    2  A    between atoms: C2_2  and  C3_3 
REMARK    3  A    between atoms: C2_2  and  C5_5 
REMARK    4  A    between atoms: C2_2  and  C7_7 
REMARK    5  A    between atoms: C3_3  and  O4_4 
REMARK    6  A    between atoms: C5_5  and  O6_6 
REMARK    7  A    between atoms: C7_7  and  O8_8 
ROOT
ATOM      1  C2  RES d   1      20.289   0.517  12.280  0.00  0.00     0.217 C 
ENDROOT
BRANCH   1   2
ATOM      2  N1  RES d   1      21.752   0.621  12.195  0.00  0.00     0.094 N 
ATOM      3  H9  RES d   1      22.046   0.814  11.249  0.00  0.00     0.314 HD
ATOM      4  H10 RES d   1      22.102   1.320  12.832  0.00  0.00     0.314 HD
ENDBRANCH   1   2
BRANCH   1   5
ATOM      5  C3  RES d   1      19.659   1.855  11.886  0.00  0.00     0.210 C 
BRANCH   5   6
ATOM      6  O4  RES d   1      20.690   2.823  11.678  0.00  0.00    -0.398 OA
ATOM      7  H13 RES d   1      21.320   2.889  12.409  0.00  0.00     0.209 HD
ENDBRANCH   5   6
ENDBRANCH   1   5
BRANCH   1   8
ATOM      8  C5  RES d   1      19.799  -0.578  11.331  0.00  0.00     0.210 C 
BRANCH   8   9
ATOM      9  O6  RES d   1      20.871  -1.481  11.052  0.00  0.00    -0.398 OA
ATOM     10  H16 RES d   1      21.665  -1.323  11.582  0.00  0.00     0.209 HD
ENDBRANCH   8   9
ENDBRANCH   1   8
BRANCH   1  11
ATOM     11  C7  RES d   1      19.886   0.167  13.714  0.00  0.00     0.210 C 
BRANCH  11  12
ATOM     12  O8  RES d   1      20.090  -1.229  13.939  0.00  0.00    -0.398 OA
ATOM     13  H19 RES d   1      19.505  -1.801  13.421  0.00  0.00     0.209 HD
ENDBRANCH  11  12
ENDBRANCH   1  11
TORSDOF 7
ENDMDL
MODEL 2
REMARK VINA RESULT:      -3.9      0.019      2.925
REMARK  7 active torsions:
REMARK  status: ('A' for Active; 'I' for Inactive)
REMARK    1  A    between atoms: N1_1  and  C2_2 
REMARK    2  A    between atoms: C2_2  and  C3_3 
REMARK    3  A    between atoms: C2_2  and  C5_5 
REMARK    4  A    between atoms: C2_2  and  C7_7 
REMARK    5  A    between atoms: C3_3  and  O4_4 
REMARK    6  A    between atoms: C5_5  and  O6_6 
REMARK    7  A    between atoms: C7_7  and  O8_8 
ROOT
ATOM      1  C2  RES d   1      20.291   0.517  12.265  0.00  0.00     0.217 C 
ENDROOT
BRANCH   1   2
ATOM      2  N1  RES d   1      21.755   0.623  12.193  0.00  0.00     0.094 N 
ATOM      3  H9  RES d   1      22.034   1.506  11.792  0.00  0.00     0.314 HD
ATOM      4  H10 RES d   1      22.172   0.491  13.102  0.00  0.00     0.314 HD
ENDBRANCH   1   2
BRANCH   1   5
ATOM      5  C3  RES d   1      19.812  -0.575  11.307  0.00  0.00     0.210 C 
BRANCH   5   6
ATOM      6  O4  RES d   1      20.885  -1.481  11.043  0.00  0.00    -0.398 OA
ATOM      7  H13 RES d   1      21.223  -1.437  10.137  0.00  0.00     0.209 HD
ENDBRANCH   5   6
ENDBRANCH   1   5
BRANCH   1   8
ATOM      8  C5  RES d   1      19.876   0.162  13.694  0.00  0.00     0.210 C 
BRANCH   8   9
ATOM      9  O6  RES d   1      20.083  -1.235  13.916  0.00  0.00    -0.398 OA
ATOM     10  H16 RES d   1      21.004  -1.515  13.824  0.00  0.00     0.209 HD
ENDBRANCH   8   9
ENDBRANCH   1   8
BRANCH   1  11
ATOM     11  C7  RES d   1      19.663   1.855  11.869  0.00  0.00     0.210 C 
BRANCH  11  12
ATOM     12  O8  RES d   1      20.693   2.828  11.683  0.00  0.00    -0.398 OA
ATOM     13  H19 RES d   1      20.616   3.598  12.264  0.00  0.00     0.209 HD
ENDBRANCH  11  12
ENDBRANCH   1  11
TORSDOF 7
ENDMDL
MODEL 3
REMARK VINA RESULT:      -3.9      0.032      2.921
REMARK  7 active torsions:
REMARK  status: ('A' for Active; 'I' for Inactive)
REMARK    1  A    between atoms: N1_1  and  C2_2 
REMARK    2  A    between atoms: C2_2  and  C3_3 
REMARK    3  A    between atoms: C2_2  and  C5_5 
REMARK    4  A    between atoms: C2_2  and  C7_7 
REMARK    5  A    between atoms: C3_3  and  O4_4 
REMARK    6  A    between atoms: C5_5  and  O6_6 
REMARK    7  A    between atoms: C7_7  and  O8_8 
ROOT
ATOM      1  C2  RES d   1      20.282   0.531  12.257  0.00  0.00     0.217 C 
ENDROOT
BRANCH   1   2
ATOM      2  N1  RES d   1      21.747   0.623  12.179  0.00  0.00     0.094 N 
ATOM      3  H9  RES d   1      22.079   1.474  12.606  0.00  0.00     0.314 HD
ATOM      4  H10 RES d   1      22.182  -0.185  12.598  0.00  0.00     0.314 HD
ENDBRANCH   1   2
BRANCH   1   5
ATOM      5  C3  RES d   1      19.868   0.197  13.691  0.00  0.00     0.210 C 
BRANCH   5   6
ATOM      6  O4  RES d   1      20.085  -1.193  13.937  0.00  0.00    -0.398 OA
ATOM      7  H13 RES d   1      20.868  -1.554  13.497  0.00  0.00     0.209 HD
ENDBRANCH   5   6
ENDBRANCH   1   5
BRANCH   1   8
ATOM      8  C5  RES d   1      19.666   1.870  11.845  0.00  0.00     0.210 C 
BRANCH   8   9
ATOM      9  O6  RES d   1      20.700   2.843  11.691  0.00  0.00    -0.398 OA
ATOM     10  H16 RES d   1      21.455   2.711  12.282  0.00  0.00     0.209 HD
ENDBRANCH   8   9
ENDBRANCH   1   8
BRANCH   1  11
ATOM     11  C7  RES d   1      19.790  -0.569  11.314  0.00  0.00     0.210 C 
BRANCH  11  12
ATOM     12  O8  RES d   1      20.850  -1.493  11.066  0.00  0.00    -0.398 OA
ATOM     13  H19 RES d   1      20.986  -1.694  10.129  0.00  0.00     0.209 HD
ENDBRANCH  11  12
ENDBRANCH   1  11
TORSDOF 7
ENDMDL
MODEL 4
REMARK VINA RESULT:      -3.9      1.708      2.188
REMARK  7 active torsions:
REMARK  status: ('A' for Active; 'I' for Inactive)
REMARK    1  A    between atoms: N1_1  and  C2_2 
REMARK    2  A    between atoms: C2_2  and  C3_3 
REMARK    3  A    between atoms: C2_2  and  C5_5 
REMARK    4  A    between atoms: C2_2  and  C7_7 
REMARK    5  A    between atoms: C3_3  and  O4_4 
REMARK    6  A    between atoms: C5_5  and  O6_6 
REMARK    7  A    between atoms: C7_7  and  O8_8 
ROOT
ATOM      1  C2  RES d   1      20.267  -0.518  10.897  0.00  0.00     0.217 C 
ENDROOT
BRANCH   1   2
ATOM      2  N1  RES d   1      21.734  -0.585  10.918  0.00  0.00     0.094 N 
ATOM      3  H9  RES d   1      22.120   0.128  11.518  0.00  0.00     0.314 HD
ATOM      4  H10 RES d   1      22.050  -1.502  11.196  0.00  0.00     0.314 HD
ENDBRANCH   1   2
BRANCH   1   5
ATOM      5  C3  RES d   1      19.798   0.652  11.764  0.00  0.00     0.210 C 
BRANCH   5   6
ATOM      6  O4  RES d   1      20.896   1.534  12.007  0.00  0.00    -0.398 OA
ATOM      7  H13 RES d   1      20.670   2.305  12.545  0.00  0.00     0.209 HD
ENDBRANCH   5   6
ENDBRANCH   1   5
BRANCH   1   8
ATOM      8  C5  RES d   1      19.786  -0.314   9.459  0.00  0.00     0.210 C 
BRANCH   8   9
ATOM      9  O6  RES d   1      19.884  -1.548   8.746  0.00  0.00    -0.398 OA
ATOM     10  H16 RES d   1      19.311  -2.248   9.089  0.00  0.00     0.209 HD
ENDBRANCH   8   9
ENDBRANCH   1   8
BRANCH   1  11
ATOM     11  C7  RES d   1      19.690  -1.824  11.448  0.00  0.00     0.210 C 
BRANCH  11  12
ATOM     12  O8  RES d   1      20.654  -2.868  11.307  0.00  0.00    -0.398 OA
ATOM     13  H19 RES d   1      21.339  -2.867  11.991  0.00  0.00     0.209 HD
ENDBRANCH  11  12
ENDBRANCH   1  11
TORSDOF 7
ENDMDL
MODEL 5
REMARK VINA RESULT:      -3.8      2.020      2.934
REMARK  7 active torsions:
REMARK  status: ('A' for Active; 'I' for Inactive)
REMARK    1  A    between atoms: N1_1  and  C2_2 
REMARK    2  A    between atoms: C2_2  and  C3_3 
REMARK    3  A    between atoms: C2_2  and  C5_5 
REMARK    4  A    between atoms: C2_2  and  C7_7 
REMARK    5  A    between atoms: C3_3  and  O4_4 
REMARK    6  A    between atoms: C5_5  and  O6_6 
REMARK    7  A    between atoms: C7_7  and  O8_8 
ROOT
ATOM      1  C2  RES d   1      19.449   0.097  11.543  0.00  0.00     0.217 C 
ENDROOT
BRANCH   1   2
ATOM      2  N1  RES d   1      18.266  -0.510  12.168  0.00  0.00     0.094 N 
ATOM      3  H9  RES d   1      18.532  -1.136  12.913  0.00  0.00     0.314 HD
ATOM      4  H10 RES d   1      17.630   0.198  12.500  0.00  0.00     0.314 HD
ENDBRANCH   1   2
BRANCH   1   5
ATOM      5  C3  RES d   1      20.206  -0.966  10.745  0.00  0.00     0.210 C 
BRANCH   5   6
ATOM      6  O4  RES d   1      20.868  -0.349   9.639  0.00  0.00    -0.398 OA
ATOM      7  H13 RES d   1      21.033  -0.946   8.896  0.00  0.00     0.209 HD
ENDBRANCH   5   6
ENDBRANCH   1   5
BRANCH   1   8
ATOM      8  C5  RES d   1      19.009   1.223  10.605  0.00  0.00     0.210 C 
BRANCH   8   9
ATOM      9  O6  RES d   1      19.985   2.266  10.624  0.00  0.00    -0.398 OA
ATOM     10  H16 RES d   1      20.875   1.968  10.859  0.00  0.00     0.209 HD
ENDBRANCH   8   9
ENDBRANCH   1   8
BRANCH   1  11
ATOM     11  C7  RES d   1      20.363   0.666  12.630  0.00  0.00     0.210 C 
BRANCH  11  12
ATOM     12  O8  RES d   1      21.720   0.613  12.187  0.00  0.00    -0.398 OA
ATOM     13  H19 RES d   1      21.923  -0.153  11.630  0.00  0.00     0.209 HD
ENDBRANCH  11  12
ENDBRANCH   1  11
TORSDOF 7
ENDMDL
MODEL 6
REMARK VINA RESULT:      -3.8      1.646      3.666
REMARK  7 active torsions:
REMARK  status: ('A' for Active; 'I' for Inactive)
REMARK    1  A    between atoms: N1_1  and  C2_2 
REMARK    2  A    between atoms: C2_2  and  C3_3 
REMARK    3  A    between atoms: C2_2  and  C5_5 
REMARK    4  A    between atoms: C2_2  and  C7_7 
REMARK    5  A    between atoms: C3_3  and  O4_4 
REMARK    6  A    between atoms: C5_5  and  O6_6 
REMARK    7  A    between atoms: C7_7  and  O8_8 
ROOT
ATOM      1  C2  RES d   1      20.215  -0.554  11.129  0.00  0.00     0.217 C 
ENDROOT
BRANCH   1   2
ATOM      2  N1  RES d   1      21.654  -0.636  10.843  0.00  0.00     0.094 N 
ATOM      3  H9  RES d   1      22.029  -1.528  11.131  0.00  0.00     0.314 HD
ATOM      4  H10 RES d   1      21.839  -0.464   9.867  0.00  0.00     0.314 HD
ENDBRANCH   1   2
BRANCH   1   5
ATOM      5  C3  RES d   1      19.711  -1.918  11.603  0.00  0.00     0.210 C 
BRANCH   5   6
ATOM      6  O4  RES d   1      20.727  -2.901  11.391  0.00  0.00    -0.398 OA
ATOM      7  H13 RES d   1      21.628  -2.565  11.498  0.00  0.00     0.209 HD
ENDBRANCH   5   6
ENDBRANCH   1   5
BRANCH   1   8
ATOM      8  C5  RES d   1      19.971   0.489  12.222  0.00  0.00     0.210 C 
BRANCH   8   9
ATOM      9  O6  RES d   1      20.864   1.589  12.037  0.00  0.00    -0.398 OA
ATOM     10  H16 RES d   1      21.422   1.775  12.805  0.00  0.00     0.209 HD
ENDBRANCH   8   9
ENDBRANCH   1   8
BRANCH   1  11
ATOM     11  C7  RES d   1      19.466  -0.146   9.858  0.00  0.00     0.210 C 
BRANCH  11  12
ATOM     12  O8  RES d   1      20.170   0.915   9.211  0.00  0.00    -0.398 OA
ATOM     13  H19 RES d   1      20.268   1.711   9.752  0.00  0.00     0.209 HD
ENDBRANCH  11  12
ENDBRANCH   1  11
TORSDOF 7
ENDMDL
MODEL 7
REMARK VINA RESULT:      -3.8      1.755      2.775
REMARK  7 active torsions:
REMARK  status: ('A' for Active; 'I' for Inactive)
REMARK    1  A    between atoms: N1_1  and  C2_2 
REMARK    2  A    between atoms: C2_2  and  C3_3 
REMARK    3  A    between atoms: C2_2  and  C5_5 
REMARK    4  A    between atoms: C2_2  and  C7_7 
REMARK    5  A    between atoms: C3_3  and  O4_4 
REMARK    6  A    between atoms: C5_5  and  O6_6 
REMARK    7  A    between atoms: C7_7  and  O8_8 
ROOT
ATOM      1  C2  RES d   1      19.453  -0.252  11.856  0.00  0.00     0.217 C 
ENDROOT
BRANCH   1   2
ATOM      2  N1  RES d   1      18.213   0.361  11.363  0.00  0.00     0.094 N 
ATOM      3  H9  RES d   1      18.148   1.326  11.651  0.00  0.00     0.314 HD
ATOM      4  H10 RES d   1      18.142   0.277  10.361  0.00  0.00     0.314 HD
ENDBRANCH   1   2
BRANCH   1   5
ATOM      5  C3  RES d   1      20.212  -0.879  10.685  0.00  0.00     0.210 C 
BRANCH   5   6
ATOM      6  O4  RES d   1      20.881  -2.061  11.130  0.00  0.00    -0.398 OA
ATOM      7  H13 RES d   1      21.702  -1.891  11.614  0.00  0.00     0.209 HD
ENDBRANCH   5   6
ENDBRANCH   1   5
BRANCH   1   8
ATOM      8  C5  RES d   1      20.325   0.819  12.515  0.00  0.00     0.210 C 
BRANCH   8   9
ATOM      9  O6  RES d   1      21.694   0.596  12.170  0.00  0.00    -0.398 OA
ATOM     10  H16 RES d   1      22.260   0.387  12.926  0.00  0.00     0.209 HD
ENDBRANCH   8   9
ENDBRANCH   1   8
BRANCH   1  11
ATOM     11  C7  RES d   1      19.113  -1.335  12.883  0.00  0.00     0.210 C 
BRANCH  11  12
ATOM     12  O8  RES d   1      20.111  -1.353  13.905  0.00  0.00    -0.398 OA
ATOM     13  H19 RES d   1      20.497  -0.486  14.094  0.00  0.00     0.209 HD
ENDBRANCH  11  12
ENDBRANCH   1  11
TORSDOF 7
ENDMDL
MODEL 8
REMARK VINA RESULT:      -3.8      1.768      2.639
REMARK  7 active torsions:
REMARK  status: ('A' for Active; 'I' for Inactive)
REMARK    1  A    between atoms: N1_1  and  C2_2 
REMARK    2  A    between atoms: C2_2  and  C3_3 
REMARK    3  A    between atoms: C2_2  and  C5_5 
REMARK    4  A    between atoms: C2_2  and  C7_7 
REMARK    5  A    between atoms: C3_3  and  O4_4 
REMARK    6  A    between atoms: C5_5  and  O6_6 
REMARK    7  A    between atoms: C7_7  and  O8_8 
ROOT
ATOM      1  C2  RES d   1      19.433  -0.350  11.960  0.00  0.00     0.217 C 
ENDROOT
BRANCH   1   2
ATOM      2  N1  RES d   1      18.171   0.254  11.512  0.00  0.00     0.094 N 
ATOM      3  H9  RES d   1      17.783  -0.258  10.734  0.00  0.00     0.314 HD
ATOM      4  H10 RES d   1      17.511   0.316  12.271  0.00  0.00     0.314 HD
ENDBRANCH   1   2
BRANCH   1   5
ATOM      5  C3  RES d   1      20.311   0.724  12.606  0.00  0.00     0.210 C 
BRANCH   5   6
ATOM      6  O4  RES d   1      21.663   0.558  12.173  0.00  0.00    -0.398 OA
ATOM      7  H13 RES d   1      22.312   1.013  12.728  0.00  0.00     0.209 HD
ENDBRANCH   5   6
ENDBRANCH   1   5
BRANCH   1   8
ATOM      8  C5  RES d   1      19.138  -1.450  12.982  0.00  0.00     0.210 C 
BRANCH   8   9
ATOM      9  O6  RES d   1      20.158  -1.456  13.983  0.00  0.00    -0.398 OA
ATOM     10  H16 RES d   1      20.016  -2.107  14.684  0.00  0.00     0.209 HD
ENDBRANCH   8   9
ENDBRANCH   1   8
BRANCH   1  11
ATOM     11  C7  RES d   1      20.165  -0.952  10.759  0.00  0.00     0.210 C 
BRANCH  11  12
ATOM     12  O8  RES d   1      20.868  -2.126  11.170  0.00  0.00    -0.398 OA
ATOM     13  H19 RES d   1      21.408  -2.005  11.963  0.00  0.00     0.209 HD
ENDBRANCH  11  12
ENDBRANCH   1  11
TORSDOF 7
ENDMDL
MODEL 9
REMARK VINA RESULT:      -3.8      1.765      2.791
REMARK  7 active torsions:
REMARK  status: ('A' for Active; 'I' for Inactive)
REMARK    1  A    between atoms: N1_1  and  C2_2 
REMARK    2  A    between atoms: C2_2  and  C3_3 
REMARK    3  A    between atoms: C2_2  and  C5_5 
REMARK    4  A    between atoms: C2_2  and  C7_7 
REMARK    5  A    between atoms: C3_3  and  O4_4 
REMARK    6  A    between atoms: C5_5  and  O6_6 
REMARK    7  A    between atoms: C7_7  and  O8_8 
ROOT
ATOM      1  C2  RES d   1      19.424  -0.317  11.937  0.00  0.00     0.217 C 
ENDROOT
BRANCH   1   2
ATOM      2  N1  RES d   1      18.162   0.292  11.495  0.00  0.00     0.094 N 
ATOM      3  H9  RES d   1      18.224   1.299  11.507  0.00  0.00     0.314 HD
ATOM      4  H10 RES d   1      17.900  -0.044  10.581  0.00  0.00     0.314 HD
ENDBRANCH   1   2
BRANCH   1   5
ATOM      5  C3  RES d   1      19.129  -1.416  12.959  0.00  0.00     0.210 C 
BRANCH   5   6
ATOM      6  O4  RES d   1      20.150  -1.422  13.959  0.00  0.00    -0.398 OA
ATOM      7  H13 RES d   1      20.300  -0.561  14.374  0.00  0.00     0.209 HD
ENDBRANCH   5   6
ENDBRANCH   1   5
BRANCH   1   8
ATOM      8  C5  RES d   1      20.148  -0.922  10.732  0.00  0.00     0.210 C 
BRANCH   8   9
ATOM      9  O6  RES d   1      20.866  -2.087  11.144  0.00  0.00    -0.398 OA
ATOM     10  H16 RES d   1      21.672  -2.251  10.636  0.00  0.00     0.209 HD
ENDBRANCH   8   9
ENDBRANCH   1   8
BRANCH   1  11
ATOM     11  C7  RES d   1      20.309   0.753  12.579  0.00  0.00     0.210 C 
BRANCH  11  12
ATOM     12  O8  RES d   1      21.663   0.564  12.164  0.00  0.00    -0.398 OA
ATOM     13  H19 RES d   1      21.823   0.774  11.233  0.00  0.00     0.209 HD
ENDBRANCH  11  12
ENDBRANCH   1  11
TORSDOF 7
ENDMDL
