MODEL 1
REMARK VINA RESULT:      -5.7      0.000      0.000
REMARK  4 active torsions:
REMARK  status: ('A' for Active; 'I' for Inactive)
REMARK    1  A    between atoms: C2_2  and  C4_4 
REMARK    2  A    between atoms: C4_4  and  C5_5 
REMARK    3  A    between atoms: C5_5  and  C6_6 
REMARK    4  A    between atoms: C6_6  and  C7_7 
ROOT
ATOM      1  C7  <0> d   1      17.997   0.322   8.235  0.00  0.00    -0.058 A 
ATOM      2  C8  <0> d   1      17.424   0.363   9.492  0.00  0.00     0.007 A 
ATOM      3  C9  <0> d   1      17.758   1.378  10.371  0.00  0.00     0.001 A 
ATOM      4  C10 <0> d   1      18.663   2.350   9.992  0.00  0.00     0.000 A 
ATOM      5  C11 <0> d   1      19.237   2.308   8.735  0.00  0.00     0.001 A 
ATOM      6  C12 <0> d   1      18.907   1.292   7.858  0.00  0.00     0.007 A 
ENDROOT
BRANCH   1   7
ATOM      7  C6  <0> d   1      17.634  -0.784   7.277  0.00  0.00     0.039 C 
BRANCH   7   8
ATOM      8  C5  <0> d   1      17.383  -0.193   5.889  0.00  0.00     0.015 C 
BRANCH   8   9
ATOM      9  C4  <0> d   1      17.689  -1.247   4.823  0.00  0.00     0.113 C 
BRANCH   9  10
ATOM     10  C2  <0> d   1      19.165  -1.550   4.826  0.00  0.00     0.172 C 
ATOM     11  O1  <0> d   1      19.970  -0.662   4.604  0.00  0.00    -0.648 OA
ATOM     12  O3  <0> d   1      19.555  -2.683   5.056  0.00  0.00    -0.648 OA
ENDBRANCH   9  10
ENDBRANCH   8   9
ENDBRANCH   7   8
ENDBRANCH   1   7
TORSDOF 4
ENDMDL
MODEL 2
REMARK VINA RESULT:      -5.7      0.120      1.632
REMARK  4 active torsions:
REMARK  status: ('A' for Active; 'I' for Inactive)
REMARK    1  A    between atoms: C2_2  and  C4_4 
REMARK    2  A    between atoms: C4_4  and  C5_5 
REMARK    3  A    between atoms: C5_5  and  C6_6 
REMARK    4  A    between atoms: C6_6  and  C7_7 
ROOT
ATOM      1  C7  <0> d   1      17.944   0.365   8.340  0.00  0.00    -0.058 A 
ATOM      2  C8  <0> d   1      18.867   1.324   7.967  0.00  0.00     0.007 A 
ATOM      3  C9  <0> d   1      19.227   2.319   8.858  0.00  0.00     0.001 A 
ATOM      4  C10 <0> d   1      18.665   2.354  10.120  0.00  0.00     0.000 A 
ATOM      5  C11 <0> d   1      17.741   1.395  10.492  0.00  0.00     0.001 A 
ATOM      6  C12 <0> d   1      17.378   0.403   9.600  0.00  0.00     0.007 A 
ENDROOT
BRANCH   1   7
ATOM      7  C6  <0> d   1      17.552  -0.720   7.370  0.00  0.00     0.039 C 
BRANCH   7   8
ATOM      8  C5  <0> d   1      17.468  -0.135   5.958  0.00  0.00     0.015 C 
BRANCH   8   9
ATOM      9  C4  <0> d   1      17.712  -1.243   4.932  0.00  0.00     0.113 C 
BRANCH   9  10
ATOM     10  C2  <0> d   1      19.181  -1.577   4.894  0.00  0.00     0.172 C 
ATOM     11  O1  <0> d   1      19.560  -2.696   5.194  0.00  0.00    -0.648 OA
ATOM     12  O3  <0> d   1      19.990  -0.729   4.557  0.00  0.00    -0.648 OA
ENDBRANCH   9  10
ENDBRANCH   8   9
ENDBRANCH   7   8
ENDBRANCH   1   7
TORSDOF 4
ENDMDL
MODEL 3
REMARK VINA RESULT:      -5.6      3.791      6.009
REMARK  4 active torsions:
REMARK  status: ('A' for Active; 'I' for Inactive)
REMARK    1  A    between atoms: C2_2  and  C4_4 
REMARK    2  A    between atoms: C4_4  and  C5_5 
REMARK    3  A    between atoms: C5_5  and  C6_6 
REMARK    4  A    between atoms: C6_6  and  C7_7 
ROOT
ATOM      1  C7  <0> d   1      18.637   1.330   8.355  0.00  0.00    -0.058 A 
ATOM      2  C8  <0> d   1      19.074   1.500   7.054  0.00  0.00     0.007 A 
ATOM      3  C9  <0> d   1      18.543   0.724   6.040  0.00  0.00     0.001 A 
ATOM      4  C10 <0> d   1      17.577  -0.221   6.326  0.00  0.00     0.000 A 
ATOM      5  C11 <0> d   1      17.142  -0.392   7.627  0.00  0.00     0.001 A 
ATOM      6  C12 <0> d   1      17.675   0.380   8.641  0.00  0.00     0.007 A 
ENDROOT
BRANCH   1   7
ATOM      7  C6  <0> d   1      19.215   2.176   9.460  0.00  0.00     0.039 C 
BRANCH   7   8
ATOM      8  C5  <0> d   1      18.151   2.407  10.534  0.00  0.00     0.015 C 
BRANCH   8   9
ATOM      9  C4  <0> d   1      18.331   3.801  11.139  0.00  0.00     0.113 C 
BRANCH   9  10
ATOM     10  C2  <0> d   1      17.255   4.717  10.616  0.00  0.00     0.172 C 
ATOM     11  O1  <0> d   1      16.188   4.801  11.200  0.00  0.00    -0.648 OA
ATOM     12  O3  <0> d   1      17.454   5.380   9.612  0.00  0.00    -0.648 OA
ENDBRANCH   9  10
ENDBRANCH   8   9
ENDBRANCH   7   8
ENDBRANCH   1   7
TORSDOF 4
ENDMDL
MODEL 4
REMARK VINA RESULT:      -5.6      3.760      5.807
REMARK  4 active torsions:
REMARK  status: ('A' for Active; 'I' for Inactive)
REMARK    1  A    between atoms: C2_2  and  C4_4 
REMARK    2  A    between atoms: C4_4  and  C5_5 
REMARK    3  A    between atoms: C5_5  and  C6_6 
REMARK    4  A    between atoms: C6_6  and  C7_7 
ROOT
ATOM      1  C7  <0> d   1      18.208   1.274   9.116  0.00  0.00    -0.058 A 
ATOM      2  C8  <0> d   1      17.424   0.184   8.787  0.00  0.00     0.007 A 
ATOM      3  C9  <0> d   1      17.445  -0.320   7.499  0.00  0.00     0.001 A 
ATOM      4  C10 <0> d   1      18.250   0.267   6.541  0.00  0.00     0.000 A 
ATOM      5  C11 <0> d   1      19.033   1.358   6.870  0.00  0.00     0.001 A 
ATOM      6  C12 <0> d   1      19.009   1.863   8.156  0.00  0.00     0.007 A 
ENDROOT
BRANCH   1   7
ATOM      7  C6  <0> d   1      18.185   1.822  10.519  0.00  0.00     0.039 C 
BRANCH   7   8
ATOM      8  C5  <0> d   1      19.147   3.008  10.619  0.00  0.00     0.015 C 
BRANCH   8   9
ATOM      9  C4  <0> d   1      18.494   4.127  11.432  0.00  0.00     0.113 C 
BRANCH   9  10
ATOM     10  C2  <0> d   1      17.363   4.730  10.638  0.00  0.00     0.172 C 
ATOM     11  O1  <0> d   1      17.583   5.242   9.554  0.00  0.00    -0.648 OA
ATOM     12  O3  <0> d   1      16.226   4.699  11.078  0.00  0.00    -0.648 OA
ENDBRANCH   9  10
ENDBRANCH   8   9
ENDBRANCH   7   8
ENDBRANCH   1   7
TORSDOF 4
ENDMDL
MODEL 5
REMARK VINA RESULT:      -5.4      3.582      5.643
REMARK  4 active torsions:
REMARK  status: ('A' for Active; 'I' for Inactive)
REMARK    1  A    between atoms: C2_2  and  C4_4 
REMARK    2  A    between atoms: C4_4  and  C5_5 
REMARK    3  A    between atoms: C5_5  and  C6_6 
REMARK    4  A    between atoms: C6_6  and  C7_7 
ROOT
ATOM      1  C7  <0> d   1      18.678   0.256   7.382  0.00  0.00    -0.058 A 
ATOM      2  C8  <0> d   1      18.838   0.978   6.215  0.00  0.00     0.007 A 
ATOM      3  C9  <0> d   1      19.188   0.331   5.043  0.00  0.00     0.001 A 
ATOM      4  C10 <0> d   1      19.377  -1.038   5.041  0.00  0.00     0.000 A 
ATOM      5  C11 <0> d   1      19.218  -1.760   6.209  0.00  0.00     0.001 A 
ATOM      6  C12 <0> d   1      18.873  -1.113   7.380  0.00  0.00     0.007 A 
ENDROOT
BRANCH   1   7
ATOM      7  C6  <0> d   1      18.297   0.961   8.658  0.00  0.00     0.039 C 
BRANCH   7   8
ATOM      8  C5  <0> d   1      19.044   2.293   8.747  0.00  0.00     0.015 C 
BRANCH   8   9
ATOM      9  C4  <0> d   1      18.936   2.844  10.170  0.00  0.00     0.113 C 
BRANCH   9  10
ATOM     10  C2  <0> d   1      17.787   3.817  10.245  0.00  0.00     0.172 C 
ATOM     11  O1  <0> d   1      17.772   4.800   9.525  0.00  0.00    -0.648 OA
ATOM     12  O3  <0> d   1      16.869   3.617  11.023  0.00  0.00    -0.648 OA
ENDBRANCH   9  10
ENDBRANCH   8   9
ENDBRANCH   7   8
ENDBRANCH   1   7
TORSDOF 4
ENDMDL
MODEL 6
REMARK VINA RESULT:      -5.3      3.393      5.325
REMARK  4 active torsions:
REMARK  status: ('A' for Active; 'I' for Inactive)
REMARK    1  A    between atoms: C2_2  and  C4_4 
REMARK    2  A    between atoms: C4_4  and  C5_5 
REMARK    3  A    between atoms: C5_5  and  C6_6 
REMARK    4  A    between atoms: C6_6  and  C7_7 
ROOT
ATOM      1  C7  <0> d   1      18.530   1.095   8.704  0.00  0.00    -0.058 A 
ATOM      2  C8  <0> d   1      19.238   1.614   7.637  0.00  0.00     0.007 A 
ATOM      3  C9  <0> d   1      18.939   1.212   6.347  0.00  0.00     0.001 A 
ATOM      4  C10 <0> d   1      17.933   0.292   6.127  0.00  0.00     0.000 A 
ATOM      5  C11 <0> d   1      17.225  -0.229   7.194  0.00  0.00     0.001 A 
ATOM      6  C12 <0> d   1      17.527   0.170   8.483  0.00  0.00     0.007 A 
ENDROOT
BRANCH   1   7
ATOM      7  C6  <0> d   1      18.855   1.532  10.109  0.00  0.00     0.039 C 
BRANCH   7   8
ATOM      8  C5  <0> d   1      19.146   0.303  10.971  0.00  0.00     0.015 C 
BRANCH   8   9
ATOM      9  C4  <0> d   1      18.226   0.308  12.193  0.00  0.00     0.113 C 
BRANCH   9  10
ATOM     10  C2  <0> d   1      16.977  -0.477  11.884  0.00  0.00     0.172 C 
ATOM     11  O1  <0> d   1      15.934   0.105  11.644  0.00  0.00    -0.648 OA
ATOM     12  O3  <0> d   1      17.012  -1.696  11.868  0.00  0.00    -0.648 OA
ENDBRANCH   9  10
ENDBRANCH   8   9
ENDBRANCH   7   8
ENDBRANCH   1   7
TORSDOF 4
ENDMDL
MODEL 7
REMARK VINA RESULT:      -5.1      5.559      7.092
REMARK  4 active torsions:
REMARK  status: ('A' for Active; 'I' for Inactive)
REMARK    1  A    between atoms: C2_2  and  C4_4 
REMARK    2  A    between atoms: C4_4  and  C5_5 
REMARK    3  A    between atoms: C5_5  and  C6_6 
REMARK    4  A    between atoms: C6_6  and  C7_7 
ROOT
ATOM      1  C7  <0> d   1      18.694  -1.034  14.595  0.00  0.00    -0.058 A 
ATOM      2  C8  <0> d   1      19.302  -1.588  15.706  0.00  0.00     0.007 A 
ATOM      3  C9  <0> d   1      18.908  -1.202  16.974  0.00  0.00     0.001 A 
ATOM      4  C10 <0> d   1      17.908  -0.261  17.131  0.00  0.00     0.000 A 
ATOM      5  C11 <0> d   1      17.302   0.295  16.020  0.00  0.00     0.001 A 
ATOM      6  C12 <0> d   1      17.698  -0.088  14.752  0.00  0.00     0.007 A 
ENDROOT
BRANCH   1   7
ATOM      7  C6  <0> d   1      19.123  -1.455  13.213  0.00  0.00     0.039 C 
BRANCH   7   8
ATOM      8  C5  <0> d   1      17.886  -1.645  12.332  0.00  0.00     0.015 C 
BRANCH   8   9
ATOM      9  C4  <0> d   1      17.993  -0.741  11.102  0.00  0.00     0.113 C 
BRANCH   9  10
ATOM     10  C2  <0> d   1      16.942   0.336  11.179  0.00  0.00     0.172 C 
ATOM     11  O1  <0> d   1      15.820   0.068  11.572  0.00  0.00    -0.648 OA
ATOM     12  O3  <0> d   1      17.216   1.479  10.852  0.00  0.00    -0.648 OA
ENDBRANCH   9  10
ENDBRANCH   8   9
ENDBRANCH   7   8
ENDBRANCH   1   7
TORSDOF 4
ENDMDL
MODEL 8
REMARK VINA RESULT:      -5.0      7.276      9.255
REMARK  4 active torsions:
REMARK  status: ('A' for Active; 'I' for Inactive)
REMARK    1  A    between atoms: C2_2  and  C4_4 
REMARK    2  A    between atoms: C4_4  and  C5_5 
REMARK    3  A    between atoms: C5_5  and  C6_6 
REMARK    4  A    between atoms: C6_6  and  C7_7 
ROOT
ATOM      1  C7  <0> d   1      19.212  -1.066  14.190  0.00  0.00    -0.058 A 
ATOM      2  C8  <0> d   1      19.917   0.078  13.868  0.00  0.00     0.007 A 
ATOM      3  C9  <0> d   1      20.221   0.356  12.547  0.00  0.00     0.001 A 
ATOM      4  C10 <0> d   1      19.818  -0.512  11.550  0.00  0.00     0.000 A 
ATOM      5  C11 <0> d   1      19.113  -1.656  11.871  0.00  0.00     0.001 A 
ATOM      6  C12 <0> d   1      18.814  -1.936  13.191  0.00  0.00     0.007 A 
ENDROOT
BRANCH   1   7
ATOM      7  C6  <0> d   1      18.881  -1.368  15.629  0.00  0.00     0.039 C 
BRANCH   7   8
ATOM      8  C5  <0> d   1      17.983  -0.263  16.188  0.00  0.00     0.015 C 
BRANCH   8   9
ATOM      9  C4  <0> d   1      18.388   0.041  17.632  0.00  0.00     0.113 C 
BRANCH   9  10
ATOM     10  C2  <0> d   1      19.207   1.305  17.668  0.00  0.00     0.172 C 
ATOM     11  O1  <0> d   1      19.276   2.016  16.680  0.00  0.00    -0.648 OA
ATOM     12  O3  <0> d   1      19.797   1.620  18.688  0.00  0.00    -0.648 OA
ENDBRANCH   9  10
ENDBRANCH   8   9
ENDBRANCH   7   8
ENDBRANCH   1   7
TORSDOF 4
ENDMDL
MODEL 9
REMARK VINA RESULT:      -5.0      6.271      7.978
REMARK  4 active torsions:
REMARK  status: ('A' for Active; 'I' for Inactive)
REMARK    1  A    between atoms: C2_2  and  C4_4 
REMARK    2  A    between atoms: C4_4  and  C5_5 
REMARK    3  A    between atoms: C5_5  and  C6_6 
REMARK    4  A    between atoms: C6_6  and  C7_7 
ROOT
ATOM      1  C7  <0> d   1      18.784  -0.397  15.860  0.00  0.00    -0.058 A 
ATOM      2  C8  <0> d   1      18.813   0.980  15.741  0.00  0.00     0.007 A 
ATOM      3  C9  <0> d   1      19.053   1.766  16.854  0.00  0.00     0.001 A 
ATOM      4  C10 <0> d   1      19.263   1.174  18.085  0.00  0.00     0.000 A 
ATOM      5  C11 <0> d   1      19.233  -0.203  18.204  0.00  0.00     0.001 A 
ATOM      6  C12 <0> d   1      18.989  -0.988  17.093  0.00  0.00     0.007 A 
ENDROOT
BRANCH   1   7
ATOM      7  C6  <0> d   1      18.523  -1.252  14.648  0.00  0.00     0.039 C 
BRANCH   7   8
ATOM      8  C5  <0> d   1      18.817  -0.445  13.382  0.00  0.00     0.015 C 
BRANCH   8   9
ATOM      9  C4  <0> d   1      17.858  -0.875  12.270  0.00  0.00     0.113 C 
BRANCH   9  10
ATOM     10  C2  <0> d   1      16.926   0.264  11.944  0.00  0.00     0.172 C 
ATOM     11  O1  <0> d   1      15.792   0.033  11.559  0.00  0.00    -0.648 OA
ATOM     12  O3  <0> d   1      17.303   1.416  12.071  0.00  0.00    -0.648 OA
ENDBRANCH   9  10
ENDBRANCH   8   9
ENDBRANCH   7   8
ENDBRANCH   1   7
TORSDOF 4
ENDMDL
