MODEL 1
REMARK VINA RESULT:      -9.0      0.000      0.000
REMARK  10 active torsions:
REMARK  status: ('A' for Active; 'I' for Inactive)
REMARK    1  A    between atoms: C2_2  and  C3_3 
REMARK       I    between atoms: C3_3  and  N5_5 
REMARK    2  A    between atoms: N5_5  and  C6_6 
REMARK    3  A    between atoms: C8_8  and  N9_9 
REMARK    4  A    between atoms: N9_9  and  C10_10 
REMARK    5  A    between atoms: C14_14  and  C15_15 
REMARK    6  A    between atoms: C26_26  and  O27_27 
REMARK    7  A    between atoms: C30_30  and  N31_31 
REMARK    8  A    between atoms: N31_31  and  C33_33 
REMARK    9  A    between atoms: C33_33  and  C34_34 
REMARK   10  A    between atoms: C34_34  and  N35_35 
ROOT
ATOM      1  C6  ZIN A   1      19.301   1.686  12.582  0.00  0.00     0.058 A 
ATOM      2  C7  ZIN A   1      19.529   0.367  12.214  0.00  0.00     0.064 A 
ATOM      3  C8  ZIN A   1      19.563  -0.626  13.180  0.00  0.00     0.085 A 
ATOM      4  C26 ZIN A   1      19.370  -0.302  14.521  0.00  0.00     0.097 A 
ATOM      5  C29 ZIN A   1      19.143   1.014  14.890  0.00  0.00     0.065 A 
ATOM      6  C30 ZIN A   1      19.112   2.010  13.925  0.00  0.00     0.040 A 
ENDROOT
BRANCH   3   7
ATOM      7  N9  ZIN A   1      19.794  -1.960  12.808  0.00  0.00    -0.185 N 
ATOM      8  H43 ZIN A   1      20.513  -2.461  13.222  0.00  0.00     0.184 HD
BRANCH   7   9
ATOM      9  C10 ZIN A   1      18.995  -2.557  11.849  0.00  0.00     0.727 A 
ATOM     10  N25 ZIN A   1      19.155  -2.224  10.576  0.00  0.00    -0.062 NA
ATOM     11  C14 ZIN A   1      18.406  -2.786   9.629  0.00  0.00     0.089 A 
ATOM     12  C13 ZIN A   1      17.436  -3.725  10.000  0.00  0.00     0.053 A 
ATOM     13  C12 ZIN A   1      17.300  -4.038  11.338  0.00  0.00     0.139 A 
ATOM     14  N11 ZIN A   1      18.085  -3.444  12.226  0.00  0.00    -0.075 NA
BRANCH  11  15
ATOM     15  C15 ZIN A   1      18.590  -2.417   8.209  0.00  0.00     0.021 A 
ATOM     16  C24 ZIN A   1      18.748  -1.057   7.667  0.00  0.00     0.005 A 
ATOM     17  C19 ZIN A   1      18.895  -1.210   6.277  0.00  0.00     0.045 A 
ATOM     18  C23 ZIN A   1      18.791   0.213   8.237  0.00  0.00     0.014 A 
ATOM     19  N17 ZIN A   1      18.821  -2.559   6.001  0.00  0.00    -0.359 N 
ATOM     20  C20 ZIN A   1      19.071  -0.083   5.482  0.00  0.00     0.030 A 
ATOM     21  C16 ZIN A   1      18.640  -3.266   7.150  0.00  0.00     0.105 A 
ATOM     22  C18 ZIN A   1      18.922  -3.147   4.663  0.00  0.00     0.156 C 
ATOM     23  C21 ZIN A   1      19.104   1.167   6.059  0.00  0.00     0.002 A 
ATOM     24  C22 ZIN A   1      18.966   1.317   7.431  0.00  0.00     0.001 A 
ENDBRANCH  11  15
ENDBRANCH   7   9
ENDBRANCH   3   7
BRANCH   4  25
ATOM     25  O27 ZIN A   1      19.405  -1.278  15.468  0.00  0.00    -0.354 OA
ATOM     26  C28 ZIN A   1      18.575  -1.095  16.618  0.00  0.00     0.210 C 
ENDBRANCH   4  25
BRANCH   1  27
ATOM     27  N5  ZIN A   1      19.266   2.691  11.606  0.00  0.00    -0.322 N 
ATOM     28  C3  ZIN A   1      18.162   2.860  10.852  0.00  0.00     0.244 C 
ATOM     29  O4  ZIN A   1      17.235   2.078  10.945  0.00  0.00    -0.268 OA
ATOM     30  H41 ZIN A   1      20.037   3.266  11.473  0.00  0.00     0.169 HD
BRANCH  28  31
ATOM     31  C2  ZIN A   1      18.078   3.991   9.915  0.00  0.00     0.064 C 
ATOM     32  C1  ZIN A   1      17.477   5.118  10.285  0.00  0.00     0.017 C 
ENDBRANCH  28  31
ENDBRANCH   1  27
BRANCH   6  33
ATOM     33  N31 ZIN A   1      18.882   3.341  14.299  0.00  0.00    -0.284 NA
ATOM     34  C32 ZIN A   1      17.468   3.700  14.123  0.00  0.00     0.116 C 
BRANCH  33  35
ATOM     35  C33 ZIN A   1      19.319   3.584  15.680  0.00  0.00     0.125 C 
BRANCH  35  36
ATOM     36  C34 ZIN A   1      19.759   5.041  15.828  0.00  0.00     0.286 C 
BRANCH  36  37
ATOM     37  N35 ZIN A   1      18.947   5.696  16.861  0.00  0.00     0.081 N 
ATOM     38  C36 ZIN A   1      18.129   6.771  16.284  0.00  0.00     0.309 C 
ATOM     39  C37 ZIN A   1      18.109   4.721  17.571  0.00  0.00     0.309 C 
ENDBRANCH  36  37
ENDBRANCH  35  36
ENDBRANCH  33  35
ENDBRANCH   6  33
TORSDOF 10
ENDMDL
MODEL 2
REMARK VINA RESULT:      -8.7      2.417      9.198
REMARK  10 active torsions:
REMARK  status: ('A' for Active; 'I' for Inactive)
REMARK    1  A    between atoms: C2_2  and  C3_3 
REMARK       I    between atoms: C3_3  and  N5_5 
REMARK    2  A    between atoms: N5_5  and  C6_6 
REMARK    3  A    between atoms: C8_8  and  N9_9 
REMARK    4  A    between atoms: N9_9  and  C10_10 
REMARK    5  A    between atoms: C14_14  and  C15_15 
REMARK    6  A    between atoms: C26_26  and  O27_27 
REMARK    7  A    between atoms: C30_30  and  N31_31 
REMARK    8  A    between atoms: N31_31  and  C33_33 
REMARK    9  A    between atoms: C33_33  and  C34_34 
REMARK   10  A    between atoms: C34_34  and  N35_35 
ROOT
ATOM      1  C6  ZIN A   1      18.332  -1.727   7.643  0.00  0.00     0.058 A 
ATOM      2  C7  ZIN A   1      18.868  -0.553   8.154  0.00  0.00     0.064 A 
ATOM      3  C8  ZIN A   1      19.479  -0.555   9.398  0.00  0.00     0.085 A 
ATOM      4  C26 ZIN A   1      19.555  -1.734  10.136  0.00  0.00     0.097 A 
ATOM      5  C29 ZIN A   1      19.020  -2.907   9.627  0.00  0.00     0.065 A 
ATOM      6  C30 ZIN A   1      18.405  -2.906   8.384  0.00  0.00     0.040 A 
ENDROOT
BRANCH   3   7
ATOM      7  N9  ZIN A   1      20.022   0.632   9.916  0.00  0.00    -0.185 N 
ATOM      8  H43 ZIN A   1      20.944   0.865   9.728  0.00  0.00     0.184 HD
BRANCH   7   9
ATOM      9  C10 ZIN A   1      19.239   1.467  10.693  0.00  0.00     0.727 A 
ATOM     10  N25 ZIN A   1      19.352   1.413  12.012  0.00  0.00    -0.062 NA
ATOM     11  C14 ZIN A   1      18.617   2.209  12.789  0.00  0.00     0.089 A 
ATOM     12  C13 ZIN A   1      17.714   3.095  12.188  0.00  0.00     0.053 A 
ATOM     13  C12 ZIN A   1      17.626   3.113  10.810  0.00  0.00     0.139 A 
ATOM     14  N11 ZIN A   1      18.393   2.297  10.101  0.00  0.00    -0.075 NA
BRANCH  11  15
ATOM     15  C15 ZIN A   1      18.748   2.152  14.260  0.00  0.00     0.021 A 
ATOM     16  C24 ZIN A   1      18.801   0.938  15.092  0.00  0.00     0.005 A 
ATOM     17  C19 ZIN A   1      18.932   1.384  16.418  0.00  0.00     0.045 A 
ATOM     18  C23 ZIN A   1      18.768  -0.427  14.815  0.00  0.00     0.014 A 
ATOM     19  N17 ZIN A   1      18.945   2.762  16.390  0.00  0.00    -0.359 N 
ATOM     20  C20 ZIN A   1      19.014   0.451  17.447  0.00  0.00     0.030 A 
ATOM     21  C16 ZIN A   1      18.836   3.209  15.109  0.00  0.00     0.105 A 
ATOM     22  C18 ZIN A   1      19.061   3.623  17.570  0.00  0.00     0.156 C 
ATOM     23  C21 ZIN A   1      18.972  -0.896  17.159  0.00  0.00     0.002 A 
ATOM     24  C22 ZIN A   1      18.851  -1.335  15.848  0.00  0.00     0.001 A 
ENDBRANCH  11  15
ENDBRANCH   7   9
ENDBRANCH   3   7
BRANCH   4  25
ATOM     25  O27 ZIN A   1      20.155  -1.734  11.358  0.00  0.00    -0.354 OA
ATOM     26  C28 ZIN A   1      19.807  -2.795  12.250  0.00  0.00     0.210 C 
ENDBRANCH   4  25
BRANCH   1  27
ATOM     27  N5  ZIN A   1      17.713  -1.726   6.385  0.00  0.00    -0.322 N 
ATOM     28  C3  ZIN A   1      18.449  -1.915   5.272  0.00  0.00     0.244 C 
ATOM     29  O4  ZIN A   1      19.660  -1.984   5.347  0.00  0.00    -0.268 OA
ATOM     30  H41 ZIN A   1      16.754  -1.589   6.316  0.00  0.00     0.169 HD
BRANCH  28  31
ATOM     31  C2  ZIN A   1      17.785  -2.038   3.964  0.00  0.00     0.064 C 
ATOM     32  C1  ZIN A   1      16.868  -2.981   3.771  0.00  0.00     0.017 C 
ENDBRANCH  28  31
ENDBRANCH   1  27
BRANCH   6  33
ATOM     33  N31 ZIN A   1      17.863  -4.091   7.869  0.00  0.00    -0.284 NA
ATOM     34  C32 ZIN A   1      18.924  -4.999   7.411  0.00  0.00     0.116 C 
BRANCH  33  35
ATOM     35  C33 ZIN A   1      16.999  -4.749   8.858  0.00  0.00     0.125 C 
BRANCH  35  36
ATOM     36  C34 ZIN A   1      17.256  -6.256   8.839  0.00  0.00     0.286 C 
BRANCH  36  37
ATOM     37  N35 ZIN A   1      16.007  -6.964   8.535  0.00  0.00     0.081 N 
ATOM     38  C36 ZIN A   1      14.918  -6.016   8.260  0.00  0.00     0.309 C 
ATOM     39  C37 ZIN A   1      16.188  -7.897   7.415  0.00  0.00     0.309 C 
ENDBRANCH  36  37
ENDBRANCH  35  36
ENDBRANCH  33  35
ENDBRANCH   6  33
TORSDOF 10
ENDMDL
MODEL 3
REMARK VINA RESULT:      -8.5      2.039      3.939
REMARK  10 active torsions:
REMARK  status: ('A' for Active; 'I' for Inactive)
REMARK    1  A    between atoms: C2_2  and  C3_3 
REMARK       I    between atoms: C3_3  and  N5_5 
REMARK    2  A    between atoms: N5_5  and  C6_6 
REMARK    3  A    between atoms: C8_8  and  N9_9 
REMARK    4  A    between atoms: N9_9  and  C10_10 
REMARK    5  A    between atoms: C14_14  and  C15_15 
REMARK    6  A    between atoms: C26_26  and  O27_27 
REMARK    7  A    between atoms: C30_30  and  N31_31 
REMARK    8  A    between atoms: N31_31  and  C33_33 
REMARK    9  A    between atoms: C33_33  and  C34_34 
REMARK   10  A    between atoms: C34_34  and  N35_35 
ROOT
ATOM      1  C6  ZIN A   1      18.487   2.846  14.948  0.00  0.00     0.058 A 
ATOM      2  C7  ZIN A   1      19.085   1.758  14.328  0.00  0.00     0.064 A 
ATOM      3  C8  ZIN A   1      19.416   1.823  12.983  0.00  0.00     0.085 A 
ATOM      4  C26 ZIN A   1      19.148   2.978  12.253  0.00  0.00     0.097 A 
ATOM      5  C29 ZIN A   1      18.551   4.066  12.871  0.00  0.00     0.065 A 
ATOM      6  C30 ZIN A   1      18.216   4.002  14.216  0.00  0.00     0.040 A 
ENDROOT
BRANCH   3   7
ATOM      7  N9  ZIN A   1      20.020   0.722  12.355  0.00  0.00    -0.185 N 
ATOM      8  H43 ZIN A   1      20.987   0.667  12.300  0.00  0.00     0.184 HD
BRANCH   7   9
ATOM      9  C10 ZIN A   1      19.236  -0.282  11.816  0.00  0.00     0.727 A 
ATOM     10  N25 ZIN A   1      19.368  -0.585  10.533  0.00  0.00    -0.062 NA
ATOM     11  C14 ZIN A   1      18.632  -1.551   9.985  0.00  0.00     0.089 A 
ATOM     12  C13 ZIN A   1      17.707  -2.234  10.784  0.00  0.00     0.053 A 
ATOM     13  C12 ZIN A   1      17.600  -1.881  12.115  0.00  0.00     0.139 A 
ATOM     14  N11 ZIN A   1      18.369  -0.914  12.594  0.00  0.00    -0.075 NA
BRANCH  11  15
ATOM     15  C15 ZIN A   1      18.784  -1.891   8.554  0.00  0.00     0.021 A 
ATOM     16  C24 ZIN A   1      18.906  -0.944   7.433  0.00  0.00     0.005 A 
ATOM     17  C19 ZIN A   1      19.031  -1.730   6.275  0.00  0.00     0.045 A 
ATOM     18  C23 ZIN A   1      18.935   0.446   7.339  0.00  0.00     0.014 A 
ATOM     19  N17 ZIN A   1      18.978  -3.051   6.666  0.00  0.00    -0.359 N 
ATOM     20  C20 ZIN A   1      19.172  -1.107   5.039  0.00  0.00     0.030 A 
ATOM     21  C16 ZIN A   1      18.831  -3.137   8.017  0.00  0.00     0.105 A 
ATOM     22  C18 ZIN A   1      19.066  -4.197   5.759  0.00  0.00     0.156 C 
ATOM     23  C21 ZIN A   1      19.192   0.268   4.961  0.00  0.00     0.002 A 
ATOM     24  C22 ZIN A   1      19.075   1.043   6.105  0.00  0.00     0.001 A 
ENDBRANCH  11  15
ENDBRANCH   7   9
ENDBRANCH   3   7
BRANCH   4  25
ATOM     25  O27 ZIN A   1      19.472   3.040  10.933  0.00  0.00    -0.354 OA
ATOM     26  C28 ZIN A   1      18.390   3.051  10.000  0.00  0.00     0.210 C 
ENDBRANCH   4  25
BRANCH   1  27
ATOM     27  N5  ZIN A   1      18.152   2.782  16.307  0.00  0.00    -0.322 N 
ATOM     28  C3  ZIN A   1      19.045   3.169  17.240  0.00  0.00     0.244 C 
ATOM     29  O4  ZIN A   1      20.174   3.476  16.912  0.00  0.00    -0.268 OA
ATOM     30  H41 ZIN A   1      17.278   2.459  16.577  0.00  0.00     0.169 HD
BRANCH  28  31
ATOM     31  C2  ZIN A   1      18.652   3.219  18.657  0.00  0.00     0.064 C 
ATOM     32  C1  ZIN A   1      17.464   3.709  19.000  0.00  0.00     0.017 C 
ENDBRANCH  28  31
ENDBRANCH   1  27
BRANCH   6  33
ATOM     33  N31 ZIN A   1      17.612   5.101  14.841  0.00  0.00    -0.284 NA
ATOM     34  C32 ZIN A   1      18.540   6.238  14.919  0.00  0.00     0.116 C 
BRANCH  33  35
ATOM     35  C33 ZIN A   1      16.370   5.482  14.154  0.00  0.00     0.125 C 
BRANCH  35  36
ATOM     36  C34 ZIN A   1      15.941   6.877  14.610  0.00  0.00     0.286 C 
BRANCH  36  37
ATOM     37  N35 ZIN A   1      14.856   6.759  15.591  0.00  0.00     0.081 N 
ATOM     38  C36 ZIN A   1      14.607   8.044  16.258  0.00  0.00     0.309 C 
ATOM     39  C37 ZIN A   1      13.630   6.247  14.963  0.00  0.00     0.309 C 
ENDBRANCH  36  37
ENDBRANCH  35  36
ENDBRANCH  33  35
ENDBRANCH   6  33
TORSDOF 10
ENDMDL
MODEL 4
REMARK VINA RESULT:      -8.3      1.987      9.327
REMARK  10 active torsions:
REMARK  status: ('A' for Active; 'I' for Inactive)
REMARK    1  A    between atoms: C2_2  and  C3_3 
REMARK       I    between atoms: C3_3  and  N5_5 
REMARK    2  A    between atoms: N5_5  and  C6_6 
REMARK    3  A    between atoms: C8_8  and  N9_9 
REMARK    4  A    between atoms: N9_9  and  C10_10 
REMARK    5  A    between atoms: C14_14  and  C15_15 
REMARK    6  A    between atoms: C26_26  and  O27_27 
REMARK    7  A    between atoms: C30_30  and  N31_31 
REMARK    8  A    between atoms: N31_31  and  C33_33 
REMARK    9  A    between atoms: C33_33  and  C34_34 
REMARK   10  A    between atoms: C34_34  and  N35_35 
ROOT
ATOM      1  C6  ZIN A   1      19.053  -1.938   9.292  0.00  0.00     0.058 A 
ATOM      2  C7  ZIN A   1      19.416  -0.678   9.748  0.00  0.00     0.064 A 
ATOM      3  C8  ZIN A   1      19.476   0.388   8.863  0.00  0.00     0.085 A 
ATOM      4  C26 ZIN A   1      19.172   0.196   7.518  0.00  0.00     0.097 A 
ATOM      5  C29 ZIN A   1      18.810  -1.062   7.061  0.00  0.00     0.065 A 
ATOM      6  C30 ZIN A   1      18.753  -2.130   7.943  0.00  0.00     0.040 A 
ENDROOT
BRANCH   3   7
ATOM      7  N9  ZIN A   1      19.843   1.662   9.324  0.00  0.00    -0.185 N 
ATOM      8  H43 ZIN A   1      20.645   2.088   8.982  0.00  0.00     0.184 HD
BRANCH   7   9
ATOM      9  C10 ZIN A   1      19.062   2.308  10.266  0.00  0.00     0.727 A 
ATOM     10  N25 ZIN A   1      19.205   1.997  11.546  0.00  0.00    -0.062 NA
ATOM     11  C14 ZIN A   1      18.472   2.605  12.477  0.00  0.00     0.089 A 
ATOM     12  C13 ZIN A   1      17.538   3.570  12.081  0.00  0.00     0.053 A 
ATOM     13  C12 ZIN A   1      17.419   3.858  10.735  0.00  0.00     0.139 A 
ATOM     14  N11 ZIN A   1      18.186   3.218   9.865  0.00  0.00    -0.075 NA
BRANCH  11  15
ATOM     15  C15 ZIN A   1      18.636   2.261  13.906  0.00  0.00     0.021 A 
ATOM     16  C24 ZIN A   1      18.622   0.910  14.492  0.00  0.00     0.005 A 
ATOM     17  C19 ZIN A   1      18.819   1.087  15.873  0.00  0.00     0.045 A 
ATOM     18  C23 ZIN A   1      18.480  -0.371  13.966  0.00  0.00     0.014 A 
ATOM     19  N17 ZIN A   1      18.934   2.442  16.103  0.00  0.00    -0.359 N 
ATOM     20  C20 ZIN A   1      18.859  -0.028  16.704  0.00  0.00     0.030 A 
ATOM     21  C16 ZIN A   1      18.824   3.129  14.933  0.00  0.00     0.105 A 
ATOM     22  C18 ZIN A   1      19.143   3.053  17.417  0.00  0.00     0.156 C 
ATOM     23  C21 ZIN A   1      18.711  -1.289  16.170  0.00  0.00     0.002 A 
ATOM     24  C22 ZIN A   1      18.523  -1.462  14.807  0.00  0.00     0.001 A 
ENDBRANCH  11  15
ENDBRANCH   7   9
ENDBRANCH   3   7
BRANCH   4  25
ATOM     25  O27 ZIN A   1      19.232   1.243   6.651  0.00  0.00    -0.354 OA
ATOM     26  C28 ZIN A   1      19.259   0.929   5.256  0.00  0.00     0.210 C 
ENDBRANCH   4  25
BRANCH   1  27
ATOM     27  N5  ZIN A   1      18.993  -3.017  10.185  0.00  0.00    -0.322 N 
ATOM     28  C3  ZIN A   1      18.003  -3.081  11.098  0.00  0.00     0.244 C 
ATOM     29  O4  ZIN A   1      17.223  -2.156  11.216  0.00  0.00    -0.268 OA
ATOM     30  H41 ZIN A   1      19.663  -3.717  10.146  0.00  0.00     0.169 HD
BRANCH  28  31
ATOM     31  C2  ZIN A   1      17.867  -4.272  11.951  0.00  0.00     0.064 C 
ATOM     32  C1  ZIN A   1      16.948  -5.190  11.669  0.00  0.00     0.017 C 
ENDBRANCH  28  31
ENDBRANCH   1  27
BRANCH   6  33
ATOM     33  N31 ZIN A   1      18.387  -3.402   7.482  0.00  0.00    -0.284 NA
ATOM     34  C32 ZIN A   1      17.866  -3.334   6.110  0.00  0.00     0.116 C 
BRANCH  33  35
ATOM     35  C33 ZIN A   1      19.513  -4.340   7.572  0.00  0.00     0.125 C 
BRANCH  35  36
ATOM     36  C34 ZIN A   1      19.202  -5.592   6.751  0.00  0.00     0.286 C 
BRANCH  36  37
ATOM     37  N35 ZIN A   1      18.077  -6.311   7.361  0.00  0.00     0.081 N 
ATOM     38  C36 ZIN A   1      17.660  -7.444   6.524  0.00  0.00     0.309 C 
ATOM     39  C37 ZIN A   1      18.410  -6.756   8.721  0.00  0.00     0.309 C 
ENDBRANCH  36  37
ENDBRANCH  35  36
ENDBRANCH  33  35
ENDBRANCH   6  33
TORSDOF 10
ENDMDL
MODEL 5
REMARK VINA RESULT:      -8.2      2.265      8.673
REMARK  10 active torsions:
REMARK  status: ('A' for Active; 'I' for Inactive)
REMARK    1  A    between atoms: C2_2  and  C3_3 
REMARK       I    between atoms: C3_3  and  N5_5 
REMARK    2  A    between atoms: N5_5  and  C6_6 
REMARK    3  A    between atoms: C8_8  and  N9_9 
REMARK    4  A    between atoms: N9_9  and  C10_10 
REMARK    5  A    between atoms: C14_14  and  C15_15 
REMARK    6  A    between atoms: C26_26  and  O27_27 
REMARK    7  A    between atoms: C30_30  and  N31_31 
REMARK    8  A    between atoms: N31_31  and  C33_33 
REMARK    9  A    between atoms: C33_33  and  C34_34 
REMARK   10  A    between atoms: C34_34  and  N35_35 
ROOT
ATOM      1  C6  ZIN A   1      18.812  -2.089   8.479  0.00  0.00     0.058 A 
ATOM      2  C7  ZIN A   1      18.291  -1.638   9.684  0.00  0.00     0.064 A 
ATOM      3  C8  ZIN A   1      17.804  -2.547  10.611  0.00  0.00     0.085 A 
ATOM      4  C26 ZIN A   1      17.836  -3.912  10.333  0.00  0.00     0.097 A 
ATOM      5  C29 ZIN A   1      18.356  -4.363   9.130  0.00  0.00     0.065 A 
ATOM      6  C30 ZIN A   1      18.840  -3.455   8.200  0.00  0.00     0.040 A 
ENDROOT
BRANCH   3   7
ATOM      7  N9  ZIN A   1      17.277  -2.092  11.830  0.00  0.00    -0.185 N 
ATOM      8  H43 ZIN A   1      16.377  -2.342  12.093  0.00  0.00     0.184 HD
BRANCH   7   9
ATOM      9  C10 ZIN A   1      18.041  -1.286  12.655  0.00  0.00     0.727 A 
ATOM     10  N25 ZIN A   1      17.736  -0.001  12.764  0.00  0.00    -0.062 NA
ATOM     11  C14 ZIN A   1      18.449   0.800  13.555  0.00  0.00     0.089 A 
ATOM     12  C13 ZIN A   1      19.534   0.265  14.259  0.00  0.00     0.053 A 
ATOM     13  C12 ZIN A   1      19.819  -1.078  14.111  0.00  0.00     0.139 A 
ATOM     14  N11 ZIN A   1      19.063  -1.816  13.311  0.00  0.00    -0.075 NA
BRANCH  11  15
ATOM     15  C15 ZIN A   1      18.104   2.233  13.680  0.00  0.00     0.021 A 
ATOM     16  C24 ZIN A   1      17.783   3.159  12.581  0.00  0.00     0.005 A 
ATOM     17  C19 ZIN A   1      17.521   4.400  13.187  0.00  0.00     0.045 A 
ATOM     18  C23 ZIN A   1      17.687   3.024  11.198  0.00  0.00     0.014 A 
ATOM     19  N17 ZIN A   1      17.682   4.237  14.546  0.00  0.00    -0.359 N 
ATOM     20  C20 ZIN A   1      17.178   5.489  12.391  0.00  0.00     0.030 A 
ATOM     21  C16 ZIN A   1      18.027   2.951  14.830  0.00  0.00     0.105 A 
ATOM     22  C18 ZIN A   1      17.507   5.296  15.543  0.00  0.00     0.156 C 
ATOM     23  C21 ZIN A   1      17.094   5.342  11.024  0.00  0.00     0.002 A 
ATOM     24  C22 ZIN A   1      17.346   4.114  10.428  0.00  0.00     0.001 A 
ENDBRANCH  11  15
ENDBRANCH   7   9
ENDBRANCH   3   7
BRANCH   4  25
ATOM     25  O27 ZIN A   1      17.357  -4.802  11.244  0.00  0.00    -0.354 OA
ATOM     26  C28 ZIN A   1      17.281  -6.170  10.835  0.00  0.00     0.210 C 
ENDBRANCH   4  25
BRANCH   1  27
ATOM     27  N5  ZIN A   1      19.304  -1.171   7.541  0.00  0.00    -0.322 N 
ATOM     28  C3  ZIN A   1      18.450  -0.383   6.858  0.00  0.00     0.244 C 
ATOM     29  O4  ZIN A   1      17.250  -0.536   6.979  0.00  0.00    -0.268 OA
ATOM     30  H41 ZIN A   1      20.259  -1.103   7.383  0.00  0.00     0.169 HD
BRANCH  28  31
ATOM     31  C2  ZIN A   1      18.971   0.665   5.966  0.00  0.00     0.064 C 
ATOM     32  C1  ZIN A   1      19.352   0.356   4.729  0.00  0.00     0.017 C 
ENDBRANCH  28  31
ENDBRANCH   1  27
BRANCH   6  33
ATOM     33  N31 ZIN A   1      19.365  -3.911   6.984  0.00  0.00    -0.284 NA
ATOM     34  C32 ZIN A   1      20.271  -5.049   7.195  0.00  0.00     0.116 C 
BRANCH  33  35
ATOM     35  C33 ZIN A   1      18.292  -4.260   6.044  0.00  0.00     0.125 C 
BRANCH  35  36
ATOM     36  C34 ZIN A   1      18.311  -5.767   5.783  0.00  0.00     0.286 C 
BRANCH  36  37
ATOM     37  N35 ZIN A   1      17.104  -6.379   6.353  0.00  0.00     0.081 N 
ATOM     38  C36 ZIN A   1      15.930  -6.111   5.512  0.00  0.00     0.309 C 
ATOM     39  C37 ZIN A   1      17.289  -7.822   6.554  0.00  0.00     0.309 C 
ENDBRANCH  36  37
ENDBRANCH  35  36
ENDBRANCH  33  35
ENDBRANCH   6  33
TORSDOF 10
ENDMDL
MODEL 6
REMARK VINA RESULT:      -7.9      1.922      8.935
REMARK  10 active torsions:
REMARK  status: ('A' for Active; 'I' for Inactive)
REMARK    1  A    between atoms: C2_2  and  C3_3 
REMARK       I    between atoms: C3_3  and  N5_5 
REMARK    2  A    between atoms: N5_5  and  C6_6 
REMARK    3  A    between atoms: C8_8  and  N9_9 
REMARK    4  A    between atoms: N9_9  and  C10_10 
REMARK    5  A    between atoms: C14_14  and  C15_15 
REMARK    6  A    between atoms: C26_26  and  O27_27 
REMARK    7  A    between atoms: C30_30  and  N31_31 
REMARK    8  A    between atoms: N31_31  and  C33_33 
REMARK    9  A    between atoms: C33_33  and  C34_34 
REMARK   10  A    between atoms: C34_34  and  N35_35 
ROOT
ATOM      1  C6  ZIN A   1      18.149  -0.025   8.185  0.00  0.00     0.058 A 
ATOM      2  C7  ZIN A   1      18.526   1.248   8.589  0.00  0.00     0.064 A 
ATOM      3  C8  ZIN A   1      19.066   1.442   9.851  0.00  0.00     0.085 A 
ATOM      4  C26 ZIN A   1      19.231   0.360  10.713  0.00  0.00     0.097 A 
ATOM      5  C29 ZIN A   1      18.855  -0.912  10.310  0.00  0.00     0.065 A 
ATOM      6  C30 ZIN A   1      18.310  -1.107   9.050  0.00  0.00     0.040 A 
ENDROOT
BRANCH   3   7
ATOM      7  N9  ZIN A   1      19.447   2.729  10.261  0.00  0.00    -0.185 N 
ATOM      8  H43 ZIN A   1      20.338   3.057  10.062  0.00  0.00     0.184 HD
BRANCH   7   9
ATOM      9  C10 ZIN A   1      18.552   3.528  10.950  0.00  0.00     0.727 A 
ATOM     10  N25 ZIN A   1      18.694   3.676  12.259  0.00  0.00    -0.062 NA
ATOM     11  C14 ZIN A   1      17.852   4.444  12.950  0.00  0.00     0.089 A 
ATOM     12  C13 ZIN A   1      16.806   5.081  12.272  0.00  0.00     0.053 A 
ATOM     13  C12 ZIN A   1      16.693   4.894  10.909  0.00  0.00     0.139 A 
ATOM     14  N11 ZIN A   1      17.571   4.121  10.286  0.00  0.00    -0.075 NA
BRANCH  11  15
ATOM     15  C15 ZIN A   1      18.015   4.612  14.410  0.00  0.00     0.021 A 
ATOM     16  C24 ZIN A   1      18.404   3.573  15.377  0.00  0.00     0.005 A 
ATOM     17  C19 ZIN A   1      18.430   4.204  16.633  0.00  0.00     0.045 A 
ATOM     18  C23 ZIN A   1      18.733   2.224  15.268  0.00  0.00     0.014 A 
ATOM     19  N17 ZIN A   1      18.073   5.522  16.439  0.00  0.00    -0.359 N 
ATOM     20  C20 ZIN A   1      18.774   3.466  17.760  0.00  0.00     0.030 A 
ATOM     21  C16 ZIN A   1      17.829   5.755  15.120  0.00  0.00     0.105 A 
ATOM     22  C18 ZIN A   1      17.972   6.527  17.499  0.00  0.00     0.156 C 
ATOM     23  C21 ZIN A   1      19.091   2.131  17.638  0.00  0.00     0.002 A 
ATOM     24  C22 ZIN A   1      19.072   1.511  16.397  0.00  0.00     0.001 A 
ENDBRANCH  11  15
ENDBRANCH   7   9
ENDBRANCH   3   7
BRANCH   4  25
ATOM     25  O27 ZIN A   1      19.761   0.552  11.952  0.00  0.00    -0.354 OA
ATOM     26  C28 ZIN A   1      21.181   0.442  12.073  0.00  0.00     0.210 C 
ENDBRANCH   4  25
BRANCH   1  27
ATOM     27  N5  ZIN A   1      17.602  -0.222   6.909  0.00  0.00    -0.322 N 
ATOM     28  C3  ZIN A   1      18.408  -0.268   5.830  0.00  0.00     0.244 C 
ATOM     29  O4  ZIN A   1      19.596  -0.038   5.947  0.00  0.00    -0.268 OA
ATOM     30  H41 ZIN A   1      16.643  -0.325   6.803  0.00  0.00     0.169 HD
BRANCH  28  31
ATOM     31  C2  ZIN A   1      17.850  -0.598   4.509  0.00  0.00     0.064 C 
ATOM     32  C1  ZIN A   1      17.341  -1.807   4.286  0.00  0.00     0.017 C 
ENDBRANCH  28  31
ENDBRANCH   1  27
BRANCH   6  33
ATOM     33  N31 ZIN A   1      17.930  -2.393   8.642  0.00  0.00    -0.284 NA
ATOM     34  C32 ZIN A   1      19.011  -3.049   7.894  0.00  0.00     0.116 C 
BRANCH  33  35
ATOM     35  C33 ZIN A   1      17.514  -3.209   9.791  0.00  0.00     0.125 C 
BRANCH  35  36
ATOM     36  C34 ZIN A   1      17.791  -4.683   9.496  0.00  0.00     0.286 C 
BRANCH  36  37
ATOM     37  N35 ZIN A   1      18.378  -5.318  10.683  0.00  0.00     0.081 N 
ATOM     38  C36 ZIN A   1      19.366  -4.436  11.318  0.00  0.00     0.309 C 
ATOM     39  C37 ZIN A   1      17.336  -5.715  11.639  0.00  0.00     0.309 C 
ENDBRANCH  36  37
ENDBRANCH  35  36
ENDBRANCH  33  35
ENDBRANCH   6  33
TORSDOF 10
ENDMDL
MODEL 7
REMARK VINA RESULT:      -7.9      3.750      9.868
REMARK  10 active torsions:
REMARK  status: ('A' for Active; 'I' for Inactive)
REMARK    1  A    between atoms: C2_2  and  C3_3 
REMARK       I    between atoms: C3_3  and  N5_5 
REMARK    2  A    between atoms: N5_5  and  C6_6 
REMARK    3  A    between atoms: C8_8  and  N9_9 
REMARK    4  A    between atoms: N9_9  and  C10_10 
REMARK    5  A    between atoms: C14_14  and  C15_15 
REMARK    6  A    between atoms: C26_26  and  O27_27 
REMARK    7  A    between atoms: C30_30  and  N31_31 
REMARK    8  A    between atoms: N31_31  and  C33_33 
REMARK    9  A    between atoms: C33_33  and  C34_34 
REMARK   10  A    between atoms: C34_34  and  N35_35 
ROOT
ATOM      1  C6  ZIN A   1      17.639  -4.939   5.091  0.00  0.00     0.058 A 
ATOM      2  C7  ZIN A   1      18.590  -4.002   5.472  0.00  0.00     0.064 A 
ATOM      3  C8  ZIN A   1      18.882  -3.819   6.815  0.00  0.00     0.085 A 
ATOM      4  C26 ZIN A   1      18.222  -4.573   7.782  0.00  0.00     0.097 A 
ATOM      5  C29 ZIN A   1      17.273  -5.509   7.403  0.00  0.00     0.065 A 
ATOM      6  C30 ZIN A   1      16.976  -5.692   6.060  0.00  0.00     0.040 A 
ENDROOT
BRANCH   3   7
ATOM      7  N9  ZIN A   1      19.843  -2.871   7.201  0.00  0.00    -0.185 N 
ATOM      8  H43 ZIN A   1      20.766  -3.141   7.329  0.00  0.00     0.184 HD
BRANCH   7   9
ATOM      9  C10 ZIN A   1      19.472  -1.553   7.400  0.00  0.00     0.727 A 
ATOM     10  N25 ZIN A   1      19.486  -1.057   8.628  0.00  0.00    -0.062 NA
ATOM     11  C14 ZIN A   1      19.141   0.210   8.852  0.00  0.00     0.089 A 
ATOM     12  C13 ZIN A   1      18.750   1.007   7.769  0.00  0.00     0.053 A 
ATOM     13  C12 ZIN A   1      18.746   0.446   6.507  0.00  0.00     0.139 A 
ATOM     14  N11 ZIN A   1      19.108  -0.820   6.358  0.00  0.00    -0.075 NA
BRANCH  11  15
ATOM     15  C15 ZIN A   1      19.162   0.764  10.223  0.00  0.00     0.021 A 
ATOM     16  C24 ZIN A   1      18.788   2.130  10.626  0.00  0.00     0.005 A 
ATOM     17  C19 ZIN A   1      18.966   2.184  12.019  0.00  0.00     0.045 A 
ATOM     18  C23 ZIN A   1      18.321   3.247   9.939  0.00  0.00     0.014 A 
ATOM     19  N17 ZIN A   1      19.423   0.947  12.424  0.00  0.00    -0.359 N 
ATOM     20  C20 ZIN A   1      18.683   3.364  12.698  0.00  0.00     0.030 A 
ATOM     21  C16 ZIN A   1      19.536   0.113  11.355  0.00  0.00     0.105 A 
ATOM     22  C18 ZIN A   1      19.741   0.584  13.807  0.00  0.00     0.156 C 
ATOM     23  C21 ZIN A   1      18.229   4.464  12.004  0.00  0.00     0.002 A 
ATOM     24  C22 ZIN A   1      18.046   4.408  10.630  0.00  0.00     0.001 A 
ENDBRANCH  11  15
ENDBRANCH   7   9
ENDBRANCH   3   7
BRANCH   4  25
ATOM     25  O27 ZIN A   1      18.509  -4.392   9.100  0.00  0.00    -0.354 OA
ATOM     26  C28 ZIN A   1      17.483  -3.820   9.914  0.00  0.00     0.210 C 
ENDBRANCH   4  25
BRANCH   1  27
ATOM     27  N5  ZIN A   1      17.343  -5.125   3.734  0.00  0.00    -0.322 N 
ATOM     28  C3  ZIN A   1      16.470  -4.304   3.116  0.00  0.00     0.244 C 
ATOM     29  O4  ZIN A   1      15.863  -3.467   3.757  0.00  0.00    -0.268 OA
ATOM     30  H41 ZIN A   1      17.765  -5.845   3.239  0.00  0.00     0.169 HD
BRANCH  28  31
ATOM     31  C2  ZIN A   1      16.252  -4.420   1.666  0.00  0.00     0.064 C 
ATOM     32  C1  ZIN A   1      15.017  -4.536   1.187  0.00  0.00     0.017 C 
ENDBRANCH  28  31
ENDBRANCH   1  27
BRANCH   6  33
ATOM     33  N31 ZIN A   1      16.017  -6.638   5.677  0.00  0.00    -0.284 NA
ATOM     34  C32 ZIN A   1      16.311  -7.953   6.261  0.00  0.00     0.116 C 
BRANCH  33  35
ATOM     35  C33 ZIN A   1      14.664  -6.192   6.037  0.00  0.00     0.125 C 
BRANCH  35  36
ATOM     36  C34 ZIN A   1      13.712  -7.390   6.027  0.00  0.00     0.286 C 
BRANCH  36  37
ATOM     37  N35 ZIN A   1      12.818  -7.316   7.188  0.00  0.00     0.081 N 
ATOM     38  C36 ZIN A   1      12.791  -8.592   7.914  0.00  0.00     0.309 C 
ATOM     39  C37 ZIN A   1      13.201  -6.212   8.080  0.00  0.00     0.309 C 
ENDBRANCH  36  37
ENDBRANCH  35  36
ENDBRANCH  33  35
ENDBRANCH   6  33
TORSDOF 10
ENDMDL
MODEL 8
REMARK VINA RESULT:      -7.7      4.355      8.267
REMARK  10 active torsions:
REMARK  status: ('A' for Active; 'I' for Inactive)
REMARK    1  A    between atoms: C2_2  and  C3_3 
REMARK       I    between atoms: C3_3  and  N5_5 
REMARK    2  A    between atoms: N5_5  and  C6_6 
REMARK    3  A    between atoms: C8_8  and  N9_9 
REMARK    4  A    between atoms: N9_9  and  C10_10 
REMARK    5  A    between atoms: C14_14  and  C15_15 
REMARK    6  A    between atoms: C26_26  and  O27_27 
REMARK    7  A    between atoms: C30_30  and  N31_31 
REMARK    8  A    between atoms: N31_31  and  C33_33 
REMARK    9  A    between atoms: C33_33  and  C34_34 
REMARK   10  A    between atoms: C34_34  and  N35_35 
ROOT
ATOM      1  C6  ZIN A   1      18.306  -3.077   8.540  0.00  0.00     0.058 A 
ATOM      2  C7  ZIN A   1      18.328  -3.885   7.412  0.00  0.00     0.064 A 
ATOM      3  C8  ZIN A   1      18.783  -3.377   6.205  0.00  0.00     0.085 A 
ATOM      4  C26 ZIN A   1      19.217  -2.056   6.123  0.00  0.00     0.097 A 
ATOM      5  C29 ZIN A   1      19.195  -1.248   7.249  0.00  0.00     0.065 A 
ATOM      6  C30 ZIN A   1      18.736  -1.753   8.456  0.00  0.00     0.040 A 
ENDROOT
BRANCH   3   7
ATOM      7  N9  ZIN A   1      18.806  -4.193   5.063  0.00  0.00    -0.185 N 
ATOM      8  H43 ZIN A   1      19.647  -4.553   4.741  0.00  0.00     0.184 HD
BRANCH   7   9
ATOM      9  C10 ZIN A   1      17.628  -4.484   4.398  0.00  0.00     0.727 A 
ATOM     10  N25 ZIN A   1      16.935  -5.557   4.751  0.00  0.00    -0.062 NA
ATOM     11  C14 ZIN A   1      15.794  -5.860   4.134  0.00  0.00     0.089 A 
ATOM     12  C13 ZIN A   1      15.344  -5.034   3.097  0.00  0.00     0.053 A 
ATOM     13  C12 ZIN A   1      16.102  -3.930   2.759  0.00  0.00     0.139 A 
ATOM     14  N11 ZIN A   1      17.223  -3.686   3.420  0.00  0.00    -0.075 NA
BRANCH  11  15
ATOM     15  C15 ZIN A   1      15.019  -7.055   4.533  0.00  0.00     0.021 A 
ATOM     16  C24 ZIN A   1      14.101  -7.165   5.678  0.00  0.00     0.005 A 
ATOM     17  C19 ZIN A   1      13.602  -8.479   5.648  0.00  0.00     0.045 A 
ATOM     18  C23 ZIN A   1      13.675  -6.280   6.666  0.00  0.00     0.014 A 
ATOM     19  N17 ZIN A   1      14.184  -9.116   4.572  0.00  0.00    -0.359 N 
ATOM     20  C20 ZIN A   1      12.692  -8.886   6.618  0.00  0.00     0.030 A 
ATOM     21  C16 ZIN A   1      15.021  -8.266   3.917  0.00  0.00     0.105 A 
ATOM     22  C18 ZIN A   1      13.936 -10.507   4.189  0.00  0.00     0.156 C 
ATOM     23  C21 ZIN A   1      12.286  -8.002   7.593  0.00  0.00     0.002 A 
ATOM     24  C22 ZIN A   1      12.773  -6.703   7.618  0.00  0.00     0.001 A 
ENDBRANCH  11  15
ENDBRANCH   7   9
ENDBRANCH   3   7
BRANCH   4  25
ATOM     25  O27 ZIN A   1      19.663  -1.558   4.938  0.00  0.00    -0.354 OA
ATOM     26  C28 ZIN A   1      18.910  -0.490   4.359  0.00  0.00     0.210 C 
ENDBRANCH   4  25
BRANCH   1  27
ATOM     27  N5  ZIN A   1      17.845  -3.589   9.760  0.00  0.00    -0.322 N 
ATOM     28  C3  ZIN A   1      18.690  -4.253  10.574  0.00  0.00     0.244 C 
ATOM     29  O4  ZIN A   1      19.823  -4.497  10.207  0.00  0.00    -0.268 OA
ATOM     30  H41 ZIN A   1      16.918  -3.466  10.020  0.00  0.00     0.169 HD
BRANCH  28  31
ATOM     31  C2  ZIN A   1      18.241  -4.683  11.908  0.00  0.00     0.064 C 
ATOM     32  C1  ZIN A   1      17.331  -5.646  12.025  0.00  0.00     0.017 C 
ENDBRANCH  28  31
ENDBRANCH   1  27
BRANCH   6  33
ATOM     33  N31 ZIN A   1      18.714  -0.937   9.595  0.00  0.00    -0.284 NA
ATOM     34  C32 ZIN A   1      20.077  -0.645  10.061  0.00  0.00     0.116 C 
BRANCH  33  35
ATOM     35  C33 ZIN A   1      17.969   0.304   9.340  0.00  0.00     0.125 C 
BRANCH  35  36
ATOM     36  C34 ZIN A   1      18.003   1.187  10.588  0.00  0.00     0.286 C 
BRANCH  36  37
ATOM     37  N35 ZIN A   1      18.407   2.548  10.214  0.00  0.00     0.081 N 
ATOM     38  C36 ZIN A   1      19.434   3.062  11.130  0.00  0.00     0.309 C 
ATOM     39  C37 ZIN A   1      18.871   2.597   8.821  0.00  0.00     0.309 C 
ENDBRANCH  36  37
ENDBRANCH  35  36
ENDBRANCH  33  35
ENDBRANCH   6  33
TORSDOF 10
ENDMDL
MODEL 9
REMARK VINA RESULT:      -7.7      2.128      8.612
REMARK  10 active torsions:
REMARK  status: ('A' for Active; 'I' for Inactive)
REMARK    1  A    between atoms: C2_2  and  C3_3 
REMARK       I    between atoms: C3_3  and  N5_5 
REMARK    2  A    between atoms: N5_5  and  C6_6 
REMARK    3  A    between atoms: C8_8  and  N9_9 
REMARK    4  A    between atoms: N9_9  and  C10_10 
REMARK    5  A    between atoms: C14_14  and  C15_15 
REMARK    6  A    between atoms: C26_26  and  O27_27 
REMARK    7  A    between atoms: C30_30  and  N31_31 
REMARK    8  A    between atoms: N31_31  and  C33_33 
REMARK    9  A    between atoms: C33_33  and  C34_34 
REMARK   10  A    between atoms: C34_34  and  N35_35 
ROOT
ATOM      1  C6  ZIN A   1      18.349  -1.033   7.284  0.00  0.00     0.058 A 
ATOM      2  C7  ZIN A   1      18.648   0.276   7.632  0.00  0.00     0.064 A 
ATOM      3  C8  ZIN A   1      19.432   0.534   8.747  0.00  0.00     0.085 A 
ATOM      4  C26 ZIN A   1      19.919  -0.520   9.516  0.00  0.00     0.097 A 
ATOM      5  C29 ZIN A   1      19.621  -1.828   9.169  0.00  0.00     0.065 A 
ATOM      6  C30 ZIN A   1      18.833  -2.088   8.057  0.00  0.00     0.040 A 
ENDROOT
BRANCH   3   7
ATOM      7  N9  ZIN A   1      19.735   1.858   9.100  0.00  0.00    -0.185 N 
ATOM      8  H43 ZIN A   1      20.473   2.318   8.671  0.00  0.00     0.184 HD
BRANCH   7   9
ATOM      9  C10 ZIN A   1      18.980   2.506  10.062  0.00  0.00     0.727 A 
ATOM     10  N25 ZIN A   1      18.982   2.044  11.304  0.00  0.00    -0.062 NA
ATOM     11  C14 ZIN A   1      18.271   2.649  12.254  0.00  0.00     0.089 A 
ATOM     12  C13 ZIN A   1      17.510   3.775  11.916  0.00  0.00     0.053 A 
ATOM     13  C12 ZIN A   1      17.533   4.218  10.608  0.00  0.00     0.139 A 
ATOM     14  N11 ZIN A   1      18.269   3.570   9.717  0.00  0.00    -0.075 NA
BRANCH  11  15
ATOM     15  C15 ZIN A   1      18.279   2.135  13.640  0.00  0.00     0.021 A 
ATOM     16  C24 ZIN A   1      18.604   2.896  14.858  0.00  0.00     0.005 A 
ATOM     17  C19 ZIN A   1      18.473   1.991  15.925  0.00  0.00     0.045 A 
ATOM     18  C23 ZIN A   1      18.962   4.219  15.106  0.00  0.00     0.014 A 
ATOM     19  N17 ZIN A   1      18.106   0.774  15.390  0.00  0.00    -0.359 N 
ATOM     20  C20 ZIN A   1      18.714   2.427  17.224  0.00  0.00     0.030 A 
ATOM     21  C16 ZIN A   1      17.994   0.868  14.037  0.00  0.00     0.105 A 
ATOM     22  C18 ZIN A   1      17.872  -0.446  16.167  0.00  0.00     0.156 C 
ATOM     23  C21 ZIN A   1      19.074   3.737  17.453  0.00  0.00     0.002 A 
ATOM     24  C22 ZIN A   1      19.197   4.631  16.400  0.00  0.00     0.001 A 
ENDBRANCH  11  15
ENDBRANCH   7   9
ENDBRANCH   3   7
BRANCH   4  25
ATOM     25  O27 ZIN A   1      20.687  -0.265  10.610  0.00  0.00    -0.354 OA
ATOM     26  C28 ZIN A   1      20.266  -0.843  11.847  0.00  0.00     0.210 C 
ENDBRANCH   4  25
BRANCH   1  27
ATOM     27  N5  ZIN A   1      17.556  -1.295   6.158  0.00  0.00    -0.322 N 
ATOM     28  C3  ZIN A   1      18.136  -1.637   4.990  0.00  0.00     0.244 C 
ATOM     29  O4  ZIN A   1      19.347  -1.620   4.883  0.00  0.00    -0.268 OA
ATOM     30  H41 ZIN A   1      16.590  -1.231   6.219  0.00  0.00     0.169 HD
BRANCH  28  31
ATOM     31  C2  ZIN A   1      17.303  -2.033   3.843  0.00  0.00     0.064 C 
ATOM     32  C1  ZIN A   1      16.935  -3.302   3.696  0.00  0.00     0.017 C 
ENDBRANCH  28  31
ENDBRANCH   1  27
BRANCH   6  33
ATOM     33  N31 ZIN A   1      18.532  -3.410   7.705  0.00  0.00    -0.284 NA
ATOM     34  C32 ZIN A   1      19.707  -4.278   7.862  0.00  0.00     0.116 C 
BRANCH  33  35
ATOM     35  C33 ZIN A   1      17.395  -3.918   8.486  0.00  0.00     0.125 C 
BRANCH  35  36
ATOM     36  C34 ZIN A   1      17.894  -4.940   9.508  0.00  0.00     0.286 C 
BRANCH  36  37
ATOM     37  N35 ZIN A   1      17.170  -4.763  10.773  0.00  0.00     0.081 N 
ATOM     38  C36 ZIN A   1      17.379  -5.911  11.665  0.00  0.00     0.309 C 
ATOM     39  C37 ZIN A   1      17.555  -3.508  11.431  0.00  0.00     0.309 C 
ENDBRANCH  36  37
ENDBRANCH  35  36
ENDBRANCH  33  35
ENDBRANCH   6  33
TORSDOF 10
ENDMDL
