MODEL 1
REMARK VINA RESULT:      -8.1      0.000      0.000
REMARK  11 active torsions:
REMARK  status: ('A' for Active; 'I' for Inactive)
REMARK    1  A    between atoms: C3_3  and  C4_4 
REMARK    2  A    between atoms: C4_4  and  C5_5 
REMARK    3  A    between atoms: C5_5  and  C8_7 
REMARK    4  A    between atoms: C8_7  and  O10_8 
REMARK    5  A    between atoms: C8_7  and  C11_9 
REMARK    6  A    between atoms: C12_10  and  C13_11 
REMARK    7  A    between atoms: C15_12  and  O17_13 
REMARK    8  A    between atoms: C23_18  and  C24_19 
REMARK    9  A    between atoms: C24_19  and  C25_20 
REMARK   10  A    between atoms: C25_20  and  C26_21 
REMARK   11  A    between atoms: C26_21  and  C27_22 
ROOT
ATOM      1  C1  ZIN A   1      19.355   2.469  10.349  0.00  0.00     0.112 C 
ATOM      2  C2  ZIN A   1      19.135   2.057   8.953  0.00  0.00    -0.111 C 
ATOM      3  C3  ZIN A   1      18.959   1.729   7.840  0.00  0.00    -0.107 C 
ENDROOT
BRANCH   3   4
ATOM      4  C4  ZIN A   1      18.739   1.318   6.443  0.00  0.00     0.101 C 
BRANCH   4   5
ATOM      5  C5  ZIN A   1      19.131  -0.151   6.277  0.00  0.00     0.025 C 
ATOM      6  C7  ZIN A   1      19.430  -0.436   4.804  0.00  0.00     0.014 C 
BRANCH   5   7
ATOM      7  C8  ZIN A   1      17.978  -1.042   6.744  0.00  0.00     0.145 C 
BRANCH   7   8
ATOM      8  O10 ZIN A   1      16.742  -0.342   6.589  0.00  0.00    -0.391 OA
ATOM      9  H41 ZIN A   1      16.824   0.620   6.655  0.00  0.00     0.210 HD
ENDBRANCH   7   8
BRANCH   7  10
ATOM     10  C11 ZIN A   1      18.175  -1.401   8.194  0.00  0.00     0.001 C 
ATOM     11  C12 ZIN A   1      17.895  -2.610   8.614  0.00  0.00    -0.021 C 
BRANCH  11  12
ATOM     12  C13 ZIN A   1      18.090  -2.968  10.064  0.00  0.00     0.041 C 
ATOM     13  C31 ZIN A   1      18.609  -1.750  10.844  0.00  0.00     0.004 C 
ATOM     14  C19 ZIN A   1      19.720  -2.260  11.787  0.00  0.00    -0.003 C 
ATOM     15  C30 ZIN A   1      17.490  -1.206  11.779  0.00  0.00     0.039 C 
ATOM     16  C18 ZIN A   1      19.845  -3.774  11.559  0.00  0.00     0.037 C 
ATOM     17  C21 ZIN A   1      19.251  -1.995  13.227  0.00  0.00     0.039 C 
ATOM     18  C15 ZIN A   1      19.174  -4.054  10.202  0.00  0.00     0.126 C 
ATOM     19  C22 ZIN A   1      18.143  -0.966  13.126  0.00  0.00    -0.083 C 
ATOM     20  C23 ZIN A   1      17.818  -0.060  14.014  0.00  0.00    -0.024 C 
BRANCH  18  21
ATOM     21  O17 ZIN A   1      18.579  -5.352  10.198  0.00  0.00    -0.395 OA
ATOM     22  H44 ZIN A   1      19.212  -6.075  10.088  0.00  0.00     0.210 HD
ENDBRANCH  18  21
BRANCH  20  23
ATOM     23  C24 ZIN A   1      18.584   0.034  15.309  0.00  0.00     0.028 C 
BRANCH  23  24
ATOM     24  C25 ZIN A   1      17.613  -0.089  16.486  0.00  0.00     0.014 C 
BRANCH  24  25
ATOM     25  C26 ZIN A   1      18.402  -0.306  17.778  0.00  0.00     0.113 C 
BRANCH  25  26
ATOM     26  C27 ZIN A   1      18.526   1.002  18.516  0.00  0.00     0.172 C 
ATOM     27  O28 ZIN A   1      17.533   1.534  18.983  0.00  0.00    -0.648 OA
ATOM     28  O29 ZIN A   1      19.618   1.527  18.648  0.00  0.00    -0.648 OA
ENDBRANCH  25  26
ENDBRANCH  24  25
ENDBRANCH  23  24
ENDBRANCH  20  23
ENDBRANCH  11  12
ENDBRANCH   7  10
ENDBRANCH   5   7
ENDBRANCH   4   5
ENDBRANCH   3   4
TORSDOF 11
ENDMDL
MODEL 2
REMARK VINA RESULT:      -7.9      3.920      6.271
REMARK  11 active torsions:
REMARK  status: ('A' for Active; 'I' for Inactive)
REMARK    1  A    between atoms: C3_3  and  C4_4 
REMARK    2  A    between atoms: C4_4  and  C5_5 
REMARK    3  A    between atoms: C5_5  and  C8_7 
REMARK    4  A    between atoms: C8_7  and  O10_8 
REMARK    5  A    between atoms: C8_7  and  C11_9 
REMARK    6  A    between atoms: C12_10  and  C13_11 
REMARK    7  A    between atoms: C15_12  and  O17_13 
REMARK    8  A    between atoms: C23_18  and  C24_19 
REMARK    9  A    between atoms: C24_19  and  C25_20 
REMARK   10  A    between atoms: C25_20  and  C26_21 
REMARK   11  A    between atoms: C26_21  and  C27_22 
ROOT
ATOM      1  C1  ZIN A   1      18.973  -3.300  11.743  0.00  0.00     0.112 C 
ATOM      2  C2  ZIN A   1      19.093  -4.357  10.725  0.00  0.00    -0.111 C 
ATOM      3  C3  ZIN A   1      19.187  -5.200   9.913  0.00  0.00    -0.107 C 
ENDROOT
BRANCH   3   4
ATOM      4  C4  ZIN A   1      19.307  -6.257   8.896  0.00  0.00     0.101 C 
BRANCH   4   5
ATOM      5  C5  ZIN A   1      18.052  -6.268   8.021  0.00  0.00     0.025 C 
ATOM      6  C7  ZIN A   1      17.573  -7.708   7.833  0.00  0.00     0.014 C 
BRANCH   5   7
ATOM      7  C8  ZIN A   1      18.377  -5.656   6.657  0.00  0.00     0.145 C 
BRANCH   7   8
ATOM      8  O10 ZIN A   1      19.670  -6.092   6.235  0.00  0.00    -0.391 OA
ATOM      9  H41 ZIN A   1      19.690  -6.998   5.899  0.00  0.00     0.210 HD
ENDBRANCH   7   8
BRANCH   7  10
ATOM     10  C11 ZIN A   1      18.363  -4.153   6.763  0.00  0.00     0.001 C 
ATOM     11  C12 ZIN A   1      19.467  -3.473   6.575  0.00  0.00    -0.021 C 
BRANCH  11  12
ATOM     12  C13 ZIN A   1      19.453  -1.970   6.682  0.00  0.00     0.041 C 
ATOM     13  C31 ZIN A   1      18.544  -1.531   7.840  0.00  0.00     0.004 C 
ATOM     14  C19 ZIN A   1      17.722  -0.326   7.335  0.00  0.00    -0.003 C 
ATOM     15  C30 ZIN A   1      19.410  -0.979   9.010  0.00  0.00     0.039 C 
ATOM     16  C18 ZIN A   1      18.155  -0.062   5.884  0.00  0.00     0.037 C 
ATOM     17  C21 ZIN A   1      18.098   0.881   8.210  0.00  0.00     0.039 C 
ATOM     18  C15 ZIN A   1      18.846  -1.352   5.408  0.00  0.00     0.126 C 
ATOM     19  C22 ZIN A   1      18.749   0.312   9.454  0.00  0.00    -0.083 C 
ATOM     20  C23 ZIN A   1      18.742   0.825  10.659  0.00  0.00    -0.024 C 
BRANCH  18  21
ATOM     21  O17 ZIN A   1      19.876  -1.048   4.465  0.00  0.00    -0.395 OA
ATOM     22  H44 ZIN A   1      19.913  -0.116   4.210  0.00  0.00     0.210 HD
ENDBRANCH  18  21
BRANCH  20  23
ATOM     23  C24 ZIN A   1      18.028   2.127  10.918  0.00  0.00     0.028 C 
BRANCH  23  24
ATOM     24  C25 ZIN A   1      19.033   3.280  10.856  0.00  0.00     0.014 C 
BRANCH  24  25
ATOM     25  C26 ZIN A   1      18.441   4.509  11.548  0.00  0.00     0.113 C 
BRANCH  25  26
ATOM     26  C27 ZIN A   1      17.222   4.972  10.792  0.00  0.00     0.172 C 
ATOM     27  O28 ZIN A   1      16.112   4.808  11.267  0.00  0.00    -0.648 OA
ATOM     28  O29 ZIN A   1      17.348   5.513   9.706  0.00  0.00    -0.648 OA
ENDBRANCH  25  26
ENDBRANCH  24  25
ENDBRANCH  23  24
ENDBRANCH  20  23
ENDBRANCH  11  12
ENDBRANCH   7  10
ENDBRANCH   5   7
ENDBRANCH   4   5
ENDBRANCH   3   4
TORSDOF 11
ENDMDL
MODEL 3
REMARK VINA RESULT:      -7.8      2.257      9.367
REMARK  11 active torsions:
REMARK  status: ('A' for Active; 'I' for Inactive)
REMARK    1  A    between atoms: C3_3  and  C4_4 
REMARK    2  A    between atoms: C4_4  and  C5_5 
REMARK    3  A    between atoms: C5_5  and  C8_7 
REMARK    4  A    between atoms: C8_7  and  O10_8 
REMARK    5  A    between atoms: C8_7  and  C11_9 
REMARK    6  A    between atoms: C12_10  and  C13_11 
REMARK    7  A    between atoms: C15_12  and  O17_13 
REMARK    8  A    between atoms: C23_18  and  C24_19 
REMARK    9  A    between atoms: C24_19  and  C25_20 
REMARK   10  A    between atoms: C25_20  and  C26_21 
REMARK   11  A    between atoms: C26_21  and  C27_22 
ROOT
ATOM      1  C1  ZIN A   1      19.143  -1.937  13.458  0.00  0.00     0.112 C 
ATOM      2  C2  ZIN A   1      19.188  -1.630  14.897  0.00  0.00    -0.111 C 
ATOM      3  C3  ZIN A   1      19.224  -1.386  16.045  0.00  0.00    -0.107 C 
ENDROOT
BRANCH   3   4
ATOM      4  C4  ZIN A   1      19.268  -1.080  17.484  0.00  0.00     0.101 C 
BRANCH   4   5
ATOM      5  C5  ZIN A   1      18.460   0.188  17.760  0.00  0.00     0.025 C 
ATOM      6  C7  ZIN A   1      17.108   0.097  17.051  0.00  0.00     0.014 C 
BRANCH   5   7
ATOM      7  C8  ZIN A   1      19.227   1.405  17.239  0.00  0.00     0.145 C 
BRANCH   7   8
ATOM      8  O10 ZIN A   1      19.218   2.434  18.231  0.00  0.00    -0.391 OA
ATOM      9  H41 ZIN A   1      19.381   3.320  17.880  0.00  0.00     0.210 HD
ENDBRANCH   7   8
BRANCH   7  10
ATOM     10  C11 ZIN A   1      18.569   1.914  15.982  0.00  0.00     0.001 C 
ATOM     11  C12 ZIN A   1      19.299   2.204  14.933  0.00  0.00    -0.021 C 
BRANCH  11  12
ATOM     12  C13 ZIN A   1      18.641   2.714  13.677  0.00  0.00     0.041 C 
ATOM     13  C31 ZIN A   1      19.399   2.207  12.440  0.00  0.00     0.004 C 
ATOM     14  C19 ZIN A   1      19.503   3.395  11.459  0.00  0.00    -0.003 C 
ATOM     15  C30 ZIN A   1      18.546   1.134  11.701  0.00  0.00     0.039 C 
ATOM     16  C18 ZIN A   1      18.804   4.591  12.123  0.00  0.00     0.037 C 
ATOM     17  C21 ZIN A   1      18.743   2.999  10.183  0.00  0.00     0.039 C 
ATOM     18  C15 ZIN A   1      18.719   4.251  13.622  0.00  0.00     0.126 C 
ATOM     19  C22 ZIN A   1      18.600   1.491  10.228  0.00  0.00    -0.083 C 
ATOM     20  C23 ZIN A   1      18.537   0.669   9.211  0.00  0.00    -0.024 C 
BRANCH  18  21
ATOM     21  O17 ZIN A   1      17.546   4.828  14.199  0.00  0.00    -0.395 OA
ATOM     22  H44 ZIN A   1      17.699   5.269  15.045  0.00  0.00     0.210 HD
ENDBRANCH  18  21
BRANCH  20  23
ATOM     23  C24 ZIN A   1      18.607   1.206   7.804  0.00  0.00     0.028 C 
BRANCH  23  24
ATOM     24  C25 ZIN A   1      17.803   0.297   6.871  0.00  0.00     0.014 C 
BRANCH  24  25
ATOM     25  C26 ZIN A   1      18.528   0.173   5.531  0.00  0.00     0.113 C 
BRANCH  25  26
ATOM     26  C27 ZIN A   1      19.297  -1.124   5.494  0.00  0.00     0.172 C 
ATOM     27  O28 ZIN A   1      19.482  -1.751   6.522  0.00  0.00    -0.648 OA
ATOM     28  O29 ZIN A   1      19.732  -1.545   4.436  0.00  0.00    -0.648 OA
ENDBRANCH  25  26
ENDBRANCH  24  25
ENDBRANCH  23  24
ENDBRANCH  20  23
ENDBRANCH  11  12
ENDBRANCH   7  10
ENDBRANCH   5   7
ENDBRANCH   4   5
ENDBRANCH   3   4
TORSDOF 11
ENDMDL
MODEL 4
REMARK VINA RESULT:      -7.7      3.021      8.228
REMARK  11 active torsions:
REMARK  status: ('A' for Active; 'I' for Inactive)
REMARK    1  A    between atoms: C3_3  and  C4_4 
REMARK    2  A    between atoms: C4_4  and  C5_5 
REMARK    3  A    between atoms: C5_5  and  C8_7 
REMARK    4  A    between atoms: C8_7  and  O10_8 
REMARK    5  A    between atoms: C8_7  and  C11_9 
REMARK    6  A    between atoms: C12_10  and  C13_11 
REMARK    7  A    between atoms: C15_12  and  O17_13 
REMARK    8  A    between atoms: C23_18  and  C24_19 
REMARK    9  A    between atoms: C24_19  and  C25_20 
REMARK   10  A    between atoms: C25_20  and  C26_21 
REMARK   11  A    between atoms: C26_21  and  C27_22 
ROOT
ATOM      1  C1  ZIN A   1      18.810   3.043  11.122  0.00  0.00     0.112 C 
ATOM      2  C2  ZIN A   1      19.226   4.043  12.118  0.00  0.00    -0.111 C 
ATOM      3  C3  ZIN A   1      19.558   4.841  12.913  0.00  0.00    -0.107 C 
ENDROOT
BRANCH   3   4
ATOM      4  C4  ZIN A   1      19.975   5.841  13.910  0.00  0.00     0.101 C 
BRANCH   4   5
ATOM      5  C5  ZIN A   1      18.942   5.897  15.038  0.00  0.00     0.025 C 
ATOM      6  C7  ZIN A   1      18.335   7.299  15.105  0.00  0.00     0.014 C 
BRANCH   5   7
ATOM      7  C8  ZIN A   1      19.623   5.572  16.369  0.00  0.00     0.145 C 
BRANCH   7   8
ATOM      8  O10 ZIN A   1      20.851   6.295  16.464  0.00  0.00    -0.391 OA
ATOM      9  H41 ZIN A   1      20.966   6.768  17.300  0.00  0.00     0.210 HD
ENDBRANCH   7   8
BRANCH   7  10
ATOM     10  C11 ZIN A   1      19.903   4.093  16.444  0.00  0.00     0.001 C 
ATOM     11  C12 ZIN A   1      18.976   3.233  16.102  0.00  0.00    -0.021 C 
BRANCH  11  12
ATOM     12  C13 ZIN A   1      19.256   1.754  16.177  0.00  0.00     0.041 C 
ATOM     13  C31 ZIN A   1      18.461   1.009  15.094  0.00  0.00     0.004 C 
ATOM     14  C19 ZIN A   1      17.885  -0.262  15.753  0.00  0.00    -0.003 C 
ATOM     15  C30 ZIN A   1      19.429   0.499  13.987  0.00  0.00     0.039 C 
ATOM     16  C18 ZIN A   1      18.347  -0.259  17.219  0.00  0.00     0.037 C 
ATOM     17  C21 ZIN A   1      18.498  -1.470  15.025  0.00  0.00     0.039 C 
ATOM     18  C15 ZIN A   1      18.769   1.190  17.525  0.00  0.00     0.126 C 
ATOM     19  C22 ZIN A   1      19.037  -0.940  13.712  0.00  0.00    -0.083 C 
ATOM     20  C23 ZIN A   1      19.141  -1.587  12.578  0.00  0.00    -0.024 C 
BRANCH  18  21
ATOM     21  O17 ZIN A   1      19.829   1.209  18.483  0.00  0.00    -0.395 OA
ATOM     22  H44 ZIN A   1      20.675   0.889  18.140  0.00  0.00     0.210 HD
ENDBRANCH  18  21
BRANCH  20  23
ATOM     23  C24 ZIN A   1      18.698  -3.025  12.488  0.00  0.00     0.028 C 
BRANCH  23  24
ATOM     24  C25 ZIN A   1      19.091  -3.596  11.124  0.00  0.00     0.014 C 
BRANCH  24  25
ATOM     25  C26 ZIN A   1      19.144  -2.466  10.095  0.00  0.00     0.113 C 
BRANCH  25  26
ATOM     26  C27 ZIN A   1      18.162  -2.749   8.987  0.00  0.00     0.172 C 
ATOM     27  O28 ZIN A   1      18.097  -2.003   8.026  0.00  0.00    -0.648 OA
ATOM     28  O29 ZIN A   1      17.434  -3.724   9.053  0.00  0.00    -0.648 OA
ENDBRANCH  25  26
ENDBRANCH  24  25
ENDBRANCH  23  24
ENDBRANCH  20  23
ENDBRANCH  11  12
ENDBRANCH   7  10
ENDBRANCH   5   7
ENDBRANCH   4   5
ENDBRANCH   3   4
TORSDOF 11
ENDMDL
MODEL 5
REMARK VINA RESULT:      -7.7      2.863      5.750
REMARK  11 active torsions:
REMARK  status: ('A' for Active; 'I' for Inactive)
REMARK    1  A    between atoms: C3_3  and  C4_4 
REMARK    2  A    between atoms: C4_4  and  C5_5 
REMARK    3  A    between atoms: C5_5  and  C8_7 
REMARK    4  A    between atoms: C8_7  and  O10_8 
REMARK    5  A    between atoms: C8_7  and  C11_9 
REMARK    6  A    between atoms: C12_10  and  C13_11 
REMARK    7  A    between atoms: C15_12  and  O17_13 
REMARK    8  A    between atoms: C23_18  and  C24_19 
REMARK    9  A    between atoms: C24_19  and  C25_20 
REMARK   10  A    between atoms: C25_20  and  C26_21 
REMARK   11  A    between atoms: C26_21  and  C27_22 
ROOT
ATOM      1  C1  ZIN A   1      17.461  -1.364  11.577  0.00  0.00     0.112 C 
ATOM      2  C2  ZIN A   1      17.424  -2.766  11.130  0.00  0.00    -0.111 C 
ATOM      3  C3  ZIN A   1      17.395  -3.885  10.774  0.00  0.00    -0.107 C 
ENDROOT
BRANCH   3   4
ATOM      4  C4  ZIN A   1      17.359  -5.287  10.328  0.00  0.00     0.101 C 
BRANCH   4   5
ATOM      5  C5  ZIN A   1      18.704  -5.657   9.701  0.00  0.00     0.025 C 
ATOM      6  C7  ZIN A   1      19.813  -4.820  10.342  0.00  0.00     0.014 C 
BRANCH   5   7
ATOM      7  C8  ZIN A   1      18.660  -5.377   8.197  0.00  0.00     0.145 C 
BRANCH   7   8
ATOM      8  O10 ZIN A   1      19.658  -6.159   7.538  0.00  0.00    -0.391 OA
ATOM      9  H41 ZIN A   1      20.379  -5.638   7.160  0.00  0.00     0.210 HD
ENDBRANCH   7   8
BRANCH   7  10
ATOM     10  C11 ZIN A   1      18.923  -3.914   7.949  0.00  0.00     0.001 C 
ATOM     11  C12 ZIN A   1      18.948  -3.452   6.724  0.00  0.00    -0.021 C 
BRANCH  11  12
ATOM     12  C13 ZIN A   1      19.212  -1.989   6.476  0.00  0.00     0.041 C 
ATOM     13  C31 ZIN A   1      18.428  -1.132   7.482  0.00  0.00     0.004 C 
ATOM     14  C19 ZIN A   1      17.828   0.052   6.694  0.00  0.00    -0.003 C 
ATOM     15  C30 ZIN A   1      19.409  -0.492   8.507  0.00  0.00     0.039 C 
ATOM     16  C18 ZIN A   1      18.266  -0.114   5.230  0.00  0.00     0.037 C 
ATOM     17  C21 ZIN A   1      18.441   1.339   7.270  0.00  0.00     0.039 C 
ATOM     18  C15 ZIN A   1      18.697  -1.585   5.082  0.00  0.00     0.126 C 
ATOM     19  C22 ZIN A   1      19.007   0.966   8.625  0.00  0.00    -0.083 C 
ATOM     20  C23 ZIN A   1      19.124   1.738   9.676  0.00  0.00    -0.024 C 
BRANCH  18  21
ATOM     21  O17 ZIN A   1      19.741  -1.703   4.114  0.00  0.00    -0.395 OA
ATOM     22  H44 ZIN A   1      19.427  -1.889   3.218  0.00  0.00     0.210 HD
ENDBRANCH  18  21
BRANCH  20  23
ATOM     23  C24 ZIN A   1      18.668   3.173   9.610  0.00  0.00     0.028 C 
BRANCH  23  24
ATOM     24  C25 ZIN A   1      17.702   3.455  10.763  0.00  0.00     0.014 C 
BRANCH  24  25
ATOM     25  C26 ZIN A   1      17.760   2.304  11.769  0.00  0.00     0.113 C 
BRANCH  25  26
ATOM     26  C27 ZIN A   1      18.245   2.822  13.098  0.00  0.00     0.172 C 
ATOM     27  O28 ZIN A   1      17.959   2.231  14.124  0.00  0.00    -0.648 OA
ATOM     28  O29 ZIN A   1      18.925   3.834  13.147  0.00  0.00    -0.648 OA
ENDBRANCH  25  26
ENDBRANCH  24  25
ENDBRANCH  23  24
ENDBRANCH  20  23
ENDBRANCH  11  12
ENDBRANCH   7  10
ENDBRANCH   5   7
ENDBRANCH   4   5
ENDBRANCH   3   4
TORSDOF 11
ENDMDL
MODEL 6
REMARK VINA RESULT:      -7.5      4.370      6.732
REMARK  11 active torsions:
REMARK  status: ('A' for Active; 'I' for Inactive)
REMARK    1  A    between atoms: C3_3  and  C4_4 
REMARK    2  A    between atoms: C4_4  and  C5_5 
REMARK    3  A    between atoms: C5_5  and  C8_7 
REMARK    4  A    between atoms: C8_7  and  O10_8 
REMARK    5  A    between atoms: C8_7  and  C11_9 
REMARK    6  A    between atoms: C12_10  and  C13_11 
REMARK    7  A    between atoms: C15_12  and  O17_13 
REMARK    8  A    between atoms: C23_18  and  C24_19 
REMARK    9  A    between atoms: C24_19  and  C25_20 
REMARK   10  A    between atoms: C25_20  and  C26_21 
REMARK   11  A    between atoms: C26_21  and  C27_22 
ROOT
ATOM      1  C1  ZIN A   1      13.418  -6.229   8.069  0.00  0.00     0.112 C 
ATOM      2  C2  ZIN A   1      14.790  -5.895   8.485  0.00  0.00    -0.111 C 
ATOM      3  C3  ZIN A   1      15.884  -5.629   8.816  0.00  0.00    -0.107 C 
ENDROOT
BRANCH   3   4
ATOM      4  C4  ZIN A   1      17.256  -5.293   9.232  0.00  0.00     0.101 C 
BRANCH   4   5
ATOM      5  C5  ZIN A   1      18.246  -6.201   8.501  0.00  0.00     0.025 C 
ATOM      6  C7  ZIN A   1      19.633  -6.055   9.129  0.00  0.00     0.014 C 
BRANCH   5   7
ATOM      7  C8  ZIN A   1      18.311  -5.802   7.025  0.00  0.00     0.145 C 
BRANCH   7   8
ATOM      8  O10 ZIN A   1      19.503  -6.331   6.441  0.00  0.00    -0.391 OA
ATOM      9  H41 ZIN A   1      19.572  -6.184   5.487  0.00  0.00     0.210 HD
ENDBRANCH   7   8
BRANCH   7  10
ATOM     10  C11 ZIN A   1      18.319  -4.299   6.910  0.00  0.00     0.001 C 
ATOM     11  C12 ZIN A   1      19.335  -3.691   6.349  0.00  0.00    -0.021 C 
BRANCH  11  12
ATOM     12  C13 ZIN A   1      19.343  -2.189   6.235  0.00  0.00     0.041 C 
ATOM     13  C31 ZIN A   1      18.538  -1.567   7.385  0.00  0.00     0.004 C 
ATOM     14  C19 ZIN A   1      17.687  -0.431   6.777  0.00  0.00    -0.003 C 
ATOM     15  C30 ZIN A   1      19.503  -0.869   8.388  0.00  0.00     0.039 C 
ATOM     16  C18 ZIN A   1      18.000  -0.390   5.273  0.00  0.00     0.037 C 
ATOM     17  C21 ZIN A   1      18.145   0.882   7.432  0.00  0.00     0.039 C 
ATOM     18  C15 ZIN A   1      18.638  -1.751   4.937  0.00  0.00     0.126 C 
ATOM     19  C22 ZIN A   1      18.892   0.486   8.690  0.00  0.00    -0.083 C 
ATOM     20  C23 ZIN A   1      18.990   1.169   9.803  0.00  0.00    -0.024 C 
BRANCH  18  21
ATOM     21  O17 ZIN A   1      19.588  -1.609   3.880  0.00  0.00    -0.395 OA
ATOM     22  H44 ZIN A   1      19.558  -0.749   3.437  0.00  0.00     0.210 HD
ENDBRANCH  18  21
BRANCH  20  23
ATOM     23  C24 ZIN A   1      18.312   2.510   9.925  0.00  0.00     0.028 C 
BRANCH  23  24
ATOM     24  C25 ZIN A   1      19.061   3.369  10.947  0.00  0.00     0.014 C 
BRANCH  24  25
ATOM     25  C26 ZIN A   1      18.052   4.103  11.832  0.00  0.00     0.113 C 
BRANCH  25  26
ATOM     26  C27 ZIN A   1      17.120   4.912  10.967  0.00  0.00     0.172 C 
ATOM     27  O28 ZIN A   1      15.916   4.851  11.146  0.00  0.00    -0.648 OA
ATOM     28  O29 ZIN A   1      17.571   5.628  10.090  0.00  0.00    -0.648 OA
ENDBRANCH  25  26
ENDBRANCH  24  25
ENDBRANCH  23  24
ENDBRANCH  20  23
ENDBRANCH  11  12
ENDBRANCH   7  10
ENDBRANCH   5   7
ENDBRANCH   4   5
ENDBRANCH   3   4
TORSDOF 11
ENDMDL
MODEL 7
REMARK VINA RESULT:      -7.5      2.737      5.865
REMARK  11 active torsions:
REMARK  status: ('A' for Active; 'I' for Inactive)
REMARK    1  A    between atoms: C3_3  and  C4_4 
REMARK    2  A    between atoms: C4_4  and  C5_5 
REMARK    3  A    between atoms: C5_5  and  C8_7 
REMARK    4  A    between atoms: C8_7  and  O10_8 
REMARK    5  A    between atoms: C8_7  and  C11_9 
REMARK    6  A    between atoms: C12_10  and  C13_11 
REMARK    7  A    between atoms: C15_12  and  O17_13 
REMARK    8  A    between atoms: C23_18  and  C24_19 
REMARK    9  A    between atoms: C24_19  and  C25_20 
REMARK   10  A    between atoms: C25_20  and  C26_21 
REMARK   11  A    between atoms: C26_21  and  C27_22 
ROOT
ATOM      1  C1  ZIN A   1      13.836  -6.339   7.848  0.00  0.00     0.112 C 
ATOM      2  C2  ZIN A   1      15.173  -5.979   8.347  0.00  0.00    -0.111 C 
ATOM      3  C3  ZIN A   1      16.240  -5.691   8.744  0.00  0.00    -0.107 C 
ENDROOT
BRANCH   3   4
ATOM      4  C4  ZIN A   1      17.577  -5.329   9.243  0.00  0.00     0.101 C 
BRANCH   4   5
ATOM      5  C5  ZIN A   1      18.642  -6.039   8.405  0.00  0.00     0.025 C 
ATOM      6  C7  ZIN A   1      20.004  -5.902   9.089  0.00  0.00     0.014 C 
BRANCH   5   7
ATOM      7  C8  ZIN A   1      18.704  -5.404   7.015  0.00  0.00     0.145 C 
BRANCH   7   8
ATOM      8  O10 ZIN A   1      19.531  -6.201   6.164  0.00  0.00    -0.391 OA
ATOM      9  H41 ZIN A   1      19.701  -5.805   5.298  0.00  0.00     0.210 HD
ENDBRANCH   7   8
BRANCH   7  10
ATOM     10  C11 ZIN A   1      19.282  -4.016   7.120  0.00  0.00     0.001 C 
ATOM     11  C12 ZIN A   1      18.624  -2.994   6.632  0.00  0.00    -0.021 C 
BRANCH  11  12
ATOM     12  C13 ZIN A   1      19.203  -1.606   6.737  0.00  0.00     0.041 C 
ATOM     13  C31 ZIN A   1      18.513  -0.830   7.869  0.00  0.00     0.004 C 
ATOM     14  C19 ZIN A   1      18.247   0.596   7.339  0.00  0.00    -0.003 C 
ATOM     15  C30 ZIN A   1      19.496  -0.651   9.062  0.00  0.00     0.039 C 
ATOM     16  C18 ZIN A   1      18.785   0.650   5.901  0.00  0.00     0.037 C 
ATOM     17  C21 ZIN A   1      19.047   1.566   8.223  0.00  0.00     0.039 C 
ATOM     18  C15 ZIN A   1      18.922  -0.815   5.446  0.00  0.00     0.126 C 
ATOM     19  C22 ZIN A   1      19.389   0.801   9.486  0.00  0.00    -0.083 C 
ATOM     20  C23 ZIN A   1      19.554   1.289  10.690  0.00  0.00    -0.024 C 
BRANCH  18  21
ATOM     21  O17 ZIN A   1      20.011  -0.954   4.532  0.00  0.00    -0.395 OA
ATOM     22  H44 ZIN A   1      20.740  -0.337   4.691  0.00  0.00     0.210 HD
ENDBRANCH  18  21
BRANCH  20  23
ATOM     23  C24 ZIN A   1      19.408   2.771  10.928  0.00  0.00     0.028 C 
BRANCH  23  24
ATOM     24  C25 ZIN A   1      18.748   3.006  12.288  0.00  0.00     0.014 C 
BRANCH  24  25
ATOM     25  C26 ZIN A   1      17.937   1.770  12.682  0.00  0.00     0.113 C 
BRANCH  25  26
ATOM     26  C27 ZIN A   1      18.364   1.305  14.051  0.00  0.00     0.172 C 
ATOM     27  O28 ZIN A   1      17.528   1.112  14.916  0.00  0.00    -0.648 OA
ATOM     28  O29 ZIN A   1      19.545   1.121  14.291  0.00  0.00    -0.648 OA
ENDBRANCH  25  26
ENDBRANCH  24  25
ENDBRANCH  23  24
ENDBRANCH  20  23
ENDBRANCH  11  12
ENDBRANCH   7  10
ENDBRANCH   5   7
ENDBRANCH   4   5
ENDBRANCH   3   4
TORSDOF 11
ENDMDL
MODEL 8
REMARK VINA RESULT:      -7.3      2.801      9.712
REMARK  11 active torsions:
REMARK  status: ('A' for Active; 'I' for Inactive)
REMARK    1  A    between atoms: C3_3  and  C4_4 
REMARK    2  A    between atoms: C4_4  and  C5_5 
REMARK    3  A    between atoms: C5_5  and  C8_7 
REMARK    4  A    between atoms: C8_7  and  O10_8 
REMARK    5  A    between atoms: C8_7  and  C11_9 
REMARK    6  A    between atoms: C12_10  and  C13_11 
REMARK    7  A    between atoms: C15_12  and  O17_13 
REMARK    8  A    between atoms: C23_18  and  C24_19 
REMARK    9  A    between atoms: C24_19  and  C25_20 
REMARK   10  A    between atoms: C25_20  and  C26_21 
REMARK   11  A    between atoms: C26_21  and  C27_22 
ROOT
ATOM      1  C1  ZIN A   1      16.078   4.293  19.748  0.00  0.00     0.112 C 
ATOM      2  C2  ZIN A   1      16.647   2.974  19.425  0.00  0.00    -0.111 C 
ATOM      3  C3  ZIN A   1      17.100   1.922  19.167  0.00  0.00    -0.107 C 
ENDROOT
BRANCH   3   4
ATOM      4  C4  ZIN A   1      17.668   0.603  18.845  0.00  0.00     0.101 C 
BRANCH   4   5
ATOM      5  C5  ZIN A   1      17.649   0.397  17.330  0.00  0.00     0.025 C 
ATOM      6  C7  ZIN A   1      17.155  -1.016  17.013  0.00  0.00     0.014 C 
BRANCH   5   7
ATOM      7  C8  ZIN A   1      19.062   0.579  16.772  0.00  0.00     0.145 C 
BRANCH   7   8
ATOM      8  O10 ZIN A   1      19.895   1.171  17.771  0.00  0.00    -0.391 OA
ATOM      9  H41 ZIN A   1      20.815   1.290  17.496  0.00  0.00     0.210 HD
ENDBRANCH   7   8
BRANCH   7  10
ATOM     10  C11 ZIN A   1      19.014   1.475  15.562  0.00  0.00     0.001 C 
ATOM     11  C12 ZIN A   1      17.967   1.456  14.774  0.00  0.00    -0.021 C 
BRANCH  11  12
ATOM     12  C13 ZIN A   1      17.919   2.352  13.563  0.00  0.00     0.041 C 
ATOM     13  C31 ZIN A   1      18.791   1.770  12.440  0.00  0.00     0.004 C 
ATOM     14  C19 ZIN A   1      19.573   2.948  11.821  0.00  0.00    -0.003 C 
ATOM     15  C30 ZIN A   1      17.886   1.227  11.296  0.00  0.00     0.039 C 
ATOM     16  C18 ZIN A   1      19.153   4.216  12.581  0.00  0.00     0.037 C 
ATOM     17  C21 ZIN A   1      19.135   3.062  10.352  0.00  0.00     0.039 C 
ATOM     18  C15 ZIN A   1      18.521   3.729  13.898  0.00  0.00     0.126 C 
ATOM     19  C22 ZIN A   1      18.488   1.738  10.001  0.00  0.00    -0.083 C 
ATOM     20  C23 ZIN A   1      18.455   1.156   8.829  0.00  0.00    -0.024 C 
BRANCH  18  21
ATOM     21  O17 ZIN A   1      17.496   4.629  14.322  0.00  0.00    -0.395 OA
ATOM     22  H44 ZIN A   1      17.797   5.540  14.443  0.00  0.00     0.210 HD
ENDBRANCH  18  21
BRANCH  20  23
ATOM     23  C24 ZIN A   1      19.112   1.815   7.643  0.00  0.00     0.028 C 
BRANCH  23  24
ATOM     24  C25 ZIN A   1      18.843   0.986   6.385  0.00  0.00     0.014 C 
BRANCH  24  25
ATOM     25  C26 ZIN A   1      18.973  -0.501   6.717  0.00  0.00     0.113 C 
BRANCH  25  26
ATOM     26  C27 ZIN A   1      18.966  -1.303   5.440  0.00  0.00     0.172 C 
ATOM     27  O28 ZIN A   1      19.905  -1.226   4.668  0.00  0.00    -0.648 OA
ATOM     28  O29 ZIN A   1      18.021  -2.028   5.182  0.00  0.00    -0.648 OA
ENDBRANCH  25  26
ENDBRANCH  24  25
ENDBRANCH  23  24
ENDBRANCH  20  23
ENDBRANCH  11  12
ENDBRANCH   7  10
ENDBRANCH   5   7
ENDBRANCH   4   5
ENDBRANCH   3   4
TORSDOF 11
ENDMDL
MODEL 9
REMARK VINA RESULT:      -7.2      2.363      4.926
REMARK  11 active torsions:
REMARK  status: ('A' for Active; 'I' for Inactive)
REMARK    1  A    between atoms: C3_3  and  C4_4 
REMARK    2  A    between atoms: C4_4  and  C5_5 
REMARK    3  A    between atoms: C5_5  and  C8_7 
REMARK    4  A    between atoms: C8_7  and  O10_8 
REMARK    5  A    between atoms: C8_7  and  C11_9 
REMARK    6  A    between atoms: C12_10  and  C13_11 
REMARK    7  A    between atoms: C15_12  and  O17_13 
REMARK    8  A    between atoms: C23_18  and  C24_19 
REMARK    9  A    between atoms: C24_19  and  C25_20 
REMARK   10  A    between atoms: C25_20  and  C26_21 
REMARK   11  A    between atoms: C26_21  and  C27_22 
ROOT
ATOM      1  C1  ZIN A   1      15.027  -7.084   6.504  0.00  0.00     0.112 C 
ATOM      2  C2  ZIN A   1      15.647  -6.337   7.612  0.00  0.00    -0.111 C 
ATOM      3  C3  ZIN A   1      16.142  -5.742   8.494  0.00  0.00    -0.107 C 
ENDROOT
BRANCH   3   4
ATOM      4  C4  ZIN A   1      16.761  -4.996   9.602  0.00  0.00     0.101 C 
BRANCH   4   5
ATOM      5  C5  ZIN A   1      18.225  -4.708   9.267  0.00  0.00     0.025 C 
ATOM      6  C7  ZIN A   1      19.087  -4.935  10.510  0.00  0.00     0.014 C 
BRANCH   5   7
ATOM      7  C8  ZIN A   1      18.367  -3.256   8.806  0.00  0.00     0.145 C 
BRANCH   7   8
ATOM      8  O10 ZIN A   1      19.609  -3.095   8.117  0.00  0.00    -0.391 OA
ATOM      9  H41 ZIN A   1      20.038  -3.928   7.878  0.00  0.00     0.210 HD
ENDBRANCH   7   8
BRANCH   7  10
ATOM     10  C11 ZIN A   1      18.336  -2.343  10.004  0.00  0.00     0.001 C 
ATOM     11  C12 ZIN A   1      19.203  -1.365  10.106  0.00  0.00    -0.021 C 
BRANCH  11  12
ATOM     12  C13 ZIN A   1      19.171  -0.453  11.304  0.00  0.00     0.041 C 
ATOM     13  C31 ZIN A   1      18.171  -0.980  12.345  0.00  0.00     0.004 C 
ATOM     14  C19 ZIN A   1      17.384   0.239  12.871  0.00  0.00    -0.003 C 
ATOM     15  C30 ZIN A   1      18.939  -1.541  13.578  0.00  0.00     0.039 C 
ATOM     16  C18 ZIN A   1      17.928   1.476  12.139  0.00  0.00     0.037 C 
ATOM     17  C21 ZIN A   1      17.683   0.359  14.374  0.00  0.00     0.039 C 
ATOM     18  C15 ZIN A   1      18.663   0.943  10.896  0.00  0.00     0.126 C 
ATOM     19  C22 ZIN A   1      18.238  -0.985  14.802  0.00  0.00    -0.083 C 
ATOM     20  C23 ZIN A   1      18.133  -1.548  15.979  0.00  0.00    -0.024 C 
BRANCH  18  21
ATOM     21  O17 ZIN A   1      19.761   1.793  10.563  0.00  0.00    -0.395 OA
ATOM     22  H44 ZIN A   1      20.406   1.900  11.275  0.00  0.00     0.210 HD
ENDBRANCH  18  21
BRANCH  20  23
ATOM     23  C24 ZIN A   1      17.393  -0.843  17.088  0.00  0.00     0.028 C 
BRANCH  23  24
ATOM     24  C25 ZIN A   1      18.396  -0.127  17.995  0.00  0.00     0.014 C 
BRANCH  24  25
ATOM     25  C26 ZIN A   1      17.804   1.206  18.456  0.00  0.00     0.113 C 
BRANCH  25  26
ATOM     26  C27 ZIN A   1      18.765   2.321  18.131  0.00  0.00     0.172 C 
ATOM     27  O28 ZIN A   1      19.714   2.541  18.863  0.00  0.00    -0.648 OA
ATOM     28  O29 ZIN A   1      18.593   3.003  17.134  0.00  0.00    -0.648 OA
ENDBRANCH  25  26
ENDBRANCH  24  25
ENDBRANCH  23  24
ENDBRANCH  20  23
ENDBRANCH  11  12
ENDBRANCH   7  10
ENDBRANCH   5   7
ENDBRANCH   4   5
ENDBRANCH   3   4
TORSDOF 11
ENDMDL
