MODEL 1
REMARK VINA RESULT:      -5.7      0.000      0.000
REMARK  9 active torsions:
REMARK  status: ('A' for Active; 'I' for Inactive)
REMARK       I    between atoms: C2_2  and  N3_3 
REMARK       I    between atoms: C2_2  and  N4_4 
REMARK    1  A    between atoms: N4_4  and  C5_5 
REMARK    2  A    between atoms: C7_7  and  C8_8 
REMARK    3  A    between atoms: C8_8  and  S9_9 
REMARK    4  A    between atoms: S9_9  and  C10_10 
REMARK    5  A    between atoms: C10_10  and  C11_11 
REMARK    6  A    between atoms: C11_11  and  C12_12 
REMARK    7  A    between atoms: C12_12  and  N14_14 
REMARK    8  A    between atoms: N14_14  and  S15_15 
REMARK    9  A    between atoms: S15_15  and  N16_16 
ROOT
ATOM      1  C8  ZIN A   1      18.878   0.931  16.897  0.00  0.00     0.133 C 
ENDROOT
BRANCH   1   2
ATOM      2  C7  ZIN A   1      18.863   2.197  16.080  0.00  0.00     0.053 A 
ATOM      3  N6  ZIN A   1      18.417   2.239  14.837  0.00  0.00    -0.227 NA
ATOM      4  C5  ZIN A   1      18.456   3.389  14.239  0.00  0.00     0.185 A 
ATOM      5  S20 ZIN A   1      19.113   4.573  15.282  0.00  0.00    -0.061 SA
ATOM      6  C19 ZIN A   1      19.299   3.365  16.553  0.00  0.00     0.081 A 
BRANCH   4   7
ATOM      7  N4  ZIN A   1      18.032   3.623  12.937  0.00  0.00    -0.167 N 
ATOM      8  C2  ZIN A   1      18.920   3.498  11.891  0.00  0.00     0.693 C 
ATOM      9  N1  ZIN A   1      20.126   3.058  12.109  0.00  0.00    -0.118 NA
ATOM     10  N3  ZIN A   1      18.532   3.839  10.617  0.00  0.00    -0.233 N 
ATOM     11  H21 ZIN A   1      20.751   2.971  11.372  0.00  0.00     0.206 HD
ATOM     12  H22 ZIN A   1      19.177   3.821   9.892  0.00  0.00     0.174 HD
ATOM     13  H23 ZIN A   1      17.614   4.098  10.441  0.00  0.00     0.174 HD
ATOM     14  H24 ZIN A   1      17.112   3.875  12.765  0.00  0.00     0.186 HD
ENDBRANCH   4   7
ENDBRANCH   1   2
BRANCH   1  15
ATOM     15  S9  ZIN A   1      17.995  -0.377  16.003  0.00  0.00    -0.163 SA
BRANCH  15  16
ATOM     16  C10 ZIN A   1      19.338  -1.353  15.274  0.00  0.00     0.082 C 
BRANCH  16  17
ATOM     17  C11 ZIN A   1      19.075  -1.547  13.779  0.00  0.00     0.089 C 
BRANCH  17  18
ATOM     18  C12 ZIN A   1      19.587  -0.352  13.019  0.00  0.00     0.107 C 
ATOM     19  N13 ZIN A   1      20.586   0.328  13.480  0.00  0.00    -0.287 NA
ATOM     20  H31 ZIN A   1      20.917   1.098  12.991  0.00  0.00     0.188 HD
BRANCH  18  21
ATOM     21  N14 ZIN A   1      18.995   0.016  11.839  0.00  0.00    -0.256 N 
ATOM     22  H32 ZIN A   1      18.119   0.432  11.846  0.00  0.00     0.181 HD
BRANCH  21  23
ATOM     23  S15 ZIN A   1      19.776  -0.249  10.403  0.00  0.00     0.318 S 
ATOM     24  O17 ZIN A   1      19.250  -1.460   9.879  0.00  0.00    -0.183 OA
ATOM     25  O18 ZIN A   1      19.745   0.983   9.696  0.00  0.00    -0.183 OA
BRANCH  23  26
ATOM     26  N16 ZIN A   1      21.366  -0.546  10.758  0.00  0.00    -0.311 N 
ATOM     27  H33 ZIN A   1      21.672  -1.458  10.887  0.00  0.00     0.170 HD
ATOM     28  H34 ZIN A   1      21.991   0.191  10.837  0.00  0.00     0.170 HD
ENDBRANCH  23  26
ENDBRANCH  21  23
ENDBRANCH  18  21
ENDBRANCH  17  18
ENDBRANCH  16  17
ENDBRANCH  15  16
ENDBRANCH   1  15
TORSDOF 9
ENDMDL
MODEL 2
REMARK VINA RESULT:      -5.7      2.678      4.944
REMARK  9 active torsions:
REMARK  status: ('A' for Active; 'I' for Inactive)
REMARK       I    between atoms: C2_2  and  N3_3 
REMARK       I    between atoms: C2_2  and  N4_4 
REMARK    1  A    between atoms: N4_4  and  C5_5 
REMARK    2  A    between atoms: C7_7  and  C8_8 
REMARK    3  A    between atoms: C8_8  and  S9_9 
REMARK    4  A    between atoms: S9_9  and  C10_10 
REMARK    5  A    between atoms: C10_10  and  C11_11 
REMARK    6  A    between atoms: C11_11  and  C12_12 
REMARK    7  A    between atoms: C12_12  and  N14_14 
REMARK    8  A    between atoms: N14_14  and  S15_15 
REMARK    9  A    between atoms: S15_15  and  N16_16 
ROOT
ATOM      1  C8  ZIN A   1      19.535  -1.337  11.083  0.00  0.00     0.133 C 
ENDROOT
BRANCH   1   2
ATOM      2  C7  ZIN A   1      19.092  -0.957  12.473  0.00  0.00     0.053 A 
ATOM      3  N6  ZIN A   1      18.478   0.181  12.740  0.00  0.00    -0.227 NA
ATOM      4  C5  ZIN A   1      18.147   0.393  13.975  0.00  0.00     0.185 A 
ATOM      5  S20 ZIN A   1      18.633  -0.925  14.948  0.00  0.00    -0.061 SA
ATOM      6  C19 ZIN A   1      19.289  -1.743  13.532  0.00  0.00     0.081 A 
BRANCH   4   7
ATOM      7  N4  ZIN A   1      17.498   1.530  14.441  0.00  0.00    -0.167 N 
ATOM      8  C2  ZIN A   1      18.147   2.744  14.436  0.00  0.00     0.693 C 
ATOM      9  N1  ZIN A   1      19.329   2.849  13.897  0.00  0.00    -0.118 NA
ATOM     10  N3  ZIN A   1      17.548   3.846  15.001  0.00  0.00    -0.233 N 
ATOM     11  H21 ZIN A   1      19.786   3.706  13.894  0.00  0.00     0.206 HD
ATOM     12  H22 ZIN A   1      18.033   4.684  15.063  0.00  0.00     0.174 HD
ATOM     13  H23 ZIN A   1      16.640   3.786  15.337  0.00  0.00     0.174 HD
ATOM     14  H24 ZIN A   1      16.588   1.467  14.771  0.00  0.00     0.186 HD
ENDBRANCH   4   7
ENDBRANCH   1   2
BRANCH   1  15
ATOM     15  S9  ZIN A   1      18.410  -0.600   9.867  0.00  0.00    -0.163 SA
BRANCH  15  16
ATOM     16  C10 ZIN A   1      19.504   0.471   8.894  0.00  0.00     0.082 C 
BRANCH  16  17
ATOM     17  C11 ZIN A   1      18.944   1.895   8.879  0.00  0.00     0.089 C 
BRANCH  17  18
ATOM     18  C12 ZIN A   1      18.939   2.448  10.280  0.00  0.00     0.107 C 
ATOM     19  N13 ZIN A   1      20.040   2.504  10.957  0.00  0.00    -0.287 NA
ATOM     20  H31 ZIN A   1      20.038   2.860  11.859  0.00  0.00     0.188 HD
BRANCH  18  21
ATOM     21  N14 ZIN A   1      17.769   2.892  10.838  0.00  0.00    -0.256 N 
ATOM     22  H32 ZIN A   1      17.073   2.258  11.074  0.00  0.00     0.181 HD
BRANCH  21  23
ATOM     23  S15 ZIN A   1      17.543   4.510  11.110  0.00  0.00     0.318 S 
ATOM     24  O17 ZIN A   1      16.220   4.652  11.606  0.00  0.00    -0.183 OA
ATOM     25  O18 ZIN A   1      18.691   4.962  11.815  0.00  0.00    -0.183 OA
BRANCH  23  26
ATOM     26  N16 ZIN A   1      17.573   5.263   9.635  0.00  0.00    -0.311 N 
ATOM     27  H33 ZIN A   1      17.338   6.202   9.566  0.00  0.00     0.170 HD
ATOM     28  H34 ZIN A   1      17.825   4.766   8.842  0.00  0.00     0.170 HD
ENDBRANCH  23  26
ENDBRANCH  21  23
ENDBRANCH  18  21
ENDBRANCH  17  18
ENDBRANCH  16  17
ENDBRANCH  15  16
ENDBRANCH   1  15
TORSDOF 9
ENDMDL
MODEL 3
REMARK VINA RESULT:      -5.5      4.697      6.959
REMARK  9 active torsions:
REMARK  status: ('A' for Active; 'I' for Inactive)
REMARK       I    between atoms: C2_2  and  N3_3 
REMARK       I    between atoms: C2_2  and  N4_4 
REMARK    1  A    between atoms: N4_4  and  C5_5 
REMARK    2  A    between atoms: C7_7  and  C8_8 
REMARK    3  A    between atoms: C8_8  and  S9_9 
REMARK    4  A    between atoms: S9_9  and  C10_10 
REMARK    5  A    between atoms: C10_10  and  C11_11 
REMARK    6  A    between atoms: C11_11  and  C12_12 
REMARK    7  A    between atoms: C12_12  and  N14_14 
REMARK    8  A    between atoms: N14_14  and  S15_15 
REMARK    9  A    between atoms: S15_15  and  N16_16 
ROOT
ATOM      1  C8  ZIN A   1      18.326   0.642   6.105  0.00  0.00     0.133 C 
ENDROOT
BRANCH   1   2
ATOM      2  C7  ZIN A   1      18.233   0.449   7.596  0.00  0.00     0.053 A 
ATOM      3  N6  ZIN A   1      19.153   0.896   8.432  0.00  0.00    -0.227 NA
ATOM      4  C5  ZIN A   1      18.960   0.668   9.693  0.00  0.00     0.185 A 
ATOM      5  S20 ZIN A   1      17.501  -0.195   9.918  0.00  0.00    -0.061 SA
ATOM      6  C19 ZIN A   1      17.215  -0.186   8.179  0.00  0.00     0.081 A 
BRANCH   4   7
ATOM      7  N4  ZIN A   1      19.817   1.060  10.714  0.00  0.00    -0.167 N 
ATOM      8  C2  ZIN A   1      20.818   0.214  11.136  0.00  0.00     0.693 C 
ATOM      9  N1  ZIN A   1      21.030  -0.908  10.509  0.00  0.00    -0.118 NA
ATOM     10  N3  ZIN A   1      21.594   0.554  12.219  0.00  0.00    -0.233 N 
ATOM     11  H21 ZIN A   1      21.735  -1.504  10.808  0.00  0.00     0.206 HD
ATOM     12  H22 ZIN A   1      22.250  -0.073  12.562  0.00  0.00     0.174 HD
ATOM     13  H23 ZIN A   1      21.485   1.421  12.641  0.00  0.00     0.174 HD
ATOM     14  H24 ZIN A   1      19.709   1.931  11.129  0.00  0.00     0.186 HD
ENDBRANCH   4   7
ENDBRANCH   1   2
BRANCH   1  15
ATOM     15  S9  ZIN A   1      19.312  -0.697   5.382  0.00  0.00    -0.163 SA
BRANCH  15  16
ATOM     16  C10 ZIN A   1      18.327  -2.175   5.748  0.00  0.00     0.082 C 
BRANCH  16  17
ATOM     17  C11 ZIN A   1      19.209  -3.419   5.629  0.00  0.00     0.089 C 
BRANCH  17  18
ATOM     18  C12 ZIN A   1      19.988  -3.607   6.905  0.00  0.00     0.107 C 
ATOM     19  N13 ZIN A   1      21.029  -4.374   6.921  0.00  0.00    -0.287 NA
ATOM     20  H31 ZIN A   1      21.531  -4.495   7.743  0.00  0.00     0.188 HD
BRANCH  18  21
ATOM     21  N14 ZIN A   1      19.593  -2.964   8.050  0.00  0.00    -0.256 N 
ATOM     22  H32 ZIN A   1      19.769  -2.016   8.158  0.00  0.00     0.181 HD
BRANCH  21  23
ATOM     23  S15 ZIN A   1      18.816  -3.805   9.246  0.00  0.00     0.318 S 
ATOM     24  O17 ZIN A   1      19.333  -3.320  10.477  0.00  0.00    -0.183 OA
ATOM     25  O18 ZIN A   1      17.433  -3.782   8.920  0.00  0.00    -0.183 OA
BRANCH  23  26
ATOM     26  N16 ZIN A   1      19.299  -5.385   9.126  0.00  0.00    -0.311 N 
ATOM     27  H33 ZIN A   1      18.817  -5.997   8.547  0.00  0.00     0.170 HD
ATOM     28  H34 ZIN A   1      20.063  -5.698   9.634  0.00  0.00     0.170 HD
ENDBRANCH  23  26
ENDBRANCH  21  23
ENDBRANCH  18  21
ENDBRANCH  17  18
ENDBRANCH  16  17
ENDBRANCH  15  16
ENDBRANCH   1  15
TORSDOF 9
ENDMDL
MODEL 4
REMARK VINA RESULT:      -5.5      5.235      7.576
REMARK  9 active torsions:
REMARK  status: ('A' for Active; 'I' for Inactive)
REMARK       I    between atoms: C2_2  and  N3_3 
REMARK       I    between atoms: C2_2  and  N4_4 
REMARK    1  A    between atoms: N4_4  and  C5_5 
REMARK    2  A    between atoms: C7_7  and  C8_8 
REMARK    3  A    between atoms: C8_8  and  S9_9 
REMARK    4  A    between atoms: S9_9  and  C10_10 
REMARK    5  A    between atoms: C10_10  and  C11_11 
REMARK    6  A    between atoms: C11_11  and  C12_12 
REMARK    7  A    between atoms: C12_12  and  N14_14 
REMARK    8  A    between atoms: N14_14  and  S15_15 
REMARK    9  A    between atoms: S15_15  and  N16_16 
ROOT
ATOM      1  C8  ZIN A   1      17.364  -4.708   8.109  0.00  0.00     0.133 C 
ENDROOT
BRANCH   1   2
ATOM      2  C7  ZIN A   1      17.808  -4.169   9.444  0.00  0.00     0.053 A 
ATOM      3  N6  ZIN A   1      18.933  -3.496   9.604  0.00  0.00    -0.227 NA
ATOM      4  C5  ZIN A   1      19.206  -3.084  10.802  0.00  0.00     0.185 A 
ATOM      5  S20 ZIN A   1      17.972  -3.563  11.883  0.00  0.00    -0.061 SA
ATOM      6  C19 ZIN A   1      17.098  -4.335  10.561  0.00  0.00     0.081 A 
BRANCH   4   7
ATOM      7  N4  ZIN A   1      20.339  -2.363  11.158  0.00  0.00    -0.167 N 
ATOM      8  C2  ZIN A   1      20.454  -1.039  10.800  0.00  0.00     0.693 C 
ATOM      9  N1  ZIN A   1      19.457  -0.431  10.221  0.00  0.00    -0.118 NA
ATOM     10  N3  ZIN A   1      21.622  -0.358  11.052  0.00  0.00    -0.233 N 
ATOM     11  H21 ZIN A   1      19.539   0.502   9.969  0.00  0.00     0.206 HD
ATOM     12  H22 ZIN A   1      21.730   0.553  10.736  0.00  0.00     0.174 HD
ATOM     13  H23 ZIN A   1      22.337  -0.787  11.547  0.00  0.00     0.174 HD
ATOM     14  H24 ZIN A   1      21.050  -2.795  11.658  0.00  0.00     0.186 HD
ENDBRANCH   4   7
ENDBRANCH   1   2
BRANCH   1  15
ATOM     15  S9  ZIN A   1      18.715  -5.658   7.360  0.00  0.00    -0.163 SA
BRANCH  15  16
ATOM     16  C10 ZIN A   1      19.444  -4.479   6.191  0.00  0.00     0.082 C 
BRANCH  16  17
ATOM     17  C11 ZIN A   1      18.373  -4.010   5.203  0.00  0.00     0.089 C 
BRANCH  17  18
ATOM     18  C12 ZIN A   1      18.512  -2.527   4.978  0.00  0.00     0.107 C 
ATOM     19  N13 ZIN A   1      19.452  -2.074   4.214  0.00  0.00    -0.287 NA
ATOM     20  H31 ZIN A   1      19.542  -1.119   4.068  0.00  0.00     0.188 HD
BRANCH  18  21
ATOM     21  N14 ZIN A   1      17.643  -1.657   5.583  0.00  0.00    -0.256 N 
ATOM     22  H32 ZIN A   1      16.717  -1.620   5.297  0.00  0.00     0.181 HD
BRANCH  21  23
ATOM     23  S15 ZIN A   1      18.173  -0.671   6.803  0.00  0.00     0.318 S 
ATOM     24  O17 ZIN A   1      19.459  -1.149   7.173  0.00  0.00    -0.183 OA
ATOM     25  O18 ZIN A   1      17.932   0.662   6.375  0.00  0.00    -0.183 OA
BRANCH  23  26
ATOM     26  N16 ZIN A   1      17.186  -0.930   8.106  0.00  0.00    -0.311 N 
ATOM     27  H33 ZIN A   1      17.442  -1.571   8.789  0.00  0.00     0.170 HD
ATOM     28  H34 ZIN A   1      16.352  -0.442   8.188  0.00  0.00     0.170 HD
ENDBRANCH  23  26
ENDBRANCH  21  23
ENDBRANCH  18  21
ENDBRANCH  17  18
ENDBRANCH  16  17
ENDBRANCH  15  16
ENDBRANCH   1  15
TORSDOF 9
ENDMDL
MODEL 5
REMARK VINA RESULT:      -5.5      3.278      4.950
REMARK  9 active torsions:
REMARK  status: ('A' for Active; 'I' for Inactive)
REMARK       I    between atoms: C2_2  and  N3_3 
REMARK       I    between atoms: C2_2  and  N4_4 
REMARK    1  A    between atoms: N4_4  and  C5_5 
REMARK    2  A    between atoms: C7_7  and  C8_8 
REMARK    3  A    between atoms: C8_8  and  S9_9 
REMARK    4  A    between atoms: S9_9  and  C10_10 
REMARK    5  A    between atoms: C10_10  and  C11_11 
REMARK    6  A    between atoms: C11_11  and  C12_12 
REMARK    7  A    between atoms: C12_12  and  N14_14 
REMARK    8  A    between atoms: N14_14  and  S15_15 
REMARK    9  A    between atoms: S15_15  and  N16_16 
ROOT
ATOM      1  C8  ZIN A   1      17.267  -0.498  12.034  0.00  0.00     0.133 C 
ENDROOT
BRANCH   1   2
ATOM      2  C7  ZIN A   1      17.931   0.733  11.474  0.00  0.00     0.053 A 
ATOM      3  N6  ZIN A   1      18.635   1.566  12.220  0.00  0.00    -0.227 NA
ATOM      4  C5  ZIN A   1      19.158   2.590  11.621  0.00  0.00     0.185 A 
ATOM      5  S20 ZIN A   1      18.756   2.568   9.960  0.00  0.00    -0.061 SA
ATOM      6  C19 ZIN A   1      17.855   1.070  10.186  0.00  0.00     0.081 A 
BRANCH   4   7
ATOM      7  N4  ZIN A   1      19.926   3.568  12.241  0.00  0.00    -0.167 N 
ATOM      8  C2  ZIN A   1      19.363   4.382  13.197  0.00  0.00     0.693 C 
ATOM      9  N1  ZIN A   1      18.142   4.169  13.598  0.00  0.00    -0.118 NA
ATOM     10  N3  ZIN A   1      20.089   5.422  13.728  0.00  0.00    -0.233 N 
ATOM     11  H21 ZIN A   1      17.745   4.744  14.272  0.00  0.00     0.206 HD
ATOM     12  H22 ZIN A   1      19.670   6.041  14.348  0.00  0.00     0.174 HD
ATOM     13  H23 ZIN A   1      21.021   5.538  13.485  0.00  0.00     0.174 HD
ATOM     14  H24 ZIN A   1      20.859   3.676  11.998  0.00  0.00     0.186 HD
ENDBRANCH   4   7
ENDBRANCH   1   2
BRANCH   1  15
ATOM     15  S9  ZIN A   1      18.490  -1.489  12.936  0.00  0.00    -0.163 SA
BRANCH  15  16
ATOM     16  C10 ZIN A   1      18.035  -1.220  14.670  0.00  0.00     0.082 C 
BRANCH  16  17
ATOM     17  C11 ZIN A   1      19.100  -0.357  15.350  0.00  0.00     0.089 C 
BRANCH  17  18
ATOM     18  C12 ZIN A   1      18.656   1.083  15.348  0.00  0.00     0.107 C 
ATOM     19  N13 ZIN A   1      17.404   1.374  15.209  0.00  0.00    -0.287 NA
ATOM     20  H31 ZIN A   1      17.117   2.301  15.208  0.00  0.00     0.188 HD
BRANCH  18  21
ATOM     21  N14 ZIN A   1      19.580   2.085  15.495  0.00  0.00    -0.256 N 
ATOM     22  H32 ZIN A   1      20.275   2.205  14.828  0.00  0.00     0.181 HD
BRANCH  21  23
ATOM     23  S15 ZIN A   1      19.508   3.091  16.808  0.00  0.00     0.318 S 
ATOM     24  O17 ZIN A   1      19.549   2.255  17.956  0.00  0.00    -0.183 OA
ATOM     25  O18 ZIN A   1      20.447   4.131  16.569  0.00  0.00    -0.183 OA
BRANCH  23  26
ATOM     26  N16 ZIN A   1      18.012   3.801  16.800  0.00  0.00    -0.311 N 
ATOM     27  H33 ZIN A   1      17.334   3.510  17.431  0.00  0.00     0.170 HD
ATOM     28  H34 ZIN A   1      17.814   4.507  16.166  0.00  0.00     0.170 HD
ENDBRANCH  23  26
ENDBRANCH  21  23
ENDBRANCH  18  21
ENDBRANCH  17  18
ENDBRANCH  16  17
ENDBRANCH  15  16
ENDBRANCH   1  15
TORSDOF 9
ENDMDL
MODEL 6
REMARK VINA RESULT:      -5.5      3.744      6.059
REMARK  9 active torsions:
REMARK  status: ('A' for Active; 'I' for Inactive)
REMARK       I    between atoms: C2_2  and  N3_3 
REMARK       I    between atoms: C2_2  and  N4_4 
REMARK    1  A    between atoms: N4_4  and  C5_5 
REMARK    2  A    between atoms: C7_7  and  C8_8 
REMARK    3  A    between atoms: C8_8  and  S9_9 
REMARK    4  A    between atoms: S9_9  and  C10_10 
REMARK    5  A    between atoms: C10_10  and  C11_11 
REMARK    6  A    between atoms: C11_11  and  C12_12 
REMARK    7  A    between atoms: C12_12  and  N14_14 
REMARK    8  A    between atoms: N14_14  and  S15_15 
REMARK    9  A    between atoms: S15_15  and  N16_16 
ROOT
ATOM      1  C8  ZIN A   1      17.761   0.399  12.733  0.00  0.00     0.133 C 
ENDROOT
BRANCH   1   2
ATOM      2  C7  ZIN A   1      18.001   0.087  14.188  0.00  0.00     0.053 A 
ATOM      3  N6  ZIN A   1      17.753   0.953  15.154  0.00  0.00    -0.227 NA
ATOM      4  C5  ZIN A   1      18.001   0.566  16.366  0.00  0.00     0.185 A 
ATOM      5  S20 ZIN A   1      18.614  -1.030  16.360  0.00  0.00    -0.061 SA
ATOM      6  C19 ZIN A   1      18.481  -1.086  14.603  0.00  0.00     0.081 A 
BRANCH   4   7
ATOM      7  N4  ZIN A   1      17.804   1.338  17.504  0.00  0.00    -0.167 N 
ATOM      8  C2  ZIN A   1      18.688   2.348  17.812  0.00  0.00     0.693 C 
ATOM      9  N1  ZIN A   1      19.647   2.650  16.984  0.00  0.00    -0.118 NA
ATOM     10  N3  ZIN A   1      18.558   3.037  18.995  0.00  0.00    -0.233 N 
ATOM     11  H21 ZIN A   1      20.270   3.362  17.202  0.00  0.00     0.206 HD
ATOM     12  H22 ZIN A   1      19.222   3.699  19.247  0.00  0.00     0.174 HD
ATOM     13  H23 ZIN A   1      17.803   2.863  19.578  0.00  0.00     0.174 HD
ATOM     14  H24 ZIN A   1      17.044   1.164  18.081  0.00  0.00     0.186 HD
ENDBRANCH   4   7
ENDBRANCH   1   2
BRANCH   1  15
ATOM     15  S9  ZIN A   1      18.829   1.774  12.225  0.00  0.00    -0.163 SA
BRANCH  15  16
ATOM     16  C10 ZIN A   1      17.670   3.161  12.084  0.00  0.00     0.082 C 
BRANCH  16  17
ATOM     17  C11 ZIN A   1      18.361   4.452  12.530  0.00  0.00     0.089 C 
BRANCH  17  18
ATOM     18  C12 ZIN A   1      18.595   4.409  14.017  0.00  0.00     0.107 C 
ATOM     19  N13 ZIN A   1      17.624   4.106  14.816  0.00  0.00    -0.287 NA
ATOM     20  H31 ZIN A   1      17.774   4.078  15.774  0.00  0.00     0.188 HD
BRANCH  18  21
ATOM     21  N14 ZIN A   1      19.836   4.692  14.525  0.00  0.00    -0.256 N 
ATOM     22  H32 ZIN A   1      20.575   4.084  14.364  0.00  0.00     0.181 HD
BRANCH  21  23
ATOM     23  S15 ZIN A   1      20.074   6.070  15.411  0.00  0.00     0.318 S 
ATOM     24  O17 ZIN A   1      21.479   6.204  15.575  0.00  0.00    -0.183 OA
ATOM     25  O18 ZIN A   1      19.261   7.074  14.819  0.00  0.00    -0.183 OA
BRANCH  23  26
ATOM     26  N16 ZIN A   1      19.452   5.794  16.921  0.00  0.00    -0.311 N 
ATOM     27  H33 ZIN A   1      19.991   5.345  17.593  0.00  0.00     0.170 HD
ATOM     28  H34 ZIN A   1      18.551   6.082  17.135  0.00  0.00     0.170 HD
ENDBRANCH  23  26
ENDBRANCH  21  23
ENDBRANCH  18  21
ENDBRANCH  17  18
ENDBRANCH  16  17
ENDBRANCH  15  16
ENDBRANCH   1  15
TORSDOF 9
ENDMDL
MODEL 7
REMARK VINA RESULT:      -5.5      4.843      7.922
REMARK  9 active torsions:
REMARK  status: ('A' for Active; 'I' for Inactive)
REMARK       I    between atoms: C2_2  and  N3_3 
REMARK       I    between atoms: C2_2  and  N4_4 
REMARK    1  A    between atoms: N4_4  and  C5_5 
REMARK    2  A    between atoms: C7_7  and  C8_8 
REMARK    3  A    between atoms: C8_8  and  S9_9 
REMARK    4  A    between atoms: S9_9  and  C10_10 
REMARK    5  A    between atoms: C10_10  and  C11_11 
REMARK    6  A    between atoms: C11_11  and  C12_12 
REMARK    7  A    between atoms: C12_12  and  N14_14 
REMARK    8  A    between atoms: N14_14  and  S15_15 
REMARK    9  A    between atoms: S15_15  and  N16_16 
ROOT
ATOM      1  C8  ZIN A   1      17.896   0.406   6.715  0.00  0.00     0.133 C 
ENDROOT
BRANCH   1   2
ATOM      2  C7  ZIN A   1      18.357  -0.951   6.251  0.00  0.00     0.053 A 
ATOM      3  N6  ZIN A   1      19.106  -1.744   6.996  0.00  0.00    -0.227 NA
ATOM      4  C5  ZIN A   1      19.438  -2.888   6.485  0.00  0.00     0.185 A 
ATOM      5  S20 ZIN A   1      18.784  -3.041   4.913  0.00  0.00    -0.061 SA
ATOM      6  C19 ZIN A   1      18.043  -1.449   5.054  0.00  0.00     0.081 A 
BRANCH   4   7
ATOM      7  N4  ZIN A   1      20.219  -3.847   7.119  0.00  0.00    -0.167 N 
ATOM      8  C2  ZIN A   1      19.705  -4.564   8.176  0.00  0.00     0.693 C 
ATOM      9  N1  ZIN A   1      18.455  -4.421   8.514  0.00  0.00    -0.118 NA
ATOM     10  N3  ZIN A   1      20.511  -5.431   8.875  0.00  0.00    -0.233 N 
ATOM     11  H21 ZIN A   1      18.093  -4.926   9.260  0.00  0.00     0.206 HD
ATOM     12  H22 ZIN A   1      20.171  -5.882   9.664  0.00  0.00     0.174 HD
ATOM     13  H23 ZIN A   1      21.421  -5.593   8.579  0.00  0.00     0.174 HD
ATOM     14  H24 ZIN A   1      21.126  -4.010   6.816  0.00  0.00     0.186 HD
ENDBRANCH   4   7
ENDBRANCH   1   2
BRANCH   1  15
ATOM     15  S9  ZIN A   1      19.100   1.086   7.889  0.00  0.00    -0.163 SA
BRANCH  15  16
ATOM     16  C10 ZIN A   1      18.438   0.573   9.497  0.00  0.00     0.082 C 
BRANCH  16  17
ATOM     17  C11 ZIN A   1      19.539   0.665  10.556  0.00  0.00     0.089 C 
BRANCH  17  18
ATOM     18  C12 ZIN A   1      20.271  -0.649  10.635  0.00  0.00     0.107 C 
ATOM     19  N13 ZIN A   1      21.544  -0.667  10.868  0.00  0.00    -0.287 NA
ATOM     20  H31 ZIN A   1      22.016  -1.513  10.919  0.00  0.00     0.188 HD
BRANCH  18  21
ATOM     21  N14 ZIN A   1      19.590  -1.825  10.460  0.00  0.00    -0.256 N 
ATOM     22  H32 ZIN A   1      19.163  -2.016   9.609  0.00  0.00     0.181 HD
BRANCH  21  23
ATOM     23  S15 ZIN A   1      19.497  -2.920  11.698  0.00  0.00     0.318 S 
ATOM     24  O17 ZIN A   1      20.558  -3.843  11.497  0.00  0.00    -0.183 OA
ATOM     25  O18 ZIN A   1      19.339  -2.164  12.891  0.00  0.00    -0.183 OA
BRANCH  23  26
ATOM     26  N16 ZIN A   1      18.092  -3.772  11.494  0.00  0.00    -0.311 N 
ATOM     27  H33 ZIN A   1      17.439  -3.810  12.211  0.00  0.00     0.170 HD
ATOM     28  H34 ZIN A   1      17.921  -4.232  10.658  0.00  0.00     0.170 HD
ENDBRANCH  23  26
ENDBRANCH  21  23
ENDBRANCH  18  21
ENDBRANCH  17  18
ENDBRANCH  16  17
ENDBRANCH  15  16
ENDBRANCH   1  15
TORSDOF 9
ENDMDL
MODEL 8
REMARK VINA RESULT:      -5.4      5.675      7.304
REMARK  9 active torsions:
REMARK  status: ('A' for Active; 'I' for Inactive)
REMARK       I    between atoms: C2_2  and  N3_3 
REMARK       I    between atoms: C2_2  and  N4_4 
REMARK    1  A    between atoms: N4_4  and  C5_5 
REMARK    2  A    between atoms: C7_7  and  C8_8 
REMARK    3  A    between atoms: C8_8  and  S9_9 
REMARK    4  A    between atoms: S9_9  and  C10_10 
REMARK    5  A    between atoms: C10_10  and  C11_11 
REMARK    6  A    between atoms: C11_11  and  C12_12 
REMARK    7  A    between atoms: C12_12  and  N14_14 
REMARK    8  A    between atoms: N14_14  and  S15_15 
REMARK    9  A    between atoms: S15_15  and  N16_16 
ROOT
ATOM      1  C8  ZIN A   1      19.279  -0.402  10.015  0.00  0.00     0.133 C 
ENDROOT
BRANCH   1   2
ATOM      2  C7  ZIN A   1      18.973  -0.148   8.562  0.00  0.00     0.053 A 
ATOM      3  N6  ZIN A   1      18.499  -1.083   7.758  0.00  0.00    -0.227 NA
ATOM      4  C5  ZIN A   1      18.276  -0.740   6.528  0.00  0.00     0.185 A 
ATOM      5  S20 ZIN A   1      18.689   0.901   6.290  0.00  0.00    -0.061 SA
ATOM      6  C19 ZIN A   1      19.161   1.039   7.982  0.00  0.00     0.081 A 
BRANCH   4   7
ATOM      7  N4  ZIN A   1      17.780  -1.587   5.544  0.00  0.00    -0.167 N 
ATOM      8  C2  ZIN A   1      18.595  -2.546   4.986  0.00  0.00     0.693 C 
ATOM      9  N1  ZIN A   1      19.797  -2.732   5.454  0.00  0.00    -0.118 NA
ATOM     10  N3  ZIN A   1      18.140  -3.307   3.935  0.00  0.00    -0.233 N 
ATOM     11  H21 ZIN A   1      20.371  -3.409   5.059  0.00  0.00     0.206 HD
ATOM     12  H22 ZIN A   1      18.738  -3.932   3.494  0.00  0.00     0.174 HD
ATOM     13  H23 ZIN A   1      17.223  -3.220   3.633  0.00  0.00     0.174 HD
ATOM     14  H24 ZIN A   1      16.860  -1.500   5.249  0.00  0.00     0.186 HD
ENDBRANCH   4   7
ENDBRANCH   1   2
BRANCH   1  15
ATOM     15  S9  ZIN A   1      17.771  -0.941  10.866  0.00  0.00    -0.163 SA
BRANCH  15  16
ATOM     16  C10 ZIN A   1      18.202  -2.603  11.448  0.00  0.00     0.082 C 
BRANCH  16  17
ATOM     17  C11 ZIN A   1      17.774  -3.637  10.403  0.00  0.00     0.089 C 
BRANCH  17  18
ATOM     18  C12 ZIN A   1      18.971  -4.052   9.588  0.00  0.00     0.107 C 
ATOM     19  N13 ZIN A   1      20.112  -4.248  10.166  0.00  0.00    -0.287 NA
ATOM     20  H31 ZIN A   1      20.883  -4.516   9.641  0.00  0.00     0.188 HD
BRANCH  18  21
ATOM     21  N14 ZIN A   1      18.852  -4.223   8.233  0.00  0.00    -0.256 N 
ATOM     22  H32 ZIN A   1      18.337  -3.590   7.708  0.00  0.00     0.181 HD
BRANCH  21  23
ATOM     23  S15 ZIN A   1      19.587  -5.509   7.493  0.00  0.00     0.318 S 
ATOM     24  O17 ZIN A   1      19.595  -6.567   8.442  0.00  0.00    -0.183 OA
ATOM     25  O18 ZIN A   1      18.996  -5.623   6.206  0.00  0.00    -0.183 OA
BRANCH  23  26
ATOM     26  N16 ZIN A   1      21.170  -5.092   7.246  0.00  0.00    -0.311 N 
ATOM     27  H33 ZIN A   1      21.763  -4.965   8.004  0.00  0.00     0.170 HD
ATOM     28  H34 ZIN A   1      21.506  -4.975   6.344  0.00  0.00     0.170 HD
ENDBRANCH  23  26
ENDBRANCH  21  23
ENDBRANCH  18  21
ENDBRANCH  17  18
ENDBRANCH  16  17
ENDBRANCH  15  16
ENDBRANCH   1  15
TORSDOF 9
ENDMDL
MODEL 9
REMARK VINA RESULT:      -5.4      4.909      7.390
REMARK  9 active torsions:
REMARK  status: ('A' for Active; 'I' for Inactive)
REMARK       I    between atoms: C2_2  and  N3_3 
REMARK       I    between atoms: C2_2  and  N4_4 
REMARK    1  A    between atoms: N4_4  and  C5_5 
REMARK    2  A    between atoms: C7_7  and  C8_8 
REMARK    3  A    between atoms: C8_8  and  S9_9 
REMARK    4  A    between atoms: S9_9  and  C10_10 
REMARK    5  A    between atoms: C10_10  and  C11_11 
REMARK    6  A    between atoms: C11_11  and  C12_12 
REMARK    7  A    between atoms: C12_12  and  N14_14 
REMARK    8  A    between atoms: N14_14  and  S15_15 
REMARK    9  A    between atoms: S15_15  and  N16_16 
ROOT
ATOM      1  C8  ZIN A   1      18.872   1.015   8.726  0.00  0.00     0.133 C 
ENDROOT
BRANCH   1   2
ATOM      2  C7  ZIN A   1      18.805   0.241   7.435  0.00  0.00     0.053 A 
ATOM      3  N6  ZIN A   1      18.536  -1.052   7.391  0.00  0.00    -0.227 NA
ATOM      4  C5  ZIN A   1      18.508  -1.605   6.219  0.00  0.00     0.185 A 
ATOM      5  S20 ZIN A   1      18.852  -0.445   5.012  0.00  0.00    -0.061 SA
ATOM      6  C19 ZIN A   1      19.014   0.804   6.244  0.00  0.00     0.081 A 
BRANCH   4   7
ATOM      7  N4  ZIN A   1      18.243  -2.948   5.980  0.00  0.00    -0.167 N 
ATOM      8  C2  ZIN A   1      19.221  -3.892   6.202  0.00  0.00     0.693 C 
ATOM      9  N1  ZIN A   1      20.356  -3.542   6.736  0.00  0.00    -0.118 NA
ATOM     10  N3  ZIN A   1      18.998  -5.205   5.858  0.00  0.00    -0.233 N 
ATOM     11  H21 ZIN A   1      21.045  -4.208   6.892  0.00  0.00     0.206 HD
ATOM     12  H22 ZIN A   1      19.711  -5.858   5.946  0.00  0.00     0.174 HD
ATOM     13  H23 ZIN A   1      18.129  -5.480   5.528  0.00  0.00     0.174 HD
ATOM     14  H24 ZIN A   1      17.371  -3.220   5.655  0.00  0.00     0.186 HD
ENDBRANCH   4   7
ENDBRANCH   1   2
BRANCH   1  15
ATOM     15  S9  ZIN A   1      17.598   0.405   9.864  0.00  0.00    -0.163 SA
BRANCH  15  16
ATOM     16  C10 ZIN A   1      18.557  -0.097  11.318  0.00  0.00     0.082 C 
BRANCH  16  17
ATOM     17  C11 ZIN A   1      19.907  -0.661  10.870  0.00  0.00     0.089 C 
BRANCH  17  18
ATOM     18  C12 ZIN A   1      19.851  -2.167  10.881  0.00  0.00     0.107 C 
ATOM     19  N13 ZIN A   1      20.255  -2.822  11.920  0.00  0.00    -0.287 NA
ATOM     20  H31 ZIN A   1      20.219  -3.791  11.928  0.00  0.00     0.188 HD
BRANCH  18  21
ATOM     21  N14 ZIN A   1      19.373  -2.843   9.789  0.00  0.00    -0.256 N 
ATOM     22  H32 ZIN A   1      19.722  -2.646   8.905  0.00  0.00     0.181 HD
BRANCH  21  23
ATOM     23  S15 ZIN A   1      18.199  -3.996   9.978  0.00  0.00     0.318 S 
ATOM     24  O17 ZIN A   1      17.328  -3.868   8.863  0.00  0.00    -0.183 OA
ATOM     25  O18 ZIN A   1      18.872  -5.204  10.304  0.00  0.00    -0.183 OA
BRANCH  23  26
ATOM     26  N16 ZIN A   1      17.314  -3.579  11.314  0.00  0.00    -0.311 N 
ATOM     27  H33 ZIN A   1      16.533  -4.100  11.560  0.00  0.00     0.170 HD
ATOM     28  H34 ZIN A   1      17.575  -2.814  11.850  0.00  0.00     0.170 HD
ENDBRANCH  23  26
ENDBRANCH  21  23
ENDBRANCH  18  21
ENDBRANCH  17  18
ENDBRANCH  16  17
ENDBRANCH  15  16
ENDBRANCH   1  15
TORSDOF 9
ENDMDL
