MODEL 1
REMARK VINA RESULT:      -5.7      0.000      0.000
REMARK  4 active torsions:
REMARK  status: ('A' for Active; 'I' for Inactive)
REMARK    1  A    between atoms: C3_3  and  N4_4 
REMARK    2  A    between atoms: N4_4  and  C6_6 
REMARK    3  A    between atoms: C6_6  and  C9_8 
REMARK    4  A    between atoms: C9_8  and  C10_9 
ROOT
ATOM      1  C1  <0> d   1      17.499  -1.631  11.783  0.00  0.00     0.013 C 
ATOM      2  C2  <0> d   1      17.483  -0.585  12.314  0.00  0.00    -0.087 C 
ATOM      3  C3  <0> d   1      17.463   0.727  12.981  0.00  0.00     0.364 C 
ENDROOT
BRANCH   3   4
ATOM      4  N4  <0> d   1      18.418   1.628  12.320  0.00  0.00     0.099 N 
ATOM      5  C5  <0> d   1      19.768   1.049  12.311  0.00  0.00     0.311 C 
BRANCH   4   6
ATOM      6  C6  <0> d   1      17.976   1.955  10.958  0.00  0.00     0.223 C 
ATOM      7  C8  <0> d   1      17.481   3.402  10.916  0.00  0.00     0.043 C 
BRANCH   6   8
ATOM      8  C9  <0> d   1      19.148   1.789   9.988  0.00  0.00     0.074 C 
BRANCH   8   9
ATOM      9  C10 <0> d   1      18.648   1.208   8.691  0.00  0.00    -0.056 A 
ATOM     10  C15 <0> d   1      17.630   0.273   8.700  0.00  0.00     0.007 A 
ATOM     11  C14 <0> d   1      17.167  -0.258   7.510  0.00  0.00     0.001 A 
ATOM     12  C13 <0> d   1      17.730   0.140   6.311  0.00  0.00     0.000 A 
ATOM     13  C12 <0> d   1      18.753   1.071   6.303  0.00  0.00     0.001 A 
ATOM     14  C11 <0> d   1      19.212   1.604   7.492  0.00  0.00     0.007 A 
ENDBRANCH   8   9
ENDBRANCH   6   8
ENDBRANCH   4   6
ENDBRANCH   3   4
TORSDOF 4
ENDMDL
MODEL 2
REMARK VINA RESULT:      -5.7      0.382      1.332
REMARK  4 active torsions:
REMARK  status: ('A' for Active; 'I' for Inactive)
REMARK    1  A    between atoms: C3_3  and  N4_4 
REMARK    2  A    between atoms: N4_4  and  C6_6 
REMARK    3  A    between atoms: C6_6  and  C9_8 
REMARK    4  A    between atoms: C9_8  and  C10_9 
ROOT
ATOM      1  C1  <0> d   1      17.380  -1.245  12.143  0.00  0.00     0.013 C 
ATOM      2  C2  <0> d   1      17.603  -0.196  12.621  0.00  0.00    -0.087 C 
ATOM      3  C3  <0> d   1      17.883   1.119  13.220  0.00  0.00     0.364 C 
ENDROOT
BRANCH   3   4
ATOM      4  N4  <0> d   1      18.779   1.879  12.338  0.00  0.00     0.099 N 
ATOM      5  C5  <0> d   1      20.038   1.156  12.116  0.00  0.00     0.311 C 
BRANCH   4   6
ATOM      6  C6  <0> d   1      18.120   2.193  11.063  0.00  0.00     0.223 C 
ATOM      7  C8  <0> d   1      17.430   3.554  11.167  0.00  0.00     0.043 C 
BRANCH   6   8
ATOM      8  C9  <0> d   1      19.165   2.234   9.946  0.00  0.00     0.074 C 
BRANCH   8   9
ATOM      9  C10 <0> d   1      18.666   1.446   8.763  0.00  0.00    -0.056 A 
ATOM     10  C15 <0> d   1      19.189   1.683   7.505  0.00  0.00     0.007 A 
ATOM     11  C14 <0> d   1      18.736   0.958   6.419  0.00  0.00     0.001 A 
ATOM     12  C13 <0> d   1      17.752   0.001   6.589  0.00  0.00     0.000 A 
ATOM     13  C12 <0> d   1      17.224  -0.232   7.846  0.00  0.00     0.001 A 
ATOM     14  C11 <0> d   1      17.681   0.491   8.932  0.00  0.00     0.007 A 
ENDBRANCH   8   9
ENDBRANCH   6   8
ENDBRANCH   4   6
ENDBRANCH   3   4
TORSDOF 4
ENDMDL
MODEL 3
REMARK VINA RESULT:      -5.6      1.811      2.948
REMARK  4 active torsions:
REMARK  status: ('A' for Active; 'I' for Inactive)
REMARK    1  A    between atoms: C3_3  and  N4_4 
REMARK    2  A    between atoms: N4_4  and  C6_6 
REMARK    3  A    between atoms: C6_6  and  C9_8 
REMARK    4  A    between atoms: C9_8  and  C10_9 
ROOT
ATOM      1  C1  <0> d   1      18.304  -1.302  16.401  0.00  0.00     0.013 C 
ATOM      2  C2  <0> d   1      18.559  -1.294  15.256  0.00  0.00    -0.087 C 
ATOM      3  C3  <0> d   1      18.880  -1.285  13.819  0.00  0.00     0.364 C 
ENDROOT
BRANCH   3   4
ATOM      4  N4  <0> d   1      17.764  -0.687  13.072  0.00  0.00     0.099 N 
ATOM      5  C5  <0> d   1      17.680   0.758  13.319  0.00  0.00     0.311 C 
BRANCH   4   6
ATOM      6  C6  <0> d   1      17.881  -0.971  11.636  0.00  0.00     0.223 C 
ATOM      7  C8  <0> d   1      17.494  -2.427  11.369  0.00  0.00     0.043 C 
BRANCH   6   8
ATOM      8  C9  <0> d   1      16.946  -0.045  10.856  0.00  0.00     0.074 C 
BRANCH   8   9
ATOM      9  C10 <0> d   1      17.638   0.430   9.604  0.00  0.00    -0.056 A 
ATOM     10  C15 <0> d   1      17.363  -0.173   8.391  0.00  0.00     0.007 A 
ATOM     11  C14 <0> d   1      17.994   0.264   7.241  0.00  0.00     0.001 A 
ATOM     12  C13 <0> d   1      18.909   1.299   7.306  0.00  0.00     0.000 A 
ATOM     13  C12 <0> d   1      19.189   1.898   8.520  0.00  0.00     0.001 A 
ATOM     14  C11 <0> d   1      18.554   1.464   9.669  0.00  0.00     0.007 A 
ENDBRANCH   8   9
ENDBRANCH   6   8
ENDBRANCH   4   6
ENDBRANCH   3   4
TORSDOF 4
ENDMDL
MODEL 4
REMARK VINA RESULT:      -5.5      1.287      2.684
REMARK  4 active torsions:
REMARK  status: ('A' for Active; 'I' for Inactive)
REMARK    1  A    between atoms: C3_3  and  N4_4 
REMARK    2  A    between atoms: N4_4  and  C6_6 
REMARK    3  A    between atoms: C6_6  and  C9_8 
REMARK    4  A    between atoms: C9_8  and  C10_9 
ROOT
ATOM      1  C1  <0> d   1      17.659   4.716  10.154  0.00  0.00     0.013 C 
ATOM      2  C2  <0> d   1      17.665   3.725  10.783  0.00  0.00    -0.087 C 
ATOM      3  C3  <0> d   1      17.672   2.483  11.572  0.00  0.00     0.364 C 
ENDROOT
BRANCH   3   4
ATOM      4  N4  <0> d   1      19.053   2.003  11.719  0.00  0.00     0.099 N 
ATOM      5  C5  <0> d   1      19.268   1.414  13.048  0.00  0.00     0.311 C 
BRANCH   4   6
ATOM      6  C6  <0> d   1      19.393   1.047  10.657  0.00  0.00     0.223 C 
ATOM      7  C8  <0> d   1      20.303  -0.044  11.225  0.00  0.00     0.043 C 
BRANCH   6   8
ATOM      8  C9  <0> d   1      18.112   0.411  10.114  0.00  0.00     0.074 C 
BRANCH   8   9
ATOM      9  C10 <0> d   1      18.113   0.486   8.609  0.00  0.00    -0.056 A 
ATOM     10  C15 <0> d   1      17.203  -0.257   7.881  0.00  0.00     0.007 A 
ATOM     11  C14 <0> d   1      17.199  -0.187   6.500  0.00  0.00     0.001 A 
ATOM     12  C13 <0> d   1      18.113   0.621   5.847  0.00  0.00     0.000 A 
ATOM     13  C12 <0> d   1      19.027   1.359   6.576  0.00  0.00     0.001 A 
ATOM     14  C11 <0> d   1      19.027   1.291   7.956  0.00  0.00     0.007 A 
ENDBRANCH   8   9
ENDBRANCH   6   8
ENDBRANCH   4   6
ENDBRANCH   3   4
TORSDOF 4
ENDMDL
MODEL 5
REMARK VINA RESULT:      -5.3      1.479      2.023
REMARK  4 active torsions:
REMARK  status: ('A' for Active; 'I' for Inactive)
REMARK    1  A    between atoms: C3_3  and  N4_4 
REMARK    2  A    between atoms: N4_4  and  C6_6 
REMARK    3  A    between atoms: C6_6  and  C9_8 
REMARK    4  A    between atoms: C9_8  and  C10_9 
ROOT
ATOM      1  C1  <0> d   1      19.615  -3.491  11.187  0.00  0.00     0.013 C 
ATOM      2  C2  <0> d   1      19.916  -2.358  11.122  0.00  0.00    -0.087 C 
ATOM      3  C3  <0> d   1      20.293  -0.938  11.039  0.00  0.00     0.364 C 
ENDROOT
BRANCH   3   4
ATOM      4  N4  <0> d   1      19.397  -0.143  11.890  0.00  0.00     0.099 N 
ATOM      5  C5  <0> d   1      20.015   1.141  12.250  0.00  0.00     0.311 C 
BRANCH   4   6
ATOM      6  C6  <0> d   1      18.097   0.062  11.239  0.00  0.00     0.223 C 
ATOM      7  C8  <0> d   1      17.003   0.166  12.303  0.00  0.00     0.043 C 
BRANCH   6   8
ATOM      8  C9  <0> d   1      18.135   1.354  10.420  0.00  0.00     0.074 C 
BRANCH   8   9
ATOM      9  C10 <0> d   1      18.172   1.018   8.952  0.00  0.00    -0.056 A 
ATOM     10  C15 <0> d   1      17.344   0.032   8.448  0.00  0.00     0.007 A 
ATOM     11  C14 <0> d   1      17.374  -0.275   7.101  0.00  0.00     0.001 A 
ATOM     12  C13 <0> d   1      18.238   0.398   6.257  0.00  0.00     0.000 A 
ATOM     13  C12 <0> d   1      19.070   1.381   6.762  0.00  0.00     0.001 A 
ATOM     14  C11 <0> d   1      19.037   1.690   8.109  0.00  0.00     0.007 A 
ENDBRANCH   8   9
ENDBRANCH   6   8
ENDBRANCH   4   6
ENDBRANCH   3   4
TORSDOF 4
ENDMDL
MODEL 6
REMARK VINA RESULT:      -5.3      2.288      3.591
REMARK  4 active torsions:
REMARK  status: ('A' for Active; 'I' for Inactive)
REMARK    1  A    between atoms: C3_3  and  N4_4 
REMARK    2  A    between atoms: N4_4  and  C6_6 
REMARK    3  A    between atoms: C6_6  and  C9_8 
REMARK    4  A    between atoms: C9_8  and  C10_9 
ROOT
ATOM      1  C1  <0> d   1      19.683   6.160  14.685  0.00  0.00     0.013 C 
ATOM      2  C2  <0> d   1      19.571   5.405  13.793  0.00  0.00    -0.087 C 
ATOM      3  C3  <0> d   1      19.431   4.458  12.675  0.00  0.00     0.364 C 
ENDROOT
BRANCH   3   4
ATOM      4  N4  <0> d   1      18.016   4.096  12.514  0.00  0.00     0.099 N 
ATOM      5  C5  <0> d   1      17.142   5.231  12.840  0.00  0.00     0.311 C 
BRANCH   4   6
ATOM      6  C6  <0> d   1      17.752   3.600  11.157  0.00  0.00     0.223 C 
ATOM      7  C8  <0> d   1      17.382   4.772  10.247  0.00  0.00     0.043 C 
BRANCH   6   8
ATOM      8  C9  <0> d   1      19.004   2.908  10.614  0.00  0.00     0.074 C 
BRANCH   8   9
ATOM      9  C10 <0> d   1      18.608   1.911   9.557  0.00  0.00    -0.056 A 
ATOM     10  C15 <0> d   1      17.659   0.946   9.838  0.00  0.00     0.007 A 
ATOM     11  C14 <0> d   1      17.293   0.032   8.867  0.00  0.00     0.001 A 
ATOM     12  C13 <0> d   1      17.882   0.078   7.617  0.00  0.00     0.000 A 
ATOM     13  C12 <0> d   1      18.836   1.039   7.338  0.00  0.00     0.001 A 
ATOM     14  C11 <0> d   1      19.199   1.955   8.308  0.00  0.00     0.007 A 
ENDBRANCH   8   9
ENDBRANCH   6   8
ENDBRANCH   4   6
ENDBRANCH   3   4
TORSDOF 4
ENDMDL
MODEL 7
REMARK VINA RESULT:      -5.3      2.360      6.322
REMARK  4 active torsions:
REMARK  status: ('A' for Active; 'I' for Inactive)
REMARK    1  A    between atoms: C3_3  and  N4_4 
REMARK    2  A    between atoms: N4_4  and  C6_6 
REMARK    3  A    between atoms: C6_6  and  C9_8 
REMARK    4  A    between atoms: C9_8  and  C10_9 
ROOT
ATOM      1  C1  <0> d   1      17.672   4.294  10.361  0.00  0.00     0.013 C 
ATOM      2  C2  <0> d   1      18.035   3.242  10.734  0.00  0.00    -0.087 C 
ATOM      3  C3  <0> d   1      18.491   1.923  11.202  0.00  0.00     0.364 C 
ENDROOT
BRANCH   3   4
ATOM      4  N4  <0> d   1      17.404   0.946  11.051  0.00  0.00     0.099 N 
ATOM      5  C5  <0> d   1      17.469   0.284   9.741  0.00  0.00     0.311 C 
BRANCH   4   6
ATOM      6  C6  <0> d   1      17.425  -0.038  12.141  0.00  0.00     0.223 C 
ATOM      7  C8  <0> d   1      17.363  -1.450  11.556  0.00  0.00     0.043 C 
BRANCH   6   8
ATOM      8  C9  <0> d   1      18.715   0.124  12.948  0.00  0.00     0.074 C 
BRANCH   8   9
ATOM      9  C10 <0> d   1      18.459  -0.251  14.385  0.00  0.00    -0.056 A 
ATOM     10  C15 <0> d   1      17.464   0.391  15.099  0.00  0.00     0.007 A 
ATOM     11  C14 <0> d   1      17.226   0.046  16.416  0.00  0.00     0.001 A 
ATOM     12  C13 <0> d   1      17.988  -0.936  17.023  0.00  0.00     0.000 A 
ATOM     13  C12 <0> d   1      18.987  -1.573  16.310  0.00  0.00     0.001 A 
ATOM     14  C11 <0> d   1      19.222  -1.230  14.992  0.00  0.00     0.007 A 
ENDBRANCH   8   9
ENDBRANCH   6   8
ENDBRANCH   4   6
ENDBRANCH   3   4
TORSDOF 4
ENDMDL
MODEL 8
REMARK VINA RESULT:      -5.2      2.477      6.294
REMARK  4 active torsions:
REMARK  status: ('A' for Active; 'I' for Inactive)
REMARK    1  A    between atoms: C3_3  and  N4_4 
REMARK    2  A    between atoms: N4_4  and  C6_6 
REMARK    3  A    between atoms: C6_6  and  C9_8 
REMARK    4  A    between atoms: C9_8  and  C10_9 
ROOT
ATOM      1  C1  <0> d   1      19.131   1.810   8.069  0.00  0.00     0.013 C 
ATOM      2  C2  <0> d   1      18.916   1.474   9.174  0.00  0.00    -0.087 C 
ATOM      3  C3  <0> d   1      18.646   1.053  10.558  0.00  0.00     0.364 C 
ENDROOT
BRANCH   3   4
ATOM      4  N4  <0> d   1      18.924  -0.383  10.697  0.00  0.00     0.099 N 
ATOM      5  C5  <0> d   1      20.370  -0.642  10.703  0.00  0.00     0.311 C 
BRANCH   4   6
ATOM      6  C6  <0> d   1      18.285  -0.929  11.902  0.00  0.00     0.223 C 
ATOM      7  C8  <0> d   1      17.580  -2.241  11.557  0.00  0.00     0.043 C 
BRANCH   6   8
ATOM      8  C9  <0> d   1      19.350  -1.188  12.969  0.00  0.00     0.074 C 
BRANCH   8   9
ATOM      9  C10 <0> d   1      18.778  -0.894  14.332  0.00  0.00    -0.056 A 
ATOM     10  C15 <0> d   1      19.191  -1.629  15.428  0.00  0.00     0.007 A 
ATOM     11  C14 <0> d   1      18.670  -1.358  16.679  0.00  0.00     0.001 A 
ATOM     12  C13 <0> d   1      17.727  -0.358  16.833  0.00  0.00     0.000 A 
ATOM     13  C12 <0> d   1      17.309   0.373  15.736  0.00  0.00     0.001 A 
ATOM     14  C11 <0> d   1      17.834   0.104  14.486  0.00  0.00     0.007 A 
ENDBRANCH   8   9
ENDBRANCH   6   8
ENDBRANCH   4   6
ENDBRANCH   3   4
TORSDOF 4
ENDMDL
MODEL 9
REMARK VINA RESULT:      -5.1      3.263      5.536
REMARK  4 active torsions:
REMARK  status: ('A' for Active; 'I' for Inactive)
REMARK    1  A    between atoms: C3_3  and  N4_4 
REMARK    2  A    between atoms: N4_4  and  C6_6 
REMARK    3  A    between atoms: C6_6  and  C9_8 
REMARK    4  A    between atoms: C9_8  and  C10_9 
ROOT
ATOM      1  C1  <0> d   1      20.260  -5.339   7.044  0.00  0.00     0.013 C 
ATOM      2  C2  <0> d   1      19.844  -4.247   7.151  0.00  0.00    -0.087 C 
ATOM      3  C3  <0> d   1      19.323  -2.877   7.286  0.00  0.00     0.364 C 
ENDROOT
BRANCH   3   4
ATOM      4  N4  <0> d   1      19.336  -2.217   5.973  0.00  0.00     0.099 N 
ATOM      5  C5  <0> d   1      18.304  -2.778   5.091  0.00  0.00     0.311 C 
BRANCH   4   6
ATOM      6  C6  <0> d   1      19.176  -0.764   6.113  0.00  0.00     0.223 C 
ATOM      7  C8  <0> d   1      19.236  -0.107   4.733  0.00  0.00     0.043 C 
BRANCH   6   8
ATOM      8  C9  <0> d   1      17.825  -0.460   6.763  0.00  0.00     0.074 C 
BRANCH   8   9
ATOM      9  C10 <0> d   1      18.037   0.380   7.996  0.00  0.00    -0.056 A 
ATOM     10  C15 <0> d   1      18.896   1.463   7.954  0.00  0.00     0.007 A 
ATOM     11  C14 <0> d   1      19.089   2.237   9.084  0.00  0.00     0.001 A 
ATOM     12  C13 <0> d   1      18.430   1.922  10.258  0.00  0.00     0.000 A 
ATOM     13  C12 <0> d   1      17.576   0.835  10.301  0.00  0.00     0.001 A 
ATOM     14  C11 <0> d   1      17.380   0.064   9.171  0.00  0.00     0.007 A 
ENDBRANCH   8   9
ENDBRANCH   6   8
ENDBRANCH   4   6
ENDBRANCH   3   4
TORSDOF 4
ENDMDL
