MODEL 1
REMARK VINA RESULT:      -8.3      0.000      0.000
REMARK  10 active torsions:
REMARK  status: ('A' for Active; 'I' for Inactive)
REMARK    1  A    between atoms: O2_2  and  C3_3 
REMARK    2  A    between atoms: C6_6  and  C7_7 
REMARK    3  A    between atoms: C7_7  and  C8_8 
REMARK    4  A    between atoms: C8_8  and  N11_10 
REMARK    5  A    between atoms: N11_10  and  C14_13 
REMARK    6  A    between atoms: C14_13  and  C15_14 
REMARK    7  A    between atoms: C15_14  and  O17_15 
REMARK    8  A    between atoms: C15_14  and  C18_16 
REMARK    9  A    between atoms: C23_21  and  N24_22 
REMARK   10  A    between atoms: N24_22  and  C25_23 
ROOT
ATOM      1  C14 ZIN A   1      19.866   2.116  11.903  0.00  0.00     0.269 C 
ENDROOT
BRANCH   1   2
ATOM      2  N11 ZIN A   1      20.015   2.343  10.460  0.00  0.00    -0.068 N 
ATOM      3  H12 ZIN A   1      20.886   1.943  10.145  0.00  0.00     0.277 HD
ATOM      4  H13 ZIN A   1      20.014   3.334  10.273  0.00  0.00     0.277 HD
BRANCH   2   5
ATOM      5  C8  ZIN A   1      18.898   1.709   9.747  0.00  0.00     0.186 C 
ATOM      6  C10 ZIN A   1      17.575   2.152  10.375  0.00  0.00     0.040 C 
BRANCH   5   7
ATOM      7  C7  ZIN A   1      18.930   2.127   8.276  0.00  0.00     0.071 C 
BRANCH   7   8
ATOM      8  C6  ZIN A   1      19.061   0.902   7.408  0.00  0.00    -0.056 A 
ATOM      9  C5  ZIN A   1      19.074   1.029   6.031  0.00  0.00     0.010 A 
ATOM     10  C4  ZIN A   1      19.194  -0.093   5.234  0.00  0.00     0.037 A 
ATOM     11  C3  ZIN A   1      19.303  -1.347   5.816  0.00  0.00     0.068 A 
ATOM     12  C29 ZIN A   1      19.284  -1.473   7.197  0.00  0.00     0.037 A 
ATOM     13  C28 ZIN A   1      19.168  -0.348   7.990  0.00  0.00     0.010 A 
BRANCH  11  14
ATOM     14  O2  ZIN A   1      19.422  -2.453   5.034  0.00  0.00    -0.356 OA
ATOM     15  C1  ZIN A   1      19.136  -3.713   5.643  0.00  0.00     0.210 C 
ENDBRANCH  11  14
ENDBRANCH   7   8
ENDBRANCH   5   7
ENDBRANCH   2   5
ENDBRANCH   1   2
BRANCH   1  16
ATOM     16  C15 ZIN A   1      20.286   0.684  12.241  0.00  0.00     0.176 C 
BRANCH  16  17
ATOM     17  O17 ZIN A   1      21.709   0.616  12.341  0.00  0.00    -0.389 OA
ATOM     18  H42 ZIN A   1      22.170   0.751  11.501  0.00  0.00     0.210 HD
ENDBRANCH  16  17
BRANCH  16  19
ATOM     19  C18 ZIN A   1      19.670   0.276  13.554  0.00  0.00    -0.026 A 
ATOM     20  C27 ZIN A   1      19.305   1.241  14.474  0.00  0.00     0.042 A 
ATOM     21  C23 ZIN A   1      18.733   0.867  15.681  0.00  0.00     0.071 A 
ATOM     22  C21 ZIN A   1      18.539  -0.483  15.967  0.00  0.00     0.134 A 
ATOM     23  C20 ZIN A   1      18.912  -1.444  15.042  0.00  0.00     0.043 A 
ATOM     24  O22 ZIN A   1      17.983  -0.855  17.151  0.00  0.00    -0.190 OA
ATOM     25  C19 ZIN A   1      19.476  -1.064  13.839  0.00  0.00     0.013 A 
BRANCH  21  26
ATOM     26  N24 ZIN A   1      18.357   1.844  16.612  0.00  0.00    -0.332 N 
ATOM     27  H45 ZIN A   1      17.423   2.088  16.708  0.00  0.00     0.168 HD
BRANCH  26  28
ATOM     28  C25 ZIN A   1      19.292   2.444  17.375  0.00  0.00     0.353 C 
ATOM     29  O26 ZIN A   1      19.706   1.892  18.372  0.00  0.00    -0.283 OA
ENDBRANCH  26  28
ENDBRANCH  21  26
ENDBRANCH  16  19
ENDBRANCH   1  16
TORSDOF 10
ENDMDL
MODEL 2
REMARK VINA RESULT:      -8.0      3.131      5.166
REMARK  10 active torsions:
REMARK  status: ('A' for Active; 'I' for Inactive)
REMARK    1  A    between atoms: O2_2  and  C3_3 
REMARK    2  A    between atoms: C6_6  and  C7_7 
REMARK    3  A    between atoms: C7_7  and  C8_8 
REMARK    4  A    between atoms: C8_8  and  N11_10 
REMARK    5  A    between atoms: N11_10  and  C14_13 
REMARK    6  A    between atoms: C14_13  and  C15_14 
REMARK    7  A    between atoms: C15_14  and  O17_15 
REMARK    8  A    between atoms: C15_14  and  C18_16 
REMARK    9  A    between atoms: C23_21  and  N24_22 
REMARK   10  A    between atoms: N24_22  and  C25_23 
ROOT
ATOM      1  C14 ZIN A   1      20.375   0.569  12.241  0.00  0.00     0.269 C 
ENDROOT
BRANCH   1   2
ATOM      2  N11 ZIN A   1      20.465   1.978  11.836  0.00  0.00    -0.068 N 
ATOM      3  H12 ZIN A   1      20.826   2.034  10.894  0.00  0.00     0.277 HD
ATOM      4  H13 ZIN A   1      21.085   2.469  12.462  0.00  0.00     0.277 HD
BRANCH   2   5
ATOM      5  C8  ZIN A   1      19.131   2.589  11.886  0.00  0.00     0.186 C 
ATOM      6  C10 ZIN A   1      19.122   3.709  12.929  0.00  0.00     0.040 C 
BRANCH   5   7
ATOM      7  C7  ZIN A   1      18.782   3.167  10.514  0.00  0.00     0.071 C 
BRANCH   7   8
ATOM      8  C6  ZIN A   1      18.514   2.041   9.548  0.00  0.00    -0.056 A 
ATOM      9  C5  ZIN A   1      19.248   1.944   8.380  0.00  0.00     0.010 A 
ATOM     10  C4  ZIN A   1      19.004   0.913   7.494  0.00  0.00     0.037 A 
ATOM     11  C3  ZIN A   1      18.023  -0.026   7.777  0.00  0.00     0.068 A 
ATOM     12  C29 ZIN A   1      17.284   0.076   8.946  0.00  0.00     0.037 A 
ATOM     13  C28 ZIN A   1      17.535   1.107   9.832  0.00  0.00     0.010 A 
BRANCH  11  14
ATOM     14  O2  ZIN A   1      17.781  -1.042   6.906  0.00  0.00    -0.356 OA
ATOM     15  C1  ZIN A   1      18.913  -1.774   6.432  0.00  0.00     0.210 C 
ENDBRANCH  11  14
ENDBRANCH   7   8
ENDBRANCH   5   7
ENDBRANCH   2   5
ENDBRANCH   1   2
BRANCH   1  16
ATOM     16  C15 ZIN A   1      20.569  -0.328  11.017  0.00  0.00     0.176 C 
BRANCH  16  17
ATOM     17  O17 ZIN A   1      21.936  -0.740  10.941  0.00  0.00    -0.389 OA
ATOM     18  H42 ZIN A   1      22.562  -0.009  10.848  0.00  0.00     0.210 HD
ENDBRANCH  16  17
BRANCH  16  19
ATOM     19  C18 ZIN A   1      19.685  -1.542  11.138  0.00  0.00    -0.026 A 
ATOM     20  C27 ZIN A   1      19.631  -2.461  10.107  0.00  0.00     0.042 A 
ATOM     21  C23 ZIN A   1      18.821  -3.582  10.220  0.00  0.00     0.071 A 
ATOM     22  C21 ZIN A   1      18.056  -3.772  11.369  0.00  0.00     0.134 A 
ATOM     23  C20 ZIN A   1      18.112  -2.843  12.395  0.00  0.00     0.043 A 
ATOM     24  O22 ZIN A   1      17.256  -4.866  11.483  0.00  0.00    -0.190 OA
ATOM     25  C19 ZIN A   1      18.926  -1.732  12.279  0.00  0.00     0.013 A 
BRANCH  21  26
ATOM     26  N24 ZIN A   1      18.769  -4.518   9.178  0.00  0.00    -0.332 N 
ATOM     27  H45 ZIN A   1      18.017  -4.517   8.564  0.00  0.00     0.168 HD
BRANCH  26  28
ATOM     28  C25 ZIN A   1      19.760  -5.417   9.029  0.00  0.00     0.353 C 
ATOM     29  O26 ZIN A   1      19.497  -6.575   8.780  0.00  0.00    -0.283 OA
ENDBRANCH  26  28
ENDBRANCH  21  26
ENDBRANCH  16  19
ENDBRANCH   1  16
TORSDOF 10
ENDMDL
MODEL 3
REMARK VINA RESULT:      -7.8      2.848      6.684
REMARK  10 active torsions:
REMARK  status: ('A' for Active; 'I' for Inactive)
REMARK    1  A    between atoms: O2_2  and  C3_3 
REMARK    2  A    between atoms: C6_6  and  C7_7 
REMARK    3  A    between atoms: C7_7  and  C8_8 
REMARK    4  A    between atoms: C8_8  and  N11_10 
REMARK    5  A    between atoms: N11_10  and  C14_13 
REMARK    6  A    between atoms: C14_13  and  C15_14 
REMARK    7  A    between atoms: C15_14  and  O17_15 
REMARK    8  A    between atoms: C15_14  and  C18_16 
REMARK    9  A    between atoms: C23_21  and  N24_22 
REMARK   10  A    between atoms: N24_22  and  C25_23 
ROOT
ATOM      1  C14 ZIN A   1      20.479   0.539  12.479  0.00  0.00     0.269 C 
ENDROOT
BRANCH   1   2
ATOM      2  N11 ZIN A   1      19.799   0.329  13.764  0.00  0.00    -0.068 N 
ATOM      3  H12 ZIN A   1      18.969   0.902  13.802  0.00  0.00     0.277 HD
ATOM      4  H13 ZIN A   1      20.418   0.585  14.518  0.00  0.00     0.277 HD
BRANCH   2   5
ATOM      5  C8  ZIN A   1      19.425  -1.085  13.895  0.00  0.00     0.186 C 
ATOM      6  C10 ZIN A   1      19.117  -1.397  15.361  0.00  0.00     0.040 C 
BRANCH   5   7
ATOM      7  C7  ZIN A   1      18.187  -1.366  13.042  0.00  0.00     0.071 C 
BRANCH   7   8
ATOM      8  C6  ZIN A   1      18.441  -2.566  12.168  0.00  0.00    -0.056 A 
ATOM      9  C5  ZIN A   1      17.389  -3.172  11.504  0.00  0.00     0.010 A 
ATOM     10  C4  ZIN A   1      17.620  -4.272  10.701  0.00  0.00     0.037 A 
ATOM     11  C3  ZIN A   1      18.908  -4.769  10.561  0.00  0.00     0.068 A 
ATOM     12  C29 ZIN A   1      19.960  -4.164  11.232  0.00  0.00     0.037 A 
ATOM     13  C28 ZIN A   1      19.725  -3.060  12.029  0.00  0.00     0.010 A 
BRANCH  11  14
ATOM     14  O2  ZIN A   1      19.137  -5.852   9.772  0.00  0.00    -0.356 OA
ATOM     15  C1  ZIN A   1      20.085  -5.695   8.713  0.00  0.00     0.210 C 
ENDBRANCH  11  14
ENDBRANCH   7   8
ENDBRANCH   5   7
ENDBRANCH   2   5
ENDBRANCH   1   2
BRANCH   1  16
ATOM     16  C15 ZIN A   1      19.829   1.713  11.743  0.00  0.00     0.176 C 
BRANCH  16  17
ATOM     17  O17 ZIN A   1      20.705   2.841  11.779  0.00  0.00    -0.389 OA
ATOM     18  H42 ZIN A   1      21.595   2.638  12.100  0.00  0.00     0.210 HD
ENDBRANCH  16  17
BRANCH  16  19
ATOM     19  C18 ZIN A   1      19.567   1.326  10.311  0.00  0.00    -0.026 A 
ATOM     20  C27 ZIN A   1      19.700   0.007   9.918  0.00  0.00     0.042 A 
ATOM     21  C23 ZIN A   1      19.454  -0.351   8.601  0.00  0.00     0.071 A 
ATOM     22  C21 ZIN A   1      19.085   0.622   7.675  0.00  0.00     0.134 A 
ATOM     23  C20 ZIN A   1      18.960   1.942   8.075  0.00  0.00     0.043 A 
ATOM     24  O22 ZIN A   1      18.848   0.277   6.381  0.00  0.00    -0.190 OA
ATOM     25  C19 ZIN A   1      19.200   2.292   9.391  0.00  0.00     0.013 A 
BRANCH  21  26
ATOM     26  N24 ZIN A   1      19.582  -1.688   8.201  0.00  0.00    -0.332 N 
ATOM     27  H45 ZIN A   1      20.457  -2.109   8.191  0.00  0.00     0.168 HD
BRANCH  26  28
ATOM     28  C25 ZIN A   1      18.493  -2.389   7.833  0.00  0.00     0.353 C 
ATOM     29  O26 ZIN A   1      18.540  -3.119   6.865  0.00  0.00    -0.283 OA
ENDBRANCH  26  28
ENDBRANCH  21  26
ENDBRANCH  16  19
ENDBRANCH   1  16
TORSDOF 10
ENDMDL
MODEL 4
REMARK VINA RESULT:      -7.8      2.729      5.591
REMARK  10 active torsions:
REMARK  status: ('A' for Active; 'I' for Inactive)
REMARK    1  A    between atoms: O2_2  and  C3_3 
REMARK    2  A    between atoms: C6_6  and  C7_7 
REMARK    3  A    between atoms: C7_7  and  C8_8 
REMARK    4  A    between atoms: C8_8  and  N11_10 
REMARK    5  A    between atoms: N11_10  and  C14_13 
REMARK    6  A    between atoms: C14_13  and  C15_14 
REMARK    7  A    between atoms: C15_14  and  O17_15 
REMARK    8  A    between atoms: C15_14  and  C18_16 
REMARK    9  A    between atoms: C23_21  and  N24_22 
REMARK   10  A    between atoms: N24_22  and  C25_23 
ROOT
ATOM      1  C14 ZIN A   1      19.281   0.176  11.316  0.00  0.00     0.269 C 
ENDROOT
BRANCH   1   2
ATOM      2  N11 ZIN A   1      19.976   0.773  10.168  0.00  0.00    -0.068 N 
ATOM      3  H12 ZIN A   1      19.881   0.167   9.366  0.00  0.00     0.277 HD
ATOM      4  H13 ZIN A   1      20.953   0.887  10.389  0.00  0.00     0.277 HD
BRANCH   2   5
ATOM      5  C8  ZIN A   1      19.385   2.082   9.865  0.00  0.00     0.186 C 
ATOM      6  C10 ZIN A   1      19.011   2.142   8.382  0.00  0.00     0.040 C 
BRANCH   5   7
ATOM      7  C7  ZIN A   1      18.130   2.284  10.716  0.00  0.00     0.071 C 
BRANCH   7   8
ATOM      8  C6  ZIN A   1      18.377   3.376  11.724  0.00  0.00    -0.056 A 
ATOM      9  C5  ZIN A   1      17.323   3.894  12.454  0.00  0.00     0.010 A 
ATOM     10  C4  ZIN A   1      17.548   4.895  13.379  0.00  0.00     0.037 A 
ATOM     11  C3  ZIN A   1      18.833   5.380  13.576  0.00  0.00     0.068 A 
ATOM     12  C29 ZIN A   1      19.887   4.865  12.839  0.00  0.00     0.037 A 
ATOM     13  C28 ZIN A   1      19.659   3.859  11.918  0.00  0.00     0.010 A 
BRANCH  11  14
ATOM     14  O2  ZIN A   1      19.056   6.366  14.486  0.00  0.00    -0.356 OA
ATOM     15  C1  ZIN A   1      18.018   6.621  15.434  0.00  0.00     0.210 C 
ENDBRANCH  11  14
ENDBRANCH   7   8
ENDBRANCH   5   7
ENDBRANCH   2   5
ENDBRANCH   1   2
BRANCH   1  16
ATOM     16  C15 ZIN A   1      20.307  -0.235  12.376  0.00  0.00     0.176 C 
BRANCH  16  17
ATOM     17  O17 ZIN A   1      21.431   0.644  12.315  0.00  0.00    -0.389 OA
ATOM     18  H42 ZIN A   1      21.520   1.112  11.473  0.00  0.00     0.210 HD
ENDBRANCH  16  17
BRANCH  16  19
ATOM     19  C18 ZIN A   1      19.678  -0.152  13.742  0.00  0.00    -0.026 A 
ATOM     20  C27 ZIN A   1      19.293   1.074  14.251  0.00  0.00     0.042 A 
ATOM     21  C23 ZIN A   1      18.709   1.150  15.507  0.00  0.00     0.071 A 
ATOM     22  C21 ZIN A   1      18.522  -0.009  16.257  0.00  0.00     0.134 A 
ATOM     23  C20 ZIN A   1      18.915  -1.233  15.742  0.00  0.00     0.043 A 
ATOM     24  O22 ZIN A   1      17.955   0.061  17.490  0.00  0.00    -0.190 OA
ATOM     25  C19 ZIN A   1      19.491  -1.303  14.487  0.00  0.00     0.013 A 
BRANCH  21  26
ATOM     26  N24 ZIN A   1      18.314   2.392  16.023  0.00  0.00    -0.332 N 
ATOM     27  H45 ZIN A   1      17.380   2.654  15.993  0.00  0.00     0.168 HD
BRANCH  26  28
ATOM     28  C25 ZIN A   1      19.229   3.221  16.560  0.00  0.00     0.353 C 
ATOM     29  O26 ZIN A   1      19.844   2.885  17.550  0.00  0.00    -0.283 OA
ENDBRANCH  26  28
ENDBRANCH  21  26
ENDBRANCH  16  19
ENDBRANCH   1  16
TORSDOF 10
ENDMDL
MODEL 5
REMARK VINA RESULT:      -7.7      2.498      4.633
REMARK  10 active torsions:
REMARK  status: ('A' for Active; 'I' for Inactive)
REMARK    1  A    between atoms: O2_2  and  C3_3 
REMARK    2  A    between atoms: C6_6  and  C7_7 
REMARK    3  A    between atoms: C7_7  and  C8_8 
REMARK    4  A    between atoms: C8_8  and  N11_10 
REMARK    5  A    between atoms: N11_10  and  C14_13 
REMARK    6  A    between atoms: C14_13  and  C15_14 
REMARK    7  A    between atoms: C15_14  and  O17_15 
REMARK    8  A    between atoms: C15_14  and  C18_16 
REMARK    9  A    between atoms: C23_21  and  N24_22 
REMARK   10  A    between atoms: N24_22  and  C25_23 
ROOT
ATOM      1  C14 ZIN A   1      18.581  -2.744  10.444  0.00  0.00     0.269 C 
ENDROOT
BRANCH   1   2
ATOM      2  N11 ZIN A   1      19.432  -2.724   9.246  0.00  0.00    -0.068 N 
ATOM      3  H12 ZIN A   1      19.230  -3.532   8.677  0.00  0.00     0.277 HD
ATOM      4  H13 ZIN A   1      20.402  -2.743   9.523  0.00  0.00     0.277 HD
BRANCH   2   5
ATOM      5  C8  ZIN A   1      19.165  -1.502   8.477  0.00  0.00     0.186 C 
ATOM      6  C10 ZIN A   1      19.159  -1.832   6.982  0.00  0.00     0.040 C 
BRANCH   5   7
ATOM      7  C7  ZIN A   1      17.804  -0.934   8.879  0.00  0.00     0.071 C 
BRANCH   7   8
ATOM      8  C6  ZIN A   1      17.990   0.428   9.495  0.00  0.00    -0.056 A 
ATOM      9  C5  ZIN A   1      18.898   1.316   8.947  0.00  0.00     0.010 A 
ATOM     10  C4  ZIN A   1      19.070   2.566   9.510  0.00  0.00     0.037 A 
ATOM     11  C3  ZIN A   1      18.332   2.930  10.627  0.00  0.00     0.068 A 
ATOM     12  C29 ZIN A   1      17.427   2.037  11.179  0.00  0.00     0.037 A 
ATOM     13  C28 ZIN A   1      17.254   0.789  10.609  0.00  0.00     0.010 A 
BRANCH  11  14
ATOM     14  O2  ZIN A   1      18.500   4.159  11.183  0.00  0.00    -0.356 OA
ATOM     15  C1  ZIN A   1      19.504   4.283  12.193  0.00  0.00     0.210 C 
ENDBRANCH  11  14
ENDBRANCH   7   8
ENDBRANCH   5   7
ENDBRANCH   2   5
ENDBRANCH   1   2
BRANCH   1  16
ATOM     16  C15 ZIN A   1      19.455  -2.918  11.688  0.00  0.00     0.176 C 
BRANCH  16  17
ATOM     17  O17 ZIN A   1      20.803  -3.176  11.291  0.00  0.00    -0.389 OA
ATOM     18  H42 ZIN A   1      20.963  -3.061  10.344  0.00  0.00     0.210 HD
ENDBRANCH  16  17
BRANCH  16  19
ATOM     19  C18 ZIN A   1      19.407  -1.659  12.515  0.00  0.00    -0.026 A 
ATOM     20  C27 ZIN A   1      18.541  -1.571  13.589  0.00  0.00     0.042 A 
ATOM     21  C23 ZIN A   1      18.501  -0.415  14.353  0.00  0.00     0.071 A 
ATOM     22  C21 ZIN A   1      19.326   0.660  14.030  0.00  0.00     0.134 A 
ATOM     23  C20 ZIN A   1      20.187   0.566  12.949  0.00  0.00     0.043 A 
ATOM     24  O22 ZIN A   1      19.286   1.798  14.773  0.00  0.00    -0.190 OA
ATOM     25  C19 ZIN A   1      20.227  -0.591  12.195  0.00  0.00     0.013 A 
BRANCH  21  26
ATOM     26  N24 ZIN A   1      17.626  -0.326  15.445  0.00  0.00    -0.332 N 
ATOM     27  H45 ZIN A   1      16.856   0.262  15.403  0.00  0.00     0.168 HD
BRANCH  26  28
ATOM     28  C25 ZIN A   1      17.856  -1.057  16.553  0.00  0.00     0.353 C 
ATOM     29  O26 ZIN A   1      18.955  -1.051  17.066  0.00  0.00    -0.283 OA
ENDBRANCH  26  28
ENDBRANCH  21  26
ENDBRANCH  16  19
ENDBRANCH   1  16
TORSDOF 10
ENDMDL
MODEL 6
REMARK VINA RESULT:      -7.7      2.168      9.050
REMARK  10 active torsions:
REMARK  status: ('A' for Active; 'I' for Inactive)
REMARK    1  A    between atoms: O2_2  and  C3_3 
REMARK    2  A    between atoms: C6_6  and  C7_7 
REMARK    3  A    between atoms: C7_7  and  C8_8 
REMARK    4  A    between atoms: C8_8  and  N11_10 
REMARK    5  A    between atoms: N11_10  and  C14_13 
REMARK    6  A    between atoms: C14_13  and  C15_14 
REMARK    7  A    between atoms: C15_14  and  O17_15 
REMARK    8  A    between atoms: C15_14  and  C18_16 
REMARK    9  A    between atoms: C23_21  and  N24_22 
REMARK   10  A    between atoms: N24_22  and  C25_23 
ROOT
ATOM      1  C14 ZIN A   1      19.881  -1.993  11.435  0.00  0.00     0.269 C 
ENDROOT
BRANCH   1   2
ATOM      2  N11 ZIN A   1      19.803  -2.054  12.900  0.00  0.00    -0.068 N 
ATOM      3  H12 ZIN A   1      20.678  -1.744  13.296  0.00  0.00     0.277 HD
ATOM      4  H13 ZIN A   1      19.622  -3.004  13.188  0.00  0.00     0.277 HD
BRANCH   2   5
ATOM      5  C8  ZIN A   1      18.717  -1.184  13.370  0.00  0.00     0.186 C 
ATOM      6  C10 ZIN A   1      17.492  -1.368  12.472  0.00  0.00     0.040 C 
BRANCH   5   7
ATOM      7  C7  ZIN A   1      18.355  -1.553  14.810  0.00  0.00     0.071 C 
BRANCH   7   8
ATOM      8  C6  ZIN A   1      18.681  -0.398  15.721  0.00  0.00    -0.056 A 
ATOM      9  C5  ZIN A   1      18.809   0.877  15.202  0.00  0.00     0.010 A 
ATOM     10  C4  ZIN A   1      19.107   1.937  16.035  0.00  0.00     0.037 A 
ATOM     11  C3  ZIN A   1      19.278   1.721  17.396  0.00  0.00     0.068 A 
ATOM     12  C29 ZIN A   1      19.155   0.441  17.914  0.00  0.00     0.037 A 
ATOM     13  C28 ZIN A   1      18.851  -0.615  17.076  0.00  0.00     0.010 A 
BRANCH  11  14
ATOM     14  O2  ZIN A   1      19.572   2.763  18.218  0.00  0.00    -0.356 OA
ATOM     15  C1  ZIN A   1      18.480   3.373  18.909  0.00  0.00     0.210 C 
ENDBRANCH  11  14
ENDBRANCH   7   8
ENDBRANCH   5   7
ENDBRANCH   2   5
ENDBRANCH   1   2
BRANCH   1  16
ATOM     16  C15 ZIN A   1      20.358  -0.603  11.006  0.00  0.00     0.176 C 
BRANCH  16  17
ATOM     17  O17 ZIN A   1      21.782  -0.606  10.886  0.00  0.00    -0.389 OA
ATOM     18  H42 ZIN A   1      22.130  -1.331  10.351  0.00  0.00     0.210 HD
ENDBRANCH  16  17
BRANCH  16  19
ATOM     19  C18 ZIN A   1      19.742  -0.248   9.677  0.00  0.00    -0.026 A 
ATOM     20  C27 ZIN A   1      19.305  -1.249   8.830  0.00  0.00     0.042 A 
ATOM     21  C23 ZIN A   1      18.734  -0.922   7.610  0.00  0.00     0.071 A 
ATOM     22  C21 ZIN A   1      18.612   0.414   7.236  0.00  0.00     0.134 A 
ATOM     23  C20 ZIN A   1      19.058   1.411   8.088  0.00  0.00     0.043 A 
ATOM     24  O22 ZIN A   1      18.058   0.740   6.038  0.00  0.00    -0.190 OA
ATOM     25  C19 ZIN A   1      19.621   1.079   9.306  0.00  0.00     0.013 A 
BRANCH  21  26
ATOM     26  N24 ZIN A   1      18.285  -1.936   6.752  0.00  0.00    -0.332 N 
ATOM     27  H45 ZIN A   1      17.385  -2.287   6.846  0.00  0.00     0.168 HD
BRANCH  26  28
ATOM     28  C25 ZIN A   1      19.101  -2.421   5.797  0.00  0.00     0.353 C 
ATOM     29  O26 ZIN A   1      19.837  -3.353   6.045  0.00  0.00    -0.283 OA
ENDBRANCH  26  28
ENDBRANCH  21  26
ENDBRANCH  16  19
ENDBRANCH   1  16
TORSDOF 10
ENDMDL
MODEL 7
REMARK VINA RESULT:      -7.6      3.050      6.786
REMARK  10 active torsions:
REMARK  status: ('A' for Active; 'I' for Inactive)
REMARK    1  A    between atoms: O2_2  and  C3_3 
REMARK    2  A    between atoms: C6_6  and  C7_7 
REMARK    3  A    between atoms: C7_7  and  C8_8 
REMARK    4  A    between atoms: C8_8  and  N11_10 
REMARK    5  A    between atoms: N11_10  and  C14_13 
REMARK    6  A    between atoms: C14_13  and  C15_14 
REMARK    7  A    between atoms: C15_14  and  O17_15 
REMARK    8  A    between atoms: C15_14  and  C18_16 
REMARK    9  A    between atoms: C23_21  and  N24_22 
REMARK   10  A    between atoms: N24_22  and  C25_23 
ROOT
ATOM      1  C14 ZIN A   1      20.592  -0.567  10.492  0.00  0.00     0.269 C 
ENDROOT
BRANCH   1   2
ATOM      2  N11 ZIN A   1      20.063  -1.878  10.892  0.00  0.00    -0.068 N 
ATOM      3  H12 ZIN A   1      20.373  -2.093  11.828  0.00  0.00     0.277 HD
ATOM      4  H13 ZIN A   1      20.398  -2.584  10.255  0.00  0.00     0.277 HD
BRANCH   2   5
ATOM      5  C8  ZIN A   1      18.595  -1.844  10.858  0.00  0.00     0.186 C 
ATOM      6  C10 ZIN A   1      18.094  -2.652   9.659  0.00  0.00     0.040 C 
BRANCH   5   7
ATOM      7  C7  ZIN A   1      18.041  -2.450  12.149  0.00  0.00     0.071 C 
BRANCH   7   8
ATOM      8  C6  ZIN A   1      18.149  -1.442  13.264  0.00  0.00    -0.056 A 
ATOM      9  C5  ZIN A   1      19.024  -1.662  14.312  0.00  0.00     0.010 A 
ATOM     10  C4  ZIN A   1      19.125  -0.739  15.335  0.00  0.00     0.037 A 
ATOM     11  C3  ZIN A   1      18.347   0.410  15.309  0.00  0.00     0.068 A 
ATOM     12  C29 ZIN A   1      17.466   0.626  14.261  0.00  0.00     0.037 A 
ATOM     13  C28 ZIN A   1      17.373  -0.298  13.237  0.00  0.00     0.010 A 
BRANCH  11  14
ATOM     14  O2  ZIN A   1      18.444   1.320  16.315  0.00  0.00    -0.356 OA
ATOM     15  C1  ZIN A   1      18.935   2.617  15.971  0.00  0.00     0.210 C 
ENDBRANCH  11  14
ENDBRANCH   7   8
ENDBRANCH   5   7
ENDBRANCH   2   5
ENDBRANCH   1   2
BRANCH   1  16
ATOM     16  C15 ZIN A   1      20.431   0.423  11.647  0.00  0.00     0.176 C 
BRANCH  16  17
ATOM     17  O17 ZIN A   1      21.720   0.822  12.116  0.00  0.00    -0.389 OA
ATOM     18  H42 ZIN A   1      22.200   1.396  11.504  0.00  0.00     0.210 HD
ENDBRANCH  16  17
BRANCH  16  19
ATOM     19  C18 ZIN A   1      19.673   1.635  11.169  0.00  0.00    -0.026 A 
ATOM     20  C27 ZIN A   1      19.403   2.670  12.045  0.00  0.00     0.042 A 
ATOM     21  C23 ZIN A   1      18.711   3.787  11.604  0.00  0.00     0.071 A 
ATOM     22  C21 ZIN A   1      18.279   3.859  10.281  0.00  0.00     0.134 A 
ATOM     23  C20 ZIN A   1      18.549   2.815   9.411  0.00  0.00     0.043 A 
ATOM     24  O22 ZIN A   1      17.595   4.950   9.845  0.00  0.00    -0.190 OA
ATOM     25  C19 ZIN A   1      19.245   1.706   9.856  0.00  0.00     0.013 A 
BRANCH  21  26
ATOM     26  N24 ZIN A   1      18.441   4.840  12.489  0.00  0.00    -0.332 N 
ATOM     27  H45 ZIN A   1      19.043   5.600  12.537  0.00  0.00     0.168 HD
BRANCH  26  28
ATOM     28  C25 ZIN A   1      17.346   4.798  13.273  0.00  0.00     0.353 C 
ATOM     29  O26 ZIN A   1      16.315   5.320  12.902  0.00  0.00    -0.283 OA
ENDBRANCH  26  28
ENDBRANCH  21  26
ENDBRANCH  16  19
ENDBRANCH   1  16
TORSDOF 10
ENDMDL
MODEL 8
REMARK VINA RESULT:      -7.6      3.247      4.973
REMARK  10 active torsions:
REMARK  status: ('A' for Active; 'I' for Inactive)
REMARK    1  A    between atoms: O2_2  and  C3_3 
REMARK    2  A    between atoms: C6_6  and  C7_7 
REMARK    3  A    between atoms: C7_7  and  C8_8 
REMARK    4  A    between atoms: C8_8  and  N11_10 
REMARK    5  A    between atoms: N11_10  and  C14_13 
REMARK    6  A    between atoms: C14_13  and  C15_14 
REMARK    7  A    between atoms: C15_14  and  O17_15 
REMARK    8  A    between atoms: C15_14  and  C18_16 
REMARK    9  A    between atoms: C23_21  and  N24_22 
REMARK   10  A    between atoms: N24_22  and  C25_23 
ROOT
ATOM      1  C14 ZIN A   1      18.244   1.223  12.395  0.00  0.00     0.269 C 
ENDROOT
BRANCH   1   2
ATOM      2  N11 ZIN A   1      17.450   2.419  12.082  0.00  0.00    -0.068 N 
ATOM      3  H12 ZIN A   1      17.733   3.177  12.685  0.00  0.00     0.277 HD
ATOM      4  H13 ZIN A   1      16.472   2.221  12.229  0.00  0.00     0.277 HD
BRANCH   2   5
ATOM      5  C8  ZIN A   1      17.669   2.799  10.681  0.00  0.00     0.186 C 
ATOM      6  C10 ZIN A   1      17.865   4.314  10.588  0.00  0.00     0.040 C 
BRANCH   5   7
ATOM      7  C7  ZIN A   1      18.916   2.090  10.149  0.00  0.00     0.071 C 
BRANCH   7   8
ATOM      8  C6  ZIN A   1      18.582   1.387   8.859  0.00  0.00    -0.056 A 
ATOM      9  C5  ZIN A   1      17.652   0.363   8.851  0.00  0.00     0.010 A 
ATOM     10  C4  ZIN A   1      17.345  -0.283   7.670  0.00  0.00     0.037 A 
ATOM     11  C3  ZIN A   1      17.969   0.097   6.490  0.00  0.00     0.068 A 
ATOM     12  C29 ZIN A   1      18.905   1.119   6.501  0.00  0.00     0.037 A 
ATOM     13  C28 ZIN A   1      19.206   1.766   7.685  0.00  0.00     0.010 A 
BRANCH  11  14
ATOM     14  O2  ZIN A   1      17.668  -0.538   5.326  0.00  0.00    -0.356 OA
ATOM     15  C1  ZIN A   1      18.603  -0.405   4.253  0.00  0.00     0.210 C 
ENDBRANCH  11  14
ENDBRANCH   7   8
ENDBRANCH   5   7
ENDBRANCH   2   5
ENDBRANCH   1   2
BRANCH   1  16
ATOM     16  C15 ZIN A   1      17.307   0.039  12.645  0.00  0.00     0.176 C 
BRANCH  16  17
ATOM     17  O17 ZIN A   1      16.133   0.185  11.843  0.00  0.00    -0.389 OA
ATOM     18  H42 ZIN A   1      15.555  -0.590  11.849  0.00  0.00     0.210 HD
ENDBRANCH  16  17
BRANCH  16  19
ATOM     19  C18 ZIN A   1      18.009  -1.243  12.280  0.00  0.00    -0.026 A 
ATOM     20  C27 ZIN A   1      17.389  -2.155  11.446  0.00  0.00     0.042 A 
ATOM     21  C23 ZIN A   1      18.038  -3.333  11.106  0.00  0.00     0.071 A 
ATOM     22  C21 ZIN A   1      19.307  -3.599  11.614  0.00  0.00     0.134 A 
ATOM     23  C20 ZIN A   1      19.919  -2.682  12.453  0.00  0.00     0.043 A 
ATOM     24  O22 ZIN A   1      19.944  -4.755  11.288  0.00  0.00    -0.190 OA
ATOM     25  C19 ZIN A   1      19.270  -1.507  12.784  0.00  0.00     0.013 A 
BRANCH  21  26
ATOM     26  N24 ZIN A   1      17.413  -4.257  10.257  0.00  0.00    -0.332 N 
ATOM     27  H45 ZIN A   1      17.011  -5.060  10.625  0.00  0.00     0.168 HD
BRANCH  26  28
ATOM     28  C25 ZIN A   1      17.371  -4.031   8.929  0.00  0.00     0.353 C 
ATOM     29  O26 ZIN A   1      18.395  -3.801   8.320  0.00  0.00    -0.283 OA
ENDBRANCH  26  28
ENDBRANCH  21  26
ENDBRANCH  16  19
ENDBRANCH   1  16
TORSDOF 10
ENDMDL
MODEL 9
REMARK VINA RESULT:      -7.5      2.953      5.861
REMARK  10 active torsions:
REMARK  status: ('A' for Active; 'I' for Inactive)
REMARK    1  A    between atoms: O2_2  and  C3_3 
REMARK    2  A    between atoms: C6_6  and  C7_7 
REMARK    3  A    between atoms: C7_7  and  C8_8 
REMARK    4  A    between atoms: C8_8  and  N11_10 
REMARK    5  A    between atoms: N11_10  and  C14_13 
REMARK    6  A    between atoms: C14_13  and  C15_14 
REMARK    7  A    between atoms: C15_14  and  O17_15 
REMARK    8  A    between atoms: C15_14  and  C18_16 
REMARK    9  A    between atoms: C23_21  and  N24_22 
REMARK   10  A    between atoms: N24_22  and  C25_23 
ROOT
ATOM      1  C14 ZIN A   1      18.482   0.637  11.684  0.00  0.00     0.269 C 
ENDROOT
BRANCH   1   2
ATOM      2  N11 ZIN A   1      17.890   1.329  10.531  0.00  0.00    -0.068 N 
ATOM      3  H12 ZIN A   1      17.052   1.810  10.822  0.00  0.00     0.277 HD
ATOM      4  H13 ZIN A   1      17.659   0.654   9.817  0.00  0.00     0.277 HD
BRANCH   2   5
ATOM      5  C8  ZIN A   1      18.852   2.300   9.995  0.00  0.00     0.186 C 
ATOM      6  C10 ZIN A   1      19.340   1.831   8.623  0.00  0.00     0.040 C 
BRANCH   5   7
ATOM      7  C7  ZIN A   1      18.174   3.665   9.857  0.00  0.00     0.071 C 
BRANCH   7   8
ATOM      8  C6  ZIN A   1      18.033   4.296  11.218  0.00  0.00    -0.056 A 
ATOM      9  C5  ZIN A   1      16.832   4.872  11.591  0.00  0.00     0.010 A 
ATOM     10  C4  ZIN A   1      16.700   5.451  12.838  0.00  0.00     0.037 A 
ATOM     11  C3  ZIN A   1      17.774   5.453  13.717  0.00  0.00     0.068 A 
ATOM     12  C29 ZIN A   1      18.979   4.881  13.339  0.00  0.00     0.037 A 
ATOM     13  C28 ZIN A   1      19.104   4.298  12.092  0.00  0.00     0.010 A 
BRANCH  11  14
ATOM     14  O2  ZIN A   1      17.647   6.023  14.945  0.00  0.00    -0.356 OA
ATOM     15  C1  ZIN A   1      18.355   7.244  15.170  0.00  0.00     0.210 C 
ENDBRANCH  11  14
ENDBRANCH   7   8
ENDBRANCH   5   7
ENDBRANCH   2   5
ENDBRANCH   1   2
BRANCH   1  16
ATOM     16  C15 ZIN A   1      17.368   0.115  12.593  0.00  0.00     0.176 C 
BRANCH  16  17
ATOM     17  O17 ZIN A   1      16.951  -1.175  12.142  0.00  0.00    -0.389 OA
ATOM     18  H42 ZIN A   1      16.130  -1.487  12.546  0.00  0.00     0.210 HD
ENDBRANCH  16  17
BRANCH  16  19
ATOM     19  C18 ZIN A   1      17.880   0.011  14.007  0.00  0.00    -0.026 A 
ATOM     20  C27 ZIN A   1      17.745   1.082  14.870  0.00  0.00     0.042 A 
ATOM     21  C23 ZIN A   1      18.211   0.985  16.172  0.00  0.00     0.071 A 
ATOM     22  C21 ZIN A   1      18.826  -0.189  16.604  0.00  0.00     0.134 A 
ATOM     23  C20 ZIN A   1      18.962  -1.255  15.731  0.00  0.00     0.043 A 
ATOM     24  O22 ZIN A   1      19.289  -0.287  17.878  0.00  0.00    -0.190 OA
ATOM     25  C19 ZIN A   1      18.490  -1.155  14.436  0.00  0.00     0.013 A 
BRANCH  21  26
ATOM     26  N24 ZIN A   1      18.070   2.068  17.051  0.00  0.00    -0.332 N 
ATOM     27  H45 ZIN A   1      17.456   2.008  17.800  0.00  0.00     0.168 HD
BRANCH  26  28
ATOM     28  C25 ZIN A   1      18.786   3.192  16.856  0.00  0.00     0.353 C 
ATOM     29  O26 ZIN A   1      19.996   3.135  16.784  0.00  0.00    -0.283 OA
ENDBRANCH  26  28
ENDBRANCH  21  26
ENDBRANCH  16  19
ENDBRANCH   1  16
TORSDOF 10
ENDMDL
