MODEL 1
REMARK VINA RESULT:      -5.8      0.000      0.000
REMARK  2 active torsions:
REMARK  status: ('A' for Active; 'I' for Inactive)
REMARK    1  A    between atoms: C2_2  and  N4_3 
REMARK    2  A    between atoms: C2_2  and  C8_7 
ROOT
ATOM      1  C8  <0> d   1      18.326  -0.067   7.019  0.00  0.00    -0.012 C 
ATOM      2  C9  <0> d   1      19.192  -1.259   7.432  0.00  0.00     0.016 C 
ATOM      3  C10 <0> d   1      19.444  -1.210   8.939  0.00  0.00    -0.013 C 
ATOM      4  C11 <0> d   1      18.108  -1.268   9.682  0.00  0.00     0.009 C 
ATOM      5  C12 <0> d   1      17.241  -0.076   9.269  0.00  0.00    -0.013 C 
ATOM      6  C13 <0> d   1      17.964   1.226   9.623  0.00  0.00     0.009 C 
ATOM      7  C14 <0> d   1      19.301   1.285   8.881  0.00  0.00    -0.013 C 
ATOM      8  C15 <0> d   1      20.166   0.092   9.293  0.00  0.00     0.009 C 
ATOM      9  C16 <0> d   1      19.049   1.234   7.372  0.00  0.00     0.016 C 
ATOM     10  C17 <0> d   1      16.990  -0.126   7.761  0.00  0.00     0.016 C 
ENDROOT
BRANCH   1  11
ATOM     11  C2  <0> d   1      18.074  -0.117   5.511  0.00  0.00     0.188 C 
ATOM     12  C1  <0> d   1      19.404  -0.314   4.779  0.00  0.00     0.040 C 
BRANCH  11  13
ATOM     13  N4  <0> d   1      17.175  -1.236   5.201  0.00  0.00    -0.075 N 
ATOM     14  H5  <0> d   1      17.152  -1.383   4.203  0.00  0.00     0.274 HD
ATOM     15  H6  <0> d   1      17.510  -2.072   5.657  0.00  0.00     0.274 HD
ATOM     16  H7  <0> d   1      16.246  -1.022   5.532  0.00  0.00     0.274 HD
ENDBRANCH  11  13
ENDBRANCH   1  11
TORSDOF 2
ENDMDL
MODEL 2
REMARK VINA RESULT:      -5.8      0.011      2.080
REMARK  2 active torsions:
REMARK  status: ('A' for Active; 'I' for Inactive)
REMARK    1  A    between atoms: C2_2  and  N4_3 
REMARK    2  A    between atoms: C2_2  and  C8_7 
ROOT
ATOM      1  C8  <0> d   1      18.329  -0.063   7.027  0.00  0.00    -0.012 C 
ATOM      2  C9  <0> d   1      19.049   1.240   7.380  0.00  0.00     0.016 C 
ATOM      3  C10 <0> d   1      19.302   1.293   8.887  0.00  0.00    -0.013 C 
ATOM      4  C11 <0> d   1      20.169   0.102   9.301  0.00  0.00     0.009 C 
ATOM      5  C12 <0> d   1      19.449  -1.201   8.949  0.00  0.00    -0.013 C 
ATOM      6  C13 <0> d   1      18.113  -1.262   9.693  0.00  0.00     0.009 C 
ATOM      7  C14 <0> d   1      17.245  -0.071   9.279  0.00  0.00    -0.013 C 
ATOM      8  C15 <0> d   1      17.966   1.231   9.630  0.00  0.00     0.009 C 
ATOM      9  C16 <0> d   1      16.993  -0.123   7.771  0.00  0.00     0.016 C 
ATOM     10  C17 <0> d   1      19.196  -1.253   7.441  0.00  0.00     0.016 C 
ENDROOT
BRANCH   1  11
ATOM     11  C2  <0> d   1      18.076  -0.115   5.520  0.00  0.00     0.188 C 
ATOM     12  C1  <0> d   1      19.405  -0.306   4.786  0.00  0.00     0.040 C 
BRANCH  11  13
ATOM     13  N4  <0> d   1      17.182  -1.239   5.212  0.00  0.00    -0.075 N 
ATOM     14  H5  <0> d   1      17.520  -2.073   5.668  0.00  0.00     0.274 HD
ATOM     15  H6  <0> d   1      16.252  -1.029   5.542  0.00  0.00     0.274 HD
ATOM     16  H7  <0> d   1      17.159  -1.387   4.214  0.00  0.00     0.274 HD
ENDBRANCH  11  13
ENDBRANCH   1  11
TORSDOF 2
ENDMDL
MODEL 3
REMARK VINA RESULT:      -5.8      0.013      2.078
REMARK  2 active torsions:
REMARK  status: ('A' for Active; 'I' for Inactive)
REMARK    1  A    between atoms: C2_2  and  N4_3 
REMARK    2  A    between atoms: C2_2  and  C8_7 
ROOT
ATOM      1  C8  <0> d   1      18.329  -0.062   7.029  0.00  0.00    -0.012 C 
ATOM      2  C9  <0> d   1      16.993  -0.123   7.773  0.00  0.00     0.016 C 
ATOM      3  C10 <0> d   1      17.245  -0.071   9.280  0.00  0.00    -0.013 C 
ATOM      4  C11 <0> d   1      17.966   1.232   9.632  0.00  0.00     0.009 C 
ATOM      5  C12 <0> d   1      19.302   1.294   8.888  0.00  0.00    -0.013 C 
ATOM      6  C13 <0> d   1      20.170   0.104   9.302  0.00  0.00     0.009 C 
ATOM      7  C14 <0> d   1      19.450  -1.200   8.951  0.00  0.00    -0.013 C 
ATOM      8  C15 <0> d   1      18.114  -1.260   9.694  0.00  0.00     0.009 C 
ATOM      9  C16 <0> d   1      19.197  -1.252   7.442  0.00  0.00     0.016 C 
ATOM     10  C17 <0> d   1      19.050   1.240   7.380  0.00  0.00     0.016 C 
ENDROOT
BRANCH   1  11
ATOM     11  C2  <0> d   1      18.077  -0.115   5.521  0.00  0.00     0.188 C 
ATOM     12  C1  <0> d   1      19.406  -0.306   4.788  0.00  0.00     0.040 C 
BRANCH  11  13
ATOM     13  N4  <0> d   1      17.183  -1.240   5.213  0.00  0.00    -0.075 N 
ATOM     14  H5  <0> d   1      17.728  -2.021   4.880  0.00  0.00     0.274 HD
ATOM     15  H6  <0> d   1      16.683  -1.509   6.047  0.00  0.00     0.274 HD
ATOM     16  H7  <0> d   1      16.524  -0.961   4.502  0.00  0.00     0.274 HD
ENDBRANCH  11  13
ENDBRANCH   1  11
TORSDOF 2
ENDMDL
MODEL 4
REMARK VINA RESULT:      -5.7      2.866      4.538
REMARK  2 active torsions:
REMARK  status: ('A' for Active; 'I' for Inactive)
REMARK    1  A    between atoms: C2_2  and  N4_3 
REMARK    2  A    between atoms: C2_2  and  C8_7 
ROOT
ATOM      1  C8  <0> d   1      19.023   1.798  10.395  0.00  0.00    -0.012 C 
ATOM      2  C9  <0> d   1      19.900   0.718  11.033  0.00  0.00     0.016 C 
ATOM      3  C10 <0> d   1      19.552  -0.643  10.429  0.00  0.00    -0.013 C 
ATOM      4  C11 <0> d   1      19.799  -0.611   8.920  0.00  0.00     0.009 C 
ATOM      5  C12 <0> d   1      18.922   0.469   8.282  0.00  0.00    -0.013 C 
ATOM      6  C13 <0> d   1      17.449   0.153   8.551  0.00  0.00     0.009 C 
ATOM      7  C14 <0> d   1      17.201   0.120  10.061  0.00  0.00    -0.013 C 
ATOM      8  C15 <0> d   1      18.079  -0.959  10.697  0.00  0.00     0.009 C 
ATOM      9  C16 <0> d   1      17.550   1.482  10.665  0.00  0.00     0.016 C 
ATOM     10  C17 <0> d   1      19.269   1.831   8.887  0.00  0.00     0.016 C 
ENDROOT
BRANCH   1  11
ATOM     11  C2  <0> d   1      19.370   3.160  11.000  0.00  0.00     0.188 C 
ATOM     12  C1  <0> d   1      18.301   3.552  12.021  0.00  0.00     0.040 C 
BRANCH  11  13
ATOM     13  N4  <0> d   1      20.677   3.081  11.665  0.00  0.00    -0.075 N 
ATOM     14  H5  <0> d   1      20.545   2.863  12.641  0.00  0.00     0.274 HD
ATOM     15  H6  <0> d   1      21.232   2.359  11.231  0.00  0.00     0.274 HD
ATOM     16  H7  <0> d   1      21.152   3.968  11.580  0.00  0.00     0.274 HD
ENDBRANCH  11  13
ENDBRANCH   1  11
TORSDOF 2
ENDMDL
MODEL 5
REMARK VINA RESULT:      -5.7      2.870      4.604
REMARK  2 active torsions:
REMARK  status: ('A' for Active; 'I' for Inactive)
REMARK    1  A    between atoms: C2_2  and  N4_3 
REMARK    2  A    between atoms: C2_2  and  C8_7 
ROOT
ATOM      1  C8  <0> d   1      19.018   1.810  10.401  0.00  0.00    -0.012 C 
ATOM      2  C9  <0> d   1      17.546   1.489  10.667  0.00  0.00     0.016 C 
ATOM      3  C10 <0> d   1      17.204   0.125  10.066  0.00  0.00    -0.013 C 
ATOM      4  C11 <0> d   1      18.085  -0.950  10.706  0.00  0.00     0.009 C 
ATOM      5  C12 <0> d   1      19.557  -0.629  10.440  0.00  0.00    -0.013 C 
ATOM      6  C13 <0> d   1      19.807  -0.599   8.931  0.00  0.00     0.009 C 
ATOM      7  C14 <0> d   1      18.927   0.476   8.290  0.00  0.00    -0.013 C 
ATOM      8  C15 <0> d   1      17.455   0.155   8.557  0.00  0.00     0.009 C 
ATOM      9  C16 <0> d   1      19.268   1.841   8.892  0.00  0.00     0.016 C 
ATOM     10  C17 <0> d   1      19.899   0.736  11.041  0.00  0.00     0.016 C 
ENDROOT
BRANCH   1  11
ATOM     11  C2  <0> d   1      19.360   3.175  11.002  0.00  0.00     0.188 C 
ATOM     12  C1  <0> d   1      18.295   3.559  12.031  0.00  0.00     0.040 C 
BRANCH  11  13
ATOM     13  N4  <0> d   1      20.672   3.106  11.658  0.00  0.00    -0.075 N 
ATOM     14  H5  <0> d   1      20.547   3.085  12.659  0.00  0.00     0.274 HD
ATOM     15  H6  <0> d   1      21.153   2.270  11.361  0.00  0.00     0.274 HD
ATOM     16  H7  <0> d   1      21.218   3.916  11.404  0.00  0.00     0.274 HD
ENDBRANCH  11  13
ENDBRANCH   1  11
TORSDOF 2
ENDMDL
MODEL 6
REMARK VINA RESULT:      -5.7      2.871      4.459
REMARK  2 active torsions:
REMARK  status: ('A' for Active; 'I' for Inactive)
REMARK    1  A    between atoms: C2_2  and  N4_3 
REMARK    2  A    between atoms: C2_2  and  C8_7 
ROOT
ATOM      1  C8  <0> d   1      19.024   1.804  10.408  0.00  0.00    -0.012 C 
ATOM      2  C9  <0> d   1      19.269   1.841   8.898  0.00  0.00     0.016 C 
ATOM      3  C10 <0> d   1      18.922   0.481   8.291  0.00  0.00    -0.013 C 
ATOM      4  C11 <0> d   1      17.450   0.161   8.562  0.00  0.00     0.009 C 
ATOM      5  C12 <0> d   1      17.205   0.124  10.073  0.00  0.00    -0.013 C 
ATOM      6  C13 <0> d   1      18.085  -0.956  10.705  0.00  0.00     0.009 C 
ATOM      7  C14 <0> d   1      19.557  -0.638  10.434  0.00  0.00    -0.013 C 
ATOM      8  C15 <0> d   1      19.801  -0.600   8.924  0.00  0.00     0.009 C 
ATOM      9  C16 <0> d   1      19.905   0.724  11.041  0.00  0.00     0.016 C 
ATOM     10  C17 <0> d   1      17.553   1.485  10.680  0.00  0.00     0.016 C 
ENDROOT
BRANCH   1  11
ATOM     11  C2  <0> d   1      19.372   3.164  11.015  0.00  0.00     0.188 C 
ATOM     12  C1  <0> d   1      18.313   3.545  12.053  0.00  0.00     0.040 C 
BRANCH  11  13
ATOM     13  N4  <0> d   1      20.687   3.089  11.664  0.00  0.00    -0.075 N 
ATOM     14  H5  <0> d   1      21.285   3.814  11.298  0.00  0.00     0.274 HD
ATOM     15  H6  <0> d   1      20.579   3.213  12.660  0.00  0.00     0.274 HD
ATOM     16  H7  <0> d   1      21.101   2.187  11.481  0.00  0.00     0.274 HD
ENDBRANCH  11  13
ENDBRANCH   1  11
TORSDOF 2
ENDMDL
MODEL 7
REMARK VINA RESULT:      -5.7      6.892      8.507
REMARK  2 active torsions:
REMARK  status: ('A' for Active; 'I' for Inactive)
REMARK    1  A    between atoms: C2_2  and  N4_3 
REMARK    2  A    between atoms: C2_2  and  C8_7 
ROOT
ATOM      1  C8  <0> d   1      18.683   0.473  15.158  0.00  0.00    -0.012 C 
ATOM      2  C9  <0> d   1      19.272   1.371  16.249  0.00  0.00     0.016 C 
ATOM      3  C10 <0> d   1      18.950   0.784  17.623  0.00  0.00    -0.013 C 
ATOM      4  C11 <0> d   1      19.555  -0.617  17.734  0.00  0.00     0.009 C 
ATOM      5  C12 <0> d   1      18.966  -1.516  16.644  0.00  0.00    -0.013 C 
ATOM      6  C13 <0> d   1      17.448  -1.601  16.820  0.00  0.00     0.009 C 
ATOM      7  C14 <0> d   1      16.842  -0.200  16.709  0.00  0.00    -0.013 C 
ATOM      8  C15 <0> d   1      17.432   0.697  17.798  0.00  0.00     0.009 C 
ATOM      9  C16 <0> d   1      17.166   0.388  15.333  0.00  0.00     0.016 C 
ATOM     10  C17 <0> d   1      19.288  -0.927  15.269  0.00  0.00     0.016 C 
ENDROOT
BRANCH   1  11
ATOM     11  C2  <0> d   1      19.006   1.061  13.783  0.00  0.00     0.188 C 
ATOM     12  C1  <0> d   1      18.803   2.577  13.818  0.00  0.00     0.040 C 
BRANCH  11  13
ATOM     13  N4  <0> d   1      20.401   0.762  13.438  0.00  0.00    -0.075 N 
ATOM     14  H5  <0> d   1      20.794   1.536  12.924  0.00  0.00     0.274 HD
ATOM     15  H6  <0> d   1      20.932   0.614  14.283  0.00  0.00     0.274 HD
ATOM     16  H7  <0> d   1      20.436  -0.072  12.870  0.00  0.00     0.274 HD
ENDBRANCH  11  13
ENDBRANCH   1  11
TORSDOF 2
ENDMDL
MODEL 8
REMARK VINA RESULT:      -5.5      3.728      5.357
REMARK  2 active torsions:
REMARK  status: ('A' for Active; 'I' for Inactive)
REMARK    1  A    between atoms: C2_2  and  N4_3 
REMARK    2  A    between atoms: C2_2  and  C8_7 
ROOT
ATOM      1  C8  <0> d   1      19.290  -2.134  10.902  0.00  0.00    -0.012 C 
ATOM      2  C9  <0> d   1      20.175  -3.187  11.573  0.00  0.00     0.016 C 
ATOM      3  C10 <0> d   1      19.622  -4.581  11.280  0.00  0.00    -0.013 C 
ATOM      4  C11 <0> d   1      19.605  -4.816   9.768  0.00  0.00     0.009 C 
ATOM      5  C12 <0> d   1      18.720  -3.763   9.097  0.00  0.00    -0.013 C 
ATOM      6  C13 <0> d   1      17.295  -3.872   9.644  0.00  0.00     0.009 C 
ATOM      7  C14 <0> d   1      17.311  -3.638  11.156  0.00  0.00    -0.013 C 
ATOM      8  C15 <0> d   1      18.196  -4.690  11.826  0.00  0.00     0.009 C 
ATOM      9  C16 <0> d   1      17.866  -2.242  11.450  0.00  0.00     0.016 C 
ATOM     10  C17 <0> d   1      19.274  -2.368   9.391  0.00  0.00     0.016 C 
ENDROOT
BRANCH   1  11
ATOM     11  C2  <0> d   1      19.844  -0.738  11.197  0.00  0.00     0.188 C 
ATOM     12  C1  <0> d   1      19.667  -0.423  12.684  0.00  0.00     0.040 C 
BRANCH  11  13
ATOM     13  N4  <0> d   1      21.272  -0.697  10.855  0.00  0.00    -0.075 N 
ATOM     14  H5  <0> d   1      21.743  -0.036  11.454  0.00  0.00     0.274 HD
ATOM     15  H6  <0> d   1      21.675  -1.613  10.982  0.00  0.00     0.274 HD
ATOM     16  H7  <0> d   1      21.379  -0.414   9.892  0.00  0.00     0.274 HD
ENDBRANCH  11  13
ENDBRANCH   1  11
TORSDOF 2
ENDMDL
MODEL 9
REMARK VINA RESULT:      -5.4      2.362      3.890
REMARK  2 active torsions:
REMARK  status: ('A' for Active; 'I' for Inactive)
REMARK    1  A    between atoms: C2_2  and  N4_3 
REMARK    2  A    between atoms: C2_2  and  C8_7 
ROOT
ATOM      1  C8  <0> d   1      18.724   0.887   9.762  0.00  0.00    -0.012 C 
ATOM      2  C9  <0> d   1      18.867   2.338   9.297  0.00  0.00     0.016 C 
ATOM      3  C10 <0> d   1      18.846   3.268  10.511  0.00  0.00    -0.013 C 
ATOM      4  C11 <0> d   1      20.005   2.915  11.445  0.00  0.00     0.009 C 
ATOM      5  C12 <0> d   1      19.861   1.464  11.911  0.00  0.00    -0.013 C 
ATOM      6  C13 <0> d   1      18.537   1.297  12.658  0.00  0.00     0.009 C 
ATOM      7  C14 <0> d   1      17.377   1.650  11.724  0.00  0.00    -0.013 C 
ATOM      8  C15 <0> d   1      17.521   3.100  11.258  0.00  0.00     0.009 C 
ATOM      9  C16 <0> d   1      17.399   0.720  10.509  0.00  0.00     0.016 C 
ATOM     10  C17 <0> d   1      19.883   0.534  10.696  0.00  0.00     0.016 C 
ENDROOT
BRANCH   1  11
ATOM     11  C2  <0> d   1      18.745  -0.043   8.548  0.00  0.00     0.188 C 
ATOM     12  C1  <0> d   1      18.954   0.784   7.277  0.00  0.00     0.040 C 
BRANCH  11  13
ATOM     13  N4  <0> d   1      19.843  -1.008   8.690  0.00  0.00    -0.075 N 
ATOM     14  H5  <0> d   1      20.468  -0.702   9.420  0.00  0.00     0.274 HD
ATOM     15  H6  <0> d   1      19.465  -1.913   8.927  0.00  0.00     0.274 HD
ATOM     16  H7  <0> d   1      20.348  -1.073   7.818  0.00  0.00     0.274 HD
ENDBRANCH  11  13
ENDBRANCH   1  11
TORSDOF 2
ENDMDL
