MODEL 1
REMARK VINA RESULT:      -6.5      0.000      0.000
REMARK  1 active torsions:
REMARK  status: ('A' for Active; 'I' for Inactive)
REMARK    1  A    between atoms: C3_3  and  C4_4 
ROOT
ATOM      1  C1  ZIN A   1      20.065  -0.124  10.652  0.00  0.00     0.071 C 
ATOM      2  C2  ZIN A   1      19.293   1.112  11.040  0.00  0.00     0.045 A 
ATOM      3  C3  ZIN A   1      18.470   1.708  10.112  0.00  0.00     0.000 A 
ATOM      4  C10 ZIN A   1      17.738   2.861  10.449  0.00  0.00     0.042 A 
ATOM      5  C11 ZIN A   1      17.865   3.382  11.731  0.00  0.00     0.115 A 
ATOM      6  C12 ZIN A   1      17.141   4.555  12.120  0.00  0.00     0.105 C 
ATOM      7  N13 ZIN A   1      16.565   5.485  12.428  0.00  0.00    -0.191 NA
ATOM      8  C14 ZIN A   1      18.756   2.706  12.676  0.00  0.00     0.288 A 
ATOM      9  O15 ZIN A   1      18.891   3.137  13.808  0.00  0.00    -0.265 OA
ATOM     10  N16 ZIN A   1      19.422   1.602  12.288  0.00  0.00    -0.213 NA
ENDROOT
BRANCH   3  11
ATOM     11  C4  ZIN A   1      18.352   1.131   8.750  0.00  0.00    -0.021 A 
ATOM     12  C9  ZIN A   1      19.148   1.598   7.700  0.00  0.00     0.031 A 
ATOM     13  C8  ZIN A   1      19.009   1.031   6.452  0.00  0.00     0.117 A 
ATOM     14  N7  ZIN A   1      18.133   0.067   6.238  0.00  0.00    -0.273 NA
ATOM     15  C6  ZIN A   1      17.359  -0.398   7.200  0.00  0.00     0.117 A 
ATOM     16  C5  ZIN A   1      17.437   0.109   8.480  0.00  0.00     0.031 A 
ENDBRANCH   3  11
TORSDOF 1
ENDMDL
MODEL 2
REMARK VINA RESULT:      -6.5      2.611      5.610
REMARK  1 active torsions:
REMARK  status: ('A' for Active; 'I' for Inactive)
REMARK    1  A    between atoms: C3_3  and  C4_4 
ROOT
ATOM      1  C1  ZIN A   1      17.362   0.192  11.348  0.00  0.00     0.071 C 
ATOM      2  C2  ZIN A   1      17.829   0.261   9.917  0.00  0.00     0.045 A 
ATOM      3  C3  ZIN A   1      18.405   1.421   9.453  0.00  0.00     0.000 A 
ATOM      4  C10 ZIN A   1      18.850   1.511   8.122  0.00  0.00     0.042 A 
ATOM      5  C11 ZIN A   1      18.696   0.408   7.290  0.00  0.00     0.115 A 
ATOM      6  C12 ZIN A   1      19.133   0.452   5.926  0.00  0.00     0.105 C 
ATOM      7  N13 ZIN A   1      19.480   0.488   4.846  0.00  0.00    -0.191 NA
ATOM      8  C14 ZIN A   1      18.076  -0.800   7.838  0.00  0.00     0.288 A 
ATOM      9  O15 ZIN A   1      17.925  -1.784   7.136  0.00  0.00    -0.265 OA
ATOM     10  N16 ZIN A   1      17.678  -0.818   9.124  0.00  0.00    -0.213 NA
ENDROOT
BRANCH   3  11
ATOM     11  C4  ZIN A   1      18.558   2.584  10.362  0.00  0.00    -0.021 A 
ATOM     12  C9  ZIN A   1      17.572   3.571  10.439  0.00  0.00     0.031 A 
ATOM     13  C8  ZIN A   1      17.753   4.633  11.300  0.00  0.00     0.117 A 
ATOM     14  N7  ZIN A   1      18.843   4.729  12.038  0.00  0.00    -0.273 NA
ATOM     15  C6  ZIN A   1      19.800   3.822  11.991  0.00  0.00     0.117 A 
ATOM     16  C5  ZIN A   1      19.697   2.726  11.161  0.00  0.00     0.031 A 
ENDBRANCH   3  11
TORSDOF 1
ENDMDL
MODEL 3
REMARK VINA RESULT:      -6.4      4.406      5.515
REMARK  1 active torsions:
REMARK  status: ('A' for Active; 'I' for Inactive)
REMARK    1  A    between atoms: C3_3  and  C4_4 
ROOT
ATOM      1  C1  ZIN A   1      18.346  -1.738  16.489  0.00  0.00     0.071 C 
ATOM      2  C2  ZIN A   1      18.726  -0.280  16.455  0.00  0.00     0.045 A 
ATOM      3  C3  ZIN A   1      18.807   0.366  15.243  0.00  0.00     0.000 A 
ATOM      4  C10 ZIN A   1      19.158   1.726  15.184  0.00  0.00     0.042 A 
ATOM      5  C11 ZIN A   1      19.421   2.400  16.371  0.00  0.00     0.115 A 
ATOM      6  C12 ZIN A   1      19.784   3.786  16.361  0.00  0.00     0.105 C 
ATOM      7  N13 ZIN A   1      20.070   4.885  16.353  0.00  0.00    -0.191 NA
ATOM      8  C14 ZIN A   1      19.321   1.662  17.631  0.00  0.00     0.288 A 
ATOM      9  O15 ZIN A   1      19.546   2.222  18.690  0.00  0.00    -0.265 OA
ATOM     10  N16 ZIN A   1      18.973   0.361  17.614  0.00  0.00    -0.213 NA
ENDROOT
BRANCH   3  11
ATOM     11  C4  ZIN A   1      18.520  -0.377  13.990  0.00  0.00    -0.021 A 
ATOM     12  C9  ZIN A   1      17.372  -0.105  13.240  0.00  0.00     0.031 A 
ATOM     13  C8  ZIN A   1      17.147  -0.816  12.081  0.00  0.00     0.117 A 
ATOM     14  N7  ZIN A   1      17.992  -1.748  11.681  0.00  0.00    -0.273 NA
ATOM     15  C6  ZIN A   1      19.084  -2.038  12.362  0.00  0.00     0.117 A 
ATOM     16  C5  ZIN A   1      19.388  -1.372  13.531  0.00  0.00     0.031 A 
ENDBRANCH   3  11
TORSDOF 1
ENDMDL
MODEL 4
REMARK VINA RESULT:      -6.3      3.860      5.141
REMARK  1 active torsions:
REMARK  status: ('A' for Active; 'I' for Inactive)
REMARK    1  A    between atoms: C3_3  and  C4_4 
ROOT
ATOM      1  C1  ZIN A   1      19.207   0.136  11.093  0.00  0.00     0.071 C 
ATOM      2  C2  ZIN A   1      19.131  -0.001  12.592  0.00  0.00     0.045 A 
ATOM      3  C3  ZIN A   1      18.922  -1.244  13.144  0.00  0.00     0.000 A 
ATOM      4  C10 ZIN A   1      18.847  -1.399  14.539  0.00  0.00     0.042 A 
ATOM      5  C11 ZIN A   1      18.988  -0.274  15.345  0.00  0.00     0.115 A 
ATOM      6  C12 ZIN A   1      18.918  -0.383  16.772  0.00  0.00     0.105 C 
ATOM      7  N13 ZIN A   1      18.864  -0.469  17.902  0.00  0.00    -0.191 NA
ATOM      8  C14 ZIN A   1      19.208   1.022  14.702  0.00  0.00     0.288 A 
ATOM      9  O15 ZIN A   1      19.335   2.028  15.379  0.00  0.00    -0.265 OA
ATOM     10  N16 ZIN A   1      19.274   1.097  13.360  0.00  0.00    -0.213 NA
ENDROOT
BRANCH   3  11
ATOM     11  C4  ZIN A   1      18.775  -2.428  12.261  0.00  0.00    -0.021 A 
ATOM     12  C9  ZIN A   1      19.876  -3.229  11.944  0.00  0.00     0.031 A 
ATOM     13  C8  ZIN A   1      19.694  -4.322  11.124  0.00  0.00     0.117 A 
ATOM     14  N7  ZIN A   1      18.504  -4.611  10.633  0.00  0.00    -0.273 NA
ATOM     15  C6  ZIN A   1      17.441  -3.879  10.903  0.00  0.00     0.117 A 
ATOM     16  C5  ZIN A   1      17.532  -2.771  11.719  0.00  0.00     0.031 A 
ENDBRANCH   3  11
TORSDOF 1
ENDMDL
MODEL 5
REMARK VINA RESULT:      -6.1      3.414      6.258
REMARK  1 active torsions:
REMARK  status: ('A' for Active; 'I' for Inactive)
REMARK    1  A    between atoms: C3_3  and  C4_4 
ROOT
ATOM      1  C1  ZIN A   1      18.777   2.413   8.925  0.00  0.00     0.071 C 
ATOM      2  C2  ZIN A   1      18.879   1.172   8.077  0.00  0.00     0.045 A 
ATOM      3  C3  ZIN A   1      18.728  -0.061   8.670  0.00  0.00     0.000 A 
ATOM      4  C10 ZIN A   1      18.818  -1.235   7.901  0.00  0.00     0.042 A 
ATOM      5  C11 ZIN A   1      19.062  -1.123   6.536  0.00  0.00     0.115 A 
ATOM      6  C12 ZIN A   1      19.163  -2.291   5.712  0.00  0.00     0.105 C 
ATOM      7  N13 ZIN A   1      19.242  -3.217   5.060  0.00  0.00    -0.191 NA
ATOM      8  C14 ZIN A   1      19.215   0.214   5.961  0.00  0.00     0.288 A 
ATOM      9  O15 ZIN A   1      19.430   0.348   4.769  0.00  0.00    -0.265 OA
ATOM     10  N16 ZIN A   1      19.110   1.296   6.756  0.00  0.00    -0.213 NA
ENDROOT
BRANCH   3  11
ATOM     11  C4  ZIN A   1      18.468  -0.153  10.128  0.00  0.00    -0.021 A 
ATOM     12  C9  ZIN A   1      19.520  -0.287  11.039  0.00  0.00     0.031 A 
ATOM     13  C8  ZIN A   1      19.233  -0.364  12.385  0.00  0.00     0.117 A 
ATOM     14  N7  ZIN A   1      17.987  -0.323  12.817  0.00  0.00    -0.273 NA
ATOM     15  C6  ZIN A   1      16.965  -0.202  11.990  0.00  0.00     0.117 A 
ATOM     16  C5  ZIN A   1      17.163  -0.113  10.628  0.00  0.00     0.031 A 
ENDBRANCH   3  11
TORSDOF 1
ENDMDL
MODEL 6
REMARK VINA RESULT:      -6.1      2.395      3.773
REMARK  1 active torsions:
REMARK  status: ('A' for Active; 'I' for Inactive)
REMARK    1  A    between atoms: C3_3  and  C4_4 
ROOT
ATOM      1  C1  ZIN A   1      18.938   1.345   8.954  0.00  0.00     0.071 C 
ATOM      2  C2  ZIN A   1      18.353   2.363   9.899  0.00  0.00     0.045 A 
ATOM      3  C3  ZIN A   1      18.004   1.975  11.172  0.00  0.00     0.000 A 
ATOM      4  C10 ZIN A   1      17.457   2.906  12.074  0.00  0.00     0.042 A 
ATOM      5  C11 ZIN A   1      17.278   4.218  11.652  0.00  0.00     0.115 A 
ATOM      6  C12 ZIN A   1      16.724   5.202  12.535  0.00  0.00     0.105 C 
ATOM      7  N13 ZIN A   1      16.285   5.981  13.235  0.00  0.00    -0.191 NA
ATOM      8  C14 ZIN A   1      17.666   4.573  10.286  0.00  0.00     0.288 A 
ATOM      9  O15 ZIN A   1      17.522   5.715   9.884  0.00  0.00    -0.265 OA
ATOM     10  N16 ZIN A   1      18.190   3.632   9.478  0.00  0.00    -0.213 NA
ENDROOT
BRANCH   3  11
ATOM     11  C4  ZIN A   1      18.206   0.568  11.597  0.00  0.00    -0.021 A 
ATOM     12  C9  ZIN A   1      17.202  -0.388  11.419  0.00  0.00     0.031 A 
ATOM     13  C8  ZIN A   1      17.434  -1.686  11.824  0.00  0.00     0.117 A 
ATOM     14  N7  ZIN A   1      18.580  -2.027  12.382  0.00  0.00    -0.273 NA
ATOM     15  C6  ZIN A   1      19.551  -1.155  12.574  0.00  0.00     0.117 A 
ATOM     16  C5  ZIN A   1      19.405   0.163  12.193  0.00  0.00     0.031 A 
ENDBRANCH   3  11
TORSDOF 1
ENDMDL
MODEL 7
REMARK VINA RESULT:      -6.1      1.857      3.515
REMARK  1 active torsions:
REMARK  status: ('A' for Active; 'I' for Inactive)
REMARK    1  A    between atoms: C3_3  and  C4_4 
ROOT
ATOM      1  C1  ZIN A   1      16.960   4.643  10.699  0.00  0.00     0.071 C 
ATOM      2  C2  ZIN A   1      17.450   4.004  11.973  0.00  0.00     0.045 A 
ATOM      3  C3  ZIN A   1      18.045   2.764  11.918  0.00  0.00     0.000 A 
ATOM      4  C10 ZIN A   1      18.512   2.147  13.092  0.00  0.00     0.042 A 
ATOM      5  C11 ZIN A   1      18.360   2.813  14.303  0.00  0.00     0.115 A 
ATOM      6  C12 ZIN A   1      18.820   2.224  15.525  0.00  0.00     0.105 C 
ATOM      7  N13 ZIN A   1      19.185   1.757  16.493  0.00  0.00    -0.191 NA
ATOM      8  C14 ZIN A   1      17.720   4.129  14.301  0.00  0.00     0.288 A 
ATOM      9  O15 ZIN A   1      17.571   4.740  15.345  0.00  0.00    -0.265 OA
ATOM     10  N16 ZIN A   1      17.301   4.664  13.139  0.00  0.00    -0.213 NA
ENDROOT
BRANCH   3  11
ATOM     11  C4  ZIN A   1      18.195   2.075  10.612  0.00  0.00    -0.021 A 
ATOM     12  C9  ZIN A   1      17.397   0.975  10.285  0.00  0.00     0.031 A 
ATOM     13  C8  ZIN A   1      17.566   0.367   9.059  0.00  0.00     0.117 A 
ATOM     14  N7  ZIN A   1      18.472   0.804   8.204  0.00  0.00    -0.273 NA
ATOM     15  C6  ZIN A   1      19.249   1.835   8.477  0.00  0.00     0.117 A 
ATOM     16  C5  ZIN A   1      19.142   2.505   9.678  0.00  0.00     0.031 A 
ENDBRANCH   3  11
TORSDOF 1
ENDMDL
MODEL 8
REMARK VINA RESULT:      -6.0      3.158      6.158
REMARK  1 active torsions:
REMARK  status: ('A' for Active; 'I' for Inactive)
REMARK    1  A    between atoms: C3_3  and  C4_4 
ROOT
ATOM      1  C1  ZIN A   1      18.689   2.733   9.679  0.00  0.00     0.071 C 
ATOM      2  C2  ZIN A   1      18.885   1.480   8.865  0.00  0.00     0.045 A 
ATOM      3  C3  ZIN A   1      19.048   0.276   9.512  0.00  0.00     0.000 A 
ATOM      4  C10 ZIN A   1      19.232  -0.907   8.775  0.00  0.00     0.042 A 
ATOM      5  C11 ZIN A   1      19.247  -0.835   7.387  0.00  0.00     0.115 A 
ATOM      6  C12 ZIN A   1      19.432  -2.014   6.594  0.00  0.00     0.105 C 
ATOM      7  N13 ZIN A   1      19.578  -2.949   5.967  0.00  0.00    -0.191 NA
ATOM      8  C14 ZIN A   1      19.069   0.472   6.753  0.00  0.00     0.288 A 
ATOM      9  O15 ZIN A   1      19.077   0.571   5.539  0.00  0.00    -0.265 OA
ATOM     10  N16 ZIN A   1      18.891   1.565   7.520  0.00  0.00    -0.213 NA
ENDROOT
BRANCH   3  11
ATOM     11  C4  ZIN A   1      19.028   0.227  10.995  0.00  0.00    -0.021 A 
ATOM     12  C9  ZIN A   1      17.831   0.037  11.692  0.00  0.00     0.031 A 
ATOM     13  C8  ZIN A   1      17.859  -0.006  13.070  0.00  0.00     0.117 A 
ATOM     14  N7  ZIN A   1      18.993   0.137  13.730  0.00  0.00    -0.273 NA
ATOM     15  C6  ZIN A   1      20.143   0.323  13.111  0.00  0.00     0.117 A 
ATOM     16  C5  ZIN A   1      20.206   0.374  11.734  0.00  0.00     0.031 A 
ENDBRANCH   3  11
TORSDOF 1
ENDMDL
MODEL 9
REMARK VINA RESULT:      -6.0      4.416      6.283
REMARK  1 active torsions:
REMARK  status: ('A' for Active; 'I' for Inactive)
REMARK    1  A    between atoms: C3_3  and  C4_4 
ROOT
ATOM      1  C1  ZIN A   1      19.660   5.255  15.887  0.00  0.00     0.071 C 
ATOM      2  C2  ZIN A   1      19.292   3.804  16.064  0.00  0.00     0.045 A 
ATOM      3  C3  ZIN A   1      18.545   3.177  15.093  0.00  0.00     0.000 A 
ATOM      4  C10 ZIN A   1      18.189   1.823  15.233  0.00  0.00     0.042 A 
ATOM      5  C11 ZIN A   1      18.607   1.137  16.368  0.00  0.00     0.115 A 
ATOM      6  C12 ZIN A   1      18.268  -0.243  16.555  0.00  0.00     0.105 C 
ATOM      7  N13 ZIN A   1      18.001  -1.336  16.703  0.00  0.00    -0.191 NA
ATOM      8  C14 ZIN A   1      19.399   1.855  17.367  0.00  0.00     0.288 A 
ATOM      9  O15 ZIN A   1      19.781   1.284  18.374  0.00  0.00    -0.265 OA
ATOM     10  N16 ZIN A   1      19.709   3.150  17.166  0.00  0.00    -0.213 NA
ENDROOT
BRANCH   3  11
ATOM     11  C4  ZIN A   1      18.112   3.932  13.891  0.00  0.00    -0.021 A 
ATOM     12  C9  ZIN A   1      18.813   3.829  12.686  0.00  0.00     0.031 A 
ATOM     13  C8  ZIN A   1      18.374   4.545  11.593  0.00  0.00     0.117 A 
ATOM     14  N7  ZIN A   1      17.314   5.327  11.676  0.00  0.00    -0.273 NA
ATOM     15  C6  ZIN A   1      16.628   5.457  12.795  0.00  0.00     0.117 A 
ATOM     16  C5  ZIN A   1      16.995   4.772  13.935  0.00  0.00     0.031 A 
ENDBRANCH   3  11
TORSDOF 1
ENDMDL
