MODEL 1
REMARK VINA RESULT:      -5.2      0.000      0.000
REMARK  4 active torsions:
REMARK  status: ('A' for Active; 'I' for Inactive)
REMARK    1  A    between atoms: C2_2  and  N4_3 
REMARK    2  A    between atoms: C2_2  and  C8_7 
REMARK    3  A    between atoms: C8_7  and  C9_8 
REMARK    4  A    between atoms: C12_11  and  O13_12 
ROOT
ATOM      1  C9  ZIN A   1      19.013   0.542   7.226  0.00  0.00    -0.056 A 
ATOM      2  C10 ZIN A   1      19.106  -0.820   7.447  0.00  0.00     0.010 A 
ATOM      3  C11 ZIN A   1      19.255  -1.685   6.381  0.00  0.00     0.037 A 
ATOM      4  C12 ZIN A   1      19.313  -1.187   5.088  0.00  0.00     0.065 A 
ATOM      5  C14 ZIN A   1      19.219   0.179   4.868  0.00  0.00     0.037 A 
ATOM      6  C15 ZIN A   1      19.064   1.040   5.937  0.00  0.00     0.010 A 
ENDROOT
BRANCH   1   7
ATOM      7  C8  ZIN A   1      18.849   1.483   8.391  0.00  0.00     0.070 C 
BRANCH   7   8
ATOM      8  C2  ZIN A   1      18.840   0.683   9.696  0.00  0.00     0.183 C 
ATOM      9  C1  ZIN A   1      17.516   0.914  10.427  0.00  0.00     0.040 C 
BRANCH   8  10
ATOM     10  N4  ZIN A   1      19.952   1.124  10.549  0.00  0.00    -0.075 N 
ATOM     11  H5  ZIN A   1      20.172   2.087  10.345  0.00  0.00     0.274 HD
ATOM     12  H6  ZIN A   1      19.687   1.037  11.518  0.00  0.00     0.274 HD
ATOM     13  H7  ZIN A   1      20.762   0.548  10.369  0.00  0.00     0.274 HD
ENDBRANCH   8  10
ENDBRANCH   7   8
ENDBRANCH   1   7
BRANCH   4  14
ATOM     14  O13 ZIN A   1      19.460  -2.037   4.037  0.00  0.00    -0.361 OA
ATOM     15  H23 ZIN A   1      20.194  -2.659   4.135  0.00  0.00     0.217 HD
ENDBRANCH   4  14
TORSDOF 4
ENDMDL
MODEL 2
REMARK VINA RESULT:      -5.2      7.233      9.734
REMARK  4 active torsions:
REMARK  status: ('A' for Active; 'I' for Inactive)
REMARK    1  A    between atoms: C2_2  and  N4_3 
REMARK    2  A    between atoms: C2_2  and  C8_7 
REMARK    3  A    between atoms: C8_7  and  C9_8 
REMARK    4  A    between atoms: C12_11  and  O13_12 
ROOT
ATOM      1  C9  ZIN A   1      18.806  -0.435  15.861  0.00  0.00    -0.056 A 
ATOM      2  C10 ZIN A   1      19.016  -0.942  17.130  0.00  0.00     0.010 A 
ATOM      3  C11 ZIN A   1      19.269  -0.085  18.184  0.00  0.00     0.037 A 
ATOM      4  C12 ZIN A   1      19.312   1.284  17.969  0.00  0.00     0.065 A 
ATOM      5  C14 ZIN A   1      19.103   1.791  16.695  0.00  0.00     0.037 A 
ATOM      6  C15 ZIN A   1      18.855   0.930  15.643  0.00  0.00     0.010 A 
ENDROOT
BRANCH   1   7
ATOM      7  C8  ZIN A   1      18.531  -1.371  14.713  0.00  0.00     0.070 C 
BRANCH   7   8
ATOM      8  C2  ZIN A   1      18.720  -0.625  13.390  0.00  0.00     0.183 C 
ATOM      9  C1  ZIN A   1      17.540  -0.922  12.463  0.00  0.00     0.040 C 
BRANCH   8  10
ATOM     10  N4  ZIN A   1      19.966  -1.069  12.752  0.00  0.00    -0.075 N 
ATOM     11  H5  ZIN A   1      20.449  -0.273  12.366  0.00  0.00     0.274 HD
ATOM     12  H6  ZIN A   1      20.554  -1.519  13.439  0.00  0.00     0.274 HD
ATOM     13  H7  ZIN A   1      19.752  -1.724  12.014  0.00  0.00     0.274 HD
ENDBRANCH   8  10
ENDBRANCH   7   8
ENDBRANCH   1   7
BRANCH   4  14
ATOM     14  O13 ZIN A   1      19.562   2.128  19.005  0.00  0.00    -0.361 OA
ATOM     15  H23 ZIN A   1      20.410   1.973  19.443  0.00  0.00     0.217 HD
ENDBRANCH   4  14
TORSDOF 4
ENDMDL
MODEL 3
REMARK VINA RESULT:      -5.1      2.311      3.437
REMARK  4 active torsions:
REMARK  status: ('A' for Active; 'I' for Inactive)
REMARK    1  A    between atoms: C2_2  and  N4_3 
REMARK    2  A    between atoms: C2_2  and  C8_7 
REMARK    3  A    between atoms: C8_7  and  C9_8 
REMARK    4  A    between atoms: C12_11  and  O13_12 
ROOT
ATOM      1  C9  ZIN A   1      18.537   2.059   9.540  0.00  0.00    -0.056 A 
ATOM      2  C10 ZIN A   1      19.055   1.911   8.267  0.00  0.00     0.010 A 
ATOM      3  C11 ZIN A   1      18.733   0.799   7.514  0.00  0.00     0.037 A 
ATOM      4  C12 ZIN A   1      17.889  -0.169   8.035  0.00  0.00     0.065 A 
ATOM      5  C14 ZIN A   1      17.370  -0.020   9.313  0.00  0.00     0.037 A 
ATOM      6  C15 ZIN A   1      17.700   1.092  10.065  0.00  0.00     0.010 A 
ENDROOT
BRANCH   1   7
ATOM      7  C8  ZIN A   1      18.891   3.273  10.360  0.00  0.00     0.070 C 
BRANCH   7   8
ATOM      8  C2  ZIN A   1      19.332   2.834  11.758  0.00  0.00     0.183 C 
ATOM      9  C1  ZIN A   1      19.215   4.014  12.725  0.00  0.00     0.040 C 
BRANCH   8  10
ATOM     10  N4  ZIN A   1      20.727   2.376  11.711  0.00  0.00    -0.075 N 
ATOM     11  H5  ZIN A   1      20.749   1.370  11.645  0.00  0.00     0.274 HD
ATOM     12  H6  ZIN A   1      21.184   2.777  10.906  0.00  0.00     0.274 HD
ATOM     13  H7  ZIN A   1      21.205   2.670  12.550  0.00  0.00     0.274 HD
ENDBRANCH   8  10
ENDBRANCH   7   8
ENDBRANCH   1   7
BRANCH   4  14
ATOM     14  O13 ZIN A   1      17.570  -1.264   7.295  0.00  0.00    -0.361 OA
ATOM     15  H23 ZIN A   1      18.313  -1.865   7.143  0.00  0.00     0.217 HD
ENDBRANCH   4  14
TORSDOF 4
ENDMDL
MODEL 4
REMARK VINA RESULT:      -5.1      2.105      2.901
REMARK  4 active torsions:
REMARK  status: ('A' for Active; 'I' for Inactive)
REMARK    1  A    between atoms: C2_2  and  N4_3 
REMARK    2  A    between atoms: C2_2  and  C8_7 
REMARK    3  A    between atoms: C8_7  and  C9_8 
REMARK    4  A    between atoms: C12_11  and  O13_12 
ROOT
ATOM      1  C9  ZIN A   1      18.671   1.851   9.390  0.00  0.00    -0.056 A 
ATOM      2  C10 ZIN A   1      17.751   0.898   9.785  0.00  0.00     0.010 A 
ATOM      3  C11 ZIN A   1      17.325  -0.065   8.892  0.00  0.00     0.037 A 
ATOM      4  C12 ZIN A   1      17.822  -0.076   7.597  0.00  0.00     0.065 A 
ATOM      5  C14 ZIN A   1      18.744   0.881   7.201  0.00  0.00     0.037 A 
ATOM      6  C15 ZIN A   1      19.163   1.846   8.097  0.00  0.00     0.010 A 
ENDROOT
BRANCH   1   7
ATOM      7  C8  ZIN A   1      19.134   2.901  10.367  0.00  0.00     0.070 C 
BRANCH   7   8
ATOM      8  C2  ZIN A   1      19.332   2.264  11.744  0.00  0.00     0.183 C 
ATOM      9  C1  ZIN A   1      19.020   3.294  12.832  0.00  0.00     0.040 C 
BRANCH   8  10
ATOM     10  N4  ZIN A   1      20.723   1.815  11.881  0.00  0.00    -0.075 N 
ATOM     11  H5  ZIN A   1      21.150   1.760  10.969  0.00  0.00     0.274 HD
ATOM     12  H6  ZIN A   1      21.234   2.472  12.452  0.00  0.00     0.274 HD
ATOM     13  H7  ZIN A   1      20.742   0.905  12.317  0.00  0.00     0.274 HD
ENDBRANCH   8  10
ENDBRANCH   7   8
ENDBRANCH   1   7
BRANCH   4  14
ATOM     14  O13 ZIN A   1      17.404  -1.023   6.716  0.00  0.00    -0.361 OA
ATOM     15  H23 ZIN A   1      16.508  -1.348   6.883  0.00  0.00     0.217 HD
ENDBRANCH   4  14
TORSDOF 4
ENDMDL
MODEL 5
REMARK VINA RESULT:      -5.1      3.501      5.065
REMARK  4 active torsions:
REMARK  status: ('A' for Active; 'I' for Inactive)
REMARK    1  A    between atoms: C2_2  and  N4_3 
REMARK    2  A    between atoms: C2_2  and  C8_7 
REMARK    3  A    between atoms: C8_7  and  C9_8 
REMARK    4  A    between atoms: C12_11  and  O13_12 
ROOT
ATOM      1  C9  ZIN A   1      18.682   0.818   8.497  0.00  0.00    -0.056 A 
ATOM      2  C10 ZIN A   1      17.849   0.216   9.423  0.00  0.00     0.010 A 
ATOM      3  C11 ZIN A   1      17.367   0.942  10.494  0.00  0.00     0.037 A 
ATOM      4  C12 ZIN A   1      17.718   2.275  10.642  0.00  0.00     0.065 A 
ATOM      5  C14 ZIN A   1      18.554   2.877   9.713  0.00  0.00     0.037 A 
ATOM      6  C15 ZIN A   1      19.038   2.146   8.645  0.00  0.00     0.010 A 
ENDROOT
BRANCH   1   7
ATOM      7  C8  ZIN A   1      19.206   0.024   7.329  0.00  0.00     0.070 C 
BRANCH   7   8
ATOM      8  C2  ZIN A   1      18.589   0.556   6.033  0.00  0.00     0.183 C 
ATOM      9  C1  ZIN A   1      17.279  -0.183   5.751  0.00  0.00     0.040 C 
BRANCH   8  10
ATOM     10  N4  ZIN A   1      19.523   0.338   4.920  0.00  0.00    -0.075 N 
ATOM     11  H5  ZIN A   1      19.107   0.668   4.063  0.00  0.00     0.274 HD
ATOM     12  H6  ZIN A   1      20.379   0.843   5.096  0.00  0.00     0.274 HD
ATOM     13  H7  ZIN A   1      19.725  -0.648   4.840  0.00  0.00     0.274 HD
ENDBRANCH   8  10
ENDBRANCH   7   8
ENDBRANCH   1   7
BRANCH   4  14
ATOM     14  O13 ZIN A   1      17.245   2.991  11.696  0.00  0.00    -0.361 OA
ATOM     15  H23 ZIN A   1      16.292   2.899  11.837  0.00  0.00     0.217 HD
ENDBRANCH   4  14
TORSDOF 4
ENDMDL
MODEL 6
REMARK VINA RESULT:      -5.0      5.684      8.061
REMARK  4 active torsions:
REMARK  status: ('A' for Active; 'I' for Inactive)
REMARK    1  A    between atoms: C2_2  and  N4_3 
REMARK    2  A    between atoms: C2_2  and  C8_7 
REMARK    3  A    between atoms: C8_7  and  C9_8 
REMARK    4  A    between atoms: C12_11  and  O13_12 
ROOT
ATOM      1  C9  ZIN A   1      18.963  -0.761  13.802  0.00  0.00    -0.056 A 
ATOM      2  C10 ZIN A   1      19.053  -1.497  14.970  0.00  0.00     0.010 A 
ATOM      3  C11 ZIN A   1      18.300  -1.141  16.071  0.00  0.00     0.037 A 
ATOM      4  C12 ZIN A   1      17.451  -0.046  16.005  0.00  0.00     0.065 A 
ATOM      5  C14 ZIN A   1      17.362   0.691  14.834  0.00  0.00     0.037 A 
ATOM      6  C15 ZIN A   1      18.122   0.334  13.736  0.00  0.00     0.010 A 
ENDROOT
BRANCH   1   7
ATOM      7  C8  ZIN A   1      19.786  -1.151  12.602  0.00  0.00     0.070 C 
BRANCH   7   8
ATOM      8  C2  ZIN A   1      20.133   0.101  11.793  0.00  0.00     0.183 C 
ATOM      9  C1  ZIN A   1      20.074  -0.224  10.299  0.00  0.00     0.040 C 
BRANCH   8  10
ATOM     10  N4  ZIN A   1      21.487   0.551  12.142  0.00  0.00    -0.075 N 
ATOM     11  H5  ZIN A   1      21.428   1.327  12.783  0.00  0.00     0.274 HD
ATOM     12  H6  ZIN A   1      21.991  -0.208  12.577  0.00  0.00     0.274 HD
ATOM     13  H7  ZIN A   1      21.971   0.840  11.306  0.00  0.00     0.274 HD
ENDBRANCH   8  10
ENDBRANCH   7   8
ENDBRANCH   1   7
BRANCH   4  14
ATOM     14  O13 ZIN A   1      16.709   0.305  17.088  0.00  0.00    -0.361 OA
ATOM     15  H23 ZIN A   1      17.221   0.396  17.903  0.00  0.00     0.217 HD
ENDBRANCH   4  14
TORSDOF 4
ENDMDL
MODEL 7
REMARK VINA RESULT:      -5.0      4.766      5.804
REMARK  4 active torsions:
REMARK  status: ('A' for Active; 'I' for Inactive)
REMARK    1  A    between atoms: C2_2  and  N4_3 
REMARK    2  A    between atoms: C2_2  and  C8_7 
REMARK    3  A    between atoms: C8_7  and  C9_8 
REMARK    4  A    between atoms: C12_11  and  O13_12 
ROOT
ATOM      1  C9  ZIN A   1      19.487   2.261  11.485  0.00  0.00    -0.056 A 
ATOM      2  C10 ZIN A   1      19.174   2.216  10.139  0.00  0.00     0.010 A 
ATOM      3  C11 ZIN A   1      18.429   3.230   9.568  0.00  0.00     0.037 A 
ATOM      4  C12 ZIN A   1      17.995   4.292  10.346  0.00  0.00     0.065 A 
ATOM      5  C14 ZIN A   1      18.309   4.335  11.696  0.00  0.00     0.037 A 
ATOM      6  C15 ZIN A   1      19.051   3.316  12.264  0.00  0.00     0.010 A 
ENDROOT
BRANCH   1   7
ATOM      7  C8  ZIN A   1      20.301   1.154  12.105  0.00  0.00     0.070 C 
BRANCH   7   8
ATOM      8  C2  ZIN A   1      20.221  -0.094  11.222  0.00  0.00     0.183 C 
ATOM      9  C1  ZIN A   1      19.420  -1.179  11.943  0.00  0.00     0.040 C 
BRANCH   8  10
ATOM     10  N4  ZIN A   1      21.577  -0.587  10.948  0.00  0.00    -0.075 N 
ATOM     11  H5  ZIN A   1      22.231   0.179  10.998  0.00  0.00     0.274 HD
ATOM     12  H6  ZIN A   1      21.824  -1.287  11.632  0.00  0.00     0.274 HD
ATOM     13  H7  ZIN A   1      21.606  -0.995  10.025  0.00  0.00     0.274 HD
ENDBRANCH   8  10
ENDBRANCH   7   8
ENDBRANCH   1   7
BRANCH   4  14
ATOM     14  O13 ZIN A   1      17.261   5.290   9.786  0.00  0.00    -0.361 OA
ATOM     15  H23 ZIN A   1      16.376   5.018   9.506  0.00  0.00     0.217 HD
ENDBRANCH   4  14
TORSDOF 4
ENDMDL
MODEL 8
REMARK VINA RESULT:      -4.8      3.375      5.011
REMARK  4 active torsions:
REMARK  status: ('A' for Active; 'I' for Inactive)
REMARK    1  A    between atoms: C2_2  and  N4_3 
REMARK    2  A    between atoms: C2_2  and  C8_7 
REMARK    3  A    between atoms: C8_7  and  C9_8 
REMARK    4  A    between atoms: C12_11  and  O13_12 
ROOT
ATOM      1  C9  ZIN A   1      19.165   1.315   8.446  0.00  0.00    -0.056 A 
ATOM      2  C10 ZIN A   1      19.660   0.196   9.090  0.00  0.00     0.010 A 
ATOM      3  C11 ZIN A   1      19.929   0.240  10.444  0.00  0.00     0.037 A 
ATOM      4  C12 ZIN A   1      19.702   1.407  11.158  0.00  0.00     0.065 A 
ATOM      5  C14 ZIN A   1      19.206   2.529  10.510  0.00  0.00     0.037 A 
ATOM      6  C15 ZIN A   1      18.943   2.482   9.155  0.00  0.00     0.010 A 
ENDROOT
BRANCH   1   7
ATOM      7  C8  ZIN A   1      18.872   1.265   6.969  0.00  0.00     0.070 C 
BRANCH   7   8
ATOM      8  C2  ZIN A   1      18.634  -0.186   6.545  0.00  0.00     0.183 C 
ATOM      9  C1  ZIN A   1      19.257  -0.425   5.168  0.00  0.00     0.040 C 
BRANCH   8  10
ATOM     10  N4  ZIN A   1      17.190  -0.447   6.481  0.00  0.00    -0.075 N 
ATOM     11  H5  ZIN A   1      16.933  -1.099   7.206  0.00  0.00     0.274 HD
ATOM     12  H6  ZIN A   1      16.686   0.417   6.611  0.00  0.00     0.274 HD
ATOM     13  H7  ZIN A   1      16.959  -0.838   5.579  0.00  0.00     0.274 HD
ENDBRANCH   8  10
ENDBRANCH   7   8
ENDBRANCH   1   7
BRANCH   4  14
ATOM     14  O13 ZIN A   1      19.966   1.452  12.491  0.00  0.00    -0.361 OA
ATOM     15  H23 ZIN A   1      20.835   1.817  12.707  0.00  0.00     0.217 HD
ENDBRANCH   4  14
TORSDOF 4
ENDMDL
MODEL 9
REMARK VINA RESULT:      -4.8      5.048      6.580
REMARK  4 active torsions:
REMARK  status: ('A' for Active; 'I' for Inactive)
REMARK    1  A    between atoms: C2_2  and  N4_3 
REMARK    2  A    between atoms: C2_2  and  C8_7 
REMARK    3  A    between atoms: C8_7  and  C9_8 
REMARK    4  A    between atoms: C12_11  and  O13_12 
ROOT
ATOM      1  C9  ZIN A   1      19.329  -1.038  13.812  0.00  0.00    -0.056 A 
ATOM      2  C10 ZIN A   1      19.139  -2.004  12.842  0.00  0.00     0.010 A 
ATOM      3  C11 ZIN A   1      19.609  -1.799  11.560  0.00  0.00     0.037 A 
ATOM      4  C12 ZIN A   1      20.273  -0.623  11.246  0.00  0.00     0.065 A 
ATOM      5  C14 ZIN A   1      20.462   0.346  12.220  0.00  0.00     0.037 A 
ATOM      6  C15 ZIN A   1      19.986   0.139  13.500  0.00  0.00     0.010 A 
ENDROOT
BRANCH   1   7
ATOM      7  C8  ZIN A   1      18.815  -1.264  15.211  0.00  0.00     0.070 C 
BRANCH   7   8
ATOM      8  C2  ZIN A   1      18.657   0.083  15.920  0.00  0.00     0.183 C 
ATOM      9  C1  ZIN A   1      18.956  -0.087  17.411  0.00  0.00     0.040 C 
BRANCH   8  10
ATOM     10  N4  ZIN A   1      17.281   0.567  15.750  0.00  0.00    -0.075 N 
ATOM     11  H5  ZIN A   1      17.287   1.409  15.195  0.00  0.00     0.274 HD
ATOM     12  H6  ZIN A   1      16.731  -0.139  15.284  0.00  0.00     0.274 HD
ATOM     13  H7  ZIN A   1      16.879   0.763  16.655  0.00  0.00     0.274 HD
ENDBRANCH   8  10
ENDBRANCH   7   8
ENDBRANCH   1   7
BRANCH   4  14
ATOM     14  O13 ZIN A   1      20.736  -0.419   9.984  0.00  0.00    -0.361 OA
ATOM     15  H23 ZIN A   1      21.196   0.423   9.866  0.00  0.00     0.217 HD
ENDBRANCH   4  14
TORSDOF 4
ENDMDL
