MODEL 1
REMARK VINA RESULT:      -7.7      0.000      0.000
REMARK  6 active torsions:
REMARK  status: ('A' for Active; 'I' for Inactive)
REMARK    1  A    between atoms: O2_2  and  C3_3 
REMARK    2  A    between atoms: C3_3  and  C5_5 
REMARK    3  A    between atoms: C11_11  and  C12_12 
REMARK    4  A    between atoms: C12_12  and  O14_14 
REMARK    5  A    between atoms: O14_14  and  C15_15 
REMARK    6  A    between atoms: C18_18  and  C20_19 
ROOT
ATOM      1  C5  <0> d   1      18.358  -3.463   9.979  0.00  0.00     0.052 C 
ATOM      2  C6  <0> d   1      17.468  -3.453  10.986  0.00  0.00     0.018 C 
ATOM      3  C7  <0> d   1      16.685  -4.702  11.299  0.00  0.00     0.069 C 
ATOM      4  N8  <0> d   1      17.263  -2.323  11.730  0.00  0.00    -0.362 N 
ATOM      5  C9  <0> d   1      18.184  -1.312  11.717  0.00  0.00     0.018 C 
ATOM      6  C10 <0> d   1      18.167  -0.275  12.811  0.00  0.00     0.069 C 
ATOM      7  C11 <0> d   1      19.104  -1.232  10.739  0.00  0.00     0.052 C 
ATOM      8  C18 <0> d   1      19.158  -2.240   9.630  0.00  0.00     0.103 C 
ATOM      9  H35 <0> d   1      16.461  -2.239  12.269  0.00  0.00     0.165 HD
ENDROOT
BRANCH   8  10
ATOM     10  C20 <0> d   1      18.586  -1.628   8.377  0.00  0.00    -0.011 A 
ATOM     11  C28 <0> d   1      19.068  -2.018   7.111  0.00  0.00     0.124 A 
ATOM     12  C24 <0> d   1      18.475  -1.397   5.901  0.00  0.00     0.118 A 
ATOM     13  N27 <0> d   1      19.951  -2.846   6.610  0.00  0.00    -0.102 NA
ATOM     14  C23 <0> d   1      17.460  -0.434   6.065  0.00  0.00     0.036 A 
ATOM     15  N25 <0> d   1      19.132  -1.977   4.927  0.00  0.00    -0.103 NA
ATOM     16  C22 <0> d   1      17.050  -0.104   7.314  0.00  0.00     0.003 A 
ATOM     17  C21 <0> d   1      17.606  -0.695   8.457  0.00  0.00     0.011 A 
ATOM     18  O26 <0> d   1      19.928  -2.763   5.397  0.00  0.00    -0.106 OA
ENDBRANCH   8  10
BRANCH   1  19
ATOM     19  C3  <0> d   1      18.550  -4.650   9.236  0.00  0.00     0.291 C 
ATOM     20  O4  <0> d   1      19.519  -5.354   9.455  0.00  0.00    -0.260 OA
BRANCH  19  21
ATOM     21  O2  <0> d   1      17.660  -5.003   8.286  0.00  0.00    -0.323 OA
ATOM     22  C1  <0> d   1      18.125  -5.873   7.252  0.00  0.00     0.213 C 
ENDBRANCH  19  21
ENDBRANCH   1  19
BRANCH   7  23
ATOM     23  C12 <0> d   1      20.046  -0.177  10.762  0.00  0.00     0.292 C 
ATOM     24  O13 <0> d   1      21.042  -0.265  11.454  0.00  0.00    -0.259 OA
BRANCH  23  25
ATOM     25  O14 <0> d   1      19.838   0.929  10.017  0.00  0.00    -0.313 OA
BRANCH  25  26
ATOM     26  C15 <0> d   1      19.058   1.971  10.606  0.00  0.00     0.124 C 
ATOM     27  C16 <0> d   1      19.947   2.825  11.512  0.00  0.00     0.040 C 
ATOM     28  C17 <0> d   1      18.462   2.847   9.502  0.00  0.00     0.040 C 
ENDBRANCH  25  26
ENDBRANCH  23  25
ENDBRANCH   7  23
TORSDOF 6
ENDMDL
MODEL 2
REMARK VINA RESULT:      -7.6      1.980      4.713
REMARK  6 active torsions:
REMARK  status: ('A' for Active; 'I' for Inactive)
REMARK    1  A    between atoms: O2_2  and  C3_3 
REMARK    2  A    between atoms: C3_3  and  C5_5 
REMARK    3  A    between atoms: C11_11  and  C12_12 
REMARK    4  A    between atoms: C12_12  and  O14_14 
REMARK    5  A    between atoms: O14_14  and  C15_15 
REMARK    6  A    between atoms: C18_18  and  C20_19 
ROOT
ATOM      1  C5  <0> d   1      18.334  -3.573   9.551  0.00  0.00     0.052 C 
ATOM      2  C6  <0> d   1      19.215  -4.126   8.700  0.00  0.00     0.018 C 
ATOM      3  C7  <0> d   1      19.676  -5.544   8.924  0.00  0.00     0.069 C 
ATOM      4  N8  <0> d   1      19.700  -3.419   7.635  0.00  0.00    -0.362 N 
ATOM      5  C9  <0> d   1      19.053  -2.294   7.201  0.00  0.00     0.018 C 
ATOM      6  C10 <0> d   1      19.339  -1.756   5.822  0.00  0.00     0.069 C 
ATOM      7  C11 <0> d   1      18.164  -1.664   7.990  0.00  0.00     0.052 C 
ATOM      8  C18 <0> d   1      17.850  -2.162   9.369  0.00  0.00     0.103 C 
ATOM      9  H35 <0> d   1      20.507  -3.715   7.185  0.00  0.00     0.165 HD
ENDROOT
BRANCH   8  10
ATOM     10  C20 <0> d   1      18.533  -1.281  10.382  0.00  0.00    -0.011 A 
ATOM     11  C28 <0> d   1      17.773  -0.459  11.238  0.00  0.00     0.124 A 
ATOM     12  C24 <0> d   1      18.483   0.390  12.226  0.00  0.00     0.118 A 
ATOM     13  N27 <0> d   1      16.513  -0.188  11.474  0.00  0.00    -0.102 NA
ATOM     14  C23 <0> d   1      19.891   0.349  12.263  0.00  0.00     0.036 A 
ATOM     15  N25 <0> d   1      17.501   1.000  12.842  0.00  0.00    -0.103 NA
ATOM     16  C22 <0> d   1      20.556  -0.462  11.405  0.00  0.00     0.003 A 
ATOM     17  C21 <0> d   1      19.886  -1.269  10.476  0.00  0.00     0.011 A 
ATOM     18  O26 <0> d   1      16.445   0.629  12.371  0.00  0.00    -0.106 OA
ENDBRANCH   8  10
BRANCH   1  19
ATOM     19  C3  <0> d   1      17.847  -4.337  10.637  0.00  0.00     0.291 C 
ATOM     20  O4  <0> d   1      18.582  -4.607  11.569  0.00  0.00    -0.260 OA
BRANCH  19  21
ATOM     21  O2  <0> d   1      16.568  -4.766  10.640  0.00  0.00    -0.323 OA
ATOM     22  C1  <0> d   1      16.096  -5.410   9.454  0.00  0.00     0.213 C 
ENDBRANCH  19  21
ENDBRANCH   1  19
BRANCH   7  23
ATOM     23  C12 <0> d   1      17.508  -0.509   7.504  0.00  0.00     0.292 C 
ATOM     24  O13 <0> d   1      16.786  -0.584   6.528  0.00  0.00    -0.259 OA
BRANCH  23  25
ATOM     25  O14 <0> d   1      17.683   0.676   8.125  0.00  0.00    -0.313 OA
BRANCH  25  26
ATOM     26  C15 <0> d   1      18.980   1.268   8.038  0.00  0.00     0.124 C 
ATOM     27  C16 <0> d   1      19.182   1.855   6.639  0.00  0.00     0.040 C 
ATOM     28  C17 <0> d   1      19.103   2.382   9.080  0.00  0.00     0.040 C 
ENDBRANCH  25  26
ENDBRANCH  23  25
ENDBRANCH   7  23
TORSDOF 6
ENDMDL
MODEL 3
REMARK VINA RESULT:      -7.5      2.007      4.757
REMARK  6 active torsions:
REMARK  status: ('A' for Active; 'I' for Inactive)
REMARK    1  A    between atoms: O2_2  and  C3_3 
REMARK    2  A    between atoms: C3_3  and  C5_5 
REMARK    3  A    between atoms: C11_11  and  C12_12 
REMARK    4  A    between atoms: C12_12  and  O14_14 
REMARK    5  A    between atoms: O14_14  and  C15_15 
REMARK    6  A    between atoms: C18_18  and  C20_19 
ROOT
ATOM      1  C5  <0> d   1      17.458  -4.680   8.485  0.00  0.00     0.052 C 
ATOM      2  C6  <0> d   1      18.191  -5.166   7.468  0.00  0.00     0.018 C 
ATOM      3  C7  <0> d   1      18.080  -6.623   7.100  0.00  0.00     0.069 C 
ATOM      4  N8  <0> d   1      19.037  -4.354   6.764  0.00  0.00    -0.362 N 
ATOM      5  C9  <0> d   1      18.899  -2.994   6.825  0.00  0.00     0.018 C 
ATOM      6  C10 <0> d   1      19.543  -2.132   5.770  0.00  0.00     0.069 C 
ATOM      7  C11 <0> d   1      18.195  -2.418   7.816  0.00  0.00     0.052 C 
ATOM      8  C18 <0> d   1      17.539  -3.236   8.888  0.00  0.00     0.103 C 
ATOM      9  H35 <0> d   1      19.739  -4.743   6.218  0.00  0.00     0.165 HD
ENDROOT
BRANCH   8  10
ATOM     10  C20 <0> d   1      18.346  -3.131  10.156  0.00  0.00    -0.011 A 
ATOM     11  C28 <0> d   1      17.925  -2.283  11.200  0.00  0.00     0.124 A 
ATOM     12  C24 <0> d   1      18.745  -2.213  12.435  0.00  0.00     0.118 A 
ATOM     13  N27 <0> d   1      16.935  -1.467  11.462  0.00  0.00    -0.102 NA
ATOM     14  C23 <0> d   1      19.919  -2.988  12.510  0.00  0.00     0.036 A 
ATOM     15  N25 <0> d   1      18.079  -1.362  13.176  0.00  0.00    -0.103 NA
ATOM     16  C22 <0> d   1      20.265  -3.777  11.464  0.00  0.00     0.003 A 
ATOM     17  C21 <0> d   1      19.488  -3.848  10.301  0.00  0.00     0.011 A 
ATOM     18  O26 <0> d   1      17.093  -0.995  12.571  0.00  0.00    -0.106 OA
ENDBRANCH   8  10
BRANCH   1  19
ATOM     19  C3  <0> d   1      16.587  -5.547   9.185  0.00  0.00     0.291 C 
ATOM     20  O4  <0> d   1      17.042  -6.389   9.936  0.00  0.00    -0.260 OA
BRANCH  19  21
ATOM     21  O2  <0> d   1      15.252  -5.440   9.021  0.00  0.00    -0.323 OA
ATOM     22  C1  <0> d   1      14.651  -6.275   8.029  0.00  0.00     0.213 C 
ENDBRANCH  19  21
ENDBRANCH   1  19
BRANCH   7  23
ATOM     23  C12 <0> d   1      18.066  -1.009   7.843  0.00  0.00     0.292 C 
ATOM     24  O13 <0> d   1      17.040  -0.484   7.455  0.00  0.00    -0.259 OA
BRANCH  23  25
ATOM     25  O14 <0> d   1      19.084  -0.248   8.297  0.00  0.00    -0.313 OA
BRANCH  25  26
ATOM     26  C15 <0> d   1      18.742   0.867   9.122  0.00  0.00     0.124 C 
ATOM     27  C16 <0> d   1      19.534   0.798  10.429  0.00  0.00     0.040 C 
ATOM     28  C17 <0> d   1      19.081   2.167   8.389  0.00  0.00     0.040 C 
ENDBRANCH  25  26
ENDBRANCH  23  25
ENDBRANCH   7  23
TORSDOF 6
ENDMDL
MODEL 4
REMARK VINA RESULT:      -7.5      4.297      8.803
REMARK  6 active torsions:
REMARK  status: ('A' for Active; 'I' for Inactive)
REMARK    1  A    between atoms: O2_2  and  C3_3 
REMARK    2  A    between atoms: C3_3  and  C5_5 
REMARK    3  A    between atoms: C11_11  and  C12_12 
REMARK    4  A    between atoms: C12_12  and  O14_14 
REMARK    5  A    between atoms: O14_14  and  C15_15 
REMARK    6  A    between atoms: C18_18  and  C20_19 
ROOT
ATOM      1  C5  <0> d   1      18.448   3.551  13.871  0.00  0.00     0.052 C 
ATOM      2  C6  <0> d   1      17.600   3.778  12.852  0.00  0.00     0.018 C 
ATOM      3  C7  <0> d   1      16.889   5.102  12.757  0.00  0.00     0.069 C 
ATOM      4  N8  <0> d   1      17.376   2.820  11.901  0.00  0.00    -0.362 N 
ATOM      5  C9  <0> d   1      18.249   1.777  11.752  0.00  0.00     0.018 C 
ATOM      6  C10 <0> d   1      18.230   0.967  10.481  0.00  0.00     0.069 C 
ATOM      7  C11 <0> d   1      19.123   1.467  12.725  0.00  0.00     0.052 C 
ATOM      8  C18 <0> d   1      19.176   2.244  14.007  0.00  0.00     0.103 C 
ATOM      9  H35 <0> d   1      16.594   2.881  11.330  0.00  0.00     0.165 HD
ENDROOT
BRANCH   8  10
ATOM     10  C20 <0> d   1      18.525   1.439  15.102  0.00  0.00    -0.011 A 
ATOM     11  C28 <0> d   1      18.959   1.573  16.437  0.00  0.00     0.124 A 
ATOM     12  C24 <0> d   1      18.289   0.767  17.487  0.00  0.00     0.118 A 
ATOM     13  N27 <0> d   1      19.842   2.261  17.117  0.00  0.00    -0.102 NA
ATOM     14  C23 <0> d   1      17.253  -0.109  17.108  0.00  0.00     0.036 A 
ATOM     15  N25 <0> d   1      18.916   1.134  18.577  0.00  0.00    -0.103 NA
ATOM     16  C22 <0> d   1      16.893  -0.190  15.803  0.00  0.00     0.003 A 
ATOM     17  C21 <0> d   1      17.521   0.576  14.813  0.00  0.00     0.011 A 
ATOM     18  O26 <0> d   1      19.759   1.959  18.292  0.00  0.00    -0.106 OA
ENDBRANCH   8  10
BRANCH   1  19
ATOM     19  C3  <0> d   1      18.662   4.566  14.831  0.00  0.00     0.291 C 
ATOM     20  O4  <0> d   1      17.848   4.747  15.718  0.00  0.00    -0.260 OA
BRANCH  19  21
ATOM     21  O2  <0> d   1      19.769   5.335  14.764  0.00  0.00    -0.323 OA
ATOM     22  C1  <0> d   1      20.340   5.760  16.004  0.00  0.00     0.213 C 
ENDBRANCH  19  21
ENDBRANCH   1  19
BRANCH   7  23
ATOM     23  C12 <0> d   1      20.016   0.387  12.533  0.00  0.00     0.292 C 
ATOM     24  O13 <0> d   1      21.093   0.576  11.999  0.00  0.00    -0.259 OA
BRANCH  23  25
ATOM     25  O14 <0> d   1      19.673  -0.852  12.941  0.00  0.00    -0.313 OA
BRANCH  25  26
ATOM     26  C15 <0> d   1      19.221  -1.764  11.938  0.00  0.00     0.124 C 
ATOM     27  C16 <0> d   1      20.076  -3.032  11.978  0.00  0.00     0.040 C 
ATOM     28  C17 <0> d   1      17.758  -2.126  12.201  0.00  0.00     0.040 C 
ENDBRANCH  25  26
ENDBRANCH  23  25
ENDBRANCH   7  23
TORSDOF 6
ENDMDL
MODEL 5
REMARK VINA RESULT:      -7.5      2.077      5.610
REMARK  6 active torsions:
REMARK  status: ('A' for Active; 'I' for Inactive)
REMARK    1  A    between atoms: O2_2  and  C3_3 
REMARK    2  A    between atoms: C3_3  and  C5_5 
REMARK    3  A    between atoms: C11_11  and  C12_12 
REMARK    4  A    between atoms: C12_12  and  O14_14 
REMARK    5  A    between atoms: O14_14  and  C15_15 
REMARK    6  A    between atoms: C18_18  and  C20_19 
ROOT
ATOM      1  C5  <0> d   1      18.935  -1.112   9.232  0.00  0.00     0.052 C 
ATOM      2  C6  <0> d   1      17.989  -0.182   9.010  0.00  0.00     0.018 C 
ATOM      3  C7  <0> d   1      17.679   0.833  10.079  0.00  0.00     0.069 C 
ATOM      4  N8  <0> d   1      17.306  -0.146   7.825  0.00  0.00    -0.362 N 
ATOM      5  C9  <0> d   1      17.795  -0.797   6.726  0.00  0.00     0.018 C 
ATOM      6  C10 <0> d   1      17.277  -0.438   5.357  0.00  0.00     0.069 C 
ATOM      7  C11 <0> d   1      18.732  -1.753   6.853  0.00  0.00     0.052 C 
ATOM      8  C18 <0> d   1      19.275  -2.145   8.195  0.00  0.00     0.103 C 
ATOM      9  H35 <0> d   1      16.470   0.343   7.765  0.00  0.00     0.165 HD
ENDROOT
BRANCH   8  10
ATOM     10  C20 <0> d   1      18.672  -3.462   8.609  0.00  0.00    -0.011 A 
ATOM     11  C28 <0> d   1      19.441  -4.642   8.562  0.00  0.00     0.124 A 
ATOM     12  C24 <0> d   1      18.813  -5.919   8.982  0.00  0.00     0.118 A 
ATOM     13  N27 <0> d   1      20.659  -5.008   8.248  0.00  0.00    -0.102 NA
ATOM     14  C23 <0> d   1      17.468  -5.904   9.402  0.00  0.00     0.036 A 
ATOM     15  N25 <0> d   1      19.784  -6.785   8.825  0.00  0.00    -0.103 NA
ATOM     16  C22 <0> d   1      16.788  -4.731   9.416  0.00  0.00     0.003 A 
ATOM     17  C21 <0> d   1      17.383  -3.525   9.025  0.00  0.00     0.011 A 
ATOM     18  O26 <0> d   1      20.769  -6.206   8.417  0.00  0.00    -0.106 OA
ENDBRANCH   8  10
BRANCH   1  19
ATOM     19  C3  <0> d   1      19.627  -1.114  10.464  0.00  0.00     0.291 C 
ATOM     20  O4  <0> d   1      20.715  -0.573  10.551  0.00  0.00    -0.260 OA
BRANCH  19  21
ATOM     21  O2  <0> d   1      19.084  -1.714  11.543  0.00  0.00    -0.323 OA
ATOM     22  C1  <0> d   1      19.687  -2.934  11.980  0.00  0.00     0.213 C 
ENDBRANCH  19  21
ENDBRANCH   1  19
BRANCH   7  23
ATOM     23  C12 <0> d   1      19.221  -2.399   5.693  0.00  0.00     0.292 C 
ATOM     24  O13 <0> d   1      19.874  -1.776   4.878  0.00  0.00    -0.259 OA
BRANCH  23  25
ATOM     25  O14 <0> d   1      18.961  -3.708   5.491  0.00  0.00    -0.313 OA
BRANCH  25  26
ATOM     26  C15 <0> d   1      17.645  -4.048   5.051  0.00  0.00     0.124 C 
ATOM     27  C16 <0> d   1      17.607  -4.068   3.521  0.00  0.00     0.040 C 
ATOM     28  C17 <0> d   1      17.269  -5.430   5.588  0.00  0.00     0.040 C 
ENDBRANCH  25  26
ENDBRANCH  23  25
ENDBRANCH   7  23
TORSDOF 6
ENDMDL
MODEL 6
REMARK VINA RESULT:      -7.4      5.334      9.401
REMARK  6 active torsions:
REMARK  status: ('A' for Active; 'I' for Inactive)
REMARK    1  A    between atoms: O2_2  and  C3_3 
REMARK    2  A    between atoms: C3_3  and  C5_5 
REMARK    3  A    between atoms: C11_11  and  C12_12 
REMARK    4  A    between atoms: C12_12  and  O14_14 
REMARK    5  A    between atoms: O14_14  and  C15_15 
REMARK    6  A    between atoms: C18_18  and  C20_19 
ROOT
ATOM      1  C5  <0> d   1      17.845   4.975  14.748  0.00  0.00     0.052 C 
ATOM      2  C6  <0> d   1      16.805   5.359  13.988  0.00  0.00     0.018 C 
ATOM      3  C7  <0> d   1      15.879   6.439  14.485  0.00  0.00     0.069 C 
ATOM      4  N8  <0> d   1      16.576   4.781  12.769  0.00  0.00    -0.362 N 
ATOM      5  C9  <0> d   1      17.569   4.080  12.140  0.00  0.00     0.018 C 
ATOM      6  C10 <0> d   1      17.459   3.796  10.665  0.00  0.00     0.069 C 
ATOM      7  C11 <0> d   1      18.641   3.642  12.824  0.00  0.00     0.052 C 
ATOM      8  C18 <0> d   1      18.792   3.901  14.294  0.00  0.00     0.103 C 
ATOM      9  H35 <0> d   1      15.706   4.868  12.349  0.00  0.00     0.165 HD
ENDROOT
BRANCH   8  10
ATOM     10  C20 <0> d   1      18.488   2.635  15.053  0.00  0.00    -0.011 A 
ATOM     11  C28 <0> d   1      19.044   2.422  16.331  0.00  0.00     0.124 A 
ATOM     12  C24 <0> d   1      18.716   1.165  17.049  0.00  0.00     0.118 A 
ATOM     13  N27 <0> d   1      19.823   3.045  17.179  0.00  0.00    -0.102 NA
ATOM     14  C23 <0> d   1      17.871   0.229  16.420  0.00  0.00     0.036 A 
ATOM     15  N25 <0> d   1      19.374   1.294  18.174  0.00  0.00    -0.103 NA
ATOM     16  C22 <0> d   1      17.377   0.500  15.187  0.00  0.00     0.003 A 
ATOM     17  C21 <0> d   1      17.682   1.689  14.512  0.00  0.00     0.011 A 
ATOM     18  O26 <0> d   1      19.961   2.357  18.171  0.00  0.00    -0.106 OA
ENDBRANCH   8  10
BRANCH   1  19
ATOM     19  C3  <0> d   1      18.056   5.600  15.998  0.00  0.00     0.291 C 
ATOM     20  O4  <0> d   1      18.953   6.413  16.129  0.00  0.00    -0.260 OA
BRANCH  19  21
ATOM     21  O2  <0> d   1      17.264   5.296  17.047  0.00  0.00    -0.323 OA
ATOM     22  C1  <0> d   1      17.321   6.168  18.179  0.00  0.00     0.213 C 
ENDBRANCH  19  21
ENDBRANCH   1  19
BRANCH   7  23
ATOM     23  C12 <0> d   1      19.652   2.928  12.140  0.00  0.00     0.292 C 
ATOM     24  O13 <0> d   1      20.689   3.484  11.833  0.00  0.00    -0.259 OA
BRANCH  23  25
ATOM     25  O14 <0> d   1      19.465   1.629  11.826  0.00  0.00    -0.313 OA
BRANCH  25  26
ATOM     26  C15 <0> d   1      20.582   0.754  11.989  0.00  0.00     0.124 C 
ATOM     27  C16 <0> d   1      20.522   0.101  13.372  0.00  0.00     0.040 C 
ATOM     28  C17 <0> d   1      20.542  -0.331  10.911  0.00  0.00     0.040 C 
ENDBRANCH  25  26
ENDBRANCH  23  25
ENDBRANCH   7  23
TORSDOF 6
ENDMDL
MODEL 7
REMARK VINA RESULT:      -7.3      4.065      7.267
REMARK  6 active torsions:
REMARK  status: ('A' for Active; 'I' for Inactive)
REMARK    1  A    between atoms: O2_2  and  C3_3 
REMARK    2  A    between atoms: C3_3  and  C5_5 
REMARK    3  A    between atoms: C11_11  and  C12_12 
REMARK    4  A    between atoms: C12_12  and  O14_14 
REMARK    5  A    between atoms: O14_14  and  C15_15 
REMARK    6  A    between atoms: C18_18  and  C20_19 
ROOT
ATOM      1  C5  <0> d   1      18.252   3.736  13.747  0.00  0.00     0.052 C 
ATOM      2  C6  <0> d   1      19.098   4.280  14.640  0.00  0.00     0.018 C 
ATOM      3  C7  <0> d   1      19.499   5.726  14.499  0.00  0.00     0.069 C 
ATOM      4  N8  <0> d   1      19.599   3.537  15.673  0.00  0.00    -0.362 N 
ATOM      5  C9  <0> d   1      18.995   2.364  16.037  0.00  0.00     0.018 C 
ATOM      6  C10 <0> d   1      19.286   1.765  17.389  0.00  0.00     0.069 C 
ATOM      7  C11 <0> d   1      18.145   1.740  15.202  0.00  0.00     0.052 C 
ATOM      8  C18 <0> d   1      17.828   2.299  13.846  0.00  0.00     0.103 C 
ATOM      9  H35 <0> d   1      20.386   3.843  16.151  0.00  0.00     0.165 HD
ENDROOT
BRANCH   8  10
ATOM     10  C20 <0> d   1      18.562   1.504  12.798  0.00  0.00    -0.011 A 
ATOM     11  C28 <0> d   1      17.846   0.803  11.806  0.00  0.00     0.124 A 
ATOM     12  C24 <0> d   1      18.607   0.036  10.788  0.00  0.00     0.118 A 
ATOM     13  N27 <0> d   1      16.602   0.603  11.451  0.00  0.00    -0.102 NA
ATOM     14  C23 <0> d   1      20.013   0.029  10.859  0.00  0.00     0.036 A 
ATOM     15  N25 <0> d   1      17.658  -0.471  10.040  0.00  0.00    -0.103 NA
ATOM     16  C22 <0> d   1      20.634   0.723  11.845  0.00  0.00     0.003 A 
ATOM     17  C21 <0> d   1      19.916   1.452  12.803  0.00  0.00     0.011 A 
ATOM     18  O26 <0> d   1      16.580  -0.113  10.469  0.00  0.00    -0.106 OA
ENDBRANCH   8  10
BRANCH   1  19
ATOM     19  C3  <0> d   1      17.747   4.536  12.697  0.00  0.00     0.291 C 
ATOM     20  O4  <0> d   1      16.688   5.121  12.832  0.00  0.00    -0.260 OA
BRANCH  19  21
ATOM     21  O2  <0> d   1      18.438   4.651  11.543  0.00  0.00    -0.323 OA
ATOM     22  C1  <0> d   1      17.748   4.319  10.336  0.00  0.00     0.213 C 
ENDBRANCH  19  21
ENDBRANCH   1  19
BRANCH   7  23
ATOM     23  C12 <0> d   1      17.533   0.534  15.614  0.00  0.00     0.292 C 
ATOM     24  O13 <0> d   1      16.751   0.536  16.545  0.00  0.00    -0.259 OA
BRANCH  23  25
ATOM     25  O14 <0> d   1      17.818  -0.619  14.974  0.00  0.00    -0.313 OA
BRANCH  25  26
ATOM     26  C15 <0> d   1      19.148  -1.124  15.109  0.00  0.00     0.124 C 
ATOM     27  C16 <0> d   1      19.277  -1.878  16.434  0.00  0.00     0.040 C 
ATOM     28  C17 <0> d   1      19.451  -2.076  13.949  0.00  0.00     0.040 C 
ENDBRANCH  25  26
ENDBRANCH  23  25
ENDBRANCH   7  23
TORSDOF 6
ENDMDL
MODEL 8
REMARK VINA RESULT:      -7.1      2.676      5.118
REMARK  6 active torsions:
REMARK  status: ('A' for Active; 'I' for Inactive)
REMARK    1  A    between atoms: O2_2  and  C3_3 
REMARK    2  A    between atoms: C3_3  and  C5_5 
REMARK    3  A    between atoms: C11_11  and  C12_12 
REMARK    4  A    between atoms: C12_12  and  O14_14 
REMARK    5  A    between atoms: O14_14  and  C15_15 
REMARK    6  A    between atoms: C18_18  and  C20_19 
ROOT
ATOM      1  C5  <0> d   1      18.399  -0.127   9.100  0.00  0.00     0.052 C 
ATOM      2  C6  <0> d   1      19.235   0.923   9.020  0.00  0.00     0.018 C 
ATOM      3  C7  <0> d   1      19.746   1.365   7.673  0.00  0.00     0.069 C 
ATOM      4  N8  <0> d   1      19.627   1.594  10.145  0.00  0.00    -0.362 N 
ATOM      5  C9  <0> d   1      18.922   1.460  11.310  0.00  0.00     0.018 C 
ATOM      6  C10 <0> d   1      19.098   2.476  12.409  0.00  0.00     0.069 C 
ATOM      7  C11 <0> d   1      18.073   0.431  11.486  0.00  0.00     0.052 C 
ATOM      8  C18 <0> d   1      17.868  -0.605  10.422  0.00  0.00     0.103 C 
ATOM      9  H35 <0> d   1      20.408   2.169  10.118  0.00  0.00     0.165 HD
ENDROOT
BRANCH   8  10
ATOM     10  C20 <0> d   1      18.596  -1.866  10.809  0.00  0.00    -0.011 A 
ATOM     11  C28 <0> d   1      17.875  -3.039  11.109  0.00  0.00     0.124 A 
ATOM     12  C24 <0> d   1      18.630  -4.262  11.482  0.00  0.00     0.118 A 
ATOM     13  N27 <0> d   1      16.630  -3.441  11.156  0.00  0.00    -0.102 NA
ATOM     14  C23 <0> d   1      20.036  -4.199  11.531  0.00  0.00     0.036 A 
ATOM     15  N25 <0> d   1      17.677  -5.140  11.682  0.00  0.00    -0.103 NA
ATOM     16  C22 <0> d   1      20.661  -3.033  11.235  0.00  0.00     0.003 A 
ATOM     17  C21 <0> d   1      19.950  -1.881  10.877  0.00  0.00     0.011 A 
ATOM     18  O26 <0> d   1      16.603  -4.612  11.483  0.00  0.00    -0.106 OA
ENDBRANCH   8  10
BRANCH   1  19
ATOM     19  C3  <0> d   1      18.008  -0.792   7.916  0.00  0.00     0.291 C 
ATOM     20  O4  <0> d   1      18.579  -1.811   7.573  0.00  0.00    -0.260 OA
BRANCH  19  21
ATOM     21  O2  <0> d   1      17.002  -0.298   7.165  0.00  0.00    -0.323 OA
ATOM     22  C1  <0> d   1      17.188  -0.299   5.747  0.00  0.00     0.213 C 
ENDBRANCH  19  21
ENDBRANCH   1  19
BRANCH   7  23
ATOM     23  C12 <0> d   1      17.355   0.328  12.700  0.00  0.00     0.292 C 
ATOM     24  O13 <0> d   1      16.143   0.227  12.684  0.00  0.00    -0.259 OA
BRANCH  23  25
ATOM     25  O14 <0> d   1      18.015   0.344  13.877  0.00  0.00    -0.313 OA
BRANCH  25  26
ATOM     26  C15 <0> d   1      18.165  -0.905  14.554  0.00  0.00     0.124 C 
ATOM     27  C16 <0> d   1      19.627  -1.352  14.483  0.00  0.00     0.040 C 
ATOM     28  C17 <0> d   1      17.752  -0.745  16.018  0.00  0.00     0.040 C 
ENDBRANCH  25  26
ENDBRANCH  23  25
ENDBRANCH   7  23
TORSDOF 6
ENDMDL
MODEL 9
REMARK VINA RESULT:      -7.0      3.911      7.239
REMARK  6 active torsions:
REMARK  status: ('A' for Active; 'I' for Inactive)
REMARK    1  A    between atoms: O2_2  and  C3_3 
REMARK    2  A    between atoms: C3_3  and  C5_5 
REMARK    3  A    between atoms: C11_11  and  C12_12 
REMARK    4  A    between atoms: C12_12  and  O14_14 
REMARK    5  A    between atoms: O14_14  and  C15_15 
REMARK    6  A    between atoms: C18_18  and  C20_19 
ROOT
ATOM      1  C5  <0> d   1      17.914   1.108  11.587  0.00  0.00     0.052 C 
ATOM      2  C6  <0> d   1      18.825   1.661  10.767  0.00  0.00     0.018 C 
ATOM      3  C7  <0> d   1      18.942   1.171   9.347  0.00  0.00     0.069 C 
ATOM      4  N8  <0> d   1      19.648   2.661  11.207  0.00  0.00    -0.362 N 
ATOM      5  C9  <0> d   1      19.338   3.363  12.340  0.00  0.00     0.018 C 
ATOM      6  C10 <0> d   1      20.002   4.691  12.597  0.00  0.00     0.069 C 
ATOM      7  C11 <0> d   1      18.449   2.881  13.226  0.00  0.00     0.052 C 
ATOM      8  C18 <0> d   1      17.766   1.563  13.012  0.00  0.00     0.103 C 
ATOM      9  H35 <0> d   1      20.456   2.874  10.713  0.00  0.00     0.165 HD
ENDROOT
BRANCH   8  10
ATOM     10  C20 <0> d   1      18.386   0.530  13.917  0.00  0.00    -0.011 A 
ATOM     11  C28 <0> d   1      17.768   0.191  15.137  0.00  0.00     0.124 A 
ATOM     12  C24 <0> d   1      18.408  -0.835  15.998  0.00  0.00     0.118 A 
ATOM     13  N27 <0> d   1      16.696   0.513  15.817  0.00  0.00    -0.102 NA
ATOM     14  C23 <0> d   1      19.614  -1.422  15.567  0.00  0.00     0.036 A 
ATOM     15  N25 <0> d   1      17.589  -0.908  17.018  0.00  0.00    -0.103 NA
ATOM     16  C22 <0> d   1      20.153  -1.042  14.382  0.00  0.00     0.003 A 
ATOM     17  C21 <0> d   1      19.546  -0.078  13.567  0.00  0.00     0.011 A 
ATOM     18  O26 <0> d   1      16.670  -0.135  16.845  0.00  0.00    -0.106 OA
ENDBRANCH   8  10
BRANCH   1  19
ATOM     19  C3  <0> d   1      17.074   0.082  11.097  0.00  0.00     0.291 C 
ATOM     20  O4  <0> d   1      15.867   0.240  11.082  0.00  0.00    -0.260 OA
BRANCH  19  21
ATOM     21  O2  <0> d   1      17.610  -1.071  10.646  0.00  0.00    -0.323 OA
ATOM     22  C1  <0> d   1      17.492  -2.217  11.493  0.00  0.00     0.213 C 
ENDBRANCH  19  21
ENDBRANCH   1  19
BRANCH   7  23
ATOM     23  C12 <0> d   1      18.146   3.638  14.382  0.00  0.00     0.292 C 
ATOM     24  O13 <0> d   1      17.116   4.282  14.435  0.00  0.00    -0.259 OA
BRANCH  23  25
ATOM     25  O14 <0> d   1      19.002   3.646  15.425  0.00  0.00    -0.313 OA
BRANCH  25  26
ATOM     26  C15 <0> d   1      18.435   3.522  16.730  0.00  0.00     0.124 C 
ATOM     27  C16 <0> d   1      19.251   2.520  17.549  0.00  0.00     0.040 C 
ATOM     28  C17 <0> d   1      18.455   4.885  17.426  0.00  0.00     0.040 C 
ENDBRANCH  25  26
ENDBRANCH  23  25
ENDBRANCH   7  23
TORSDOF 6
ENDMDL
