MODEL 1
REMARK VINA RESULT:      -7.8      0.000      0.000
REMARK  7 active torsions:
REMARK  status: ('A' for Active; 'I' for Inactive)
REMARK    1  A    between atoms: C2_2  and  N4_3 
REMARK    2  A    between atoms: C2_2  and  C23_22 
REMARK    3  A    between atoms: N4_3  and  C7_6 
REMARK    4  A    between atoms: C7_6  and  C8_7 
REMARK    5  A    between atoms: C11_10  and  O12_11 
REMARK    6  A    between atoms: O12_11  and  C13_12 
REMARK    7  A    between atoms: C13_12  and  C14_13 
REMARK       I    between atoms: C23_22  and  N24_23 
ROOT
ATOM      1  C8  ZIN A   1      18.540   1.155   8.604  0.00  0.00    -0.033 A 
ATOM      2  C9  ZIN A   1      17.776   0.312   9.388  0.00  0.00     0.011 A 
ATOM      3  C10 ZIN A   1      17.462   0.668  10.685  0.00  0.00     0.037 A 
ATOM      4  C11 ZIN A   1      17.916   1.873  11.201  0.00  0.00     0.069 A 
ATOM      5  C21 ZIN A   1      18.683   2.718  10.412  0.00  0.00     0.037 A 
ATOM      6  C22 ZIN A   1      18.998   2.354   9.117  0.00  0.00     0.011 A 
ENDROOT
BRANCH   1   7
ATOM      7  C7  ZIN A   1      18.881   0.763   7.189  0.00  0.00     0.271 C 
BRANCH   7   8
ATOM      8  N4  ZIN A   1      19.076  -0.691   7.117  0.00  0.00    -0.059 N 
ATOM      9  H5  ZIN A   1      18.816  -1.109   7.998  0.00  0.00     0.278 HD
ATOM     10  H6  ZIN A   1      20.046  -0.891   6.923  0.00  0.00     0.278 HD
BRANCH   8  11
ATOM     11  C2  ZIN A   1      18.238  -1.245   6.045  0.00  0.00     0.273 C 
ATOM     12  C1  ZIN A   1      17.183  -0.213   5.638  0.00  0.00     0.050 C 
BRANCH  11  13
ATOM     13  C23 ZIN A   1      19.100  -1.579   4.855  0.00  0.00     0.245 C 
ATOM     14  N24 ZIN A   1      18.874  -2.709   4.156  0.00  0.00    -0.368 N 
ATOM     15  H41 ZIN A   1      18.158  -3.308   4.419  0.00  0.00     0.159 HD
ATOM     16  H42 ZIN A   1      19.429  -2.924   3.390  0.00  0.00     0.159 HD
ATOM     17  O25 ZIN A   1      19.995  -0.831   4.525  0.00  0.00    -0.271 OA
ENDBRANCH  11  13
ENDBRANCH   8  11
ENDBRANCH   7   8
ENDBRANCH   1   7
BRANCH   4  18
ATOM     18  O12 ZIN A   1      17.609   2.227  12.477  0.00  0.00    -0.347 OA
BRANCH  18  19
ATOM     19  C13 ZIN A   1      18.671   2.195  13.433  0.00  0.00     0.214 C 
BRANCH  19  20
ATOM     20  C14 ZIN A   1      18.591   0.919  14.230  0.00  0.00    -0.031 A 
ATOM     21  C20 ZIN A   1      17.613   0.767  15.195  0.00  0.00     0.051 A 
ATOM     22  C18 ZIN A   1      17.536  -0.407  15.924  0.00  0.00     0.117 A 
ATOM     23  C17 ZIN A   1      18.446  -1.426  15.691  0.00  0.00     0.042 A 
ATOM     24  F19 ZIN A   1      16.578  -0.558  16.864  0.00  0.00    -0.206 F 
ATOM     25  C16 ZIN A   1      19.426  -1.269  14.730  0.00  0.00     0.004 A 
ATOM     26  C15 ZIN A   1      19.498  -0.098  13.999  0.00  0.00     0.009 A 
ENDBRANCH  19  20
ENDBRANCH  18  19
ENDBRANCH   4  18
TORSDOF 7
ENDMDL
MODEL 2
REMARK VINA RESULT:      -7.7      1.171      1.685
REMARK  7 active torsions:
REMARK  status: ('A' for Active; 'I' for Inactive)
REMARK    1  A    between atoms: C2_2  and  N4_3 
REMARK    2  A    between atoms: C2_2  and  C23_22 
REMARK    3  A    between atoms: N4_3  and  C7_6 
REMARK    4  A    between atoms: C7_6  and  C8_7 
REMARK    5  A    between atoms: C11_10  and  O12_11 
REMARK    6  A    between atoms: O12_11  and  C13_12 
REMARK    7  A    between atoms: C13_12  and  C14_13 
REMARK       I    between atoms: C23_22  and  N24_23 
ROOT
ATOM      1  C8  ZIN A   1      18.221   0.903   8.473  0.00  0.00    -0.033 A 
ATOM      2  C9  ZIN A   1      18.869   2.065   8.849  0.00  0.00     0.011 A 
ATOM      3  C10 ZIN A   1      18.750   2.536  10.142  0.00  0.00     0.037 A 
ATOM      4  C11 ZIN A   1      17.980   1.842  11.064  0.00  0.00     0.069 A 
ATOM      5  C21 ZIN A   1      17.331   0.676  10.684  0.00  0.00     0.037 A 
ATOM      6  C22 ZIN A   1      17.449   0.212   9.388  0.00  0.00     0.011 A 
ENDROOT
BRANCH   1   7
ATOM      7  C7  ZIN A   1      18.351   0.393   7.060  0.00  0.00     0.271 C 
BRANCH   7   8
ATOM      8  N4  ZIN A   1      17.786  -0.960   6.975  0.00  0.00    -0.059 N 
ATOM      9  H5  ZIN A   1      16.823  -0.904   6.678  0.00  0.00     0.278 HD
ATOM     10  H6  ZIN A   1      17.834  -1.403   7.880  0.00  0.00     0.278 HD
BRANCH   8  11
ATOM     11  C2  ZIN A   1      18.553  -1.750   6.002  0.00  0.00     0.273 C 
ATOM     12  C1  ZIN A   1      19.365  -0.810   5.108  0.00  0.00     0.050 C 
BRANCH  11  13
ATOM     13  C23 ZIN A   1      19.487  -2.679   6.734  0.00  0.00     0.245 C 
ATOM     14  N24 ZIN A   1      19.614  -2.590   8.072  0.00  0.00    -0.368 N 
ATOM     15  H41 ZIN A   1      19.104  -1.928   8.566  0.00  0.00     0.159 HD
ATOM     16  H42 ZIN A   1      20.215  -3.188   8.544  0.00  0.00     0.159 HD
ATOM     17  O25 ZIN A   1      20.123  -3.508   6.119  0.00  0.00    -0.271 OA
ENDBRANCH  11  13
ENDBRANCH   8  11
ENDBRANCH   7   8
ENDBRANCH   1   7
BRANCH   4  18
ATOM     18  O12 ZIN A   1      17.863   2.302  12.337  0.00  0.00    -0.347 OA
BRANCH  18  19
ATOM     19  C13 ZIN A   1      18.993   2.134  13.195  0.00  0.00     0.214 C 
BRANCH  19  20
ATOM     20  C14 ZIN A   1      18.794   0.913  14.055  0.00  0.00    -0.031 A 
ATOM     21  C20 ZIN A   1      17.789   0.892  15.004  0.00  0.00     0.051 A 
ATOM     22  C18 ZIN A   1      17.603  -0.232  15.790  0.00  0.00     0.117 A 
ATOM     23  C17 ZIN A   1      18.430  -1.331  15.631  0.00  0.00     0.042 A 
ATOM     24  F19 ZIN A   1      16.618  -0.255  16.714  0.00  0.00    -0.206 F 
ATOM     25  C16 ZIN A   1      19.438  -1.306  14.687  0.00  0.00     0.004 A 
ATOM     26  C15 ZIN A   1      19.619  -0.184  13.898  0.00  0.00     0.009 A 
ENDBRANCH  19  20
ENDBRANCH  18  19
ENDBRANCH   4  18
TORSDOF 7
ENDMDL
MODEL 3
REMARK VINA RESULT:      -7.5      4.795      8.927
REMARK  7 active torsions:
REMARK  status: ('A' for Active; 'I' for Inactive)
REMARK    1  A    between atoms: C2_2  and  N4_3 
REMARK    2  A    between atoms: C2_2  and  C23_22 
REMARK    3  A    between atoms: N4_3  and  C7_6 
REMARK    4  A    between atoms: C7_6  and  C8_7 
REMARK    5  A    between atoms: C11_10  and  O12_11 
REMARK    6  A    between atoms: O12_11  and  C13_12 
REMARK    7  A    between atoms: C13_12  and  C14_13 
REMARK       I    between atoms: C23_22  and  N24_23 
ROOT
ATOM      1  C8  ZIN A   1      17.876  -0.500  15.499  0.00  0.00    -0.033 A 
ATOM      2  C9  ZIN A   1      17.469   0.473  14.605  0.00  0.00     0.011 A 
ATOM      3  C10 ZIN A   1      18.077   0.576  13.369  0.00  0.00     0.037 A 
ATOM      4  C11 ZIN A   1      19.099  -0.298  13.026  0.00  0.00     0.069 A 
ATOM      5  C21 ZIN A   1      19.507  -1.273  13.925  0.00  0.00     0.037 A 
ATOM      6  C22 ZIN A   1      18.897  -1.368  15.161  0.00  0.00     0.011 A 
ENDROOT
BRANCH   1   7
ATOM      7  C7  ZIN A   1      17.211  -0.609  16.847  0.00  0.00     0.271 C 
BRANCH   7   8
ATOM      8  N4  ZIN A   1      16.876   0.734  17.338  0.00  0.00    -0.059 N 
ATOM      9  H5  ZIN A   1      15.907   0.759  17.616  0.00  0.00     0.278 HD
ATOM     10  H6  ZIN A   1      17.033   1.410  16.605  0.00  0.00     0.278 HD
BRANCH   8  11
ATOM     11  C2  ZIN A   1      17.726   1.059  18.492  0.00  0.00     0.273 C 
ATOM     12  C1  ZIN A   1      18.603  -0.147  18.835  0.00  0.00     0.050 C 
BRANCH  11  13
ATOM     13  C23 ZIN A   1      18.603   2.238  18.155  0.00  0.00     0.245 C 
ATOM     14  N24 ZIN A   1      18.128   3.229  17.376  0.00  0.00    -0.368 N 
ATOM     15  H41 ZIN A   1      17.222   3.185  17.031  0.00  0.00     0.159 HD
ATOM     16  H42 ZIN A   1      18.692   3.988  17.159  0.00  0.00     0.159 HD
ATOM     17  O25 ZIN A   1      19.735   2.295  18.586  0.00  0.00    -0.271 OA
ENDBRANCH  11  13
ENDBRANCH   8  11
ENDBRANCH   7   8
ENDBRANCH   1   7
BRANCH   4  18
ATOM     18  O12 ZIN A   1      19.699  -0.199  11.811  0.00  0.00    -0.347 OA
BRANCH  18  19
ATOM     19  C13 ZIN A   1      19.572   1.046  11.122  0.00  0.00     0.214 C 
BRANCH  19  20
ATOM     20  C14 ZIN A   1      19.367   0.789   9.652  0.00  0.00    -0.031 A 
ATOM     21  C20 ZIN A   1      19.444  -0.500   9.159  0.00  0.00     0.051 A 
ATOM     22  C18 ZIN A   1      19.250  -0.737   7.809  0.00  0.00     0.117 A 
ATOM     23  C17 ZIN A   1      18.988   0.319   6.952  0.00  0.00     0.042 A 
ATOM     24  F19 ZIN A   1      19.320  -1.997   7.327  0.00  0.00    -0.206 F 
ATOM     25  C16 ZIN A   1      18.918   1.607   7.446  0.00  0.00     0.004 A 
ATOM     26  C15 ZIN A   1      19.106   1.842   8.796  0.00  0.00     0.009 A 
ENDBRANCH  19  20
ENDBRANCH  18  19
ENDBRANCH   4  18
TORSDOF 7
ENDMDL
MODEL 4
REMARK VINA RESULT:      -7.3      1.321      1.720
REMARK  7 active torsions:
REMARK  status: ('A' for Active; 'I' for Inactive)
REMARK    1  A    between atoms: C2_2  and  N4_3 
REMARK    2  A    between atoms: C2_2  and  C23_22 
REMARK    3  A    between atoms: N4_3  and  C7_6 
REMARK    4  A    between atoms: C7_6  and  C8_7 
REMARK    5  A    between atoms: C11_10  and  O12_11 
REMARK    6  A    between atoms: O12_11  and  C13_12 
REMARK    7  A    between atoms: C13_12  and  C14_13 
REMARK       I    between atoms: C23_22  and  N24_23 
ROOT
ATOM      1  C8  ZIN A   1      19.133   1.136   8.856  0.00  0.00    -0.033 A 
ATOM      2  C9  ZIN A   1      18.866   2.387   9.382  0.00  0.00     0.011 A 
ATOM      3  C10 ZIN A   1      18.980   2.605  10.741  0.00  0.00     0.037 A 
ATOM      4  C11 ZIN A   1      19.362   1.567  11.579  0.00  0.00     0.069 A 
ATOM      5  C21 ZIN A   1      19.630   0.313  11.049  0.00  0.00     0.037 A 
ATOM      6  C22 ZIN A   1      19.509   0.100   9.689  0.00  0.00     0.011 A 
ENDROOT
BRANCH   1   7
ATOM      7  C7  ZIN A   1      19.008   0.902   7.372  0.00  0.00     0.271 C 
BRANCH   7   8
ATOM      8  N4  ZIN A   1      19.295  -0.507   7.074  0.00  0.00    -0.059 N 
ATOM      9  H5  ZIN A   1      19.316  -1.036   7.933  0.00  0.00     0.278 HD
ATOM     10  H6  ZIN A   1      20.190  -0.578   6.613  0.00  0.00     0.278 HD
BRANCH   8  11
ATOM     11  C2  ZIN A   1      18.248  -1.045   6.193  0.00  0.00     0.273 C 
ATOM     12  C1  ZIN A   1      17.094  -0.044   6.104  0.00  0.00     0.050 C 
BRANCH  11  13
ATOM     13  C23 ZIN A   1      18.819  -1.277   4.818  0.00  0.00     0.245 C 
ATOM     14  N24 ZIN A   1      18.077  -1.894   3.877  0.00  0.00    -0.368 N 
ATOM     15  H41 ZIN A   1      17.176  -2.188   4.084  0.00  0.00     0.159 HD
ATOM     16  H42 ZIN A   1      18.445  -2.043   2.991  0.00  0.00     0.159 HD
ATOM     17  O25 ZIN A   1      19.944  -0.909   4.558  0.00  0.00    -0.271 OA
ENDBRANCH  11  13
ENDBRANCH   8  11
ENDBRANCH   7   8
ENDBRANCH   1   7
BRANCH   4  18
ATOM     18  O12 ZIN A   1      19.475   1.778  12.916  0.00  0.00    -0.347 OA
BRANCH  18  19
ATOM     19  C13 ZIN A   1      18.263   1.824  13.671  0.00  0.00     0.214 C 
BRANCH  19  20
ATOM     20  C14 ZIN A   1      18.453   1.089  14.972  0.00  0.00    -0.031 A 
ATOM     21  C20 ZIN A   1      18.090  -0.242  15.074  0.00  0.00     0.051 A 
ATOM     22  C18 ZIN A   1      18.270  -0.919  16.268  0.00  0.00     0.117 A 
ATOM     23  C17 ZIN A   1      18.806  -0.260  17.362  0.00  0.00     0.042 A 
ATOM     24  F19 ZIN A   1      17.920  -2.220  16.366  0.00  0.00    -0.206 F 
ATOM     25  C16 ZIN A   1      19.163   1.071  17.260  0.00  0.00     0.004 A 
ATOM     26  C15 ZIN A   1      18.987   1.744  16.065  0.00  0.00     0.009 A 
ENDBRANCH  19  20
ENDBRANCH  18  19
ENDBRANCH   4  18
TORSDOF 7
ENDMDL
MODEL 5
REMARK VINA RESULT:      -7.2      4.686      8.774
REMARK  7 active torsions:
REMARK  status: ('A' for Active; 'I' for Inactive)
REMARK    1  A    between atoms: C2_2  and  N4_3 
REMARK    2  A    between atoms: C2_2  and  C23_22 
REMARK    3  A    between atoms: N4_3  and  C7_6 
REMARK    4  A    between atoms: C7_6  and  C8_7 
REMARK    5  A    between atoms: C11_10  and  O12_11 
REMARK    6  A    between atoms: O12_11  and  C13_12 
REMARK    7  A    between atoms: C13_12  and  C14_13 
REMARK       I    between atoms: C23_22  and  N24_23 
ROOT
ATOM      1  C8  ZIN A   1      18.867   4.234  12.239  0.00  0.00    -0.033 A 
ATOM      2  C9  ZIN A   1      19.759   3.207  11.989  0.00  0.00     0.011 A 
ATOM      3  C10 ZIN A   1      19.700   2.513  10.796  0.00  0.00     0.037 A 
ATOM      4  C11 ZIN A   1      18.743   2.846   9.849  0.00  0.00     0.069 A 
ATOM      5  C21 ZIN A   1      17.848   3.877  10.101  0.00  0.00     0.037 A 
ATOM      6  C22 ZIN A   1      17.910   4.564  11.298  0.00  0.00     0.011 A 
ENDROOT
BRANCH   1   7
ATOM      7  C7  ZIN A   1      18.935   4.989  13.541  0.00  0.00     0.271 C 
BRANCH   7   8
ATOM      8  N4  ZIN A   1      19.724   4.220  14.513  0.00  0.00    -0.059 N 
ATOM      9  H5  ZIN A   1      20.357   4.838  14.996  0.00  0.00     0.278 HD
ATOM     10  H6  ZIN A   1      20.250   3.508  14.030  0.00  0.00     0.278 HD
BRANCH   8  11
ATOM     11  C2  ZIN A   1      18.821   3.586  15.484  0.00  0.00     0.273 C 
ATOM     12  C1  ZIN A   1      18.926   2.065  15.361  0.00  0.00     0.050 C 
BRANCH  11  13
ATOM     13  C23 ZIN A   1      19.209   4.005  16.879  0.00  0.00     0.245 C 
ATOM     14  N24 ZIN A   1      18.951   5.258  17.302  0.00  0.00    -0.368 N 
ATOM     15  H41 ZIN A   1      18.515   5.891  16.710  0.00  0.00     0.159 HD
ATOM     16  H42 ZIN A   1      19.201   5.528  18.200  0.00  0.00     0.159 HD
ATOM     17  O25 ZIN A   1      19.753   3.215  17.620  0.00  0.00    -0.271 OA
ENDBRANCH  11  13
ENDBRANCH   8  11
ENDBRANCH   7   8
ENDBRANCH   1   7
BRANCH   4  18
ATOM     18  O12 ZIN A   1      18.682   2.166   8.674  0.00  0.00    -0.347 OA
BRANCH  18  19
ATOM     19  C13 ZIN A   1      18.654   0.739   8.752  0.00  0.00     0.214 C 
BRANCH  19  20
ATOM     20  C14 ZIN A   1      18.894   0.157   7.383  0.00  0.00    -0.031 A 
ATOM     21  C20 ZIN A   1      19.097  -1.203   7.236  0.00  0.00     0.051 A 
ATOM     22  C18 ZIN A   1      19.313  -1.738   5.977  0.00  0.00     0.117 A 
ATOM     23  C17 ZIN A   1      19.332  -0.910   4.868  0.00  0.00     0.042 A 
ATOM     24  F19 ZIN A   1      19.506  -3.067   5.832  0.00  0.00    -0.206 F 
ATOM     25  C16 ZIN A   1      19.135   0.450   5.018  0.00  0.00     0.004 A 
ATOM     26  C15 ZIN A   1      18.915   0.982   6.275  0.00  0.00     0.009 A 
ENDBRANCH  19  20
ENDBRANCH  18  19
ENDBRANCH   4  18
TORSDOF 7
ENDMDL
MODEL 6
REMARK VINA RESULT:      -7.2      4.498      8.706
REMARK  7 active torsions:
REMARK  status: ('A' for Active; 'I' for Inactive)
REMARK    1  A    between atoms: C2_2  and  N4_3 
REMARK    2  A    between atoms: C2_2  and  C23_22 
REMARK    3  A    between atoms: N4_3  and  C7_6 
REMARK    4  A    between atoms: C7_6  and  C8_7 
REMARK    5  A    between atoms: C11_10  and  O12_11 
REMARK    6  A    between atoms: O12_11  and  C13_12 
REMARK    7  A    between atoms: C13_12  and  C14_13 
REMARK       I    between atoms: C23_22  and  N24_23 
ROOT
ATOM      1  C8  ZIN A   1      18.503   0.414  13.203  0.00  0.00    -0.033 A 
ATOM      2  C9  ZIN A   1      17.737  -0.695  12.897  0.00  0.00     0.011 A 
ATOM      3  C10 ZIN A   1      18.021  -1.443  11.771  0.00  0.00     0.037 A 
ATOM      4  C11 ZIN A   1      19.075  -1.079  10.945  0.00  0.00     0.069 A 
ATOM      5  C21 ZIN A   1      19.842   0.035  11.254  0.00  0.00     0.037 A 
ATOM      6  C22 ZIN A   1      19.551   0.782  12.380  0.00  0.00     0.011 A 
ENDROOT
BRANCH   1   7
ATOM      7  C7  ZIN A   1      18.191   1.229  14.432  0.00  0.00     0.271 C 
BRANCH   7   8
ATOM      8  N4  ZIN A   1      19.077   0.818  15.529  0.00  0.00    -0.059 N 
ATOM      9  H5  ZIN A   1      19.880   1.427  15.560  0.00  0.00     0.278 HD
ATOM     10  H6  ZIN A   1      19.380  -0.132  15.379  0.00  0.00     0.278 HD
BRANCH   8  11
ATOM     11  C2  ZIN A   1      18.349   0.902  16.803  0.00  0.00     0.273 C 
ATOM     12  C1  ZIN A   1      17.229  -0.140  16.821  0.00  0.00     0.050 C 
BRANCH  11  13
ATOM     13  C23 ZIN A   1      19.299   0.639  17.943  0.00  0.00     0.245 C 
ATOM     14  N24 ZIN A   1      19.609  -0.628  18.282  0.00  0.00    -0.368 N 
ATOM     15  H41 ZIN A   1      19.221  -1.370  17.794  0.00  0.00     0.159 HD
ATOM     16  H42 ZIN A   1      20.221  -0.797  19.016  0.00  0.00     0.159 HD
ATOM     17  O25 ZIN A   1      19.785   1.567  18.554  0.00  0.00    -0.271 OA
ENDBRANCH  11  13
ENDBRANCH   8  11
ENDBRANCH   7   8
ENDBRANCH   1   7
BRANCH   4  18
ATOM     18  O12 ZIN A   1      19.357  -1.813   9.837  0.00  0.00    -0.347 OA
BRANCH  18  19
ATOM     19  C13 ZIN A   1      18.310  -1.965   8.876  0.00  0.00     0.214 C 
BRANCH  19  20
ATOM     20  C14 ZIN A   1      18.641  -1.165   7.642  0.00  0.00    -0.031 A 
ATOM     21  C20 ZIN A   1      18.555   0.215   7.670  0.00  0.00     0.051 A 
ATOM     22  C18 ZIN A   1      18.864   0.950   6.538  0.00  0.00     0.117 A 
ATOM     23  C17 ZIN A   1      19.250   0.301   5.377  0.00  0.00     0.042 A 
ATOM     24  F19 ZIN A   1      18.784   2.298   6.565  0.00  0.00    -0.206 F 
ATOM     25  C16 ZIN A   1      19.330  -1.078   5.350  0.00  0.00     0.004 A 
ATOM     26  C15 ZIN A   1      19.026  -1.811   6.483  0.00  0.00     0.009 A 
ENDBRANCH  19  20
ENDBRANCH  18  19
ENDBRANCH   4  18
TORSDOF 7
ENDMDL
MODEL 7
REMARK VINA RESULT:      -7.1      3.351      3.868
REMARK  7 active torsions:
REMARK  status: ('A' for Active; 'I' for Inactive)
REMARK    1  A    between atoms: C2_2  and  N4_3 
REMARK    2  A    between atoms: C2_2  and  C23_22 
REMARK    3  A    between atoms: N4_3  and  C7_6 
REMARK    4  A    between atoms: C7_6  and  C8_7 
REMARK    5  A    between atoms: C11_10  and  O12_11 
REMARK    6  A    between atoms: O12_11  and  C13_12 
REMARK    7  A    between atoms: C13_12  and  C14_13 
REMARK       I    between atoms: C23_22  and  N24_23 
ROOT
ATOM      1  C8  ZIN A   1      18.316  -0.270   8.435  0.00  0.00    -0.033 A 
ATOM      2  C9  ZIN A   1      17.585  -0.016   9.581  0.00  0.00     0.011 A 
ATOM      3  C10 ZIN A   1      17.653   1.225  10.184  0.00  0.00     0.037 A 
ATOM      4  C11 ZIN A   1      18.458   2.216   9.640  0.00  0.00     0.069 A 
ATOM      5  C21 ZIN A   1      19.191   1.958   8.491  0.00  0.00     0.037 A 
ATOM      6  C22 ZIN A   1      19.122   0.714   7.894  0.00  0.00     0.011 A 
ENDROOT
BRANCH   1   7
ATOM      7  C7  ZIN A   1      18.240  -1.625   7.779  0.00  0.00     0.271 C 
BRANCH   7   8
ATOM      8  N4  ZIN A   1      19.574  -2.015   7.305  0.00  0.00    -0.059 N 
ATOM      9  H5  ZIN A   1      20.092  -2.433   8.062  0.00  0.00     0.278 HD
ATOM     10  H6  ZIN A   1      20.064  -1.199   6.971  0.00  0.00     0.278 HD
BRANCH   8  11
ATOM     11  C2  ZIN A   1      19.439  -2.986   6.210  0.00  0.00     0.273 C 
ATOM     12  C1  ZIN A   1      18.213  -3.868   6.458  0.00  0.00     0.050 C 
BRANCH  11  13
ATOM     13  C23 ZIN A   1      19.273  -2.251   4.904  0.00  0.00     0.245 C 
ATOM     14  N24 ZIN A   1      18.463  -2.749   3.949  0.00  0.00    -0.368 N 
ATOM     15  H41 ZIN A   1      17.987  -3.581   4.101  0.00  0.00     0.159 HD
ATOM     16  H42 ZIN A   1      18.357  -2.277   3.109  0.00  0.00     0.159 HD
ATOM     17  O25 ZIN A   1      19.867  -1.212   4.714  0.00  0.00    -0.271 OA
ENDBRANCH  11  13
ENDBRANCH   8  11
ENDBRANCH   7   8
ENDBRANCH   1   7
BRANCH   4  18
ATOM     18  O12 ZIN A   1      18.527   3.437  10.231  0.00  0.00    -0.347 OA
BRANCH  18  19
ATOM     19  C13 ZIN A   1      19.352   3.551  11.393  0.00  0.00     0.214 C 
BRANCH  19  20
ATOM     20  C14 ZIN A   1      18.676   4.440  12.404  0.00  0.00    -0.031 A 
ATOM     21  C20 ZIN A   1      17.308   4.634  12.349  0.00  0.00     0.051 A 
ATOM     22  C18 ZIN A   1      16.686   5.447  13.281  0.00  0.00     0.117 A 
ATOM     23  C17 ZIN A   1      17.436   6.072  14.263  0.00  0.00     0.042 A 
ATOM     24  F19 ZIN A   1      15.349   5.633  13.231  0.00  0.00    -0.206 F 
ATOM     25  C16 ZIN A   1      18.804   5.881  14.313  0.00  0.00     0.004 A 
ATOM     26  C15 ZIN A   1      19.423   5.064  13.384  0.00  0.00     0.009 A 
ENDBRANCH  19  20
ENDBRANCH  18  19
ENDBRANCH   4  18
TORSDOF 7
ENDMDL
MODEL 8
REMARK VINA RESULT:      -7.0      1.818      2.290
REMARK  7 active torsions:
REMARK  status: ('A' for Active; 'I' for Inactive)
REMARK    1  A    between atoms: C2_2  and  N4_3 
REMARK    2  A    between atoms: C2_2  and  C23_22 
REMARK    3  A    between atoms: N4_3  and  C7_6 
REMARK    4  A    between atoms: C7_6  and  C8_7 
REMARK    5  A    between atoms: C11_10  and  O12_11 
REMARK    6  A    between atoms: O12_11  and  C13_12 
REMARK    7  A    between atoms: C13_12  and  C14_13 
REMARK       I    between atoms: C23_22  and  N24_23 
ROOT
ATOM      1  C8  ZIN A   1      18.448   0.087   8.874  0.00  0.00    -0.033 A 
ATOM      2  C9  ZIN A   1      19.737  -0.195   9.287  0.00  0.00     0.011 A 
ATOM      3  C10 ZIN A   1      19.977  -0.575  10.592  0.00  0.00     0.037 A 
ATOM      4  C11 ZIN A   1      18.925  -0.674  11.490  0.00  0.00     0.069 A 
ATOM      5  C21 ZIN A   1      17.632  -0.391  11.074  0.00  0.00     0.037 A 
ATOM      6  C22 ZIN A   1      17.397  -0.006   9.767  0.00  0.00     0.011 A 
ENDROOT
BRANCH   1   7
ATOM      7  C7  ZIN A   1      18.188   0.503   7.448  0.00  0.00     0.271 C 
BRANCH   7   8
ATOM      8  N4  ZIN A   1      17.334  -0.497   6.795  0.00  0.00    -0.059 N 
ATOM      9  H5  ZIN A   1      16.499  -0.051   6.446  0.00  0.00     0.278 HD
ATOM     10  H6  ZIN A   1      17.080  -1.211   7.461  0.00  0.00     0.278 HD
BRANCH   8  11
ATOM     11  C2  ZIN A   1      18.065  -1.109   5.676  0.00  0.00     0.273 C 
ATOM     12  C1  ZIN A   1      19.149  -0.147   5.187  0.00  0.00     0.050 C 
BRANCH  11  13
ATOM     13  C23 ZIN A   1      18.704  -2.394   6.137  0.00  0.00     0.245 C 
ATOM     14  N24 ZIN A   1      18.073  -3.177   7.034  0.00  0.00    -0.368 N 
ATOM     15  H41 ZIN A   1      17.207  -2.915   7.383  0.00  0.00     0.159 HD
ATOM     16  H42 ZIN A   1      18.485  -4.004   7.330  0.00  0.00     0.159 HD
ATOM     17  O25 ZIN A   1      19.787  -2.723   5.701  0.00  0.00    -0.271 OA
ENDBRANCH  11  13
ENDBRANCH   8  11
ENDBRANCH   7   8
ENDBRANCH   1   7
BRANCH   4  18
ATOM     18  O12 ZIN A   1      19.158  -1.048  12.775  0.00  0.00    -0.347 OA
BRANCH  18  19
ATOM     19  C13 ZIN A   1      19.807  -0.096  13.621  0.00  0.00     0.214 C 
BRANCH  19  20
ATOM     20  C14 ZIN A   1      19.031   0.046  14.905  0.00  0.00    -0.031 A 
ATOM     21  C20 ZIN A   1      18.243  -0.998  15.355  0.00  0.00     0.051 A 
ATOM     22  C18 ZIN A   1      17.535  -0.869  16.538  0.00  0.00     0.117 A 
ATOM     23  C17 ZIN A   1      17.609   0.308  17.263  0.00  0.00     0.042 A 
ATOM     24  F19 ZIN A   1      16.769  -1.890  16.981  0.00  0.00    -0.206 F 
ATOM     25  C16 ZIN A   1      18.392   1.351  16.808  0.00  0.00     0.004 A 
ATOM     26  C15 ZIN A   1      19.103   1.220  15.630  0.00  0.00     0.009 A 
ENDBRANCH  19  20
ENDBRANCH  18  19
ENDBRANCH   4  18
TORSDOF 7
ENDMDL
MODEL 9
REMARK VINA RESULT:      -6.9      4.153      7.832
REMARK  7 active torsions:
REMARK  status: ('A' for Active; 'I' for Inactive)
REMARK    1  A    between atoms: C2_2  and  N4_3 
REMARK    2  A    between atoms: C2_2  and  C23_22 
REMARK    3  A    between atoms: N4_3  and  C7_6 
REMARK    4  A    between atoms: C7_6  and  C8_7 
REMARK    5  A    between atoms: C11_10  and  O12_11 
REMARK    6  A    between atoms: O12_11  and  C13_12 
REMARK    7  A    between atoms: C13_12  and  C14_13 
REMARK       I    between atoms: C23_22  and  N24_23 
ROOT
ATOM      1  C8  ZIN A   1      18.224   0.927   9.380  0.00  0.00    -0.033 A 
ATOM      2  C9  ZIN A   1      17.368   0.032   8.766  0.00  0.00     0.011 A 
ATOM      3  C10 ZIN A   1      17.409  -0.135   7.395  0.00  0.00     0.037 A 
ATOM      4  C11 ZIN A   1      18.308   0.597   6.634  0.00  0.00     0.069 A 
ATOM      5  C21 ZIN A   1      19.166   1.496   7.253  0.00  0.00     0.037 A 
ATOM      6  C22 ZIN A   1      19.118   1.662   8.624  0.00  0.00     0.011 A 
ENDROOT
BRANCH   1   7
ATOM      7  C7  ZIN A   1      18.178   1.108  10.875  0.00  0.00     0.271 C 
BRANCH   7   8
ATOM      8  N4  ZIN A   1      19.343   0.453  11.484  0.00  0.00    -0.059 N 
ATOM      9  H5  ZIN A   1      19.846   1.119  12.051  0.00  0.00     0.278 HD
ATOM     10  H6  ZIN A   1      19.950   0.103  10.758  0.00  0.00     0.278 HD
BRANCH   8  11
ATOM     11  C2  ZIN A   1      18.892  -0.664  12.326  0.00  0.00     0.273 C 
ATOM     12  C1  ZIN A   1      17.376  -0.583  12.512  0.00  0.00     0.050 C 
BRANCH  11  13
ATOM     13  C23 ZIN A   1      19.248  -1.970  11.661  0.00  0.00     0.245 C 
ATOM     14  N24 ZIN A   1      20.443  -2.544  11.902  0.00  0.00    -0.368 N 
ATOM     15  H41 ZIN A   1      21.075  -2.118  12.502  0.00  0.00     0.159 HD
ATOM     16  H42 ZIN A   1      20.671  -3.384  11.474  0.00  0.00     0.159 HD
ATOM     17  O25 ZIN A   1      18.458  -2.503  10.912  0.00  0.00    -0.271 OA
ENDBRANCH  11  13
ENDBRANCH   8  11
ENDBRANCH   7   8
ENDBRANCH   1   7
BRANCH   4  18
ATOM     18  O12 ZIN A   1      18.350   0.435   5.286  0.00  0.00    -0.347 OA
BRANCH  18  19
ATOM     19  C13 ZIN A   1      19.285  -0.518   4.776  0.00  0.00     0.214 C 
BRANCH  19  20
ATOM     20  C14 ZIN A   1      18.648  -1.883   4.751  0.00  0.00    -0.031 A 
ATOM     21  C20 ZIN A   1      17.523  -2.107   3.978  0.00  0.00     0.051 A 
ATOM     22  C18 ZIN A   1      16.941  -3.363   3.951  0.00  0.00     0.117 A 
ATOM     23  C17 ZIN A   1      17.480  -4.391   4.706  0.00  0.00     0.042 A 
ATOM     24  F19 ZIN A   1      15.846  -3.584   3.192  0.00  0.00    -0.206 F 
ATOM     25  C16 ZIN A   1      18.600  -4.163   5.482  0.00  0.00     0.004 A 
ATOM     26  C15 ZIN A   1      19.184  -2.910   5.504  0.00  0.00     0.009 A 
ENDBRANCH  19  20
ENDBRANCH  18  19
ENDBRANCH   4  18
TORSDOF 7
ENDMDL
