MODEL 1
REMARK VINA RESULT:      -5.8      0.000      0.000
REMARK  8 active torsions:
REMARK  status: ('A' for Active; 'I' for Inactive)
REMARK    1  A    between atoms: O2_2  and  C3_3 
REMARK    2  A    between atoms: C6_6  and  O7_7 
REMARK    3  A    between atoms: C9_9  and  C10_10 
REMARK    4  A    between atoms: C10_10  and  O12_11 
REMARK    5  A    between atoms: C10_10  and  C13_12 
REMARK    6  A    between atoms: C13_12  and  N14_13 
REMARK       I    between atoms: N14_13  and  C15_14 
REMARK    7  A    between atoms: C15_14  and  C17_16 
REMARK    8  A    between atoms: C17_16  and  N18_17 
ROOT
ATOM      1  C10 ZIN A   1      20.540  -0.107  11.773  0.00  0.00     0.171 C 
ENDROOT
BRANCH   1   2
ATOM      2  C9  ZIN A   1      19.953   0.443  10.500  0.00  0.00     0.008 A 
ATOM      3  C6  ZIN A   1      19.574   1.775  10.430  0.00  0.00     0.077 A 
ATOM      4  C5  ZIN A   1      19.033   2.281   9.258  0.00  0.00     0.040 A 
ATOM      5  C4  ZIN A   1      18.872   1.460   8.159  0.00  0.00     0.039 A 
ATOM      6  C3  ZIN A   1      19.254   0.128   8.229  0.00  0.00     0.069 A 
ATOM      7  C19 ZIN A   1      19.790  -0.380   9.403  0.00  0.00     0.049 A 
BRANCH   3   8
ATOM      8  O7  ZIN A   1      19.730   2.585  11.512  0.00  0.00    -0.355 OA
ATOM      9  C8  ZIN A   1      18.707   3.553  11.752  0.00  0.00     0.210 C 
ENDBRANCH   3   8
BRANCH   6  10
ATOM     10  O2  ZIN A   1      19.096  -0.681   7.147  0.00  0.00    -0.356 OA
ATOM     11  C1  ZIN A   1      18.927  -0.043   5.879  0.00  0.00     0.210 C 
ENDBRANCH   6  10
ENDBRANCH   1   2
BRANCH   1  12
ATOM     12  O12 ZIN A   1      21.630   0.717  12.192  0.00  0.00    -0.389 OA
ATOM     13  H28 ZIN A   1      21.542   1.057  13.093  0.00  0.00     0.210 HD
ENDBRANCH   1  12
BRANCH   1  14
ATOM     14  C13 ZIN A   1      19.467  -0.125  12.864  0.00  0.00     0.159 C 
BRANCH  14  15
ATOM     15  N14 ZIN A   1      19.848   0.793  13.940  0.00  0.00    -0.357 N 
ATOM     16  C15 ZIN A   1      18.906   1.295  14.763  0.00  0.00     0.245 C 
ATOM     17  O16 ZIN A   1      17.743   0.987  14.612  0.00  0.00    -0.272 OA
ATOM     18  H31 ZIN A   1      20.778   1.041  14.060  0.00  0.00     0.162 HD
BRANCH  16  19
ATOM     19  C17 ZIN A   1      19.298   2.240  15.869  0.00  0.00     0.368 C 
BRANCH  19  20
ATOM     20  N18 ZIN A   1      19.619   3.555  15.300  0.00  0.00     0.087 N 
ATOM     21  H34 ZIN A   1      20.115   3.460  14.427  0.00  0.00     0.313 HD
ATOM     22  H35 ZIN A   1      18.786   4.113  15.184  0.00  0.00     0.313 HD
ENDBRANCH  19  20
ENDBRANCH  16  19
ENDBRANCH  14  15
ENDBRANCH   1  14
TORSDOF 8
ENDMDL
MODEL 2
REMARK VINA RESULT:      -5.7      1.720      3.509
REMARK  8 active torsions:
REMARK  status: ('A' for Active; 'I' for Inactive)
REMARK    1  A    between atoms: O2_2  and  C3_3 
REMARK    2  A    between atoms: C6_6  and  O7_7 
REMARK    3  A    between atoms: C9_9  and  C10_10 
REMARK    4  A    between atoms: C10_10  and  O12_11 
REMARK    5  A    between atoms: C10_10  and  C13_12 
REMARK    6  A    between atoms: C13_12  and  N14_13 
REMARK       I    between atoms: N14_13  and  C15_14 
REMARK    7  A    between atoms: C15_14  and  C17_16 
REMARK    8  A    between atoms: C17_16  and  N18_17 
ROOT
ATOM      1  C10 ZIN A   1      20.286  -0.000  11.840  0.00  0.00     0.171 C 
ENDROOT
BRANCH   1   2
ATOM      2  C9  ZIN A   1      19.676   1.102  11.014  0.00  0.00     0.008 A 
ATOM      3  C6  ZIN A   1      19.539   0.946   9.643  0.00  0.00     0.077 A 
ATOM      4  C5  ZIN A   1      18.978   1.961   8.883  0.00  0.00     0.040 A 
ATOM      5  C4  ZIN A   1      18.554   3.127   9.491  0.00  0.00     0.039 A 
ATOM      6  C3  ZIN A   1      18.690   3.282  10.862  0.00  0.00     0.069 A 
ATOM      7  C19 ZIN A   1      19.256   2.269  11.622  0.00  0.00     0.049 A 
BRANCH   3   8
ATOM      8  O7  ZIN A   1      19.957  -0.202   9.044  0.00  0.00    -0.355 OA
ATOM      9  C8  ZIN A   1      19.151  -0.707   7.978  0.00  0.00     0.210 C 
ENDBRANCH   3   8
BRANCH   6  10
ATOM     10  O2  ZIN A   1      18.272   4.429  11.461  0.00  0.00    -0.356 OA
ATOM     11  C1  ZIN A   1      17.108   5.057  10.920  0.00  0.00     0.210 C 
ENDBRANCH   6  10
ENDBRANCH   1   2
BRANCH   1  12
ATOM     12  O12 ZIN A   1      21.612  -0.264  11.378  0.00  0.00    -0.389 OA
ATOM     13  H28 ZIN A   1      22.301   0.203  11.870  0.00  0.00     0.210 HD
ENDBRANCH   1  12
BRANCH   1  14
ATOM     14  C13 ZIN A   1      20.335   0.429  13.309  0.00  0.00     0.159 C 
BRANCH  14  15
ATOM     15  N14 ZIN A   1      19.367  -0.354  14.079  0.00  0.00    -0.357 N 
ATOM     16  C15 ZIN A   1      18.720   0.209  15.120  0.00  0.00     0.245 C 
ATOM     17  O16 ZIN A   1      18.941   1.364  15.418  0.00  0.00    -0.272 OA
ATOM     18  H31 ZIN A   1      19.190  -1.278  13.841  0.00  0.00     0.162 HD
BRANCH  16  19
ATOM     19  C17 ZIN A   1      17.723  -0.596  15.912  0.00  0.00     0.368 C 
BRANCH  19  20
ATOM     20  N18 ZIN A   1      16.878   0.309  16.702  0.00  0.00     0.087 N 
ATOM     21  H34 ZIN A   1      17.349   1.186  16.873  0.00  0.00     0.313 HD
ATOM     22  H35 ZIN A   1      15.988   0.458  16.252  0.00  0.00     0.313 HD
ENDBRANCH  19  20
ENDBRANCH  16  19
ENDBRANCH  14  15
ENDBRANCH   1  14
TORSDOF 8
ENDMDL
MODEL 3
REMARK VINA RESULT:      -5.7      1.897      2.874
REMARK  8 active torsions:
REMARK  status: ('A' for Active; 'I' for Inactive)
REMARK    1  A    between atoms: O2_2  and  C3_3 
REMARK    2  A    between atoms: C6_6  and  O7_7 
REMARK    3  A    between atoms: C9_9  and  C10_10 
REMARK    4  A    between atoms: C10_10  and  O12_11 
REMARK    5  A    between atoms: C10_10  and  C13_12 
REMARK    6  A    between atoms: C13_12  and  N14_13 
REMARK       I    between atoms: N14_13  and  C15_14 
REMARK    7  A    between atoms: C15_14  and  C17_16 
REMARK    8  A    between atoms: C17_16  and  N18_17 
ROOT
ATOM      1  C10 ZIN A   1      18.621   2.546  10.449  0.00  0.00     0.171 C 
ENDROOT
BRANCH   1   2
ATOM      2  C9  ZIN A   1      18.394   1.567   9.326  0.00  0.00     0.008 A 
ATOM      3  C6  ZIN A   1      17.606   0.445   9.533  0.00  0.00     0.077 A 
ATOM      4  C5  ZIN A   1      17.398  -0.457   8.500  0.00  0.00     0.040 A 
ATOM      5  C4  ZIN A   1      17.975  -0.237   7.265  0.00  0.00     0.039 A 
ATOM      6  C3  ZIN A   1      18.763   0.885   7.057  0.00  0.00     0.069 A 
ATOM      7  C19 ZIN A   1      18.975   1.784   8.092  0.00  0.00     0.049 A 
BRANCH   3   8
ATOM      8  O7  ZIN A   1      17.037   0.228  10.750  0.00  0.00    -0.355 OA
ATOM      9  C8  ZIN A   1      17.309  -1.026  11.379  0.00  0.00     0.210 C 
ENDBRANCH   3   8
BRANCH   6  10
ATOM     10  O2  ZIN A   1      19.331   1.102   5.841  0.00  0.00    -0.356 OA
ATOM     11  C1  ZIN A   1      19.336   0.006   4.923  0.00  0.00     0.210 C 
ENDBRANCH   6  10
ENDBRANCH   1   2
BRANCH   1  12
ATOM     12  O12 ZIN A   1      17.378   2.826  11.095  0.00  0.00    -0.389 OA
ATOM     13  H28 ZIN A   1      16.647   2.998  10.486  0.00  0.00     0.210 HD
ENDBRANCH   1  12
BRANCH   1  14
ATOM     14  C13 ZIN A   1      19.598   1.944  11.462  0.00  0.00     0.159 C 
BRANCH  14  15
ATOM     15  N14 ZIN A   1      18.952   1.862  12.774  0.00  0.00    -0.357 N 
ATOM     16  C15 ZIN A   1      19.440   1.029  13.715  0.00  0.00     0.245 C 
ATOM     17  O16 ZIN A   1      20.414   0.347  13.474  0.00  0.00    -0.272 OA
ATOM     18  H31 ZIN A   1      18.173   2.408  12.966  0.00  0.00     0.162 HD
BRANCH  16  19
ATOM     19  C17 ZIN A   1      18.777   0.946  15.065  0.00  0.00     0.368 C 
BRANCH  19  20
ATOM     20  N18 ZIN A   1      17.322   1.074  14.905  0.00  0.00     0.087 N 
ATOM     21  H34 ZIN A   1      17.040   2.043  14.925  0.00  0.00     0.313 HD
ATOM     22  H35 ZIN A   1      17.010   0.624  14.058  0.00  0.00     0.313 HD
ENDBRANCH  19  20
ENDBRANCH  16  19
ENDBRANCH  14  15
ENDBRANCH   1  14
TORSDOF 8
ENDMDL
MODEL 4
REMARK VINA RESULT:      -5.7      2.593      4.766
REMARK  8 active torsions:
REMARK  status: ('A' for Active; 'I' for Inactive)
REMARK    1  A    between atoms: O2_2  and  C3_3 
REMARK    2  A    between atoms: C6_6  and  O7_7 
REMARK    3  A    between atoms: C9_9  and  C10_10 
REMARK    4  A    between atoms: C10_10  and  O12_11 
REMARK    5  A    between atoms: C10_10  and  C13_12 
REMARK    6  A    between atoms: C13_12  and  N14_13 
REMARK       I    between atoms: N14_13  and  C15_14 
REMARK    7  A    between atoms: C15_14  and  C17_16 
REMARK    8  A    between atoms: C17_16  and  N18_17 
ROOT
ATOM      1  C10 ZIN A   1      20.572  -0.054  11.439  0.00  0.00     0.171 C 
ENDROOT
BRANCH   1   2
ATOM      2  C9  ZIN A   1      19.811   1.087  10.817  0.00  0.00     0.008 A 
ATOM      3  C6  ZIN A   1      19.278   0.954   9.544  0.00  0.00     0.077 A 
ATOM      4  C5  ZIN A   1      18.578   2.006   8.972  0.00  0.00     0.040 A 
ATOM      5  C4  ZIN A   1      18.410   3.186   9.670  0.00  0.00     0.039 A 
ATOM      6  C3  ZIN A   1      18.942   3.318  10.944  0.00  0.00     0.069 A 
ATOM      7  C19 ZIN A   1      19.647   2.269  11.514  0.00  0.00     0.049 A 
BRANCH   3   8
ATOM      8  O7  ZIN A   1      19.443  -0.207   8.855  0.00  0.00    -0.355 OA
ATOM      9  C8  ZIN A   1      18.969  -0.236   7.508  0.00  0.00     0.210 C 
ENDBRANCH   3   8
BRANCH   6  10
ATOM     10  O2  ZIN A   1      18.777   4.480  11.632  0.00  0.00    -0.356 OA
ATOM     11  C1  ZIN A   1      19.717   4.758  12.672  0.00  0.00     0.210 C 
ENDBRANCH   6  10
ENDBRANCH   1   2
BRANCH   1  12
ATOM     12  O12 ZIN A   1      21.626   0.462  12.253  0.00  0.00    -0.389 OA
ATOM     13  H28 ZIN A   1      21.853   1.384  12.065  0.00  0.00     0.210 HD
ENDBRANCH   1  12
BRANCH   1  14
ATOM     14  C13 ZIN A   1      19.624  -0.890  12.303  0.00  0.00     0.159 C 
BRANCH  14  15
ATOM     15  N14 ZIN A   1      19.201  -2.077  11.557  0.00  0.00    -0.357 N 
ATOM     16  C15 ZIN A   1      17.891  -2.300  11.332  0.00  0.00     0.245 C 
ATOM     17  O16 ZIN A   1      17.063  -1.517  11.748  0.00  0.00    -0.272 OA
ATOM     18  H31 ZIN A   1      19.863  -2.703  11.225  0.00  0.00     0.162 HD
BRANCH  16  19
ATOM     19  C17 ZIN A   1      17.455  -3.521  10.564  0.00  0.00     0.368 C 
BRANCH  19  20
ATOM     20  N18 ZIN A   1      16.826  -4.479  11.482  0.00  0.00     0.087 N 
ATOM     21  H34 ZIN A   1      15.895  -4.180  11.735  0.00  0.00     0.313 HD
ATOM     22  H35 ZIN A   1      16.812  -5.406  11.085  0.00  0.00     0.313 HD
ENDBRANCH  19  20
ENDBRANCH  16  19
ENDBRANCH  14  15
ENDBRANCH   1  14
TORSDOF 8
ENDMDL
MODEL 5
REMARK VINA RESULT:      -5.7      2.690      5.776
REMARK  8 active torsions:
REMARK  status: ('A' for Active; 'I' for Inactive)
REMARK    1  A    between atoms: O2_2  and  C3_3 
REMARK    2  A    between atoms: C6_6  and  O7_7 
REMARK    3  A    between atoms: C9_9  and  C10_10 
REMARK    4  A    between atoms: C10_10  and  O12_11 
REMARK    5  A    between atoms: C10_10  and  C13_12 
REMARK    6  A    between atoms: C13_12  and  N14_13 
REMARK       I    between atoms: N14_13  and  C15_14 
REMARK    7  A    between atoms: C15_14  and  C17_16 
REMARK    8  A    between atoms: C17_16  and  N18_17 
ROOT
ATOM      1  C10 ZIN A   1      20.512   0.894  12.044  0.00  0.00     0.171 C 
ENDROOT
BRANCH   1   2
ATOM      2  C9  ZIN A   1      19.774   0.186  13.150  0.00  0.00     0.008 A 
ATOM      3  C6  ZIN A   1      19.307  -1.106  12.957  0.00  0.00     0.077 A 
ATOM      4  C5  ZIN A   1      18.627  -1.757  13.975  0.00  0.00     0.040 A 
ATOM      5  C4  ZIN A   1      18.416  -1.120  15.182  0.00  0.00     0.039 A 
ATOM      6  C3  ZIN A   1      18.884   0.171  15.376  0.00  0.00     0.069 A 
ATOM      7  C19 ZIN A   1      19.559   0.825  14.356  0.00  0.00     0.049 A 
BRANCH   3   8
ATOM      8  O7  ZIN A   1      19.515  -1.733  11.768  0.00  0.00    -0.355 OA
ATOM      9  C8  ZIN A   1      19.776  -3.137  11.811  0.00  0.00     0.210 C 
ENDBRANCH   3   8
BRANCH   6  10
ATOM     10  O2  ZIN A   1      18.676   0.798  16.565  0.00  0.00    -0.356 OA
ATOM     11  C1  ZIN A   1      17.648   0.270  17.406  0.00  0.00     0.210 C 
ENDBRANCH   6  10
ENDBRANCH   1   2
BRANCH   1  12
ATOM     12  O12 ZIN A   1      21.533   0.037  11.527  0.00  0.00    -0.389 OA
ATOM     13  H28 ZIN A   1      21.540  -0.027  10.562  0.00  0.00     0.210 HD
ENDBRANCH   1  12
BRANCH   1  14
ATOM     14  C13 ZIN A   1      19.532   1.251  10.924  0.00  0.00     0.159 C 
BRANCH  14  15
ATOM     15  N14 ZIN A   1      19.225   2.682  10.982  0.00  0.00    -0.357 N 
ATOM     16  C15 ZIN A   1      17.956   3.092  11.182  0.00  0.00     0.245 C 
ATOM     17  O16 ZIN A   1      17.069   2.274  11.312  0.00  0.00    -0.272 OA
ATOM     18  H31 ZIN A   1      19.934   3.336  10.878  0.00  0.00     0.162 HD
BRANCH  16  19
ATOM     19  C17 ZIN A   1      17.640   4.563  11.243  0.00  0.00     0.368 C 
BRANCH  19  20
ATOM     20  N18 ZIN A   1      17.491   5.089   9.880  0.00  0.00     0.087 N 
ATOM     21  H34 ZIN A   1      17.685   4.375   9.193  0.00  0.00     0.313 HD
ATOM     22  H35 ZIN A   1      16.572   5.483   9.741  0.00  0.00     0.313 HD
ENDBRANCH  19  20
ENDBRANCH  16  19
ENDBRANCH  14  15
ENDBRANCH   1  14
TORSDOF 8
ENDMDL
MODEL 6
REMARK VINA RESULT:      -5.6      2.454      4.687
REMARK  8 active torsions:
REMARK  status: ('A' for Active; 'I' for Inactive)
REMARK    1  A    between atoms: O2_2  and  C3_3 
REMARK    2  A    between atoms: C6_6  and  O7_7 
REMARK    3  A    between atoms: C9_9  and  C10_10 
REMARK    4  A    between atoms: C10_10  and  O12_11 
REMARK    5  A    between atoms: C10_10  and  C13_12 
REMARK    6  A    between atoms: C13_12  and  N14_13 
REMARK       I    between atoms: N14_13  and  C15_14 
REMARK    7  A    between atoms: C15_14  and  C17_16 
REMARK    8  A    between atoms: C17_16  and  N18_17 
ROOT
ATOM      1  C10 ZIN A   1      19.671   0.816  13.389  0.00  0.00     0.171 C 
ENDROOT
BRANCH   1   2
ATOM      2  C9  ZIN A   1      19.043   1.591  12.259  0.00  0.00     0.008 A 
ATOM      3  C6  ZIN A   1      19.358   1.279  10.945  0.00  0.00     0.077 A 
ATOM      4  C5  ZIN A   1      18.780   1.992   9.906  0.00  0.00     0.040 A 
ATOM      5  C4  ZIN A   1      17.891   3.013  10.179  0.00  0.00     0.039 A 
ATOM      6  C3  ZIN A   1      17.575   3.324  11.493  0.00  0.00     0.069 A 
ATOM      7  C19 ZIN A   1      18.157   2.614  12.533  0.00  0.00     0.049 A 
BRANCH   3   8
ATOM      8  O7  ZIN A   1      20.235   0.274  10.676  0.00  0.00    -0.355 OA
ATOM      9  C8  ZIN A   1      20.087  -0.398   9.424  0.00  0.00     0.210 C 
ENDBRANCH   3   8
BRANCH   6  10
ATOM     10  O2  ZIN A   1      16.699   4.329  11.762  0.00  0.00    -0.356 OA
ATOM     11  C1  ZIN A   1      16.919   5.079  12.958  0.00  0.00     0.210 C 
ENDBRANCH   6  10
ENDBRANCH   1   2
BRANCH   1  12
ATOM     12  O12 ZIN A   1      19.730   1.638  14.556  0.00  0.00    -0.389 OA
ATOM     13  H28 ZIN A   1      20.541   1.532  15.072  0.00  0.00     0.210 HD
ENDBRANCH   1  12
BRANCH   1  14
ATOM     14  C13 ZIN A   1      18.830  -0.428  13.684  0.00  0.00     0.159 C 
BRANCH  14  15
ATOM     15  N14 ZIN A   1      19.493  -1.609  13.126  0.00  0.00    -0.357 N 
ATOM     16  C15 ZIN A   1      18.828  -2.419  12.279  0.00  0.00     0.245 C 
ATOM     17  O16 ZIN A   1      17.679  -2.169  11.979  0.00  0.00    -0.272 OA
ATOM     18  H31 ZIN A   1      20.412  -1.809  13.367  0.00  0.00     0.162 HD
BRANCH  16  19
ATOM     19  C17 ZIN A   1      19.510  -3.633  11.705  0.00  0.00     0.368 C 
BRANCH  19  20
ATOM     20  N18 ZIN A   1      20.916  -3.318  11.421  0.00  0.00     0.087 N 
ATOM     21  H34 ZIN A   1      21.008  -2.836  10.538  0.00  0.00     0.313 HD
ATOM     22  H35 ZIN A   1      21.325  -2.781  12.170  0.00  0.00     0.313 HD
ENDBRANCH  19  20
ENDBRANCH  16  19
ENDBRANCH  14  15
ENDBRANCH   1  14
TORSDOF 8
ENDMDL
MODEL 7
REMARK VINA RESULT:      -5.6      2.586      3.105
REMARK  8 active torsions:
REMARK  status: ('A' for Active; 'I' for Inactive)
REMARK    1  A    between atoms: O2_2  and  C3_3 
REMARK    2  A    between atoms: C6_6  and  O7_7 
REMARK    3  A    between atoms: C9_9  and  C10_10 
REMARK    4  A    between atoms: C10_10  and  O12_11 
REMARK    5  A    between atoms: C10_10  and  C13_12 
REMARK    6  A    between atoms: C13_12  and  N14_13 
REMARK       I    between atoms: N14_13  and  C15_14 
REMARK    7  A    between atoms: C15_14  and  C17_16 
REMARK    8  A    between atoms: C17_16  and  N18_17 
ROOT
ATOM      1  C10 ZIN A   1      18.646   3.420  10.563  0.00  0.00     0.171 C 
ENDROOT
BRANCH   1   2
ATOM      2  C9  ZIN A   1      18.419   2.221   9.680  0.00  0.00     0.008 A 
ATOM      3  C6  ZIN A   1      17.597   1.189  10.109  0.00  0.00     0.077 A 
ATOM      4  C5  ZIN A   1      17.388   0.085   9.297  0.00  0.00     0.040 A 
ATOM      5  C4  ZIN A   1      17.997   0.012   8.060  0.00  0.00     0.039 A 
ATOM      6  C3  ZIN A   1      18.819   1.044   7.630  0.00  0.00     0.069 A 
ATOM      7  C19 ZIN A   1      19.032   2.146   8.445  0.00  0.00     0.049 A 
BRANCH   3   8
ATOM      8  O7  ZIN A   1      16.996   1.260  11.328  0.00  0.00    -0.355 OA
ATOM      9  C8  ZIN A   1      16.952   0.059  12.101  0.00  0.00     0.210 C 
ENDBRANCH   3   8
BRANCH   6  10
ATOM     10  O2  ZIN A   1      19.419   0.972   6.412  0.00  0.00    -0.356 OA
ATOM     11  C1  ZIN A   1      18.877   0.038   5.475  0.00  0.00     0.210 C 
ENDBRANCH   6  10
ENDBRANCH   1   2
BRANCH   1  12
ATOM     12  O12 ZIN A   1      17.392   3.894  11.056  0.00  0.00    -0.389 OA
ATOM     13  H28 ZIN A   1      16.987   4.579  10.507  0.00  0.00     0.210 HD
ENDBRANCH   1  12
BRANCH   1  14
ATOM     14  C13 ZIN A   1      19.540   3.024  11.741  0.00  0.00     0.159 C 
BRANCH  14  15
ATOM     15  N14 ZIN A   1      19.960   4.228  12.462  0.00  0.00    -0.357 N 
ATOM     16  C15 ZIN A   1      19.340   4.580  13.606  0.00  0.00     0.245 C 
ATOM     17  O16 ZIN A   1      18.434   3.899  14.037  0.00  0.00    -0.272 OA
ATOM     18  H31 ZIN A   1      20.685   4.773  12.116  0.00  0.00     0.162 HD
BRANCH  16  19
ATOM     19  C17 ZIN A   1      19.772   5.818  14.347  0.00  0.00     0.368 C 
BRANCH  19  20
ATOM     20  N18 ZIN A   1      21.053   5.565  15.020  0.00  0.00     0.087 N 
ATOM     21  H34 ZIN A   1      21.582   6.419  15.124  0.00  0.00     0.313 HD
ATOM     22  H35 ZIN A   1      20.911   5.116  15.912  0.00  0.00     0.313 HD
ENDBRANCH  19  20
ENDBRANCH  16  19
ENDBRANCH  14  15
ENDBRANCH   1  14
TORSDOF 8
ENDMDL
MODEL 8
REMARK VINA RESULT:      -5.6      2.372      3.336
REMARK  8 active torsions:
REMARK  status: ('A' for Active; 'I' for Inactive)
REMARK    1  A    between atoms: O2_2  and  C3_3 
REMARK    2  A    between atoms: C6_6  and  O7_7 
REMARK    3  A    between atoms: C9_9  and  C10_10 
REMARK    4  A    between atoms: C10_10  and  O12_11 
REMARK    5  A    between atoms: C10_10  and  C13_12 
REMARK    6  A    between atoms: C13_12  and  N14_13 
REMARK       I    between atoms: N14_13  and  C15_14 
REMARK    7  A    between atoms: C15_14  and  C17_16 
REMARK    8  A    between atoms: C17_16  and  N18_17 
ROOT
ATOM      1  C10 ZIN A   1      20.616  -0.358  11.460  0.00  0.00     0.171 C 
ENDROOT
BRANCH   1   2
ATOM      2  C9  ZIN A   1      19.951   0.314  10.288  0.00  0.00     0.008 A 
ATOM      3  C6  ZIN A   1      19.427   1.591  10.426  0.00  0.00     0.077 A 
ATOM      4  C5  ZIN A   1      18.813   2.209   9.348  0.00  0.00     0.040 A 
ATOM      5  C4  ZIN A   1      18.724   1.555   8.135  0.00  0.00     0.039 A 
ATOM      6  C3  ZIN A   1      19.249   0.279   7.996  0.00  0.00     0.069 A 
ATOM      7  C19 ZIN A   1      19.858  -0.342   9.076  0.00  0.00     0.049 A 
BRANCH   3   8
ATOM      8  O7  ZIN A   1      19.513   2.236  11.621  0.00  0.00    -0.355 OA
ATOM      9  C8  ZIN A   1      18.296   2.735  12.179  0.00  0.00     0.210 C 
ENDBRANCH   3   8
BRANCH   6  10
ATOM     10  O2  ZIN A   1      19.162  -0.365   6.801  0.00  0.00    -0.356 OA
ATOM     11  C1  ZIN A   1      18.866   0.433   5.653  0.00  0.00     0.210 C 
ENDBRANCH   6  10
ENDBRANCH   1   2
BRANCH   1  12
ATOM     12  O12 ZIN A   1      21.525   0.554  12.080  0.00  0.00    -0.389 OA
ATOM     13  H28 ZIN A   1      22.395   0.175  12.269  0.00  0.00     0.210 HD
ENDBRANCH   1  12
BRANCH   1  14
ATOM     14  C13 ZIN A   1      19.553  -0.786  12.475  0.00  0.00     0.159 C 
BRANCH  14  15
ATOM     15  N14 ZIN A   1      19.061  -2.122  12.132  0.00  0.00    -0.357 N 
ATOM     16  C15 ZIN A   1      17.774  -2.294  11.767  0.00  0.00     0.245 C 
ATOM     17  O16 ZIN A   1      17.025  -1.342  11.724  0.00  0.00    -0.272 OA
ATOM     18  H31 ZIN A   1      19.661  -2.885  12.167  0.00  0.00     0.162 HD
BRANCH  16  19
ATOM     19  C17 ZIN A   1      17.268  -3.669  11.415  0.00  0.00     0.368 C 
BRANCH  19  20
ATOM     20  N18 ZIN A   1      17.473  -3.914   9.981  0.00  0.00     0.087 N 
ATOM     21  H34 ZIN A   1      16.968  -4.733   9.678  0.00  0.00     0.313 HD
ATOM     22  H35 ZIN A   1      17.214  -3.106   9.435  0.00  0.00     0.313 HD
ENDBRANCH  19  20
ENDBRANCH  16  19
ENDBRANCH  14  15
ENDBRANCH   1  14
TORSDOF 8
ENDMDL
MODEL 9
REMARK VINA RESULT:      -5.5      2.661      6.375
REMARK  8 active torsions:
REMARK  status: ('A' for Active; 'I' for Inactive)
REMARK    1  A    between atoms: O2_2  and  C3_3 
REMARK    2  A    between atoms: C6_6  and  O7_7 
REMARK    3  A    between atoms: C9_9  and  C10_10 
REMARK    4  A    between atoms: C10_10  and  O12_11 
REMARK    5  A    between atoms: C10_10  and  C13_12 
REMARK    6  A    between atoms: C13_12  and  N14_13 
REMARK       I    between atoms: N14_13  and  C15_14 
REMARK    7  A    between atoms: C15_14  and  C17_16 
REMARK    8  A    between atoms: C17_16  and  N18_17 
ROOT
ATOM      1  C10 ZIN A   1      20.543   1.099  12.365  0.00  0.00     0.171 C 
ENDROOT
BRANCH   1   2
ATOM      2  C9  ZIN A   1      19.786   0.334  13.419  0.00  0.00     0.008 A 
ATOM      3  C6  ZIN A   1      19.354  -0.959  13.162  0.00  0.00     0.077 A 
ATOM      4  C5  ZIN A   1      18.656  -1.662  14.131  0.00  0.00     0.040 A 
ATOM      5  C4  ZIN A   1      18.391  -1.077  15.354  0.00  0.00     0.039 A 
ATOM      6  C3  ZIN A   1      18.824   0.216  15.612  0.00  0.00     0.069 A 
ATOM      7  C19 ZIN A   1      19.518   0.922  14.639  0.00  0.00     0.049 A 
BRANCH   3   8
ATOM      8  O7  ZIN A   1      19.614  -1.536  11.957  0.00  0.00    -0.355 OA
ATOM      9  C8  ZIN A   1      18.632  -2.439  11.446  0.00  0.00     0.210 C 
ENDBRANCH   3   8
BRANCH   6  10
ATOM     10  O2  ZIN A   1      18.564   0.792  16.815  0.00  0.00    -0.356 OA
ATOM     11  C1  ZIN A   1      19.304   0.311  17.939  0.00  0.00     0.210 C 
ENDBRANCH   6  10
ENDBRANCH   1   2
BRANCH   1  12
ATOM     12  O12 ZIN A   1      21.527   0.249  11.773  0.00  0.00    -0.389 OA
ATOM     13  H28 ZIN A   1      21.158  -0.489  11.269  0.00  0.00     0.210 HD
ENDBRANCH   1  12
BRANCH   1  14
ATOM     14  C13 ZIN A   1      19.570   1.580  11.285  0.00  0.00     0.159 C 
BRANCH  14  15
ATOM     15  N14 ZIN A   1      19.856   0.888  10.026  0.00  0.00    -0.357 N 
ATOM     16  C15 ZIN A   1      18.849   0.558   9.194  0.00  0.00     0.245 C 
ATOM     17  O16 ZIN A   1      17.705   0.833   9.489  0.00  0.00    -0.272 OA
ATOM     18  H31 ZIN A   1      20.772   0.667   9.791  0.00  0.00     0.162 HD
BRANCH  16  19
ATOM     19  C17 ZIN A   1      19.143  -0.154   7.899  0.00  0.00     0.368 C 
BRANCH  19  20
ATOM     20  N18 ZIN A   1      18.826   0.731   6.770  0.00  0.00     0.087 N 
ATOM     21  H34 ZIN A   1      19.358   1.588   6.822  0.00  0.00     0.313 HD
ATOM     22  H35 ZIN A   1      18.978   0.264   5.890  0.00  0.00     0.313 HD
ENDBRANCH  19  20
ENDBRANCH  16  19
ENDBRANCH  14  15
ENDBRANCH   1  14
TORSDOF 8
ENDMDL
