MODEL 1
REMARK VINA RESULT:      -9.3      0.000      0.000
REMARK  4 active torsions:
REMARK  status: ('A' for Active; 'I' for Inactive)
REMARK    1  A    between atoms: C26_21  and  O28_22 
REMARK    2  A    between atoms: C32_26  and  C33_27 
REMARK    3  A    between atoms: C33_27  and  C35_29 
REMARK    4  A    between atoms: C35_29  and  O36_30 
ROOT
ATOM      1  C1  ZIN A   1      16.739   5.945  13.074  0.00  0.00     0.078 C 
ATOM      2  C2  ZIN A   1      17.423   4.716  12.474  0.00  0.00     0.159 C 
ATOM      3  C3  ZIN A   1      16.805   4.403  11.110  0.00  0.00     0.078 C 
ATOM      4  O4  ZIN A   1      18.821   4.978  12.314  0.00  0.00    -0.347 OA
ATOM      5  C5  ZIN A   1      19.519   3.792  12.726  0.00  0.00     0.168 C 
ATOM      6  C7  ZIN A   1      19.657   2.836  11.519  0.00  0.00     0.041 C 
ATOM      7  C8  ZIN A   1      18.699   1.683  11.803  0.00  0.00     0.004 C 
ATOM      8  C10 ZIN A   1      19.121   0.314  11.306  0.00  0.00     0.001 C 
ATOM      9  C12 ZIN A   1      19.257   0.333   9.781  0.00  0.00     0.047 C 
ATOM     10  C13 ZIN A   1      19.748  -1.034   9.302  0.00  0.00     0.200 C 
ATOM     11  F15 ZIN A   1      19.772  -1.061   7.904  0.00  0.00    -0.245 F 
ATOM     12  C16 ZIN A   1      18.799  -2.101   9.818  0.00  0.00    -0.034 C 
ATOM     13  C17 ZIN A   1      18.349  -3.004   8.947  0.00  0.00     0.056 C 
ATOM     14  C18 ZIN A   1      17.442  -4.067   9.394  0.00  0.00     0.149 C 
ATOM     15  O19 ZIN A   1      16.720  -4.659   8.619  0.00  0.00    -0.293 OA
ATOM     16  C20 ZIN A   1      17.455  -4.387  10.875  0.00  0.00     0.084 C 
ATOM     17  C21 ZIN A   1      17.319  -3.066  11.630  0.00  0.00     0.022 C 
ATOM     18  C22 ZIN A   1      18.429  -2.094  11.270  0.00  0.00    -0.011 C 
ATOM     19  C23 ZIN A   1      19.672  -2.473  12.078  0.00  0.00     0.021 C 
ATOM     20  C24 ZIN A   1      18.026  -0.684  11.712  0.00  0.00     0.031 C 
ATOM     21  C26 ZIN A   1      17.777  -0.681  13.218  0.00  0.00     0.124 C 
ATOM     22  C29 ZIN A   1      17.482   0.732  13.745  0.00  0.00     0.045 C 
ATOM     23  C30 ZIN A   1      18.662   1.624  13.354  0.00  0.00     0.004 C 
ATOM     24  C31 ZIN A   1      19.973   1.036  13.878  0.00  0.00     0.019 C 
ATOM     25  C32 ZIN A   1      18.541   3.122  13.739  0.00  0.00     0.160 C 
ATOM     26  O37 ZIN A   1      17.244   3.598  13.346  0.00  0.00    -0.334 OA
ENDROOT
BRANCH  25  27
ATOM     27  C33 ZIN A   1      18.887   3.389  15.181  0.00  0.00     0.188 C 
ATOM     28  O34 ZIN A   1      18.440   2.681  16.052  0.00  0.00    -0.292 OA
BRANCH  27  29
ATOM     29  C35 ZIN A   1      19.794   4.540  15.537  0.00  0.00     0.245 C 
BRANCH  29  30
ATOM     30  O36 ZIN A   1      20.791   4.093  16.459  0.00  0.00    -0.393 OA
ATOM     31  H64 ZIN A   1      21.586   3.740  16.037  0.00  0.00     0.209 HD
ENDBRANCH  29  30
ENDBRANCH  27  29
ENDBRANCH  25  27
BRANCH  21  32
ATOM     32  O28 ZIN A   1      18.935  -1.193  13.882  0.00  0.00    -0.395 OA
ATOM     33  H56 ZIN A   1      19.727  -0.653  13.761  0.00  0.00     0.210 HD
ENDBRANCH  21  32
TORSDOF 4
ENDMDL
MODEL 2
REMARK VINA RESULT:      -9.3      2.289      7.793
REMARK  4 active torsions:
REMARK  status: ('A' for Active; 'I' for Inactive)
REMARK    1  A    between atoms: C26_21  and  O28_22 
REMARK    2  A    between atoms: C32_26  and  C33_27 
REMARK    3  A    between atoms: C33_27  and  C35_29 
REMARK    4  A    between atoms: C35_29  and  O36_30 
ROOT
ATOM      1  C1  ZIN A   1      16.574  -6.022   9.551  0.00  0.00     0.078 C 
ATOM      2  C2  ZIN A   1      17.292  -4.801  10.128  0.00  0.00     0.159 C 
ATOM      3  C3  ZIN A   1      16.698  -4.457  11.495  0.00  0.00     0.078 C 
ATOM      4  O4  ZIN A   1      18.685  -5.091  10.274  0.00  0.00    -0.347 OA
ATOM      5  C5  ZIN A   1      19.404  -3.927   9.839  0.00  0.00     0.168 C 
ATOM      6  C7  ZIN A   1      19.578  -2.958  11.032  0.00  0.00     0.041 C 
ATOM      7  C8  ZIN A   1      18.642  -1.789  10.745  0.00  0.00     0.004 C 
ATOM      8  C10 ZIN A   1      19.099  -0.423  11.220  0.00  0.00     0.001 C 
ATOM      9  C12 ZIN A   1      19.253  -0.427  12.743  0.00  0.00     0.047 C 
ATOM     10  C13 ZIN A   1      19.780   0.936  13.199  0.00  0.00     0.200 C 
ATOM     11  F15 ZIN A   1      19.822   0.979  14.597  0.00  0.00    -0.245 F 
ATOM     12  C16 ZIN A   1      18.848   2.017  12.682  0.00  0.00    -0.034 C 
ATOM     13  C17 ZIN A   1      18.428   2.940  13.547  0.00  0.00     0.056 C 
ATOM     14  C18 ZIN A   1      17.540   4.016  13.098  0.00  0.00     0.149 C 
ATOM     15  O19 ZIN A   1      16.840   4.634  13.874  0.00  0.00    -0.293 OA
ATOM     16  C20 ZIN A   1      17.541   4.318  11.612  0.00  0.00     0.084 C 
ATOM     17  C21 ZIN A   1      17.367   2.991  10.876  0.00  0.00     0.022 C 
ATOM     18  C22 ZIN A   1      18.461   1.999  11.235  0.00  0.00    -0.011 C 
ATOM     19  C23 ZIN A   1      19.701   2.342  10.408  0.00  0.00     0.021 C 
ATOM     20  C24 ZIN A   1      18.022   0.593  10.815  0.00  0.00     0.031 C 
ATOM     21  C26 ZIN A   1      17.754   0.578   9.312  0.00  0.00     0.124 C 
ATOM     22  C29 ZIN A   1      17.421  -0.834   8.807  0.00  0.00     0.045 C 
ATOM     23  C30 ZIN A   1      18.586  -1.747   9.195  0.00  0.00     0.004 C 
ATOM     24  C31 ZIN A   1      19.904  -1.195   8.647  0.00  0.00     0.019 C 
ATOM     25  C32 ZIN A   1      18.428  -3.247   8.830  0.00  0.00     0.160 C 
ATOM     26  O37 ZIN A   1      17.127  -3.690   9.244  0.00  0.00    -0.334 OA
ENDROOT
BRANCH  25  27
ATOM     27  C33 ZIN A   1      18.751  -3.539   7.387  0.00  0.00     0.188 C 
ATOM     28  O34 ZIN A   1      18.211  -2.913   6.507  0.00  0.00    -0.292 OA
BRANCH  27  29
ATOM     29  C35 ZIN A   1      19.751  -4.614   7.041  0.00  0.00     0.245 C 
BRANCH  29  30
ATOM     30  O36 ZIN A   1      21.000  -4.010   6.697  0.00  0.00    -0.393 OA
ATOM     31  H64 ZIN A   1      21.235  -4.099   5.763  0.00  0.00     0.209 HD
ENDBRANCH  29  30
ENDBRANCH  27  29
ENDBRANCH  25  27
BRANCH  21  32
ATOM     32  O28 ZIN A   1      18.914   1.056   8.628  0.00  0.00    -0.395 OA
ATOM     33  H56 ZIN A   1      18.725   1.718   7.950  0.00  0.00     0.210 HD
ENDBRANCH  21  32
TORSDOF 4
ENDMDL
MODEL 3
REMARK VINA RESULT:      -9.2      2.167      3.560
REMARK  4 active torsions:
REMARK  status: ('A' for Active; 'I' for Inactive)
REMARK    1  A    between atoms: C26_21  and  O28_22 
REMARK    2  A    between atoms: C32_26  and  C33_27 
REMARK    3  A    between atoms: C33_27  and  C35_29 
REMARK    4  A    between atoms: C35_29  and  O36_30 
ROOT
ATOM      1  C1  ZIN A   1      17.889   3.197  12.105  0.00  0.00     0.078 C 
ATOM      2  C2  ZIN A   1      18.317   1.952  11.327  0.00  0.00     0.159 C 
ATOM      3  C3  ZIN A   1      17.787   2.036   9.894  0.00  0.00     0.078 C 
ATOM      4  O4  ZIN A   1      19.745   1.872  11.302  0.00  0.00    -0.347 OA
ATOM      5  C5  ZIN A   1      20.093   0.497  11.526  0.00  0.00     0.168 C 
ATOM      6  C7  ZIN A   1      20.122  -0.249  10.172  0.00  0.00     0.041 C 
ATOM      7  C8  ZIN A   1      18.892  -1.151  10.179  0.00  0.00     0.004 C 
ATOM      8  C10 ZIN A   1      19.024  -2.480   9.461  0.00  0.00     0.001 C 
ATOM      9  C12 ZIN A   1      19.317  -2.243   7.977  0.00  0.00     0.047 C 
ATOM     10  C13 ZIN A   1      19.513  -3.592   7.282  0.00  0.00     0.200 C 
ATOM     11  F15 ZIN A   1      19.676  -3.392   5.907  0.00  0.00    -0.245 F 
ATOM     12  C16 ZIN A   1      18.289  -4.453   7.532  0.00  0.00    -0.034 C 
ATOM     13  C17 ZIN A   1      17.728  -5.054   6.483  0.00  0.00     0.056 C 
ATOM     14  C18 ZIN A   1      16.553  -5.910   6.669  0.00  0.00     0.149 C 
ATOM     15  O19 ZIN A   1      15.794  -6.163   5.756  0.00  0.00    -0.293 OA
ATOM     16  C20 ZIN A   1      16.334  -6.464   8.063  0.00  0.00     0.084 C 
ATOM     17  C21 ZIN A   1      16.441  -5.296   9.041  0.00  0.00     0.022 C 
ATOM     18  C22 ZIN A   1      17.783  -4.593   8.935  0.00  0.00    -0.011 C 
ATOM     19  C23 ZIN A   1      18.808  -5.404   9.730  0.00  0.00     0.021 C 
ATOM     20  C24 ZIN A   1      17.686  -3.220   9.608  0.00  0.00     0.031 C 
ATOM     21  C26 ZIN A   1      17.289  -3.404  11.070  0.00  0.00     0.124 C 
ATOM     22  C29 ZIN A   1      17.288  -2.071  11.833  0.00  0.00     0.045 C 
ATOM     23  C30 ZIN A   1      18.681  -1.455  11.686  0.00  0.00     0.004 C 
ATOM     24  C31 ZIN A   1      19.752  -2.436  12.168  0.00  0.00     0.019 C 
ATOM     25  C32 ZIN A   1      18.883  -0.062  12.336  0.00  0.00     0.160 C 
ATOM     26  O37 ZIN A   1      17.786   0.787  11.963  0.00  0.00    -0.334 OA
ENDROOT
BRANCH  25  27
ATOM     27  C33 ZIN A   1      19.132  -0.134  13.821  0.00  0.00     0.188 C 
ATOM     28  O34 ZIN A   1      20.258  -0.061  14.250  0.00  0.00    -0.292 OA
BRANCH  27  29
ATOM     29  C35 ZIN A   1      17.973  -0.297  14.772  0.00  0.00     0.245 C 
BRANCH  29  30
ATOM     30  O36 ZIN A   1      17.253   0.934  14.861  0.00  0.00    -0.393 OA
ATOM     31  H64 ZIN A   1      17.437   1.441  15.664  0.00  0.00     0.209 HD
ENDBRANCH  29  30
ENDBRANCH  27  29
ENDBRANCH  25  27
BRANCH  21  32
ATOM     32  O28 ZIN A   1      18.215  -4.296  11.695  0.00  0.00    -0.395 OA
ATOM     33  H56 ZIN A   1      17.990  -5.231  11.594  0.00  0.00     0.210 HD
ENDBRANCH  21  32
TORSDOF 4
ENDMDL
MODEL 4
REMARK VINA RESULT:      -8.4      2.837      7.559
REMARK  4 active torsions:
REMARK  status: ('A' for Active; 'I' for Inactive)
REMARK    1  A    between atoms: C26_21  and  O28_22 
REMARK    2  A    between atoms: C32_26  and  C33_27 
REMARK    3  A    between atoms: C33_27  and  C35_29 
REMARK    4  A    between atoms: C35_29  and  O36_30 
ROOT
ATOM      1  C1  ZIN A   1      17.791  -2.951  10.798  0.00  0.00     0.078 C 
ATOM      2  C2  ZIN A   1      18.236  -1.785  11.682  0.00  0.00     0.159 C 
ATOM      3  C3  ZIN A   1      17.609  -1.928  13.070  0.00  0.00     0.078 C 
ATOM      4  O4  ZIN A   1      19.661  -1.793  11.800  0.00  0.00    -0.347 OA
ATOM      5  C5  ZIN A   1      20.099  -0.430  11.690  0.00  0.00     0.168 C 
ATOM      6  C7  ZIN A   1      20.081   0.227  13.090  0.00  0.00     0.041 C 
ATOM      7  C8  ZIN A   1      18.906   1.199  13.068  0.00  0.00     0.004 C 
ATOM      8  C10 ZIN A   1      19.064   2.470  13.880  0.00  0.00     0.001 C 
ATOM      9  C12 ZIN A   1      19.246   2.123  15.360  0.00  0.00     0.047 C 
ATOM     10  C13 ZIN A   1      19.472   3.411  16.155  0.00  0.00     0.200 C 
ATOM     11  F15 ZIN A   1      19.533   3.115  17.520  0.00  0.00    -0.245 F 
ATOM     12  C16 ZIN A   1      18.316   4.357  15.888  0.00  0.00    -0.034 C 
ATOM     13  C17 ZIN A   1      17.722   4.924  16.938  0.00  0.00     0.056 C 
ATOM     14  C18 ZIN A   1      16.611   5.859  16.737  0.00  0.00     0.149 C 
ATOM     15  O19 ZIN A   1      15.809   6.098  17.617  0.00  0.00    -0.293 OA
ATOM     16  C20 ZIN A   1      16.515   6.511  15.372  0.00  0.00     0.084 C 
ATOM     17  C21 ZIN A   1      16.620   5.403  14.327  0.00  0.00     0.022 C 
ATOM     18  C22 ZIN A   1      17.911   4.615  14.468  0.00  0.00    -0.011 C 
ATOM     19  C23 ZIN A   1      19.029   5.413  13.794  0.00  0.00     0.021 C 
ATOM     20  C24 ZIN A   1      17.782   3.296  13.700  0.00  0.00     0.031 C 
ATOM     21  C26 ZIN A   1      17.493   3.596  12.232  0.00  0.00     0.124 C 
ATOM     22  C29 ZIN A   1      17.467   2.316  11.383  0.00  0.00     0.045 C 
ATOM     23  C30 ZIN A   1      18.811   1.610  11.574  0.00  0.00     0.004 C 
ATOM     24  C31 ZIN A   1      19.964   2.554  11.226  0.00  0.00     0.019 C 
ATOM     25  C32 ZIN A   1      18.977   0.250  10.846  0.00  0.00     0.160 C 
ATOM     26  O37 ZIN A   1      17.813  -0.553  11.093  0.00  0.00    -0.334 OA
ENDROOT
BRANCH  25  27
ATOM     27  C33 ZIN A   1      19.326   0.402   9.388  0.00  0.00     0.188 C 
ATOM     28  O34 ZIN A   1      20.441   0.142   9.003  0.00  0.00    -0.292 OA
BRANCH  27  29
ATOM     29  C35 ZIN A   1      18.283   0.877   8.409  0.00  0.00     0.245 C 
BRANCH  29  30
ATOM     30  O36 ZIN A   1      17.202  -0.057   8.374  0.00  0.00    -0.393 OA
ATOM     31  H64 ZIN A   1      16.812  -0.175   7.497  0.00  0.00     0.209 HD
ENDBRANCH  29  30
ENDBRANCH  27  29
ENDBRANCH  25  27
BRANCH  21  32
ATOM     32  O28 ZIN A   1      18.506   4.469  11.726  0.00  0.00    -0.395 OA
ATOM     33  H56 ZIN A   1      19.371   4.050  11.628  0.00  0.00     0.210 HD
ENDBRANCH  21  32
TORSDOF 4
ENDMDL
MODEL 5
REMARK VINA RESULT:      -8.1      2.226      4.235
REMARK  4 active torsions:
REMARK  status: ('A' for Active; 'I' for Inactive)
REMARK    1  A    between atoms: C26_21  and  O28_22 
REMARK    2  A    between atoms: C32_26  and  C33_27 
REMARK    3  A    between atoms: C33_27  and  C35_29 
REMARK    4  A    between atoms: C35_29  and  O36_30 
ROOT
ATOM      1  C1  ZIN A   1      19.627   1.701  15.341  0.00  0.00     0.078 C 
ATOM      2  C2  ZIN A   1      19.039   0.772  14.278  0.00  0.00     0.159 C 
ATOM      3  C3  ZIN A   1      19.511  -0.661  14.535  0.00  0.00     0.078 C 
ATOM      4  O4  ZIN A   1      17.611   0.821  14.338  0.00  0.00    -0.347 OA
ATOM      5  C5  ZIN A   1      17.135   0.855  12.984  0.00  0.00     0.168 C 
ATOM      6  C7  ZIN A   1      16.968  -0.592  12.464  0.00  0.00     0.041 C 
ATOM      7  C8  ZIN A   1      18.099  -0.795  11.461  0.00  0.00     0.004 C 
ATOM      8  C10 ZIN A   1      17.800  -1.696  10.278  0.00  0.00     0.001 C 
ATOM      9  C12 ZIN A   1      17.466  -3.107  10.771  0.00  0.00     0.047 C 
ATOM     10  C13 ZIN A   1      17.102  -3.985   9.572  0.00  0.00     0.200 C 
ATOM     11  F15 ZIN A   1      16.899  -5.302   9.999  0.00  0.00    -0.245 F 
ATOM     12  C16 ZIN A   1      18.242  -3.942   8.571  0.00  0.00    -0.034 C 
ATOM     13  C17 ZIN A   1      18.690  -5.101   8.091  0.00  0.00     0.056 C 
ATOM     14  C18 ZIN A   1      19.779  -5.117   7.109  0.00  0.00     0.149 C 
ATOM     15  O19 ZIN A   1      20.466  -6.102   6.932  0.00  0.00    -0.293 OA
ATOM     16  C20 ZIN A   1      20.002  -3.839   6.326  0.00  0.00     0.084 C 
ATOM     17  C21 ZIN A   1      20.060  -2.690   7.332  0.00  0.00     0.022 C 
ATOM     18  C22 ZIN A   1      18.793  -2.608   8.167  0.00  0.00    -0.011 C 
ATOM     19  C23 ZIN A   1      17.727  -1.885   7.341  0.00  0.00     0.021 C 
ATOM     20  C24 ZIN A   1      19.061  -1.743   9.402  0.00  0.00     0.031 C 
ATOM     21  C26 ZIN A   1      19.501  -0.352   8.955  0.00  0.00     0.124 C 
ATOM     22  C29 ZIN A   1      19.673   0.602  10.147  0.00  0.00     0.045 C 
ATOM     23  C30 ZIN A   1      18.345   0.633  10.906  0.00  0.00     0.004 C 
ATOM     24  C31 ZIN A   1      17.202   1.026   9.968  0.00  0.00     0.019 C 
ATOM     25  C32 ZIN A   1      18.316   1.498  12.194  0.00  0.00     0.160 C 
ATOM     26  O37 ZIN A   1      19.477   1.192  12.984  0.00  0.00    -0.334 OA
ENDROOT
BRANCH  25  27
ATOM     27  C33 ZIN A   1      18.128   2.967  11.914  0.00  0.00     0.188 C 
ATOM     28  O34 ZIN A   1      17.057   3.488  12.113  0.00  0.00    -0.292 OA
BRANCH  27  29
ATOM     29  C35 ZIN A   1      19.278   3.787  11.387  0.00  0.00     0.245 C 
BRANCH  29  30
ATOM     30  O36 ZIN A   1      20.406   3.636  12.252  0.00  0.00    -0.393 OA
ATOM     31  H64 ZIN A   1      21.229   3.993  11.890  0.00  0.00     0.209 HD
ENDBRANCH  29  30
ENDBRANCH  27  29
ENDBRANCH  25  27
BRANCH  21  32
ATOM     32  O28 ZIN A   1      18.518   0.186   8.068  0.00  0.00    -0.395 OA
ATOM     33  H56 ZIN A   1      18.860   0.413   7.193  0.00  0.00     0.210 HD
ENDBRANCH  21  32
TORSDOF 4
ENDMDL
MODEL 6
REMARK VINA RESULT:      -7.9      2.398      7.065
REMARK  4 active torsions:
REMARK  status: ('A' for Active; 'I' for Inactive)
REMARK    1  A    between atoms: C26_21  and  O28_22 
REMARK    2  A    between atoms: C32_26  and  C33_27 
REMARK    3  A    between atoms: C33_27  and  C35_29 
REMARK    4  A    between atoms: C35_29  and  O36_30 
ROOT
ATOM      1  C1  ZIN A   1      19.748  -1.874   7.556  0.00  0.00     0.078 C 
ATOM      2  C2  ZIN A   1      19.123  -0.848   8.503  0.00  0.00     0.159 C 
ATOM      3  C3  ZIN A   1      19.503   0.563   8.051  0.00  0.00     0.078 C 
ATOM      4  O4  ZIN A   1      17.700  -0.987   8.484  0.00  0.00    -0.347 OA
ATOM      5  C5  ZIN A   1      17.249  -0.871   9.843  0.00  0.00     0.168 C 
ATOM      6  C7  ZIN A   1      17.004   0.619  10.174  0.00  0.00     0.041 C 
ATOM      7  C8  ZIN A   1      18.137   1.017  11.116  0.00  0.00     0.004 C 
ATOM      8  C10 ZIN A   1      17.804   2.046  12.178  0.00  0.00     0.001 C 
ATOM      9  C12 ZIN A   1      17.378   3.359  11.515  0.00  0.00     0.047 C 
ATOM     10  C13 ZIN A   1      16.981   4.364  12.598  0.00  0.00     0.200 C 
ATOM     11  F15 ZIN A   1      16.693   5.600  12.010  0.00  0.00    -0.245 F 
ATOM     12  C16 ZIN A   1      18.138   4.518  13.569  0.00  0.00    -0.034 C 
ATOM     13  C17 ZIN A   1      18.524   5.754  13.883  0.00  0.00     0.056 C 
ATOM     14  C18 ZIN A   1      19.626   5.961  14.828  0.00  0.00     0.149 C 
ATOM     15  O19 ZIN A   1      20.255   6.998  14.859  0.00  0.00    -0.293 OA
ATOM     16  C20 ZIN A   1      19.938   4.810  15.765  0.00  0.00     0.084 C 
ATOM     17  C21 ZIN A   1      20.048   3.546  14.915  0.00  0.00     0.022 C 
ATOM     18  C22 ZIN A   1      18.775   3.283  14.129  0.00  0.00    -0.011 C 
ATOM     19  C23 ZIN A   1      17.769   2.614  15.067  0.00  0.00     0.021 C 
ATOM     20  C24 ZIN A   1      19.074   2.280  13.010  0.00  0.00     0.031 C 
ATOM     21  C26 ZIN A   1      19.605   0.987  13.623  0.00  0.00     0.124 C 
ATOM     22  C29 ZIN A   1      19.814  -0.104  12.561  0.00  0.00     0.045 C 
ATOM     23  C30 ZIN A   1      18.478  -0.310  11.845  0.00  0.00     0.004 C 
ATOM     24  C31 ZIN A   1      17.376  -0.641  12.854  0.00  0.00     0.019 C 
ATOM     25  C32 ZIN A   1      18.480  -1.336  10.680  0.00  0.00     0.160 C 
ATOM     26  O37 ZIN A   1      19.606  -1.070   9.830  0.00  0.00    -0.334 OA
ENDROOT
BRANCH  25  27
ATOM     27  C33 ZIN A   1      18.385  -2.764  11.153  0.00  0.00     0.188 C 
ATOM     28  O34 ZIN A   1      17.373  -3.396  10.966  0.00  0.00    -0.292 OA
BRANCH  27  29
ATOM     29  C35 ZIN A   1      19.554  -3.403  11.858  0.00  0.00     0.245 C 
BRANCH  29  30
ATOM     30  O36 ZIN A   1      20.751  -3.153  11.118  0.00  0.00    -0.393 OA
ATOM     31  H64 ZIN A   1      21.013  -2.223  11.098  0.00  0.00     0.209 HD
ENDBRANCH  29  30
ENDBRANCH  27  29
ENDBRANCH  25  27
BRANCH  21  32
ATOM     32  O28 ZIN A   1      18.670   0.514  14.596  0.00  0.00    -0.395 OA
ATOM     33  H56 ZIN A   1      17.746   0.587  14.320  0.00  0.00     0.210 HD
ENDBRANCH  21  32
TORSDOF 4
ENDMDL
MODEL 7
REMARK VINA RESULT:      -7.6      4.090      6.696
REMARK  4 active torsions:
REMARK  status: ('A' for Active; 'I' for Inactive)
REMARK    1  A    between atoms: C26_21  and  O28_22 
REMARK    2  A    between atoms: C32_26  and  C33_27 
REMARK    3  A    between atoms: C33_27  and  C35_29 
REMARK    4  A    between atoms: C35_29  and  O36_30 
ROOT
ATOM      1  C1  ZIN A   1      17.826   1.060   9.487  0.00  0.00     0.078 C 
ATOM      2  C2  ZIN A   1      17.978  -0.275   8.756  0.00  0.00     0.159 C 
ATOM      3  C3  ZIN A   1      17.130  -0.259   7.482  0.00  0.00     0.078 C 
ATOM      4  O4  ZIN A   1      19.352  -0.475   8.410  0.00  0.00    -0.347 OA
ATOM      5  C5  ZIN A   1      19.655  -1.852   8.680  0.00  0.00     0.168 C 
ATOM      6  C7  ZIN A   1      19.316  -2.704   7.435  0.00  0.00     0.041 C 
ATOM      7  C8  ZIN A   1      18.068  -3.496   7.812  0.00  0.00     0.004 C 
ATOM      8  C10 ZIN A   1      17.942  -4.884   7.215  0.00  0.00     0.001 C 
ATOM      9  C12 ZIN A   1      17.890  -4.791   5.688  0.00  0.00     0.047 C 
ATOM     10  C13 ZIN A   1      17.830  -6.202   5.099  0.00  0.00     0.200 C 
ATOM     11  F15 ZIN A   1      17.675  -6.126   3.711  0.00  0.00    -0.245 F 
ATOM     12  C16 ZIN A   1      16.648  -6.935   5.707  0.00  0.00    -0.034 C 
ATOM     13  C17 ZIN A   1      15.818  -7.568   4.879  0.00  0.00     0.056 C 
ATOM     14  C18 ZIN A   1      14.669  -8.305   5.413  0.00  0.00     0.149 C 
ATOM     15  O19 ZIN A   1      13.701  -8.565   4.728  0.00  0.00    -0.293 OA
ATOM     16  C20 ZIN A   1      14.753  -8.727   6.867  0.00  0.00     0.084 C 
ATOM     17  C21 ZIN A   1      15.161  -7.498   7.676  0.00  0.00     0.022 C 
ATOM     18  C22 ZIN A   1      16.482  -6.920   7.196  0.00  0.00    -0.011 C 
ATOM     19  C23 ZIN A   1      17.613  -7.749   7.808  0.00  0.00     0.021 C 
ATOM     20  C24 ZIN A   1      16.633  -5.495   7.737  0.00  0.00     0.031 C 
ATOM     21  C26 ZIN A   1      16.584  -5.529   9.263  0.00  0.00     0.124 C 
ATOM     22  C29 ZIN A   1      16.847  -4.143   9.872  0.00  0.00     0.045 C 
ATOM     23  C30 ZIN A   1      18.202  -3.661   9.349  0.00  0.00     0.004 C 
ATOM     24  C31 ZIN A   1      19.293  -4.687   9.664  0.00  0.00     0.019 C 
ATOM     25  C32 ZIN A   1      18.639  -2.242   9.797  0.00  0.00     0.160 C 
ATOM     26  O37 ZIN A   1      17.541  -1.336   9.607  0.00  0.00    -0.334 OA
ENDROOT
BRANCH  25  27
ATOM     27  C33 ZIN A   1      19.228  -2.217  11.185  0.00  0.00     0.188 C 
ATOM     28  O34 ZIN A   1      20.419  -2.084  11.334  0.00  0.00    -0.292 OA
BRANCH  27  29
ATOM     29  C35 ZIN A   1      18.329  -2.357  12.387  0.00  0.00     0.245 C 
BRANCH  29  30
ATOM     30  O36 ZIN A   1      17.220  -1.465  12.260  0.00  0.00    -0.393 OA
ATOM     31  H64 ZIN A   1      17.184  -1.002  11.411  0.00  0.00     0.209 HD
ENDBRANCH  29  30
ENDBRANCH  27  29
ENDBRANCH  25  27
BRANCH  21  32
ATOM     32  O28 ZIN A   1      17.574  -6.443   9.740  0.00  0.00    -0.395 OA
ATOM     33  H56 ZIN A   1      18.481  -6.184   9.530  0.00  0.00     0.210 HD
ENDBRANCH  21  32
TORSDOF 4
ENDMDL
MODEL 8
REMARK VINA RESULT:      -6.8      2.407      7.158
REMARK  4 active torsions:
REMARK  status: ('A' for Active; 'I' for Inactive)
REMARK    1  A    between atoms: C26_21  and  O28_22 
REMARK    2  A    between atoms: C32_26  and  C33_27 
REMARK    3  A    between atoms: C33_27  and  C35_29 
REMARK    4  A    between atoms: C35_29  and  O36_30 
ROOT
ATOM      1  C1  ZIN A   1      19.636  -1.270   7.206  0.00  0.00     0.078 C 
ATOM      2  C2  ZIN A   1      19.066  -0.322   8.263  0.00  0.00     0.159 C 
ATOM      3  C3  ZIN A   1      19.667   1.073   8.075  0.00  0.00     0.078 C 
ATOM      4  O4  ZIN A   1      17.644  -0.251   8.122  0.00  0.00    -0.347 OA
ATOM      5  C5  ZIN A   1      17.090  -0.280   9.446  0.00  0.00     0.168 C 
ATOM      6  C7  ZIN A   1      17.013   1.162  10.000  0.00  0.00     0.041 C 
ATOM      7  C8  ZIN A   1      18.097   1.245  11.070  0.00  0.00     0.004 C 
ATOM      8  C10 ZIN A   1      17.805   2.137  12.261  0.00  0.00     0.001 C 
ATOM      9  C12 ZIN A   1      17.617   3.583  11.794  0.00  0.00     0.047 C 
ATOM     10  C13 ZIN A   1      17.257   4.457  12.997  0.00  0.00     0.200 C 
ATOM     11  F15 ZIN A   1      17.188   5.797  12.600  0.00  0.00    -0.245 F 
ATOM     12  C16 ZIN A   1      18.330   4.293  14.057  0.00  0.00    -0.034 C 
ATOM     13  C17 ZIN A   1      18.844   5.399  14.596  0.00  0.00     0.056 C 
ATOM     14  C18 ZIN A   1      19.873   5.299  15.637  0.00  0.00     0.149 C 
ATOM     15  O19 ZIN A   1      20.626   6.218  15.881  0.00  0.00    -0.293 OA
ATOM     16  C20 ZIN A   1      19.945   3.986  16.392  0.00  0.00     0.084 C 
ATOM     17  C21 ZIN A   1      19.966   2.864  15.356  0.00  0.00     0.022 C 
ATOM     18  C22 ZIN A   1      18.747   2.909  14.451  0.00  0.00    -0.011 C 
ATOM     19  C23 ZIN A   1      17.580   2.256  15.194  0.00  0.00     0.021 C 
ATOM     20  C24 ZIN A   1      19.013   2.056  13.206  0.00  0.00     0.031 C 
ATOM     21  C26 ZIN A   1      19.312   0.622  13.635  0.00  0.00     0.124 C 
ATOM     22  C29 ZIN A   1      19.474  -0.312  12.425  0.00  0.00     0.045 C 
ATOM     23  C30 ZIN A   1      18.193  -0.213  11.594  0.00  0.00     0.004 C 
ATOM     24  C31 ZIN A   1      16.970  -0.533  12.456  0.00  0.00     0.019 C 
ATOM     25  C32 ZIN A   1      18.168  -1.039  10.280  0.00  0.00     0.160 C 
ATOM     26  O37 ZIN A   1      19.393  -0.810   9.566  0.00  0.00    -0.334 OA
ENDROOT
BRANCH  25  27
ATOM     27  C33 ZIN A   1      17.844  -2.494  10.505  0.00  0.00     0.188 C 
ATOM     28  O34 ZIN A   1      17.120  -2.818  11.414  0.00  0.00    -0.292 OA
BRANCH  27  29
ATOM     29  C35 ZIN A   1      18.425  -3.544   9.592  0.00  0.00     0.245 C 
BRANCH  29  30
ATOM     30  O36 ZIN A   1      17.510  -3.809   8.527  0.00  0.00    -0.393 OA
ATOM     31  H64 ZIN A   1      16.676  -3.322   8.595  0.00  0.00     0.209 HD
ENDBRANCH  29  30
ENDBRANCH  27  29
ENDBRANCH  25  27
BRANCH  21  32
ATOM     32  O28 ZIN A   1      18.239   0.146  14.450  0.00  0.00    -0.395 OA
ATOM     33  H56 ZIN A   1      17.617  -0.429  13.983  0.00  0.00     0.210 HD
ENDBRANCH  21  32
TORSDOF 4
ENDMDL
MODEL 9
REMARK VINA RESULT:      -6.7      3.072      5.623
REMARK  4 active torsions:
REMARK  status: ('A' for Active; 'I' for Inactive)
REMARK    1  A    between atoms: C26_21  and  O28_22 
REMARK    2  A    between atoms: C32_26  and  C33_27 
REMARK    3  A    between atoms: C33_27  and  C35_29 
REMARK    4  A    between atoms: C35_29  and  O36_30 
ROOT
ATOM      1  C1  ZIN A   1      17.110   0.894  12.318  0.00  0.00     0.078 C 
ATOM      2  C2  ZIN A   1      17.638   0.115  11.111  0.00  0.00     0.159 C 
ATOM      3  C3  ZIN A   1      17.021   0.679   9.830  0.00  0.00     0.078 C 
ATOM      4  O4  ZIN A   1      19.062   0.241  11.049  0.00  0.00    -0.347 OA
ATOM      5  C5  ZIN A   1      19.582  -1.055  10.714  0.00  0.00     0.168 C 
ATOM      6  C7  ZIN A   1      19.623  -1.207   9.175  0.00  0.00     0.041 C 
ATOM      7  C8  ZIN A   1      18.511  -2.194   8.835  0.00  0.00     0.004 C 
ATOM      8  C10 ZIN A   1      18.758  -3.111   7.653  0.00  0.00     0.001 C 
ATOM      9  C12 ZIN A   1      18.937  -2.280   6.379  0.00  0.00     0.047 C 
ATOM     10  C13 ZIN A   1      19.252  -3.214   5.209  0.00  0.00     0.200 C 
ATOM     11  F15 ZIN A   1      19.311  -2.477   4.022  0.00  0.00    -0.245 F 
ATOM     12  C16 ZIN A   1      18.154  -4.258   5.109  0.00  0.00    -0.034 C 
ATOM     13  C17 ZIN A   1      17.610  -4.473   3.911  0.00  0.00     0.056 C 
ATOM     14  C18 ZIN A   1      16.557  -5.481   3.754  0.00  0.00     0.149 C 
ATOM     15  O19 ZIN A   1      15.783  -5.456   2.819  0.00  0.00    -0.293 OA
ATOM     16  C20 ZIN A   1      16.486  -6.556   4.820  0.00  0.00     0.084 C 
ATOM     17  C21 ZIN A   1      16.508  -5.856   6.178  0.00  0.00     0.022 C 
ATOM     18  C22 ZIN A   1      17.749  -4.997   6.348  0.00  0.00    -0.011 C 
ATOM     19  C23 ZIN A   1      18.907  -5.911   6.755  0.00  0.00     0.021 C 
ATOM     20  C24 ZIN A   1      17.528  -4.018   7.506  0.00  0.00     0.031 C 
ATOM     21  C26 ZIN A   1      17.240  -4.806   8.781  0.00  0.00     0.124 C 
ATOM     22  C29 ZIN A   1      17.124  -3.886  10.006  0.00  0.00     0.045 C 
ATOM     23  C30 ZIN A   1      18.424  -3.084  10.103  0.00  0.00     0.004 C 
ATOM     24  C31 ZIN A   1      19.629  -4.025  10.156  0.00  0.00     0.019 C 
ATOM     25  C32 ZIN A   1      18.495  -2.038  11.247  0.00  0.00     0.160 C 
ATOM     26  O37 ZIN A   1      17.286  -1.264  11.243  0.00  0.00    -0.334 OA
ENDROOT
BRANCH  25  27
ATOM     27  C33 ZIN A   1      18.835  -2.648  12.583  0.00  0.00     0.188 C 
ATOM     28  O34 ZIN A   1      18.472  -3.769  12.846  0.00  0.00    -0.292 OA
BRANCH  27  29
ATOM     29  C35 ZIN A   1      19.630  -1.858  13.591  0.00  0.00     0.245 C 
BRANCH  29  30
ATOM     30  O36 ZIN A   1      18.739  -1.237  14.520  0.00  0.00    -0.393 OA
ATOM     31  H64 ZIN A   1      19.005  -0.345  14.784  0.00  0.00     0.209 HD
ENDBRANCH  29  30
ENDBRANCH  27  29
ENDBRANCH  25  27
BRANCH  21  32
ATOM     32  O28 ZIN A   1      18.300  -5.740   9.000  0.00  0.00    -0.395 OA
ATOM     33  H56 ZIN A   1      18.011  -6.662   9.024  0.00  0.00     0.210 HD
ENDBRANCH  21  32
TORSDOF 4
ENDMDL
