MODEL 1
REMARK VINA RESULT:      -4.2      0.000      0.000
REMARK  4 active torsions:
REMARK  status: ('A' for Active; 'I' for Inactive)
REMARK    1  A    between atoms: C2_2  and  C4_4 
REMARK    2  A    between atoms: C4_4  and  C5_5 
REMARK    3  A    between atoms: C5_5  and  N7_6 
REMARK    4  A    between atoms: C5_5  and  C11_10 
ROOT
ATOM      1  C5  ZIN A   1      18.364   1.720  16.508  0.00  0.00     0.283 C 
ENDROOT
BRANCH   1   2
ATOM      2  C4  ZIN A   1      18.948   0.614  15.626  0.00  0.00     0.048 C 
BRANCH   2   3
ATOM      3  C2  ZIN A   1      18.229  -0.705  15.919  0.00  0.00    -0.020 C 
ATOM      4  C1  ZIN A   1      19.175  -1.647  16.666  0.00  0.00     0.009 C 
ATOM      5  C3  ZIN A   1      16.994  -0.432  16.781  0.00  0.00     0.009 C 
ENDBRANCH   2   3
ENDBRANCH   1   2
BRANCH   1   6
ATOM      6  N7  ZIN A   1      17.962   2.854  15.666  0.00  0.00    -0.065 N 
ATOM      7  H8  ZIN A   1      17.456   3.525  16.224  0.00  0.00     0.275 HD
ATOM      8  H9  ZIN A   1      18.783   3.293  15.275  0.00  0.00     0.275 HD
ATOM      9  H10 ZIN A   1      17.370   2.524  14.918  0.00  0.00     0.275 HD
ENDBRANCH   1   6
BRANCH   1  10
ATOM     10  C11 ZIN A   1      19.404   2.173  17.499  0.00  0.00     0.204 C 
ATOM     11  O12 ZIN A   1      19.918   3.273  17.383  0.00  0.00    -0.646 OA
ATOM     12  O13 ZIN A   1      19.732   1.441  18.417  0.00  0.00    -0.646 OA
ENDBRANCH   1  10
TORSDOF 4
ENDMDL
MODEL 2
REMARK VINA RESULT:      -4.1      9.803     10.553
REMARK  4 active torsions:
REMARK  status: ('A' for Active; 'I' for Inactive)
REMARK    1  A    between atoms: C2_2  and  C4_4 
REMARK    2  A    between atoms: C4_4  and  C5_5 
REMARK    3  A    between atoms: C5_5  and  N7_6 
REMARK    4  A    between atoms: C5_5  and  C11_10 
ROOT
ATOM      1  C5  ZIN A   1      18.610  -1.220   6.482  0.00  0.00     0.283 C 
ENDROOT
BRANCH   1   2
ATOM      2  C4  ZIN A   1      17.892  -0.009   7.081  0.00  0.00     0.048 C 
BRANCH   2   3
ATOM      3  C2  ZIN A   1      18.574   0.393   8.390  0.00  0.00    -0.020 C 
ATOM      4  C1  ZIN A   1      19.183   1.788   8.241  0.00  0.00     0.009 C 
ATOM      5  C3  ZIN A   1      17.541   0.404   9.520  0.00  0.00     0.009 C 
ENDBRANCH   2   3
ENDBRANCH   1   2
BRANCH   1   6
ATOM      6  N7  ZIN A   1      19.580  -1.743   7.453  0.00  0.00    -0.065 N 
ATOM      7  H8  ZIN A   1      20.266  -2.306   6.973  0.00  0.00     0.275 HD
ATOM      8  H9  ZIN A   1      20.040  -0.975   7.917  0.00  0.00     0.275 HD
ATOM      9  H10 ZIN A   1      19.099  -2.309   8.136  0.00  0.00     0.275 HD
ENDBRANCH   1   6
BRANCH   1  10
ATOM     10  C11 ZIN A   1      19.330  -0.806   5.225  0.00  0.00     0.204 C 
ATOM     11  O12 ZIN A   1      19.770  -1.655   4.467  0.00  0.00    -0.646 OA
ATOM     12  O13 ZIN A   1      19.473   0.376   4.964  0.00  0.00    -0.646 OA
ENDBRANCH   1  10
TORSDOF 4
ENDMDL
MODEL 3
REMARK VINA RESULT:      -4.1      4.046      4.617
REMARK  4 active torsions:
REMARK  status: ('A' for Active; 'I' for Inactive)
REMARK    1  A    between atoms: C2_2  and  C4_4 
REMARK    2  A    between atoms: C4_4  and  C5_5 
REMARK    3  A    between atoms: C5_5  and  N7_6 
REMARK    4  A    between atoms: C5_5  and  C11_10 
ROOT
ATOM      1  C5  ZIN A   1      20.114   0.476  12.404  0.00  0.00     0.283 C 
ENDROOT
BRANCH   1   2
ATOM      2  C4  ZIN A   1      19.851   0.322  13.903  0.00  0.00     0.048 C 
BRANCH   2   3
ATOM      3  C2  ZIN A   1      19.560  -1.146  14.223  0.00  0.00    -0.020 C 
ATOM      4  C1  ZIN A   1      18.814  -1.240  15.555  0.00  0.00     0.009 C 
ATOM      5  C3  ZIN A   1      18.697  -1.748  13.111  0.00  0.00     0.009 C 
ENDBRANCH   2   3
ENDBRANCH   1   2
BRANCH   1   6
ATOM      6  N7  ZIN A   1      21.560   0.583  12.170  0.00  0.00    -0.065 N 
ATOM      7  H8  ZIN A   1      21.901   1.447  12.563  0.00  0.00     0.275 HD
ATOM      8  H9  ZIN A   1      22.031  -0.195  12.608  0.00  0.00     0.275 HD
ATOM      9  H10 ZIN A   1      21.742   0.570  11.178  0.00  0.00     0.275 HD
ENDBRANCH   1   6
BRANCH   1  10
ATOM     10  C11 ZIN A   1      19.429   1.719  11.899  0.00  0.00     0.204 C 
ATOM     11  O12 ZIN A   1      20.082   2.723  11.668  0.00  0.00    -0.646 OA
ATOM     12  O13 ZIN A   1      18.223   1.722  11.721  0.00  0.00    -0.646 OA
ENDBRANCH   1  10
TORSDOF 4
ENDMDL
MODEL 4
REMARK VINA RESULT:      -4.1      6.969      7.740
REMARK  4 active torsions:
REMARK  status: ('A' for Active; 'I' for Inactive)
REMARK    1  A    between atoms: C2_2  and  C4_4 
REMARK    2  A    between atoms: C4_4  and  C5_5 
REMARK    3  A    between atoms: C5_5  and  N7_6 
REMARK    4  A    between atoms: C5_5  and  C11_10 
ROOT
ATOM      1  C5  ZIN A   1      20.135  -0.648  10.701  0.00  0.00     0.283 C 
ENDROOT
BRANCH   1   2
ATOM      2  C4  ZIN A   1      19.869  -0.327   9.229  0.00  0.00     0.048 C 
BRANCH   2   3
ATOM      3  C2  ZIN A   1      18.739   0.699   9.127  0.00  0.00    -0.020 C 
ATOM      4  C1  ZIN A   1      19.190   1.869   8.250  0.00  0.00     0.009 C 
ATOM      5  C3  ZIN A   1      17.506   0.039   8.503  0.00  0.00     0.009 C 
ENDBRANCH   2   3
ENDBRANCH   1   2
BRANCH   1   6
ATOM      6  N7  ZIN A   1      21.580  -0.586  10.961  0.00  0.00    -0.065 N 
ATOM      7  H8  ZIN A   1      21.915  -1.502  11.216  0.00  0.00     0.275 HD
ATOM      8  H9  ZIN A   1      22.059  -0.271  10.131  0.00  0.00     0.275 HD
ATOM      9  H10 ZIN A   1      21.757   0.059  11.716  0.00  0.00     0.275 HD
ENDBRANCH   1   6
BRANCH   1  10
ATOM     10  C11 ZIN A   1      19.627  -2.031  11.014  0.00  0.00     0.204 C 
ATOM     11  O12 ZIN A   1      19.651  -2.445  12.161  0.00  0.00    -0.646 OA
ATOM     12  O13 ZIN A   1      19.191  -2.738  10.121  0.00  0.00    -0.646 OA
ENDBRANCH   1  10
TORSDOF 4
ENDMDL
MODEL 5
REMARK VINA RESULT:      -4.1      5.210      6.003
REMARK  4 active torsions:
REMARK  status: ('A' for Active; 'I' for Inactive)
REMARK    1  A    between atoms: C2_2  and  C4_4 
REMARK    2  A    between atoms: C4_4  and  C5_5 
REMARK    3  A    between atoms: C5_5  and  N7_6 
REMARK    4  A    between atoms: C5_5  and  C11_10 
ROOT
ATOM      1  C5  ZIN A   1      20.188   1.185  12.052  0.00  0.00     0.283 C 
ENDROOT
BRANCH   1   2
ATOM      2  C4  ZIN A   1      19.517   0.863  10.715  0.00  0.00     0.048 C 
BRANCH   2   3
ATOM      3  C2  ZIN A   1      19.185   2.165   9.983  0.00  0.00    -0.020 C 
ATOM      4  C1  ZIN A   1      19.167   1.912   8.474  0.00  0.00     0.009 C 
ATOM      5  C3  ZIN A   1      17.811   2.667  10.433  0.00  0.00     0.009 C 
ENDBRANCH   2   3
ENDBRANCH   1   2
BRANCH   1   6
ATOM      6  N7  ZIN A   1      21.530   0.589  12.081  0.00  0.00    -0.065 N 
ATOM      7  H8  ZIN A   1      21.678   0.053  11.239  0.00  0.00     0.275 HD
ATOM      8  H9  ZIN A   1      22.223   1.321  12.140  0.00  0.00     0.275 HD
ATOM      9  H10 ZIN A   1      21.612  -0.016  12.884  0.00  0.00     0.275 HD
ENDBRANCH   1   6
BRANCH   1  10
ATOM     10  C11 ZIN A   1      19.362   0.620  13.178  0.00  0.00     0.204 C 
ATOM     11  O12 ZIN A   1      18.292   0.084  12.939  0.00  0.00    -0.646 OA
ATOM     12  O13 ZIN A   1      19.762   0.698  14.326  0.00  0.00    -0.646 OA
ENDBRANCH   1  10
TORSDOF 4
ENDMDL
MODEL 6
REMARK VINA RESULT:      -3.9      1.447      1.849
REMARK  4 active torsions:
REMARK  status: ('A' for Active; 'I' for Inactive)
REMARK    1  A    between atoms: C2_2  and  C4_4 
REMARK    2  A    between atoms: C4_4  and  C5_5 
REMARK    3  A    between atoms: C5_5  and  N7_6 
REMARK    4  A    between atoms: C5_5  and  C11_10 
ROOT
ATOM      1  C5  ZIN A   1      18.192   0.681  16.940  0.00  0.00     0.283 C 
ENDROOT
BRANCH   1   2
ATOM      2  C4  ZIN A   1      18.004   1.044  15.466  0.00  0.00     0.048 C 
BRANCH   2   3
ATOM      3  C2  ZIN A   1      18.435  -0.135  14.591  0.00  0.00    -0.020 C 
ATOM      4  C1  ZIN A   1      19.788   0.174  13.948  0.00  0.00     0.009 C 
ATOM      5  C3  ZIN A   1      18.556  -1.393  15.455  0.00  0.00     0.009 C 
ENDBRANCH   2   3
ENDBRANCH   1   2
BRANCH   1   6
ATOM      6  N7  ZIN A   1      16.943   0.938  17.670  0.00  0.00    -0.065 N 
ATOM      7  H8  ZIN A   1      16.826   1.932  17.798  0.00  0.00     0.275 HD
ATOM      8  H9  ZIN A   1      16.163   0.573  17.142  0.00  0.00     0.275 HD
ATOM      9  H10 ZIN A   1      16.980   0.485  18.570  0.00  0.00     0.275 HD
ENDBRANCH   1   6
BRANCH   1  10
ATOM     10  C11 ZIN A   1      19.298   1.519  17.527  0.00  0.00     0.204 C 
ATOM     11  O12 ZIN A   1      19.623   2.563  16.986  0.00  0.00    -0.646 OA
ATOM     12  O13 ZIN A   1      19.868   1.155  18.541  0.00  0.00    -0.646 OA
ENDBRANCH   1  10
TORSDOF 4
ENDMDL
MODEL 7
REMARK VINA RESULT:      -3.9      6.105      6.721
REMARK  4 active torsions:
REMARK  status: ('A' for Active; 'I' for Inactive)
REMARK    1  A    between atoms: C2_2  and  C4_4 
REMARK    2  A    between atoms: C4_4  and  C5_5 
REMARK    3  A    between atoms: C5_5  and  N7_6 
REMARK    4  A    between atoms: C5_5  and  C11_10 
ROOT
ATOM      1  C5  ZIN A   1      20.171  -0.899  10.753  0.00  0.00     0.283 C 
ENDROOT
BRANCH   1   2
ATOM      2  C4  ZIN A   1      19.296  -0.285  11.848  0.00  0.00     0.048 C 
BRANCH   2   3
ATOM      3  C2  ZIN A   1      18.728  -1.396  12.731  0.00  0.00    -0.020 C 
ATOM      4  C1  ZIN A   1      18.987  -2.754  12.074  0.00  0.00     0.009 C 
ATOM      5  C3  ZIN A   1      19.406  -1.355  14.102  0.00  0.00     0.009 C 
ENDBRANCH   2   3
ENDBRANCH   1   2
BRANCH   1   6
ATOM      6  N7  ZIN A   1      21.579  -0.568  11.009  0.00  0.00    -0.065 N 
ATOM      7  H8  ZIN A   1      22.170  -1.131  10.416  0.00  0.00     0.275 HD
ATOM      8  H9  ZIN A   1      21.737   0.409  10.812  0.00  0.00     0.275 HD
ATOM      9  H10 ZIN A   1      21.797  -0.755  11.976  0.00  0.00     0.275 HD
ENDBRANCH   1   6
BRANCH   1  10
ATOM     10  C11 ZIN A   1      19.760  -0.348   9.413  0.00  0.00     0.204 C 
ATOM     11  O12 ZIN A   1      19.629  -1.098   8.459  0.00  0.00    -0.646 OA
ATOM     12  O13 ZIN A   1      19.559   0.847   9.280  0.00  0.00    -0.646 OA
ENDBRANCH   1  10
TORSDOF 4
ENDMDL
MODEL 8
REMARK VINA RESULT:      -3.9      5.662      6.304
REMARK  4 active torsions:
REMARK  status: ('A' for Active; 'I' for Inactive)
REMARK    1  A    between atoms: C2_2  and  C4_4 
REMARK    2  A    between atoms: C4_4  and  C5_5 
REMARK    3  A    between atoms: C5_5  and  N7_6 
REMARK    4  A    between atoms: C5_5  and  C11_10 
ROOT
ATOM      1  C5  ZIN A   1      20.251  -0.408  10.292  0.00  0.00     0.283 C 
ENDROOT
BRANCH   1   2
ATOM      2  C4  ZIN A   1      19.382  -1.657  10.450  0.00  0.00     0.048 C 
BRANCH   2   3
ATOM      3  C2  ZIN A   1      19.731  -2.360  11.763  0.00  0.00    -0.020 C 
ATOM      4  C1  ZIN A   1      18.560  -2.226  12.740  0.00  0.00     0.009 C 
ATOM      5  C3  ZIN A   1      20.003  -3.841  11.492  0.00  0.00     0.009 C 
ENDBRANCH   2   3
ENDBRANCH   1   2
BRANCH   1   6
ATOM      6  N7  ZIN A   1      21.542  -0.623  10.961  0.00  0.00    -0.065 N 
ATOM      7  H8  ZIN A   1      21.558  -0.115  11.832  0.00  0.00     0.275 HD
ATOM      8  H9  ZIN A   1      21.668  -1.608  11.143  0.00  0.00     0.275 HD
ATOM      9  H10 ZIN A   1      22.287  -0.293  10.366  0.00  0.00     0.275 HD
ENDBRANCH   1   6
BRANCH   1  10
ATOM     10  C11 ZIN A   1      19.553   0.772  10.915  0.00  0.00     0.204 C 
ATOM     11  O12 ZIN A   1      20.007   1.287  11.923  0.00  0.00    -0.646 OA
ATOM     12  O13 ZIN A   1      18.533   1.213  10.412  0.00  0.00    -0.646 OA
ENDBRANCH   1  10
TORSDOF 4
ENDMDL
MODEL 9
REMARK VINA RESULT:      -3.8      4.772      5.403
REMARK  4 active torsions:
REMARK  status: ('A' for Active; 'I' for Inactive)
REMARK    1  A    between atoms: C2_2  and  C4_4 
REMARK    2  A    between atoms: C4_4  and  C5_5 
REMARK    3  A    between atoms: C5_5  and  N7_6 
REMARK    4  A    between atoms: C5_5  and  C11_10 
ROOT
ATOM      1  C5  ZIN A   1      19.074  -2.214  12.871  0.00  0.00     0.283 C 
ENDROOT
BRANCH   1   2
ATOM      2  C4  ZIN A   1      19.425  -1.176  13.937  0.00  0.00     0.048 C 
BRANCH   2   3
ATOM      3  C2  ZIN A   1      18.299  -1.102  14.970  0.00  0.00    -0.020 C 
ATOM      4  C1  ZIN A   1      18.839  -1.505  16.344  0.00  0.00     0.009 C 
ATOM      5  C3  ZIN A   1      17.757   0.328  15.033  0.00  0.00     0.009 C 
ENDBRANCH   2   3
ENDBRANCH   1   2
BRANCH   1   6
ATOM      6  N7  ZIN A   1      20.287  -2.583  12.129  0.00  0.00    -0.065 N 
ATOM      7  H8  ZIN A   1      20.190  -2.303  11.164  0.00  0.00     0.275 HD
ATOM      8  H9  ZIN A   1      21.085  -2.118  12.535  0.00  0.00     0.275 HD
ATOM      9  H10 ZIN A   1      20.420  -3.582  12.177  0.00  0.00     0.275 HD
ENDBRANCH   1   6
BRANCH   1  10
ATOM     10  C11 ZIN A   1      18.059  -1.635  11.920  0.00  0.00     0.204 C 
ATOM     11  O12 ZIN A   1      17.040  -2.254  11.664  0.00  0.00    -0.646 OA
ATOM     12  O13 ZIN A   1      18.256  -0.547  11.406  0.00  0.00    -0.646 OA
ENDBRANCH   1  10
TORSDOF 4
ENDMDL
