MODEL 1
REMARK VINA RESULT:      -8.5      0.000      0.000
REMARK  4 active torsions:
REMARK  status: ('A' for Active; 'I' for Inactive)
REMARK       I    between atoms: C2_2  and  N4_4 
REMARK    1  A    between atoms: N4_4  and  C5_5 
REMARK    2  A    between atoms: C5_5  and  C6_6 
REMARK    3  A    between atoms: N9_8  and  C10_9 
REMARK    4  A    between atoms: C13_12  and  N14_13 
ROOT
ATOM      1  C10 ZIN A   1      18.376   1.980  10.339  0.00  0.00     0.042 A 
ATOM      2  C11 ZIN A   1      19.165   2.424   9.287  0.00  0.00     0.032 A 
ATOM      3  C12 ZIN A   1      19.196   1.717   8.099  0.00  0.00     0.029 A 
ATOM      4  C13 ZIN A   1      18.437   0.565   7.958  0.00  0.00     0.050 A 
ATOM      5  C20 ZIN A   1      17.646   0.119   9.011  0.00  0.00     0.139 A 
ATOM      6  F21 ZIN A   1      16.907  -1.003   8.875  0.00  0.00    -0.204 F 
ATOM      7  C22 ZIN A   1      17.620   0.823  10.200  0.00  0.00     0.073 A 
ENDROOT
BRANCH   1   8
ATOM      8  N9  ZIN A   1      18.346   2.698  11.542  0.00  0.00    -0.291 N 
ATOM      9  C8  ZIN A   1      19.253   2.494  12.682  0.00  0.00     0.168 A 
ATOM     10  C6  ZIN A   1      18.780   3.533  13.718  0.00  0.00     0.170 A 
ATOM     11  O25 ZIN A   1      17.669   4.209  13.062  0.00  0.00    -0.295 OA
ATOM     12  C23 ZIN A   1      17.486   3.681  11.842  0.00  0.00     0.368 A 
ATOM     13  O24 ZIN A   1      16.621   4.061  11.080  0.00  0.00    -0.238 OA
BRANCH  10  14
ATOM     14  C5  ZIN A   1      18.306   2.838  14.996  0.00  0.00     0.156 C 
BRANCH  14  15
ATOM     15  N4  ZIN A   1      18.278   1.389  14.782  0.00  0.00    -0.359 N 
ATOM     16  C2  ZIN A   1      18.663   0.554  15.767  0.00  0.00     0.213 C 
ATOM     17  C1  ZIN A   1      18.634  -0.937  15.547  0.00  0.00     0.117 C 
ATOM     18  O3  ZIN A   1      19.034   1.002  16.831  0.00  0.00    -0.274 OA
ATOM     19  H29 ZIN A   1      17.982   1.030  13.931  0.00  0.00     0.162 HD
ENDBRANCH  14  15
ENDBRANCH  10  14
ENDBRANCH   1   8
BRANCH   4  20
ATOM     20  N14 ZIN A   1      18.469  -0.151   6.754  0.00  0.00    -0.277 NA
ATOM     21  C19 ZIN A   1      19.026   0.668   5.668  0.00  0.00     0.122 C 
ATOM     22  C18 ZIN A   1      18.985  -0.130   4.363  0.00  0.00     0.182 C 
ATOM     23  O17 ZIN A   1      19.700  -1.357   4.537  0.00  0.00    -0.389 OA
ATOM     24  C16 ZIN A   1      19.184  -2.180   5.586  0.00  0.00     0.182 C 
ATOM     25  C15 ZIN A   1      19.226  -1.402   6.904  0.00  0.00     0.122 C 
ENDBRANCH   4  20
TORSDOF 4
ENDMDL
MODEL 2
REMARK VINA RESULT:      -7.9      1.825      2.794
REMARK  4 active torsions:
REMARK  status: ('A' for Active; 'I' for Inactive)
REMARK       I    between atoms: C2_2  and  N4_4 
REMARK    1  A    between atoms: N4_4  and  C5_5 
REMARK    2  A    between atoms: C5_5  and  C6_6 
REMARK    3  A    between atoms: N9_8  and  C10_9 
REMARK    4  A    between atoms: C13_12  and  N14_13 
ROOT
ATOM      1  C10 ZIN A   1      18.401   1.767  10.354  0.00  0.00     0.042 A 
ATOM      2  C11 ZIN A   1      19.171   2.267   9.314  0.00  0.00     0.032 A 
ATOM      3  C12 ZIN A   1      19.201   1.612   8.097  0.00  0.00     0.029 A 
ATOM      4  C13 ZIN A   1      18.461   0.453   7.916  0.00  0.00     0.050 A 
ATOM      5  C20 ZIN A   1      17.690  -0.050   8.958  0.00  0.00     0.139 A 
ATOM      6  F21 ZIN A   1      16.969  -1.179   8.782  0.00  0.00    -0.204 F 
ATOM      7  C22 ZIN A   1      17.664   0.603  10.175  0.00  0.00     0.073 A 
ENDROOT
BRANCH   1   8
ATOM      8  N9  ZIN A   1      18.372   2.433  11.587  0.00  0.00    -0.291 N 
ATOM      9  C8  ZIN A   1      17.521   3.586  11.916  0.00  0.00     0.168 A 
ATOM     10  C6  ZIN A   1      17.889   3.910  13.378  0.00  0.00     0.170 A 
ATOM     11  O25 ZIN A   1      18.896   2.914  13.719  0.00  0.00    -0.295 OA
ATOM     12  C23 ZIN A   1      19.114   2.122  12.659  0.00  0.00     0.368 A 
ATOM     13  O24 ZIN A   1      19.911   1.205  12.670  0.00  0.00    -0.238 OA
BRANCH  10  14
ATOM     14  C5  ZIN A   1      18.470   5.320  13.485  0.00  0.00     0.156 C 
BRANCH  14  15
ATOM     15  N4  ZIN A   1      19.871   5.240  13.904  0.00  0.00    -0.359 N 
ATOM     16  C2  ZIN A   1      20.307   5.977  14.946  0.00  0.00     0.213 C 
ATOM     17  C1  ZIN A   1      21.748   5.894  15.378  0.00  0.00     0.117 C 
ATOM     18  O3  ZIN A   1      19.538   6.706  15.535  0.00  0.00    -0.274 OA
ATOM     19  H29 ZIN A   1      20.487   4.657  13.432  0.00  0.00     0.162 HD
ENDBRANCH  14  15
ENDBRANCH  10  14
ENDBRANCH   1   8
BRANCH   4  20
ATOM     20  N14 ZIN A   1      18.492  -0.212   6.683  0.00  0.00    -0.277 NA
ATOM     21  C19 ZIN A   1      19.033   0.658   5.629  0.00  0.00     0.122 C 
ATOM     22  C18 ZIN A   1      18.991  -0.085   4.291  0.00  0.00     0.182 C 
ATOM     23  O17 ZIN A   1      19.721  -1.310   4.409  0.00  0.00    -0.389 OA
ATOM     24  C16 ZIN A   1      19.221  -2.182   5.426  0.00  0.00     0.182 C 
ATOM     25  C15 ZIN A   1      19.264  -1.459   6.775  0.00  0.00     0.122 C 
ENDBRANCH   4  20
TORSDOF 4
ENDMDL
MODEL 3
REMARK VINA RESULT:      -7.9      3.413      8.947
REMARK  4 active torsions:
REMARK  status: ('A' for Active; 'I' for Inactive)
REMARK       I    between atoms: C2_2  and  N4_4 
REMARK    1  A    between atoms: N4_4  and  C5_5 
REMARK    2  A    between atoms: C5_5  and  C6_6 
REMARK    3  A    between atoms: N9_8  and  C10_9 
REMARK    4  A    between atoms: C13_12  and  N14_13 
ROOT
ATOM      1  C10 ZIN A   1      18.509  -1.311  12.346  0.00  0.00     0.042 A 
ATOM      2  C11 ZIN A   1      19.344  -1.830  13.325  0.00  0.00     0.032 A 
ATOM      3  C12 ZIN A   1      19.355  -1.275  14.591  0.00  0.00     0.029 A 
ATOM      4  C13 ZIN A   1      18.530  -0.199  14.883  0.00  0.00     0.050 A 
ATOM      5  C20 ZIN A   1      17.693   0.322  13.902  0.00  0.00     0.139 A 
ATOM      6  F21 ZIN A   1      16.889   1.370  14.186  0.00  0.00    -0.204 F 
ATOM      7  C22 ZIN A   1      17.687  -0.230  12.635  0.00  0.00     0.073 A 
ENDROOT
BRANCH   1   8
ATOM      8  N9  ZIN A   1      18.500  -1.875  11.062  0.00  0.00    -0.291 N 
ATOM      9  C8  ZIN A   1      19.338  -1.445   9.933  0.00  0.00     0.168 A 
ATOM     10  C6  ZIN A   1      18.925  -2.390   8.788  0.00  0.00     0.170 A 
ATOM     11  O25 ZIN A   1      17.909  -3.248   9.384  0.00  0.00    -0.295 OA
ATOM     12  C23 ZIN A   1      17.726  -2.894  10.665  0.00  0.00     0.368 A 
ATOM     13  O24 ZIN A   1      16.931  -3.448  11.397  0.00  0.00    -0.238 OA
BRANCH  10  14
ATOM     14  C5  ZIN A   1      18.338  -1.594   7.621  0.00  0.00     0.156 C 
BRANCH  14  15
ATOM     15  N4  ZIN A   1      18.061  -2.500   6.503  0.00  0.00    -0.359 N 
ATOM     16  C2  ZIN A   1      18.812  -2.441   5.385  0.00  0.00     0.213 C 
ATOM     17  C1  ZIN A   1      18.528  -3.372   4.235  0.00  0.00     0.117 C 
ATOM     18  O3  ZIN A   1      19.717  -1.638   5.306  0.00  0.00    -0.274 OA
ATOM     19  H29 ZIN A   1      17.336  -3.142   6.566  0.00  0.00     0.162 HD
ENDBRANCH  14  15
ENDBRANCH  10  14
ENDBRANCH   1   8
BRANCH   4  20
ATOM     20  N14 ZIN A   1      18.541   0.364  16.166  0.00  0.00    -0.277 NA
ATOM     21  C19 ZIN A   1      19.120  -0.567  17.145  0.00  0.00     0.122 C 
ATOM     22  C18 ZIN A   1      19.056   0.063  18.539  0.00  0.00     0.182 C 
ATOM     23  O17 ZIN A   1      19.738   1.320  18.519  0.00  0.00    -0.389 OA
ATOM     24  C16 ZIN A   1      19.199   2.252  17.578  0.00  0.00     0.182 C 
ATOM     25  C15 ZIN A   1      19.263   1.644  16.174  0.00  0.00     0.122 C 
ENDBRANCH   4  20
TORSDOF 4
ENDMDL
MODEL 4
REMARK VINA RESULT:      -7.6      1.621      1.903
REMARK  4 active torsions:
REMARK  status: ('A' for Active; 'I' for Inactive)
REMARK       I    between atoms: C2_2  and  N4_4 
REMARK    1  A    between atoms: N4_4  and  C5_5 
REMARK    2  A    between atoms: C5_5  and  C6_6 
REMARK    3  A    between atoms: N9_8  and  C10_9 
REMARK    4  A    between atoms: C13_12  and  N14_13 
ROOT
ATOM      1  C10 ZIN A   1      18.819   0.371  10.869  0.00  0.00     0.042 A 
ATOM      2  C11 ZIN A   1      19.428   1.115   9.869  0.00  0.00     0.032 A 
ATOM      3  C12 ZIN A   1      19.362   0.692   8.554  0.00  0.00     0.029 A 
ATOM      4  C13 ZIN A   1      18.688  -0.477   8.235  0.00  0.00     0.050 A 
ATOM      5  C20 ZIN A   1      18.078  -1.224   9.237  0.00  0.00     0.139 A 
ATOM      6  F21 ZIN A   1      17.420  -2.362   8.926  0.00  0.00    -0.204 F 
ATOM      7  C22 ZIN A   1      18.148  -0.803  10.551  0.00  0.00     0.073 A 
ENDROOT
BRANCH   1   8
ATOM      8  N9  ZIN A   1      18.886   0.801  12.202  0.00  0.00    -0.291 N 
ATOM      9  C8  ZIN A   1      19.839   0.315  13.210  0.00  0.00     0.168 A 
ATOM     10  C6  ZIN A   1      19.472   1.111  14.478  0.00  0.00     0.170 A 
ATOM     11  O25 ZIN A   1      18.363   1.957  14.056  0.00  0.00    -0.295 OA
ATOM     12  C23 ZIN A   1      18.092   1.723  12.764  0.00  0.00     0.368 A 
ATOM     13  O24 ZIN A   1      17.209   2.295  12.159  0.00  0.00    -0.238 OA
BRANCH  10  14
ATOM     14  C5  ZIN A   1      19.031   0.166  15.596  0.00  0.00     0.156 C 
BRANCH  14  15
ATOM     15  N4  ZIN A   1      18.171   0.889  16.537  0.00  0.00    -0.359 N 
ATOM     16  C2  ZIN A   1      18.625   1.191  17.770  0.00  0.00     0.213 C 
ATOM     17  C1  ZIN A   1      17.741   1.936  18.737  0.00  0.00     0.117 C 
ATOM     18  O3  ZIN A   1      19.744   0.864  18.100  0.00  0.00    -0.274 OA
ATOM     19  H29 ZIN A   1      17.275   1.151  16.273  0.00  0.00     0.162 HD
ENDBRANCH  14  15
ENDBRANCH  10  14
ENDBRANCH   1   8
BRANCH   4  20
ATOM     20  N14 ZIN A   1      18.622  -0.906   6.903  0.00  0.00    -0.277 NA
ATOM     21  C19 ZIN A   1      19.045   0.161   5.984  0.00  0.00     0.122 C 
ATOM     22  C18 ZIN A   1      18.900  -0.329   4.541  0.00  0.00     0.182 C 
ATOM     23  O17 ZIN A   1      19.665  -1.525   4.370  0.00  0.00    -0.389 OA
ATOM     24  C16 ZIN A   1      19.280  -2.585   5.248  0.00  0.00     0.182 C 
ATOM     25  C15 ZIN A   1      19.428  -2.118   6.699  0.00  0.00     0.122 C 
ENDBRANCH   4  20
TORSDOF 4
ENDMDL
MODEL 5
REMARK VINA RESULT:      -7.3      3.801      8.315
REMARK  4 active torsions:
REMARK  status: ('A' for Active; 'I' for Inactive)
REMARK       I    between atoms: C2_2  and  N4_4 
REMARK    1  A    between atoms: N4_4  and  C5_5 
REMARK    2  A    between atoms: C5_5  and  C6_6 
REMARK    3  A    between atoms: N9_8  and  C10_9 
REMARK    4  A    between atoms: C13_12  and  N14_13 
ROOT
ATOM      1  C10 ZIN A   1      18.840  -0.405  12.617  0.00  0.00     0.042 A 
ATOM      2  C11 ZIN A   1      18.541   0.918  12.911  0.00  0.00     0.032 A 
ATOM      3  C12 ZIN A   1      18.565   1.358  14.222  0.00  0.00     0.029 A 
ATOM      4  C13 ZIN A   1      18.887   0.477  15.243  0.00  0.00     0.050 A 
ATOM      5  C20 ZIN A   1      19.186  -0.849  14.949  0.00  0.00     0.139 A 
ATOM      6  F21 ZIN A   1      19.500  -1.708  15.944  0.00  0.00    -0.204 F 
ATOM      7  C22 ZIN A   1      19.157  -1.289  13.640  0.00  0.00     0.073 A 
ENDROOT
BRANCH   1   8
ATOM      8  N9  ZIN A   1      18.815  -0.849  11.288  0.00  0.00    -0.291 N 
ATOM      9  C8  ZIN A   1      17.627  -1.332  10.569  0.00  0.00     0.168 A 
ATOM     10  C6  ZIN A   1      18.162  -1.685   9.168  0.00  0.00     0.170 A 
ATOM     11  O25 ZIN A   1      19.582  -1.366   9.240  0.00  0.00    -0.295 OA
ATOM     12  C23 ZIN A   1      19.871  -0.903  10.465  0.00  0.00     0.368 A 
ATOM     13  O24 ZIN A   1      20.989  -0.563  10.797  0.00  0.00    -0.238 OA
BRANCH  10  14
ATOM     14  C5  ZIN A   1      17.960  -3.173   8.876  0.00  0.00     0.156 C 
BRANCH  14  15
ATOM     15  N4  ZIN A   1      17.398  -3.830  10.059  0.00  0.00    -0.359 N 
ATOM     16  C2  ZIN A   1      18.137  -4.720  10.751  0.00  0.00     0.213 C 
ATOM     17  C1  ZIN A   1      17.558  -5.396  11.968  0.00  0.00     0.117 C 
ATOM     18  O3  ZIN A   1      19.267  -4.976  10.395  0.00  0.00    -0.274 OA
ATOM     19  H29 ZIN A   1      16.493  -3.626  10.343  0.00  0.00     0.162 HD
ENDBRANCH  14  15
ENDBRANCH  10  14
ENDBRANCH   1   8
BRANCH   4  20
ATOM     20  N14 ZIN A   1      18.911   0.923  16.571  0.00  0.00    -0.277 NA
ATOM     21  C19 ZIN A   1      19.102   2.379  16.635  0.00  0.00     0.122 C 
ATOM     22  C18 ZIN A   1      19.183   2.813  18.101  0.00  0.00     0.182 C 
ATOM     23  O17 ZIN A   1      17.998   2.392  18.783  0.00  0.00    -0.389 OA
ATOM     24  C16 ZIN A   1      17.781   0.980  18.742  0.00  0.00     0.182 C 
ATOM     25  C15 ZIN A   1      17.687   0.526  17.282  0.00  0.00     0.122 C 
ENDBRANCH   4  20
TORSDOF 4
ENDMDL
MODEL 6
REMARK VINA RESULT:      -7.2      1.775      3.053
REMARK  4 active torsions:
REMARK  status: ('A' for Active; 'I' for Inactive)
REMARK       I    between atoms: C2_2  and  N4_4 
REMARK    1  A    between atoms: N4_4  and  C5_5 
REMARK    2  A    between atoms: C5_5  and  C6_6 
REMARK    3  A    between atoms: N9_8  and  C10_9 
REMARK    4  A    between atoms: C13_12  and  N14_13 
ROOT
ATOM      1  C10 ZIN A   1      18.688   0.388  10.632  0.00  0.00     0.042 A 
ATOM      2  C11 ZIN A   1      19.208   1.132   9.582  0.00  0.00     0.032 A 
ATOM      3  C12 ZIN A   1      19.157   0.637   8.292  0.00  0.00     0.029 A 
ATOM      4  C13 ZIN A   1      18.586  -0.602   8.046  0.00  0.00     0.050 A 
ATOM      5  C20 ZIN A   1      18.065  -1.348   9.098  0.00  0.00     0.139 A 
ATOM      6  F21 ZIN A   1      17.508  -2.556   8.860  0.00  0.00    -0.204 F 
ATOM      7  C22 ZIN A   1      18.121  -0.856  10.388  0.00  0.00     0.073 A 
ENDROOT
BRANCH   1   8
ATOM      8  N9  ZIN A   1      18.741   0.891  11.939  0.00  0.00    -0.291 N 
ATOM      9  C8  ZIN A   1      17.607   1.460  12.683  0.00  0.00     0.168 A 
ATOM     10  C6  ZIN A   1      18.217   1.848  14.044  0.00  0.00     0.170 A 
ATOM     11  O25 ZIN A   1      19.617   1.459  13.929  0.00  0.00    -0.295 OA
ATOM     12  C23 ZIN A   1      19.832   0.930  12.716  0.00  0.00     0.368 A 
ATOM     13  O24 ZIN A   1      20.918   0.522  12.355  0.00  0.00    -0.238 OA
BRANCH  10  14
ATOM     14  C5  ZIN A   1      18.097   3.355  14.276  0.00  0.00     0.156 C 
BRANCH  14  15
ATOM     15  N4  ZIN A   1      17.356   3.962  13.167  0.00  0.00    -0.359 N 
ATOM     16  C2  ZIN A   1      18.019   4.605  12.185  0.00  0.00     0.213 C 
ATOM     17  C1  ZIN A   1      17.258   5.229  11.044  0.00  0.00     0.117 C 
ATOM     18  O3  ZIN A   1      19.229   4.681  12.220  0.00  0.00    -0.274 OA
ATOM     19  H29 ZIN A   1      16.389   3.902  13.139  0.00  0.00     0.162 HD
ENDBRANCH  14  15
ENDBRANCH  10  14
ENDBRANCH   1   8
BRANCH   4  20
ATOM     20  N14 ZIN A   1      18.534  -1.103   6.739  0.00  0.00    -0.277 NA
ATOM     21  C19 ZIN A   1      18.916  -0.072   5.764  0.00  0.00     0.122 C 
ATOM     22  C18 ZIN A   1      18.787  -0.643   4.350  0.00  0.00     0.182 C 
ATOM     23  O17 ZIN A   1      19.597  -1.817   4.240  0.00  0.00    -0.389 OA
ATOM     24  C16 ZIN A   1      19.253  -2.843   5.174  0.00  0.00     0.182 C 
ATOM     25  C15 ZIN A   1      19.385  -2.294   6.597  0.00  0.00     0.122 C 
ENDBRANCH   4  20
TORSDOF 4
ENDMDL
MODEL 7
REMARK VINA RESULT:      -7.2      2.690      7.896
REMARK  4 active torsions:
REMARK  status: ('A' for Active; 'I' for Inactive)
REMARK       I    between atoms: C2_2  and  N4_4 
REMARK    1  A    between atoms: N4_4  and  C5_5 
REMARK    2  A    between atoms: C5_5  and  C6_6 
REMARK    3  A    between atoms: N9_8  and  C10_9 
REMARK    4  A    between atoms: C13_12  and  N14_13 
ROOT
ATOM      1  C10 ZIN A   1      18.403   0.866  10.952  0.00  0.00     0.042 A 
ATOM      2  C11 ZIN A   1      18.796   1.049  12.270  0.00  0.00     0.032 A 
ATOM      3  C12 ZIN A   1      18.740   2.307  12.840  0.00  0.00     0.029 A 
ATOM      4  C13 ZIN A   1      18.291   3.387  12.095  0.00  0.00     0.050 A 
ATOM      5  C20 ZIN A   1      17.897   3.205  10.773  0.00  0.00     0.139 A 
ATOM      6  F21 ZIN A   1      17.460   4.256  10.047  0.00  0.00    -0.204 F 
ATOM      7  C22 ZIN A   1      17.959   1.948  10.202  0.00  0.00     0.073 A 
ENDROOT
BRANCH   1   8
ATOM      8  N9  ZIN A   1      18.460  -0.410  10.375  0.00  0.00    -0.291 N 
ATOM      9  C8  ZIN A   1      19.368  -0.820   9.293  0.00  0.00     0.168 A 
ATOM     10  C6  ZIN A   1      19.009  -2.299   9.052  0.00  0.00     0.170 A 
ATOM     11  O25 ZIN A   1      17.949  -2.569  10.015  0.00  0.00    -0.295 OA
ATOM     12  C23 ZIN A   1      17.696  -1.456  10.720  0.00  0.00     0.368 A 
ATOM     13  O24 ZIN A   1      16.853  -1.403  11.592  0.00  0.00    -0.238 OA
BRANCH  10  14
ATOM     14  C5  ZIN A   1      18.502  -2.502   7.624  0.00  0.00     0.156 C 
BRANCH  14  15
ATOM     15  N4  ZIN A   1      18.596  -1.239   6.888  0.00  0.00    -0.359 N 
ATOM     16  C2  ZIN A   1      19.219  -1.199   5.693  0.00  0.00     0.213 C 
ATOM     17  C1  ZIN A   1      19.315   0.101   4.937  0.00  0.00     0.117 C 
ATOM     18  O3  ZIN A   1      19.701  -2.209   5.227  0.00  0.00    -0.274 OA
ATOM     19  H29 ZIN A   1      18.211  -0.430   7.261  0.00  0.00     0.162 HD
ENDBRANCH  14  15
ENDBRANCH  10  14
ENDBRANCH   1   8
BRANCH   4  20
ATOM     20  N14 ZIN A   1      18.235   4.662  12.672  0.00  0.00    -0.277 NA
ATOM     21  C19 ZIN A   1      16.864   4.992  13.088  0.00  0.00     0.122 C 
ATOM     22  C18 ZIN A   1      16.837   6.414  13.656  0.00  0.00     0.182 C 
ATOM     23  O17 ZIN A   1      17.768   6.506  14.739  0.00  0.00    -0.389 OA
ATOM     24  C16 ZIN A   1      19.113   6.192  14.370  0.00  0.00     0.182 C 
ATOM     25  C15 ZIN A   1      19.162   4.769  13.808  0.00  0.00     0.122 C 
ENDBRANCH   4  20
TORSDOF 4
ENDMDL
MODEL 8
REMARK VINA RESULT:      -7.1      2.178      2.709
REMARK  4 active torsions:
REMARK  status: ('A' for Active; 'I' for Inactive)
REMARK       I    between atoms: C2_2  and  N4_4 
REMARK    1  A    between atoms: N4_4  and  C5_5 
REMARK    2  A    between atoms: C5_5  and  C6_6 
REMARK    3  A    between atoms: N9_8  and  C10_9 
REMARK    4  A    between atoms: C13_12  and  N14_13 
ROOT
ATOM      1  C10 ZIN A   1      18.144   2.674  11.061  0.00  0.00     0.042 A 
ATOM      2  C11 ZIN A   1      17.544   1.440  11.263  0.00  0.00     0.032 A 
ATOM      3  C12 ZIN A   1      17.765   0.408  10.371  0.00  0.00     0.029 A 
ATOM      4  C13 ZIN A   1      18.588   0.606   9.272  0.00  0.00     0.050 A 
ATOM      5  C20 ZIN A   1      19.190   1.843   9.068  0.00  0.00     0.139 A 
ATOM      6  F21 ZIN A   1      19.992   2.036   7.998  0.00  0.00    -0.204 F 
ATOM      7  C22 ZIN A   1      18.964   2.875   9.958  0.00  0.00     0.073 A 
ENDROOT
BRANCH   1   8
ATOM      8  N9  ZIN A   1      17.919   3.720  11.967  0.00  0.00    -0.291 N 
ATOM      9  C8  ZIN A   1      18.666   3.947  13.213  0.00  0.00     0.168 A 
ATOM     10  C6  ZIN A   1      18.013   5.211  13.808  0.00  0.00     0.170 A 
ATOM     11  O25 ZIN A   1      16.979   5.563  12.843  0.00  0.00    -0.295 OA
ATOM     12  C23 ZIN A   1      16.989   4.676  11.838  0.00  0.00     0.368 A 
ATOM     13  O24 ZIN A   1      16.224   4.735  10.896  0.00  0.00    -0.238 OA
BRANCH  10  14
ATOM     14  C5  ZIN A   1      17.393   4.904  15.172  0.00  0.00     0.156 C 
BRANCH  14  15
ATOM     15  N4  ZIN A   1      18.114   3.792  15.796  0.00  0.00    -0.359 N 
ATOM     16  C2  ZIN A   1      18.421   3.839  17.108  0.00  0.00     0.213 C 
ATOM     17  C1  ZIN A   1      19.162   2.695  17.751  0.00  0.00     0.117 C 
ATOM     18  O3  ZIN A   1      18.099   4.802  17.771  0.00  0.00    -0.274 OA
ATOM     19  H29 ZIN A   1      18.372   3.022  15.266  0.00  0.00     0.162 HD
ENDBRANCH  14  15
ENDBRANCH  10  14
ENDBRANCH   1   8
BRANCH   4  20
ATOM     20  N14 ZIN A   1      18.812  -0.440   8.367  0.00  0.00    -0.277 NA
ATOM     21  C19 ZIN A   1      18.600  -1.746   9.008  0.00  0.00     0.122 C 
ATOM     22  C18 ZIN A   1      18.914  -2.858   8.004  0.00  0.00     0.182 C 
ATOM     23  O17 ZIN A   1      18.098  -2.687   6.842  0.00  0.00    -0.389 OA
ATOM     24  C16 ZIN A   1      18.278  -1.427   6.191  0.00  0.00     0.182 C 
ATOM     25  C15 ZIN A   1      17.959  -0.300   7.178  0.00  0.00     0.122 C 
ENDBRANCH   4  20
TORSDOF 4
ENDMDL
MODEL 9
REMARK VINA RESULT:      -7.0      2.386      3.339
REMARK  4 active torsions:
REMARK  status: ('A' for Active; 'I' for Inactive)
REMARK       I    between atoms: C2_2  and  N4_4 
REMARK    1  A    between atoms: N4_4  and  C5_5 
REMARK    2  A    between atoms: C5_5  and  C6_6 
REMARK    3  A    between atoms: N9_8  and  C10_9 
REMARK    4  A    between atoms: C13_12  and  N14_13 
ROOT
ATOM      1  C10 ZIN A   1      18.682   1.103   9.932  0.00  0.00     0.042 A 
ATOM      2  C11 ZIN A   1      18.367  -0.248   9.946  0.00  0.00     0.032 A 
ATOM      3  C12 ZIN A   1      18.352  -0.967   8.766  0.00  0.00     0.029 A 
ATOM      4  C13 ZIN A   1      18.652  -0.339   7.567  0.00  0.00     0.050 A 
ATOM      5  C20 ZIN A   1      18.968   1.016   7.551  0.00  0.00     0.139 A 
ATOM      6  F21 ZIN A   1      19.261   1.629   6.384  0.00  0.00    -0.204 F 
ATOM      7  C22 ZIN A   1      18.977   1.735   8.731  0.00  0.00     0.073 A 
ENDROOT
BRANCH   1   8
ATOM      8  N9  ZIN A   1      18.697   1.831  11.130  0.00  0.00    -0.291 N 
ATOM      9  C8  ZIN A   1      17.738   2.881  11.504  0.00  0.00     0.168 A 
ATOM     10  C6  ZIN A   1      18.216   3.336  12.897  0.00  0.00     0.170 A 
ATOM     11  O25 ZIN A   1      19.381   2.502  13.162  0.00  0.00    -0.295 OA
ATOM     12  C23 ZIN A   1      19.587   1.684  12.120  0.00  0.00     0.368 A 
ATOM     13  O24 ZIN A   1      20.498   0.881  12.080  0.00  0.00    -0.238 OA
BRANCH  10  14
ATOM     14  C5  ZIN A   1      18.608   4.815  12.873  0.00  0.00     0.156 C 
BRANCH  14  15
ATOM     15  N4  ZIN A   1      19.856   5.000  13.618  0.00  0.00    -0.359 N 
ATOM     16  C2  ZIN A   1      19.848   5.661  14.793  0.00  0.00     0.213 C 
ATOM     17  C1  ZIN A   1      21.132   5.852  15.560  0.00  0.00     0.117 C 
ATOM     18  O3  ZIN A   1      18.808   6.103  15.233  0.00  0.00    -0.274 OA
ATOM     19  H29 ZIN A   1      20.689   4.648  13.267  0.00  0.00     0.162 HD
ENDBRANCH  14  15
ENDBRANCH  10  14
ENDBRANCH   1   8
BRANCH   4  20
ATOM     20  N14 ZIN A   1      18.636  -1.068   6.370  0.00  0.00    -0.277 NA
ATOM     21  C19 ZIN A   1      18.871  -2.497   6.621  0.00  0.00     0.122 C 
ATOM     22  C18 ZIN A   1      18.906  -3.244   5.286  0.00  0.00     0.182 C 
ATOM     23  O17 ZIN A   1      17.682  -3.012   4.583  0.00  0.00    -0.389 OA
ATOM     24  C16 ZIN A   1      17.421  -1.631   4.321  0.00  0.00     0.182 C 
ATOM     25  C15 ZIN A   1      17.372  -0.867   5.647  0.00  0.00     0.122 C 
ENDBRANCH   4  20
TORSDOF 4
ENDMDL
