MODEL 1
REMARK VINA RESULT:      -7.8      0.000      0.000
REMARK  3 active torsions:
REMARK  status: ('A' for Active; 'I' for Inactive)
REMARK    1  A    between atoms: N2_2  and  C5_5 
REMARK    2  A    between atoms: C5_5  and  C6_6 
REMARK    3  A    between atoms: C6_6  and  C7_7 
ROOT
ATOM      1  C7  ZIN A   1      19.502  -0.453  14.030  0.00  0.00    -0.012 C 
ATOM      2  C8  ZIN A   1      19.119  -0.542  12.751  0.00  0.00    -0.016 C 
ATOM      3  C9  ZIN A   1      18.923   0.693  11.958  0.00  0.00    -0.017 A 
ATOM      4  C10 ZIN A   1      19.887   1.700  12.120  0.00  0.00     0.013 A 
ATOM      5  C11 ZIN A   1      19.788   2.886  11.429  0.00  0.00     0.001 A 
ATOM      6  C12 ZIN A   1      18.725   3.083  10.566  0.00  0.00     0.001 A 
ATOM      7  C13 ZIN A   1      17.778   2.098  10.403  0.00  0.00     0.010 A 
ATOM      8  C14 ZIN A   1      17.860   0.889  11.094  0.00  0.00    -0.023 A 
ATOM      9  C15 ZIN A   1      16.751  -0.088  10.805  0.00  0.00     0.215 C 
ATOM     10  O16 ZIN A   1      16.687  -1.185  11.680  0.00  0.00    -0.346 OA
ATOM     11  C17 ZIN A   1      17.631  -2.147  11.653  0.00  0.00     0.080 A 
ATOM     12  C18 ZIN A   1      17.355  -3.403  11.133  0.00  0.00     0.037 A 
ATOM     13  C19 ZIN A   1      18.352  -4.362  11.096  0.00  0.00     0.003 A 
ATOM     14  C20 ZIN A   1      19.621  -4.081  11.571  0.00  0.00     0.001 A 
ATOM     15  C21 ZIN A   1      19.903  -2.835  12.102  0.00  0.00     0.015 A 
ATOM     16  C22 ZIN A   1      18.905  -1.877  12.146  0.00  0.00     0.008 A 
ENDROOT
BRANCH   1  17
ATOM     17  C6  ZIN A   1      19.550   0.892  14.709  0.00  0.00     0.055 C 
BRANCH  17  18
ATOM     18  C5  ZIN A   1      18.492   0.943  15.813  0.00  0.00     0.237 C 
BRANCH  18  19
ATOM     19  N2  ZIN A   1      18.581  -0.273  16.633  0.00  0.00    -0.079 N 
ATOM     20  C1  ZIN A   1      19.214   0.050  17.919  0.00  0.00     0.269 C 
ATOM     21  H3  ZIN A   1      19.135  -0.965  16.151  0.00  0.00     0.278 HD
ATOM     22  C4  ZIN A   1      17.232  -0.803  16.871  0.00  0.00     0.269 C 
ENDBRANCH  18  19
ENDBRANCH  17  18
ENDBRANCH   1  17
TORSDOF 3
ENDMDL
MODEL 2
REMARK VINA RESULT:      -7.7      2.666      5.074
REMARK  3 active torsions:
REMARK  status: ('A' for Active; 'I' for Inactive)
REMARK    1  A    between atoms: N2_2  and  C5_5 
REMARK    2  A    between atoms: C5_5  and  C6_6 
REMARK    3  A    between atoms: C6_6  and  C7_7 
ROOT
ATOM      1  C7  ZIN A   1      18.869   3.386  14.823  0.00  0.00    -0.012 C 
ATOM      2  C8  ZIN A   1      18.677   2.394  13.944  0.00  0.00    -0.016 C 
ATOM      3  C9  ZIN A   1      18.635   0.993  14.421  0.00  0.00    -0.017 A 
ATOM      4  C10 ZIN A   1      17.915   0.757  15.603  0.00  0.00     0.013 A 
ATOM      5  C11 ZIN A   1      17.822  -0.512  16.127  0.00  0.00     0.001 A 
ATOM      6  C12 ZIN A   1      18.444  -1.564  15.478  0.00  0.00     0.001 A 
ATOM      7  C13 ZIN A   1      19.150  -1.337  14.318  0.00  0.00     0.010 A 
ATOM      8  C14 ZIN A   1      19.256  -0.058  13.770  0.00  0.00    -0.023 A 
ATOM      9  C15 ZIN A   1      20.056   0.027  12.497  0.00  0.00     0.215 C 
ATOM     10  O16 ZIN A   1      20.382   1.331  12.089  0.00  0.00    -0.346 OA
ATOM     11  C17 ZIN A   1      19.431   2.167  11.625  0.00  0.00     0.080 A 
ATOM     12  C18 ZIN A   1      19.357   2.485  10.278  0.00  0.00     0.037 A 
ATOM     13  C19 ZIN A   1      18.355   3.327   9.828  0.00  0.00     0.003 A 
ATOM     14  C20 ZIN A   1      17.427   3.855  10.708  0.00  0.00     0.001 A 
ATOM     15  C21 ZIN A   1      17.500   3.552  12.057  0.00  0.00     0.015 A 
ATOM     16  C22 ZIN A   1      18.505   2.715  12.509  0.00  0.00     0.008 A 
ENDROOT
BRANCH   1  17
ATOM     17  C6  ZIN A   1      19.223   3.067  16.252  0.00  0.00     0.055 C 
BRANCH  17  18
ATOM     18  C5  ZIN A   1      18.838   4.247  17.147  0.00  0.00     0.237 C 
BRANCH  18  19
ATOM     19  N2  ZIN A   1      18.740   3.792  18.541  0.00  0.00    -0.079 N 
ATOM     20  C1  ZIN A   1      17.359   3.956  19.014  0.00  0.00     0.269 C 
ATOM     21  H3  ZIN A   1      19.360   4.339  19.119  0.00  0.00     0.278 HD
ATOM     22  C4  ZIN A   1      19.120   2.374  18.622  0.00  0.00     0.269 C 
ENDBRANCH  18  19
ENDBRANCH  17  18
ENDBRANCH   1  17
TORSDOF 3
ENDMDL
MODEL 3
REMARK VINA RESULT:      -7.4      3.642      5.555
REMARK  3 active torsions:
REMARK  status: ('A' for Active; 'I' for Inactive)
REMARK    1  A    between atoms: N2_2  and  C5_5 
REMARK    2  A    between atoms: C5_5  and  C6_6 
REMARK    3  A    between atoms: C6_6  and  C7_7 
ROOT
ATOM      1  C7  ZIN A   1      18.795   1.515   8.336  0.00  0.00    -0.012 C 
ATOM      2  C8  ZIN A   1      18.300   0.272   8.368  0.00  0.00    -0.016 C 
ATOM      3  C9  ZIN A   1      17.934  -0.335   9.668  0.00  0.00    -0.017 A 
ATOM      4  C10 ZIN A   1      17.259   0.493  10.578  0.00  0.00     0.013 A 
ATOM      5  C11 ZIN A   1      16.881   0.020  11.814  0.00  0.00     0.001 A 
ATOM      6  C12 ZIN A   1      17.171  -1.288  12.158  0.00  0.00     0.001 A 
ATOM      7  C13 ZIN A   1      17.831  -2.106  11.269  0.00  0.00     0.010 A 
ATOM      8  C14 ZIN A   1      18.223  -1.644  10.011  0.00  0.00    -0.023 A 
ATOM      9  C15 ZIN A   1      18.931  -2.658   9.152  0.00  0.00     0.215 C 
ATOM     10  O16 ZIN A   1      19.549  -2.133   8.005  0.00  0.00    -0.346 OA
ATOM     11  C17 ZIN A   1      18.814  -1.673   6.973  0.00  0.00     0.080 A 
ATOM     12  C18 ZIN A   1      18.733  -2.383   5.784  0.00  0.00     0.037 A 
ATOM     13  C19 ZIN A   1      17.951  -1.898   4.750  0.00  0.00     0.003 A 
ATOM     14  C20 ZIN A   1      17.248  -0.714   4.892  0.00  0.00     0.001 A 
ATOM     15  C21 ZIN A   1      17.331   0.006   6.070  0.00  0.00     0.015 A 
ATOM     16  C22 ZIN A   1      18.119  -0.474   7.102  0.00  0.00     0.008 A 
ENDROOT
BRANCH   1  17
ATOM     17  C6  ZIN A   1      19.152   2.216   9.621  0.00  0.00     0.055 C 
BRANCH  17  18
ATOM     18  C5  ZIN A   1      18.338   3.507   9.739  0.00  0.00     0.237 C 
BRANCH  18  19
ATOM     19  N2  ZIN A   1      18.549   4.098  11.068  0.00  0.00    -0.079 N 
ATOM     20  C1  ZIN A   1      17.284   4.086  11.815  0.00  0.00     0.269 C 
ATOM     21  H3  ZIN A   1      18.869   5.049  10.967  0.00  0.00     0.278 HD
ATOM     22  C4  ZIN A   1      19.556   3.316  11.798  0.00  0.00     0.269 C 
ENDBRANCH  18  19
ENDBRANCH  17  18
ENDBRANCH   1  17
TORSDOF 3
ENDMDL
MODEL 4
REMARK VINA RESULT:      -7.4      2.768      5.335
REMARK  3 active torsions:
REMARK  status: ('A' for Active; 'I' for Inactive)
REMARK    1  A    between atoms: N2_2  and  C5_5 
REMARK    2  A    between atoms: C5_5  and  C6_6 
REMARK    3  A    between atoms: C6_6  and  C7_7 
ROOT
ATOM      1  C7  ZIN A   1      19.517   0.196  12.932  0.00  0.00    -0.012 C 
ATOM      2  C8  ZIN A   1      18.757   1.038  13.642  0.00  0.00    -0.016 C 
ATOM      3  C9  ZIN A   1      18.292   2.301  13.025  0.00  0.00    -0.017 A 
ATOM      4  C10 ZIN A   1      17.839   2.219  11.699  0.00  0.00     0.013 A 
ATOM      5  C11 ZIN A   1      17.390   3.340  11.039  0.00  0.00     0.001 A 
ATOM      6  C12 ZIN A   1      17.388   4.559  11.693  0.00  0.00     0.001 A 
ATOM      7  C13 ZIN A   1      17.831   4.645  12.994  0.00  0.00     0.010 A 
ATOM      8  C14 ZIN A   1      18.289   3.519  13.681  0.00  0.00    -0.023 A 
ATOM      9  C15 ZIN A   1      18.735   3.774  15.096  0.00  0.00     0.215 C 
ATOM     10  O16 ZIN A   1      19.431   2.712  15.697  0.00  0.00    -0.346 OA
ATOM     11  C17 ZIN A   1      18.795   1.571  16.032  0.00  0.00     0.080 A 
ATOM     12  C18 ZIN A   1      18.533   1.264  17.359  0.00  0.00     0.037 A 
ATOM     13  C19 ZIN A   1      17.858   0.097  17.670  0.00  0.00     0.003 A 
ATOM     14  C20 ZIN A   1      17.440  -0.765  16.672  0.00  0.00     0.001 A 
ATOM     15  C21 ZIN A   1      17.707  -0.473  15.346  0.00  0.00     0.015 A 
ATOM     16  C22 ZIN A   1      18.388   0.690  15.034  0.00  0.00     0.008 A 
ENDROOT
BRANCH   1  17
ATOM     17  C6  ZIN A   1      20.048   0.615  11.585  0.00  0.00     0.055 C 
BRANCH  17  18
ATOM     18  C5  ZIN A   1      20.781  -0.562  10.939  0.00  0.00     0.237 C 
BRANCH  18  19
ATOM     19  N2  ZIN A   1      20.194  -0.841   9.621  0.00  0.00    -0.079 N 
ATOM     20  C1  ZIN A   1      19.106  -1.816   9.766  0.00  0.00     0.269 C 
ATOM     21  H3  ZIN A   1      20.903  -1.216   9.009  0.00  0.00     0.278 HD
ATOM     22  C4  ZIN A   1      19.663   0.404   9.049  0.00  0.00     0.269 C 
ENDBRANCH  18  19
ENDBRANCH  17  18
ENDBRANCH   1  17
TORSDOF 3
ENDMDL
MODEL 5
REMARK VINA RESULT:      -7.4      3.736      5.944
REMARK  3 active torsions:
REMARK  status: ('A' for Active; 'I' for Inactive)
REMARK    1  A    between atoms: N2_2  and  C5_5 
REMARK    2  A    between atoms: C5_5  and  C6_6 
REMARK    3  A    between atoms: C6_6  and  C7_7 
ROOT
ATOM      1  C7  ZIN A   1      19.397  -0.849   9.575  0.00  0.00    -0.012 C 
ATOM      2  C8  ZIN A   1      18.863  -1.677   8.669  0.00  0.00    -0.016 C 
ATOM      3  C9  ZIN A   1      18.491  -3.054   9.068  0.00  0.00    -0.017 A 
ATOM      4  C10 ZIN A   1      17.851  -3.195  10.309  0.00  0.00     0.013 A 
ATOM      5  C11 ZIN A   1      17.470  -4.435  10.767  0.00  0.00     0.001 A 
ATOM      6  C12 ZIN A   1      17.722  -5.553   9.992  0.00  0.00     0.001 A 
ATOM      7  C13 ZIN A   1      18.348  -5.420   8.773  0.00  0.00     0.010 A 
ATOM      8  C14 ZIN A   1      18.742  -4.171   8.291  0.00  0.00    -0.023 A 
ATOM      9  C15 ZIN A   1      19.410  -4.190   6.941  0.00  0.00     0.215 C 
ATOM     10  O16 ZIN A   1      20.033  -2.986   6.573  0.00  0.00    -0.346 OA
ATOM     11  C17 ZIN A   1      19.303  -1.894   6.270  0.00  0.00     0.080 A 
ATOM     12  C18 ZIN A   1      19.188  -1.454   4.960  0.00  0.00     0.037 A 
ATOM     13  C19 ZIN A   1      18.412  -0.344   4.677  0.00  0.00     0.003 A 
ATOM     14  C20 ZIN A   1      17.748   0.330   5.687  0.00  0.00     0.001 A 
ATOM     15  C21 ZIN A   1      17.865  -0.095   6.999  0.00  0.00     0.015 A 
ATOM     16  C22 ZIN A   1      18.647  -1.201   7.284  0.00  0.00     0.008 A 
ENDROOT
BRANCH   1  17
ATOM     17  C6  ZIN A   1      19.787  -1.371  10.934  0.00  0.00     0.055 C 
BRANCH  17  18
ATOM     18  C5  ZIN A   1      20.296  -0.214  11.796  0.00  0.00     0.237 C 
BRANCH  18  19
ATOM     19  N2  ZIN A   1      20.193  -0.579  13.216  0.00  0.00    -0.079 N 
ATOM     20  C1  ZIN A   1      19.713   0.577  13.985  0.00  0.00     0.269 C 
ATOM     21  H3  ZIN A   1      21.100  -0.857  13.559  0.00  0.00     0.278 HD
ATOM     22  C4  ZIN A   1      19.248  -1.694  13.367  0.00  0.00     0.269 C 
ENDBRANCH  18  19
ENDBRANCH  17  18
ENDBRANCH   1  17
TORSDOF 3
ENDMDL
MODEL 6
REMARK VINA RESULT:      -7.2      2.219      5.201
REMARK  3 active torsions:
REMARK  status: ('A' for Active; 'I' for Inactive)
REMARK    1  A    between atoms: N2_2  and  C5_5 
REMARK    2  A    between atoms: C5_5  and  C6_6 
REMARK    3  A    between atoms: C6_6  and  C7_7 
ROOT
ATOM      1  C7  ZIN A   1      19.278  -2.015  13.289  0.00  0.00    -0.012 C 
ATOM      2  C8  ZIN A   1      18.658  -0.855  13.540  0.00  0.00    -0.016 C 
ATOM      3  C9  ZIN A   1      18.238   0.008  12.413  0.00  0.00    -0.017 A 
ATOM      4  C10 ZIN A   1      17.657  -0.639  11.312  0.00  0.00     0.013 A 
ATOM      5  C11 ZIN A   1      17.239   0.079  10.215  0.00  0.00     0.001 A 
ATOM      6  C12 ZIN A   1      17.394   1.453  10.202  0.00  0.00     0.001 A 
ATOM      7  C13 ZIN A   1      17.962   2.093  11.280  0.00  0.00     0.010 A 
ATOM      8  C14 ZIN A   1      18.393   1.383  12.402  0.00  0.00    -0.023 A 
ATOM      9  C15 ZIN A   1      18.988   2.225  13.500  0.00  0.00     0.215 C 
ATOM     10  O16 ZIN A   1      19.652   1.502  14.505  0.00  0.00    -0.346 OA
ATOM     11  C17 ZIN A   1      18.962   0.737  15.375  0.00  0.00     0.080 A 
ATOM     12  C18 ZIN A   1      18.802   1.127  16.696  0.00  0.00     0.037 A 
ATOM     13  C19 ZIN A   1      18.069   0.333  17.560  0.00  0.00     0.003 A 
ATOM     14  C20 ZIN A   1      17.492  -0.846  17.119  0.00  0.00     0.001 A 
ATOM     15  C21 ZIN A   1      17.655  -1.248  15.805  0.00  0.00     0.015 A 
ATOM     16  C22 ZIN A   1      18.395  -0.458  14.942  0.00  0.00     0.008 A 
ENDROOT
BRANCH   1  17
ATOM     17  C6  ZIN A   1      19.712  -2.347  11.885  0.00  0.00     0.055 C 
BRANCH  17  18
ATOM     18  C5  ZIN A   1      19.469  -3.834  11.615  0.00  0.00     0.237 C 
BRANCH  18  19
ATOM     19  N2  ZIN A   1      19.060  -4.017  10.216  0.00  0.00    -0.079 N 
ATOM     20  C1  ZIN A   1      19.726  -5.204   9.663  0.00  0.00     0.269 C 
ATOM     21  H3  ZIN A   1      19.322  -3.204   9.679  0.00  0.00     0.278 HD
ATOM     22  C4  ZIN A   1      17.603  -4.199  10.151  0.00  0.00     0.269 C 
ENDBRANCH  18  19
ENDBRANCH  17  18
ENDBRANCH   1  17
TORSDOF 3
ENDMDL
MODEL 7
REMARK VINA RESULT:      -7.1      3.466      6.776
REMARK  3 active torsions:
REMARK  status: ('A' for Active; 'I' for Inactive)
REMARK    1  A    between atoms: N2_2  and  C5_5 
REMARK    2  A    between atoms: C5_5  and  C6_6 
REMARK    3  A    between atoms: C6_6  and  C7_7 
ROOT
ATOM      1  C7  ZIN A   1      19.302   1.632   9.172  0.00  0.00    -0.012 C 
ATOM      2  C8  ZIN A   1      19.169   1.418  10.487  0.00  0.00    -0.016 C 
ATOM      3  C9  ZIN A   1      19.097   0.030  10.997  0.00  0.00    -0.017 A 
ATOM      4  C10 ZIN A   1      19.991  -0.892  10.430  0.00  0.00     0.013 A 
ATOM      5  C11 ZIN A   1      19.997  -2.207  10.837  0.00  0.00     0.001 A 
ATOM      6  C12 ZIN A   1      19.112  -2.620  11.817  0.00  0.00     0.001 A 
ATOM      7  C13 ZIN A   1      18.234  -1.719  12.377  0.00  0.00     0.010 A 
ATOM      8  C14 ZIN A   1      18.212  -0.381  11.978  0.00  0.00    -0.023 A 
ATOM      9  C15 ZIN A   1      17.200   0.479  12.687  0.00  0.00     0.215 C 
ATOM     10  O16 ZIN A   1      16.997   1.746  12.115  0.00  0.00    -0.346 OA
ATOM     11  C17 ZIN A   1      17.951   2.696  12.183  0.00  0.00     0.080 A 
ATOM     12  C18 ZIN A   1      17.806   3.793  13.020  0.00  0.00     0.037 A 
ATOM     13  C19 ZIN A   1      18.813   4.739  13.087  0.00  0.00     0.003 A 
ATOM     14  C20 ZIN A   1      19.963   4.602  12.329  0.00  0.00     0.001 A 
ATOM     15  C21 ZIN A   1      20.112   3.517  11.484  0.00  0.00     0.015 A 
ATOM     16  C22 ZIN A   1      19.102   2.573  11.410  0.00  0.00     0.008 A 
ENDROOT
BRANCH   1  17
ATOM     17  C6  ZIN A   1      19.191   0.480   8.207  0.00  0.00     0.055 C 
BRANCH  17  18
ATOM     18  C5  ZIN A   1      18.878   1.017   6.808  0.00  0.00     0.237 C 
BRANCH  18  19
ATOM     19  N2  ZIN A   1      18.423  -0.087   5.951  0.00  0.00    -0.079 N 
ATOM     20  C1  ZIN A   1      19.245  -0.133   4.735  0.00  0.00     0.269 C 
ATOM     21  H3  ZIN A   1      17.458   0.058   5.699  0.00  0.00     0.278 HD
ATOM     22  C4  ZIN A   1      18.554  -1.357   6.678  0.00  0.00     0.269 C 
ENDBRANCH  18  19
ENDBRANCH  17  18
ENDBRANCH   1  17
TORSDOF 3
ENDMDL
MODEL 8
REMARK VINA RESULT:      -7.0      4.553      6.869
REMARK  3 active torsions:
REMARK  status: ('A' for Active; 'I' for Inactive)
REMARK    1  A    between atoms: N2_2  and  C5_5 
REMARK    2  A    between atoms: C5_5  and  C6_6 
REMARK    3  A    between atoms: C6_6  and  C7_7 
ROOT
ATOM      1  C7  ZIN A   1      19.035  -3.249   7.511  0.00  0.00    -0.012 C 
ATOM      2  C8  ZIN A   1      18.772  -2.287   8.404  0.00  0.00    -0.016 C 
ATOM      3  C9  ZIN A   1      18.767  -0.871   7.972  0.00  0.00    -0.017 A 
ATOM      4  C10 ZIN A   1      18.146  -0.594   6.745  0.00  0.00     0.013 A 
ATOM      5  C11 ZIN A   1      18.095   0.693   6.258  0.00  0.00     0.001 A 
ATOM      6  C12 ZIN A   1      18.661   1.720   6.990  0.00  0.00     0.001 A 
ATOM      7  C13 ZIN A   1      19.270   1.454   8.196  0.00  0.00     0.010 A 
ATOM      8  C14 ZIN A   1      19.333   0.156   8.707  0.00  0.00    -0.023 A 
ATOM      9  C15 ZIN A   1      20.027   0.028  10.037  0.00  0.00     0.215 C 
ATOM     10  O16 ZIN A   1      20.319  -1.290  10.427  0.00  0.00    -0.346 OA
ATOM     11  C17 ZIN A   1      19.335  -2.139  10.783  0.00  0.00     0.080 A 
ATOM     12  C18 ZIN A   1      19.151  -2.502  12.109  0.00  0.00     0.037 A 
ATOM     13  C19 ZIN A   1      18.117  -3.357  12.447  0.00  0.00     0.003 A 
ATOM     14  C20 ZIN A   1      17.264  -3.853  11.477  0.00  0.00     0.001 A 
ATOM     15  C21 ZIN A   1      17.446  -3.505  10.150  0.00  0.00     0.015 A 
ATOM     16  C22 ZIN A   1      18.484  -2.656   9.809  0.00  0.00     0.008 A 
ENDROOT
BRANCH   1  17
ATOM     17  C6  ZIN A   1      19.504  -2.883   6.127  0.00  0.00     0.055 C 
BRANCH  17  18
ATOM     18  C5  ZIN A   1      18.910  -3.862   5.112  0.00  0.00     0.237 C 
BRANCH  18  19
ATOM     19  N2  ZIN A   1      17.444  -3.756   5.130  0.00  0.00    -0.079 N 
ATOM     20  C1  ZIN A   1      16.997  -2.958   3.980  0.00  0.00     0.269 C 
ATOM     21  H3  ZIN A   1      17.149  -3.308   5.984  0.00  0.00     0.278 HD
ATOM     22  C4  ZIN A   1      16.855  -5.099   5.052  0.00  0.00     0.269 C 
ENDBRANCH  18  19
ENDBRANCH  17  18
ENDBRANCH   1  17
TORSDOF 3
ENDMDL
MODEL 9
REMARK VINA RESULT:      -6.9      4.207      6.859
REMARK  3 active torsions:
REMARK  status: ('A' for Active; 'I' for Inactive)
REMARK    1  A    between atoms: N2_2  and  C5_5 
REMARK    2  A    between atoms: C5_5  and  C6_6 
REMARK    3  A    between atoms: C6_6  and  C7_7 
ROOT
ATOM      1  C7  ZIN A   1      17.808  -4.060   8.167  0.00  0.00    -0.012 C 
ATOM      2  C8  ZIN A   1      18.287  -2.837   8.429  0.00  0.00    -0.016 C 
ATOM      3  C9  ZIN A   1      18.651  -2.478   9.819  0.00  0.00    -0.017 A 
ATOM      4  C10 ZIN A   1      19.342  -3.452  10.556  0.00  0.00     0.013 A 
ATOM      5  C11 ZIN A   1      19.719  -3.212  11.858  0.00  0.00     0.001 A 
ATOM      6  C12 ZIN A   1      19.414  -1.996  12.441  0.00  0.00     0.001 A 
ATOM      7  C13 ZIN A   1      18.738  -1.036  11.721  0.00  0.00     0.010 A 
ATOM      8  C14 ZIN A   1      18.346  -1.260  10.401  0.00  0.00    -0.023 A 
ATOM      9  C15 ZIN A   1      17.620  -0.114   9.747  0.00  0.00     0.215 C 
ATOM     10  O16 ZIN A   1      17.003  -0.425   8.524  0.00  0.00    -0.346 OA
ATOM     11  C17 ZIN A   1      17.739  -0.673   7.423  0.00  0.00     0.080 A 
ATOM     12  C18 ZIN A   1      17.805   0.246   6.387  0.00  0.00     0.037 A 
ATOM     13  C19 ZIN A   1      18.588  -0.026   5.279  0.00  0.00     0.003 A 
ATOM     14  C20 ZIN A   1      19.307  -1.206   5.195  0.00  0.00     0.001 A 
ATOM     15  C21 ZIN A   1      19.240  -2.134   6.219  0.00  0.00     0.015 A 
ATOM     16  C22 ZIN A   1      18.451  -1.866   7.324  0.00  0.00     0.008 A 
ENDROOT
BRANCH   1  17
ATOM     17  C6  ZIN A   1      17.468  -4.993   9.299  0.00  0.00     0.055 C 
BRANCH  17  18
ATOM     18  C5  ZIN A   1      15.977  -5.336   9.246  0.00  0.00     0.237 C 
BRANCH  18  19
ATOM     19  N2  ZIN A   1      15.682  -6.044   7.993  0.00  0.00    -0.079 N 
ATOM     20  C1  ZIN A   1      16.256  -7.395   8.047  0.00  0.00     0.269 C 
ATOM     21  H3  ZIN A   1      16.084  -5.539   7.218  0.00  0.00     0.278 HD
ATOM     22  C4  ZIN A   1      14.227  -6.138   7.815  0.00  0.00     0.269 C 
ENDBRANCH  18  19
ENDBRANCH  17  18
ENDBRANCH   1  17
TORSDOF 3
ENDMDL
