MODEL 1
REMARK VINA RESULT:      -4.6      0.000      0.000
REMARK  4 active torsions:
REMARK  status: ('A' for Active; 'I' for Inactive)
REMARK    1  A    between atoms: C5_5  and  N6_6 
REMARK    2  A    between atoms: N9_9  and  C10_10 
REMARK    3  A    between atoms: C10_10  and  C11_11 
REMARK    4  A    between atoms: C11_11  and  O14_13 
ROOT
ATOM      1  C1  ZIN A   1      19.367   0.872  10.006  0.00  0.00     0.091 C 
ATOM      2  C2  ZIN A   1      19.201   0.717   8.516  0.00  0.00     0.103 A 
ATOM      3  N3  ZIN A   1      19.048   1.693   7.662  0.00  0.00    -0.244 NA
ATOM      4  C4  ZIN A   1      18.932   1.184   6.427  0.00  0.00     0.173 A 
ATOM      5  C5  ZIN A   1      19.017  -0.157   6.518  0.00  0.00     0.195 A 
ATOM      6  N9  ZIN A   1      19.192  -0.453   7.842  0.00  0.00    -0.313 N 
ENDROOT
BRANCH   6   7
ATOM      7  C10 ZIN A   1      19.335  -1.791   8.422  0.00  0.00     0.163 C 
BRANCH   7   8
ATOM      8  C11 ZIN A   1      17.952  -2.354   8.756  0.00  0.00     0.132 C 
ATOM      9  C13 ZIN A   1      17.978  -2.973  10.155  0.00  0.00     0.041 C 
BRANCH   8  10
ATOM     10  O14 ZIN A   1      17.600  -3.354   7.798  0.00  0.00    -0.394 OA
ATOM     11  H24 ZIN A   1      18.348  -3.684   7.282  0.00  0.00     0.210 HD
ENDBRANCH   8  10
ENDBRANCH   7   8
ENDBRANCH   6   7
BRANCH   5  12
ATOM     12  N6  ZIN A   1      18.939  -1.123   5.399  0.00  0.00    -0.096 N 
ATOM     13  O7  ZIN A   1      17.927  -1.779   5.230  0.00  0.00    -0.530 OA
ATOM     14  O8  ZIN A   1      19.887  -1.261   4.647  0.00  0.00    -0.530 OA
ENDBRANCH   5  12
TORSDOF 4
ENDMDL
MODEL 2
REMARK VINA RESULT:      -4.6      3.926      5.535
REMARK  4 active torsions:
REMARK  status: ('A' for Active; 'I' for Inactive)
REMARK    1  A    between atoms: C5_5  and  N6_6 
REMARK    2  A    between atoms: N9_9  and  C10_10 
REMARK    3  A    between atoms: C10_10  and  C11_11 
REMARK    4  A    between atoms: C11_11  and  O14_13 
ROOT
ATOM      1  C1  ZIN A   1      20.231  -3.388  11.602  0.00  0.00     0.091 C 
ATOM      2  C2  ZIN A   1      19.286  -2.326  12.105  0.00  0.00     0.103 A 
ATOM      3  N3  ZIN A   1      19.036  -2.063  13.359  0.00  0.00    -0.244 NA
ATOM      4  C4  ZIN A   1      18.149  -1.059  13.431  0.00  0.00     0.173 A 
ATOM      5  C5  ZIN A   1      17.839  -0.686  12.175  0.00  0.00     0.195 A 
ATOM      6  N9  ZIN A   1      18.563  -1.486  11.333  0.00  0.00    -0.313 N 
ENDROOT
BRANCH   6   7
ATOM      7  C10 ZIN A   1      18.550  -1.445   9.869  0.00  0.00     0.163 C 
BRANCH   7   8
ATOM      8  C11 ZIN A   1      19.355  -0.237   9.386  0.00  0.00     0.132 C 
ATOM      9  C13 ZIN A   1      19.099  -0.017   7.894  0.00  0.00     0.041 C 
BRANCH   8  10
ATOM     10  O14 ZIN A   1      20.748  -0.476   9.601  0.00  0.00    -0.394 OA
ATOM     11  H24 ZIN A   1      21.183   0.195  10.145  0.00  0.00     0.210 HD
ENDBRANCH   8  10
ENDBRANCH   7   8
ENDBRANCH   6   7
BRANCH   5  12
ATOM     12  N6  ZIN A   1      16.897   0.387  11.781  0.00  0.00    -0.096 N 
ATOM     13  O7  ZIN A   1      15.753   0.110  11.472  0.00  0.00    -0.530 OA
ATOM     14  O8  ZIN A   1      17.268   1.547  11.768  0.00  0.00    -0.530 OA
ENDBRANCH   5  12
TORSDOF 4
ENDMDL
MODEL 3
REMARK VINA RESULT:      -4.6      1.764      3.459
REMARK  4 active torsions:
REMARK  status: ('A' for Active; 'I' for Inactive)
REMARK    1  A    between atoms: C5_5  and  N6_6 
REMARK    2  A    between atoms: N9_9  and  C10_10 
REMARK    3  A    between atoms: C10_10  and  C11_11 
REMARK    4  A    between atoms: C11_11  and  O14_13 
ROOT
ATOM      1  C1  ZIN A   1      18.346  -2.357   9.912  0.00  0.00     0.091 C 
ATOM      2  C2  ZIN A   1      18.710  -2.524   8.459  0.00  0.00     0.103 A 
ATOM      3  N3  ZIN A   1      19.261  -3.582   7.929  0.00  0.00    -0.244 NA
ATOM      4  C4  ZIN A   1      19.439  -3.377   6.616  0.00  0.00     0.173 A 
ATOM      5  C5  ZIN A   1      18.981  -2.146   6.320  0.00  0.00     0.195 A 
ATOM      6  N9  ZIN A   1      18.514  -1.606   7.488  0.00  0.00    -0.313 N 
ENDROOT
BRANCH   6   7
ATOM      7  C10 ZIN A   1      17.921  -0.277   7.655  0.00  0.00     0.163 C 
BRANCH   7   8
ATOM      8  C11 ZIN A   1      19.029   0.777   7.686  0.00  0.00     0.132 C 
ATOM      9  C13 ZIN A   1      18.789   1.736   8.854  0.00  0.00     0.041 C 
BRANCH   8  10
ATOM     10  O14 ZIN A   1      19.025   1.510   6.459  0.00  0.00    -0.394 OA
ATOM     11  H24 ZIN A   1      19.347   2.418   6.542  0.00  0.00     0.210 HD
ENDBRANCH   8  10
ENDBRANCH   7   8
ENDBRANCH   6   7
BRANCH   5  12
ATOM     12  N6  ZIN A   1      18.980  -1.502   4.987  0.00  0.00    -0.096 N 
ATOM     13  O7  ZIN A   1      19.951  -0.868   4.616  0.00  0.00    -0.530 OA
ATOM     14  O8  ZIN A   1      18.008  -1.608   4.261  0.00  0.00    -0.530 OA
ENDBRANCH   5  12
TORSDOF 4
ENDMDL
MODEL 4
REMARK VINA RESULT:      -4.5      8.213      9.752
REMARK  4 active torsions:
REMARK  status: ('A' for Active; 'I' for Inactive)
REMARK    1  A    between atoms: C5_5  and  N6_6 
REMARK    2  A    between atoms: N9_9  and  C10_10 
REMARK    3  A    between atoms: C10_10  and  C11_11 
REMARK    4  A    between atoms: C11_11  and  O14_13 
ROOT
ATOM      1  C1  ZIN A   1      18.779  -1.603  16.436  0.00  0.00     0.091 C 
ATOM      2  C2  ZIN A   1      18.922  -0.201  16.971  0.00  0.00     0.103 A 
ATOM      3  N3  ZIN A   1      18.901   0.139  18.231  0.00  0.00    -0.244 NA
ATOM      4  C4  ZIN A   1      19.057   1.466  18.334  0.00  0.00     0.173 A 
ATOM      5  C5  ZIN A   1      19.179   1.970  17.090  0.00  0.00     0.195 A 
ATOM      6  N9  ZIN A   1      19.097   0.912  16.226  0.00  0.00    -0.313 N 
ENDROOT
BRANCH   6   7
ATOM      7  C10 ZIN A   1      19.178   0.976  14.764  0.00  0.00     0.163 C 
BRANCH   7   8
ATOM      8  C11 ZIN A   1      17.813   1.364  14.194  0.00  0.00     0.132 C 
ATOM      9  C13 ZIN A   1      17.425   0.382  13.086  0.00  0.00     0.041 C 
BRANCH   8  10
ATOM     10  O14 ZIN A   1      17.879   2.687  13.657  0.00  0.00    -0.394 OA
ATOM     11  H24 ZIN A   1      17.560   3.372  14.261  0.00  0.00     0.210 HD
ENDBRANCH   8  10
ENDBRANCH   7   8
ENDBRANCH   6   7
BRANCH   5  12
ATOM     12  N6  ZIN A   1      19.368   3.393  16.729  0.00  0.00    -0.096 N 
ATOM     13  O7  ZIN A   1      20.482   3.882  16.740  0.00  0.00    -0.530 OA
ATOM     14  O8  ZIN A   1      18.407   4.075  16.421  0.00  0.00    -0.530 OA
ENDBRANCH   5  12
TORSDOF 4
ENDMDL
MODEL 5
REMARK VINA RESULT:      -4.5      3.266      4.885
REMARK  4 active torsions:
REMARK  status: ('A' for Active; 'I' for Inactive)
REMARK    1  A    between atoms: C5_5  and  N6_6 
REMARK    2  A    between atoms: N9_9  and  C10_10 
REMARK    3  A    between atoms: C10_10  and  C11_11 
REMARK    4  A    between atoms: C11_11  and  O14_13 
ROOT
ATOM      1  C1  ZIN A   1      18.981   1.076   6.988  0.00  0.00     0.091 C 
ATOM      2  C2  ZIN A   1      18.553  -0.007   7.944  0.00  0.00     0.103 A 
ATOM      3  N3  ZIN A   1      18.141  -1.199   7.608  0.00  0.00    -0.244 NA
ATOM      4  C4  ZIN A   1      17.847  -1.893   8.717  0.00  0.00     0.173 A 
ATOM      5  C5  ZIN A   1      18.086  -1.102   9.781  0.00  0.00     0.195 A 
ATOM      6  N9  ZIN A   1      18.538   0.093   9.291  0.00  0.00    -0.313 N 
ENDROOT
BRANCH   6   7
ATOM      7  C10 ZIN A   1      18.925   1.265  10.080  0.00  0.00     0.163 C 
BRANCH   7   8
ATOM      8  C11 ZIN A   1      17.696   2.141  10.331  0.00  0.00     0.132 C 
ATOM      9  C13 ZIN A   1      18.097   3.615  10.258  0.00  0.00     0.041 C 
BRANCH   8  10
ATOM     10  O14 ZIN A   1      17.164   1.855  11.627  0.00  0.00    -0.394 OA
ATOM     11  H24 ZIN A   1      17.199   0.919  11.868  0.00  0.00     0.210 HD
ENDBRANCH   8  10
ENDBRANCH   7   8
ENDBRANCH   6   7
BRANCH   5  12
ATOM     12  N6  ZIN A   1      17.898  -1.459  11.205  0.00  0.00    -0.096 N 
ATOM     13  O7  ZIN A   1      18.783  -2.033  11.812  0.00  0.00    -0.530 OA
ATOM     14  O8  ZIN A   1      16.857  -1.176  11.771  0.00  0.00    -0.530 OA
ENDBRANCH   5  12
TORSDOF 4
ENDMDL
MODEL 6
REMARK VINA RESULT:      -4.5      5.136      6.853
REMARK  4 active torsions:
REMARK  status: ('A' for Active; 'I' for Inactive)
REMARK    1  A    between atoms: C5_5  and  N6_6 
REMARK    2  A    between atoms: N9_9  and  C10_10 
REMARK    3  A    between atoms: C10_10  and  C11_11 
REMARK    4  A    between atoms: C11_11  and  O14_13 
ROOT
ATOM      1  C1  ZIN A   1      16.975   5.083  10.683  0.00  0.00     0.091 C 
ATOM      2  C2  ZIN A   1      17.367   4.294  11.906  0.00  0.00     0.103 A 
ATOM      3  N3  ZIN A   1      17.414   4.756  13.127  0.00  0.00    -0.244 NA
ATOM      4  C4  ZIN A   1      17.801   3.775  13.955  0.00  0.00     0.173 A 
ATOM      5  C5  ZIN A   1      18.003   2.664  13.221  0.00  0.00     0.195 A 
ATOM      6  N9  ZIN A   1      17.723   2.991  11.922  0.00  0.00    -0.313 N 
ENDROOT
BRANCH   6   7
ATOM      7  C10 ZIN A   1      17.803   2.098  10.764  0.00  0.00     0.163 C 
BRANCH   7   8
ATOM      8  C11 ZIN A   1      19.189   2.210  10.127  0.00  0.00     0.132 C 
ATOM      9  C13 ZIN A   1      19.071   2.028   8.612  0.00  0.00     0.041 C 
BRANCH   8  10
ATOM     10  O14 ZIN A   1      20.044   1.198  10.664  0.00  0.00    -0.394 OA
ATOM     11  H24 ZIN A   1      20.111   1.212  11.628  0.00  0.00     0.210 HD
ENDBRANCH   8  10
ENDBRANCH   7   8
ENDBRANCH   6   7
BRANCH   5  12
ATOM     12  N6  ZIN A   1      18.440   1.342  13.724  0.00  0.00    -0.096 N 
ATOM     13  O7  ZIN A   1      19.609   1.014  13.640  0.00  0.00    -0.530 OA
ATOM     14  O8  ZIN A   1      17.628   0.583  14.224  0.00  0.00    -0.530 OA
ENDBRANCH   5  12
TORSDOF 4
ENDMDL
MODEL 7
REMARK VINA RESULT:      -4.4      4.758      5.977
REMARK  4 active torsions:
REMARK  status: ('A' for Active; 'I' for Inactive)
REMARK    1  A    between atoms: C5_5  and  N6_6 
REMARK    2  A    between atoms: N9_9  and  C10_10 
REMARK    3  A    between atoms: C10_10  and  C11_11 
REMARK    4  A    between atoms: C11_11  and  O14_13 
ROOT
ATOM      1  C1  ZIN A   1      19.519  -1.177  14.554  0.00  0.00     0.091 C 
ATOM      2  C2  ZIN A   1      19.184   0.189  14.014  0.00  0.00     0.103 A 
ATOM      3  N3  ZIN A   1      19.102   1.286  14.717  0.00  0.00    -0.244 NA
ATOM      4  C4  ZIN A   1      18.787   2.307  13.907  0.00  0.00     0.173 A 
ATOM      5  C5  ZIN A   1      18.670   1.826  12.655  0.00  0.00     0.195 A 
ATOM      6  N9  ZIN A   1      18.926   0.484  12.721  0.00  0.00    -0.313 N 
ENDROOT
BRANCH   6   7
ATOM      7  C10 ZIN A   1      18.915  -0.460  11.601  0.00  0.00     0.163 C 
BRANCH   7   8
ATOM      8  C11 ZIN A   1      20.263  -0.410  10.878  0.00  0.00     0.132 C 
ATOM      9  C13 ZIN A   1      20.031  -0.230   9.377  0.00  0.00     0.041 C 
BRANCH   8  10
ATOM     10  O14 ZIN A   1      20.973  -1.630  11.109  0.00  0.00    -0.394 OA
ATOM     11  H24 ZIN A   1      21.304  -1.727  12.012  0.00  0.00     0.210 HD
ENDBRANCH   8  10
ENDBRANCH   7   8
ENDBRANCH   6   7
BRANCH   5  12
ATOM     12  N6  ZIN A   1      18.332   2.602  11.440  0.00  0.00    -0.096 N 
ATOM     13  O7  ZIN A   1      19.218   3.079  10.756  0.00  0.00    -0.530 OA
ATOM     14  O8  ZIN A   1      17.166   2.761  11.124  0.00  0.00    -0.530 OA
ENDBRANCH   5  12
TORSDOF 4
ENDMDL
MODEL 8
REMARK VINA RESULT:      -4.4      2.395      4.082
REMARK  4 active torsions:
REMARK  status: ('A' for Active; 'I' for Inactive)
REMARK    1  A    between atoms: C5_5  and  N6_6 
REMARK    2  A    between atoms: N9_9  and  C10_10 
REMARK    3  A    between atoms: C10_10  and  C11_11 
REMARK    4  A    between atoms: C11_11  and  O14_13 
ROOT
ATOM      1  C1  ZIN A   1      18.899   2.477   9.304  0.00  0.00     0.091 C 
ATOM      2  C2  ZIN A   1      18.935   1.177  10.066  0.00  0.00     0.103 A 
ATOM      3  N3  ZIN A   1      19.660   0.936  11.125  0.00  0.00    -0.244 NA
ATOM      4  C4  ZIN A   1      19.438  -0.321  11.536  0.00  0.00     0.173 A 
ATOM      5  C5  ZIN A   1      18.542  -0.881  10.700  0.00  0.00     0.195 A 
ATOM      6  N9  ZIN A   1      18.220   0.071   9.770  0.00  0.00    -0.313 N 
ENDROOT
BRANCH   6   7
ATOM      7  C10 ZIN A   1      17.280  -0.085   8.658  0.00  0.00     0.163 C 
BRANCH   7   8
ATOM      8  C11 ZIN A   1      18.011  -0.674   7.450  0.00  0.00     0.132 C 
ATOM      9  C13 ZIN A   1      17.581   0.065   6.182  0.00  0.00     0.041 C 
BRANCH   8  10
ATOM     10  O14 ZIN A   1      17.687  -2.061   7.327  0.00  0.00    -0.394 OA
ATOM     11  H24 ZIN A   1      17.783  -2.409   6.430  0.00  0.00     0.210 HD
ENDBRANCH   8  10
ENDBRANCH   7   8
ENDBRANCH   6   7
BRANCH   5  12
ATOM     12  N6  ZIN A   1      18.007  -2.259  10.775  0.00  0.00    -0.096 N 
ATOM     13  O7  ZIN A   1      17.117  -2.525  11.562  0.00  0.00    -0.530 OA
ATOM     14  O8  ZIN A   1      18.457  -3.126  10.048  0.00  0.00    -0.530 OA
ENDBRANCH   5  12
TORSDOF 4
ENDMDL
MODEL 9
REMARK VINA RESULT:      -4.4      2.569      3.995
REMARK  4 active torsions:
REMARK  status: ('A' for Active; 'I' for Inactive)
REMARK    1  A    between atoms: C5_5  and  N6_6 
REMARK    2  A    between atoms: N9_9  and  C10_10 
REMARK    3  A    between atoms: C10_10  and  C11_11 
REMARK    4  A    between atoms: C11_11  and  O14_13 
ROOT
ATOM      1  C1  ZIN A   1      19.148   1.256   6.878  0.00  0.00     0.091 C 
ATOM      2  C2  ZIN A   1      18.638   1.250   8.296  0.00  0.00     0.103 A 
ATOM      3  N3  ZIN A   1      18.737   2.238   9.144  0.00  0.00    -0.244 NA
ATOM      4  C4  ZIN A   1      18.174   1.880  10.307  0.00  0.00     0.173 A 
ATOM      5  C5  ZIN A   1      17.707   0.624  10.176  0.00  0.00     0.195 A 
ATOM      6  N9  ZIN A   1      17.998   0.225   8.899  0.00  0.00    -0.313 N 
ENDROOT
BRANCH   6   7
ATOM      7  C10 ZIN A   1      17.681  -1.074   8.300  0.00  0.00     0.163 C 
BRANCH   7   8
ATOM      8  C11 ZIN A   1      18.824  -2.054   8.571  0.00  0.00     0.132 C 
ATOM      9  C13 ZIN A   1      19.231  -2.737   7.264  0.00  0.00     0.041 C 
BRANCH   8  10
ATOM     10  O14 ZIN A   1      18.393  -3.041   9.512  0.00  0.00    -0.394 OA
ATOM     11  H24 ZIN A   1      18.628  -3.946   9.267  0.00  0.00     0.210 HD
ENDBRANCH   8  10
ENDBRANCH   7   8
ENDBRANCH   6   7
BRANCH   5  12
ATOM     12  N6  ZIN A   1      17.012  -0.172  11.212  0.00  0.00    -0.096 N 
ATOM     13  O7  ZIN A   1      15.867   0.101  11.523  0.00  0.00    -0.530 OA
ATOM     14  O8  ZIN A   1      17.585  -1.100  11.753  0.00  0.00    -0.530 OA
ENDBRANCH   5  12
TORSDOF 4
ENDMDL
