MODEL 1
REMARK VINA RESULT:      -8.6      0.000      0.000
REMARK  11 active torsions:
REMARK  status: ('A' for Active; 'I' for Inactive)
REMARK    1  A    between atoms: N1_1  and  C2_2 
REMARK    2  A    between atoms: N9_9  and  C10_10 
REMARK    3  A    between atoms: C12_12  and  C14_13 
REMARK    4  A    between atoms: C14_13  and  N15_14 
REMARK    5  A    between atoms: N15_14  and  C16_15 
REMARK    6  A    between atoms: C19_18  and  C20_19 
REMARK       I    between atoms: C20_19  and  N22_21 
REMARK    7  A    between atoms: N22_21  and  C23_22 
REMARK    8  A    between atoms: C23_22  and  C25_23 
REMARK    9  A    between atoms: C23_22  and  C30_28 
REMARK   10  A    between atoms: C25_23  and  C26_24 
REMARK   11  A    between atoms: C26_24  and  C27_25 
ROOT
ATOM      1  N15 ZIN A   1      19.565   1.925   8.894  0.00  0.00    -0.388 N 
ATOM      2  H43 ZIN A   1      20.038   2.408   8.198  0.00  0.00     0.159 HD
ENDROOT
BRANCH   1   3
ATOM      3  C14 ZIN A   1      19.310   0.489   8.746  0.00  0.00     0.147 C 
BRANCH   3   4
ATOM      4  C12 ZIN A   1      17.816   0.215   8.929  0.00  0.00     0.128 C 
ATOM      5  N9  ZIN A   1      17.613  -0.706  10.059  0.00  0.00    -0.309 N 
ATOM      6  C5  ZIN A   1      17.906  -2.073   9.873  0.00  0.00     0.153 A 
ATOM      7  C4  ZIN A   1      18.048  -2.586   8.590  0.00  0.00     0.175 A 
ATOM      8  C6  ZIN A   1      18.054  -2.929  10.969  0.00  0.00     0.290 A 
ATOM      9  N3  ZIN A   1      18.321  -3.886   8.425  0.00  0.00    -0.045 NA
ATOM     10  N36 ZIN A   1      17.911  -1.752   7.493  0.00  0.00    -0.370 N 
ATOM     11  C2  ZIN A   1      18.458  -4.686   9.460  0.00  0.00     0.703 A 
ATOM     12  N8  ZIN A   1      18.325  -4.232  10.736  0.00  0.00    -0.152 N 
ATOM     13  H39 ZIN A   1      18.432  -4.844  11.482  0.00  0.00     0.187 HD
ATOM     14  C35 ZIN A   1      17.251  -0.450   7.665  0.00  0.00     0.148 C 
ATOM     15  H55 ZIN A   1      18.245  -2.023   6.624  0.00  0.00     0.161 HD
ATOM     16  O7  ZIN A   1      17.936  -2.510  12.110  0.00  0.00    -0.265 OA
BRANCH   5  17
ATOM     17  C10 ZIN A   1      17.160  -0.254  11.244  0.00  0.00     0.356 C 
ATOM     18  O11 ZIN A   1      15.991   0.048  11.372  0.00  0.00    -0.283 OA
ENDBRANCH   5  17
BRANCH  11  19
ATOM     19  N1  ZIN A   1      18.737  -6.012   9.248  0.00  0.00    -0.233 N 
ATOM     20  H37 ZIN A   1      19.194  -6.287   8.438  0.00  0.00     0.174 HD
ATOM     21  H38 ZIN A   1      18.481  -6.673   9.909  0.00  0.00     0.174 HD
ENDBRANCH  11  19
ENDBRANCH   3   4
ENDBRANCH   1   3
BRANCH   1  22
ATOM     22  C16 ZIN A   1      19.131   2.595  10.031  0.00  0.00     0.028 A 
ATOM     23  C34 ZIN A   1      18.122   3.549   9.933  0.00  0.00     0.030 A 
ATOM     24  C33 ZIN A   1      17.686   4.210  11.060  0.00  0.00     0.019 A 
ATOM     25  C19 ZIN A   1      18.266   3.930  12.301  0.00  0.00     0.032 A 
ATOM     26  C18 ZIN A   1      19.283   2.975  12.395  0.00  0.00     0.019 A 
ATOM     27  C17 ZIN A   1      19.710   2.314  11.267  0.00  0.00     0.030 A 
BRANCH  25  28
ATOM     28  C20 ZIN A   1      17.806   4.641  13.509  0.00  0.00     0.252 C 
ATOM     29  O21 ZIN A   1      16.729   5.205  13.509  0.00  0.00    -0.268 OA
ATOM     30  N22 ZIN A   1      18.580   4.666  14.612  0.00  0.00    -0.342 N 
ATOM     31  H46 ZIN A   1      19.439   4.216  14.613  0.00  0.00     0.163 HD
BRANCH  30  32
ATOM     32  C23 ZIN A   1      18.123   5.373  15.811  0.00  0.00     0.186 C 
BRANCH  32  33
ATOM     33  C25 ZIN A   1      18.518   4.574  17.055  0.00  0.00     0.046 C 
BRANCH  33  34
ATOM     34  C26 ZIN A   1      19.537   3.500  16.671  0.00  0.00     0.116 C 
BRANCH  34  35
ATOM     35  C27 ZIN A   1      19.286   2.254  17.481  0.00  0.00     0.172 C 
ATOM     36  O28 ZIN A   1      19.697   2.180  18.626  0.00  0.00    -0.648 OA
ATOM     37  O29 ZIN A   1      18.671   1.323  16.992  0.00  0.00    -0.648 OA
ENDBRANCH  34  35
ENDBRANCH  33  34
ENDBRANCH  32  33
BRANCH  32  38
ATOM     38  C30 ZIN A   1      18.762   6.735  15.865  0.00  0.00     0.196 C 
ATOM     39  O31 ZIN A   1      18.425   7.533  16.724  0.00  0.00    -0.646 OA
ATOM     40  O32 ZIN A   1      19.616   7.041  15.050  0.00  0.00    -0.646 OA
ENDBRANCH  32  38
ENDBRANCH  30  32
ENDBRANCH  25  28
ENDBRANCH   1  22
TORSDOF 11
ENDMDL
MODEL 2
REMARK VINA RESULT:      -8.1      2.464      4.720
REMARK  11 active torsions:
REMARK  status: ('A' for Active; 'I' for Inactive)
REMARK    1  A    between atoms: N1_1  and  C2_2 
REMARK    2  A    between atoms: N9_9  and  C10_10 
REMARK    3  A    between atoms: C12_12  and  C14_13 
REMARK    4  A    between atoms: C14_13  and  N15_14 
REMARK    5  A    between atoms: N15_14  and  C16_15 
REMARK    6  A    between atoms: C19_18  and  C20_19 
REMARK       I    between atoms: C20_19  and  N22_21 
REMARK    7  A    between atoms: N22_21  and  C23_22 
REMARK    8  A    between atoms: C23_22  and  C25_23 
REMARK    9  A    between atoms: C23_22  and  C30_28 
REMARK   10  A    between atoms: C25_23  and  C26_24 
REMARK   11  A    between atoms: C26_24  and  C27_25 
ROOT
ATOM      1  N15 ZIN A   1      19.155  -1.786  13.860  0.00  0.00    -0.388 N 
ATOM      2  H43 ZIN A   1      19.274  -2.715  14.113  0.00  0.00     0.159 HD
ENDROOT
BRANCH   1   3
ATOM      3  C14 ZIN A   1      19.065  -1.418  12.445  0.00  0.00     0.147 C 
BRANCH   3   4
ATOM      4  C12 ZIN A   1      17.654  -1.710  11.930  0.00  0.00     0.128 C 
ATOM      5  N9  ZIN A   1      17.726  -2.290  10.579  0.00  0.00    -0.309 N 
ATOM      6  C5  ZIN A   1      18.013  -1.437   9.495  0.00  0.00     0.153 A 
ATOM      7  C4  ZIN A   1      17.892  -0.061   9.641  0.00  0.00     0.175 A 
ATOM      8  C6  ZIN A   1      18.419  -1.957   8.261  0.00  0.00     0.290 A 
ATOM      9  N3  ZIN A   1      18.162   0.740   8.604  0.00  0.00    -0.045 NA
ATOM     10  N36 ZIN A   1      17.497   0.472  10.857  0.00  0.00    -0.370 N 
ATOM     11  C2  ZIN A   1      18.542   0.245   7.446  0.00  0.00     0.703 A 
ATOM     12  N8  ZIN A   1      18.673  -1.096   7.252  0.00  0.00    -0.152 N 
ATOM     13  H39 ZIN A   1      18.956  -1.435   6.387  0.00  0.00     0.187 HD
ATOM     14  C35 ZIN A   1      16.851  -0.403  11.844  0.00  0.00     0.148 C 
ATOM     15  H55 ZIN A   1      17.645   1.410  11.054  0.00  0.00     0.161 HD
ATOM     16  O7  ZIN A   1      18.536  -3.162   8.100  0.00  0.00    -0.265 OA
BRANCH   5  17
ATOM     17  C10 ZIN A   1      17.525  -3.609  10.384  0.00  0.00     0.356 C 
ATOM     18  O11 ZIN A   1      16.945  -4.265  11.225  0.00  0.00    -0.283 OA
ENDBRANCH   5  17
BRANCH  11  19
ATOM     19  N1  ZIN A   1      18.809   1.100   6.407  0.00  0.00    -0.233 N 
ATOM     20  H37 ZIN A   1      19.688   1.503   6.326  0.00  0.00     0.174 HD
ATOM     21  H38 ZIN A   1      18.122   1.298   5.753  0.00  0.00     0.174 HD
ENDBRANCH  11  19
ENDBRANCH   3   4
ENDBRANCH   1   3
BRANCH   1  22
ATOM     22  C16 ZIN A   1      19.068  -0.805  14.840  0.00  0.00     0.028 A 
ATOM     23  C34 ZIN A   1      19.289   0.529  14.510  0.00  0.00     0.030 A 
ATOM     24  C33 ZIN A   1      19.198   1.504  15.478  0.00  0.00     0.019 A 
ATOM     25  C19 ZIN A   1      18.896   1.151  16.797  0.00  0.00     0.032 A 
ATOM     26  C18 ZIN A   1      18.681  -0.190  17.126  0.00  0.00     0.019 A 
ATOM     27  C17 ZIN A   1      18.767  -1.160  16.153  0.00  0.00     0.030 A 
BRANCH  25  28
ATOM     28  C20 ZIN A   1      18.805   2.192  17.838  0.00  0.00     0.252 C 
ATOM     29  O21 ZIN A   1      19.599   2.203  18.757  0.00  0.00    -0.268 OA
ATOM     30  N22 ZIN A   1      17.840   3.131  17.769  0.00  0.00    -0.342 N 
ATOM     31  H46 ZIN A   1      17.206   3.123  17.035  0.00  0.00     0.163 HD
BRANCH  30  32
ATOM     32  C23 ZIN A   1      17.749   4.165  18.803  0.00  0.00     0.186 C 
BRANCH  32  33
ATOM     33  C25 ZIN A   1      17.804   5.547  18.149  0.00  0.00     0.046 C 
BRANCH  33  34
ATOM     34  C26 ZIN A   1      17.922   5.389  16.632  0.00  0.00     0.116 C 
BRANCH  34  35
ATOM     35  C27 ZIN A   1      19.339   5.677  16.204  0.00  0.00     0.172 C 
ATOM     36  O28 ZIN A   1      19.645   6.795  15.827  0.00  0.00    -0.648 OA
ATOM     37  O29 ZIN A   1      20.177   4.793  16.236  0.00  0.00    -0.648 OA
ENDBRANCH  34  35
ENDBRANCH  33  34
ENDBRANCH  32  33
BRANCH  32  38
ATOM     38  C30 ZIN A   1      16.450   4.015  19.551  0.00  0.00     0.196 C 
ATOM     39  O31 ZIN A   1      16.404   3.334  20.561  0.00  0.00    -0.646 OA
ATOM     40  O32 ZIN A   1      15.445   4.574  19.145  0.00  0.00    -0.646 OA
ENDBRANCH  32  38
ENDBRANCH  30  32
ENDBRANCH  25  28
ENDBRANCH   1  22
TORSDOF 11
ENDMDL
MODEL 3
REMARK VINA RESULT:      -8.1      1.974      2.799
REMARK  11 active torsions:
REMARK  status: ('A' for Active; 'I' for Inactive)
REMARK    1  A    between atoms: N1_1  and  C2_2 
REMARK    2  A    between atoms: N9_9  and  C10_10 
REMARK    3  A    between atoms: C12_12  and  C14_13 
REMARK    4  A    between atoms: C14_13  and  N15_14 
REMARK    5  A    between atoms: N15_14  and  C16_15 
REMARK    6  A    between atoms: C19_18  and  C20_19 
REMARK       I    between atoms: C20_19  and  N22_21 
REMARK    7  A    between atoms: N22_21  and  C23_22 
REMARK    8  A    between atoms: C23_22  and  C25_23 
REMARK    9  A    between atoms: C23_22  and  C30_28 
REMARK   10  A    between atoms: C25_23  and  C26_24 
REMARK   11  A    between atoms: C26_24  and  C27_25 
ROOT
ATOM      1  N15 ZIN A   1      19.546   1.062   8.602  0.00  0.00    -0.388 N 
ATOM      2  H43 ZIN A   1      19.617   1.520   7.750  0.00  0.00     0.159 HD
ENDROOT
BRANCH   1   3
ATOM      3  C14 ZIN A   1      19.699  -0.393   8.668  0.00  0.00     0.147 C 
BRANCH   3   4
ATOM      4  C12 ZIN A   1      18.327  -1.042   8.858  0.00  0.00     0.128 C 
ATOM      5  N9  ZIN A   1      18.405  -2.476   8.534  0.00  0.00    -0.309 N 
ATOM      6  C5  ZIN A   1      18.467  -2.857   7.179  0.00  0.00     0.153 A 
ATOM      7  C4  ZIN A   1      18.123  -1.950   6.184  0.00  0.00     0.175 A 
ATOM      8  C6  ZIN A   1      18.870  -4.147   6.814  0.00  0.00     0.290 A 
ATOM      9  N3  ZIN A   1      18.181  -2.324   4.900  0.00  0.00    -0.045 NA
ATOM     10  N36 ZIN A   1      17.727  -0.668   6.526  0.00  0.00    -0.370 N 
ATOM     11  C2  ZIN A   1      18.560  -3.539   4.565  0.00  0.00     0.703 A 
ATOM     12  N8  ZIN A   1      18.904  -4.464   5.502  0.00  0.00    -0.152 N 
ATOM     13  H39 ZIN A   1      19.181  -5.352   5.226  0.00  0.00     0.187 HD
ATOM     14  C35 ZIN A   1      17.309  -0.395   7.908  0.00  0.00     0.148 C 
ATOM     15  H55 ZIN A   1      17.726   0.039   5.863  0.00  0.00     0.161 HD
ATOM     16  O7  ZIN A   1      19.180  -4.967   7.664  0.00  0.00    -0.265 OA
BRANCH   5  17
ATOM     17  C10 ZIN A   1      18.418  -3.404   9.512  0.00  0.00     0.356 C 
ATOM     18  O11 ZIN A   1      17.392  -3.683  10.098  0.00  0.00    -0.283 OA
ENDBRANCH   5  17
BRANCH  11  19
ATOM     19  N1  ZIN A   1      18.605  -3.882   3.238  0.00  0.00    -0.233 N 
ATOM     20  H37 ZIN A   1      17.843  -4.318   2.824  0.00  0.00     0.174 HD
ATOM     21  H38 ZIN A   1      19.396  -3.685   2.713  0.00  0.00     0.174 HD
ENDBRANCH  11  19
ENDBRANCH   3   4
ENDBRANCH   1   3
BRANCH   1  22
ATOM     22  C16 ZIN A   1      19.299   1.788   9.761  0.00  0.00     0.028 A 
ATOM     23  C34 ZIN A   1      19.858   1.380  10.969  0.00  0.00     0.030 A 
ATOM     24  C33 ZIN A   1      19.621   2.101  12.118  0.00  0.00     0.019 A 
ATOM     25  C19 ZIN A   1      18.807   3.237  12.072  0.00  0.00     0.032 A 
ATOM     26  C18 ZIN A   1      18.243   3.641  10.859  0.00  0.00     0.019 A 
ATOM     27  C17 ZIN A   1      18.489   2.920   9.713  0.00  0.00     0.030 A 
BRANCH  25  28
ATOM     28  C20 ZIN A   1      18.545   4.008  13.302  0.00  0.00     0.252 C 
ATOM     29  O21 ZIN A   1      17.508   4.630  13.421  0.00  0.00    -0.268 OA
ATOM     30  N22 ZIN A   1      19.457   4.023  14.296  0.00  0.00    -0.342 N 
ATOM     31  H46 ZIN A   1      20.285   3.526  14.202  0.00  0.00     0.163 HD
BRANCH  30  32
ATOM     32  C23 ZIN A   1      19.197   4.788  15.517  0.00  0.00     0.186 C 
BRANCH  32  33
ATOM     33  C25 ZIN A   1      19.667   3.986  16.732  0.00  0.00     0.046 C 
BRANCH  33  34
ATOM     34  C26 ZIN A   1      19.241   2.525  16.575  0.00  0.00     0.116 C 
BRANCH  34  35
ATOM     35  C27 ZIN A   1      18.967   1.932  17.934  0.00  0.00     0.172 C 
ATOM     36  O28 ZIN A   1      17.822   1.858  18.346  0.00  0.00    -0.648 OA
ATOM     37  O29 ZIN A   1      19.889   1.527  18.619  0.00  0.00    -0.648 OA
ENDBRANCH  34  35
ENDBRANCH  33  34
ENDBRANCH  32  33
BRANCH  32  38
ATOM     38  C30 ZIN A   1      19.943   6.096  15.459  0.00  0.00     0.196 C 
ATOM     39  O31 ZIN A   1      19.352   7.122  15.167  0.00  0.00    -0.646 OA
ATOM     40  O32 ZIN A   1      21.137   6.128  15.704  0.00  0.00    -0.646 OA
ENDBRANCH  32  38
ENDBRANCH  30  32
ENDBRANCH  25  28
ENDBRANCH   1  22
TORSDOF 11
ENDMDL
MODEL 4
REMARK VINA RESULT:      -8.0      1.318      1.816
REMARK  11 active torsions:
REMARK  status: ('A' for Active; 'I' for Inactive)
REMARK    1  A    between atoms: N1_1  and  C2_2 
REMARK    2  A    between atoms: N9_9  and  C10_10 
REMARK    3  A    between atoms: C12_12  and  C14_13 
REMARK    4  A    between atoms: C14_13  and  N15_14 
REMARK    5  A    between atoms: N15_14  and  C16_15 
REMARK    6  A    between atoms: C19_18  and  C20_19 
REMARK       I    between atoms: C20_19  and  N22_21 
REMARK    7  A    between atoms: N22_21  and  C23_22 
REMARK    8  A    between atoms: C23_22  and  C25_23 
REMARK    9  A    between atoms: C23_22  and  C30_28 
REMARK   10  A    between atoms: C25_23  and  C26_24 
REMARK   11  A    between atoms: C26_24  and  C27_25 
ROOT
ATOM      1  N15 ZIN A   1      19.490   1.941   9.128  0.00  0.00    -0.388 N 
ATOM      2  H43 ZIN A   1      19.907   2.363   8.360  0.00  0.00     0.159 HD
ENDROOT
BRANCH   1   3
ATOM      3  C14 ZIN A   1      19.301   0.488   9.153  0.00  0.00     0.147 C 
BRANCH   3   4
ATOM      4  C12 ZIN A   1      17.811   0.170   9.286  0.00  0.00     0.128 C 
ATOM      5  N9  ZIN A   1      17.614  -0.881  10.298  0.00  0.00    -0.309 N 
ATOM      6  C5  ZIN A   1      17.933  -2.211   9.958  0.00  0.00     0.153 A 
ATOM      7  C4  ZIN A   1      18.096  -2.568   8.626  0.00  0.00     0.175 A 
ATOM      8  C6  ZIN A   1      18.086  -3.187  10.949  0.00  0.00     0.290 A 
ATOM      9  N3  ZIN A   1      18.394  -3.836   8.313  0.00  0.00    -0.045 NA
ATOM     10  N36 ZIN A   1      17.954  -1.614   7.632  0.00  0.00    -0.370 N 
ATOM     11  C2  ZIN A   1      18.535  -4.749   9.250  0.00  0.00     0.703 A 
ATOM     12  N8  ZIN A   1      18.382  -4.449  10.569  0.00  0.00    -0.152 N 
ATOM     13  H39 ZIN A   1      18.493  -5.142  11.239  0.00  0.00     0.187 HD
ATOM     14  C35 ZIN A   1      17.270  -0.353   7.947  0.00  0.00     0.148 C 
ATOM     15  H55 ZIN A   1      18.301  -1.777   6.741  0.00  0.00     0.161 HD
ATOM     16  O7  ZIN A   1      17.950  -2.905  12.129  0.00  0.00    -0.265 OA
BRANCH   5  17
ATOM     17  C10 ZIN A   1      17.142  -0.577  11.523  0.00  0.00     0.356 C 
ATOM     18  O11 ZIN A   1      16.164   0.133  11.638  0.00  0.00    -0.283 OA
ENDBRANCH   5  17
BRANCH  11  19
ATOM     19  N1  ZIN A   1      18.840  -6.036   8.888  0.00  0.00    -0.233 N 
ATOM     20  H37 ZIN A   1      18.214  -6.753   9.078  0.00  0.00     0.174 HD
ATOM     21  H38 ZIN A   1      19.677  -6.228   8.438  0.00  0.00     0.174 HD
ENDBRANCH  11  19
ENDBRANCH   3   4
ENDBRANCH   1   3
BRANCH   1  22
ATOM     22  C16 ZIN A   1      19.074   2.715  10.205  0.00  0.00     0.028 A 
ATOM     23  C34 ZIN A   1      19.693   2.573  11.444  0.00  0.00     0.030 A 
ATOM     24  C33 ZIN A   1      19.287   3.343  12.510  0.00  0.00     0.019 A 
ATOM     25  C19 ZIN A   1      18.242   4.259  12.351  0.00  0.00     0.032 A 
ATOM     26  C18 ZIN A   1      17.619   4.394  11.107  0.00  0.00     0.019 A 
ATOM     27  C17 ZIN A   1      18.033   3.627  10.043  0.00  0.00     0.030 A 
BRANCH  25  28
ATOM     28  C20 ZIN A   1      17.799   5.080  13.494  0.00  0.00     0.252 C 
ATOM     29  O21 ZIN A   1      17.041   6.012  13.314  0.00  0.00    -0.268 OA
ATOM     30  N22 ZIN A   1      18.236   4.796  14.737  0.00  0.00    -0.342 N 
ATOM     31  H46 ZIN A   1      18.842   4.052  14.881  0.00  0.00     0.163 HD
BRANCH  30  32
ATOM     32  C23 ZIN A   1      17.797   5.612  15.872  0.00  0.00     0.186 C 
BRANCH  32  33
ATOM     33  C25 ZIN A   1      17.698   4.736  17.122  0.00  0.00     0.046 C 
BRANCH  33  34
ATOM     34  C26 ZIN A   1      17.127   5.558  18.278  0.00  0.00     0.116 C 
BRANCH  34  35
ATOM     35  C27 ZIN A   1      15.954   4.831  18.883  0.00  0.00     0.172 C 
ATOM     36  O28 ZIN A   1      16.119   3.747  19.416  0.00  0.00    -0.648 OA
ATOM     37  O29 ZIN A   1      14.841   5.327  18.840  0.00  0.00    -0.648 OA
ENDBRANCH  34  35
ENDBRANCH  33  34
ENDBRANCH  32  33
BRANCH  32  38
ATOM     38  C30 ZIN A   1      18.792   6.717  16.111  0.00  0.00     0.196 C 
ATOM     39  O31 ZIN A   1      18.428   7.880  16.091  0.00  0.00    -0.646 OA
ATOM     40  O32 ZIN A   1      19.963   6.448  16.325  0.00  0.00    -0.646 OA
ENDBRANCH  32  38
ENDBRANCH  30  32
ENDBRANCH  25  28
ENDBRANCH   1  22
TORSDOF 11
ENDMDL
MODEL 5
REMARK VINA RESULT:      -7.9      3.384     10.046
REMARK  11 active torsions:
REMARK  status: ('A' for Active; 'I' for Inactive)
REMARK    1  A    between atoms: N1_1  and  C2_2 
REMARK    2  A    between atoms: N9_9  and  C10_10 
REMARK    3  A    between atoms: C12_12  and  C14_13 
REMARK    4  A    between atoms: C14_13  and  N15_14 
REMARK    5  A    between atoms: N15_14  and  C16_15 
REMARK    6  A    between atoms: C19_18  and  C20_19 
REMARK       I    between atoms: C20_19  and  N22_21 
REMARK    7  A    between atoms: N22_21  and  C23_22 
REMARK    8  A    between atoms: C23_22  and  C25_23 
REMARK    9  A    between atoms: C23_22  and  C30_28 
REMARK   10  A    between atoms: C25_23  and  C26_24 
REMARK   11  A    between atoms: C26_24  and  C27_25 
ROOT
ATOM      1  N15 ZIN A   1      19.803  -1.402  13.675  0.00  0.00    -0.388 N 
ATOM      2  H43 ZIN A   1      20.169  -1.935  14.398  0.00  0.00     0.159 HD
ENDROOT
BRANCH   1   3
ATOM      3  C14 ZIN A   1      19.776   0.059  13.783  0.00  0.00     0.147 C 
BRANCH   3   4
ATOM      4  C12 ZIN A   1      18.370   0.568  13.459  0.00  0.00     0.128 C 
ATOM      5  N9  ZIN A   1      18.453   1.900  12.838  0.00  0.00    -0.309 N 
ATOM      6  C5  ZIN A   1      18.733   3.009  13.661  0.00  0.00     0.153 A 
ATOM      7  C4  ZIN A   1      18.597   2.906  15.040  0.00  0.00     0.175 A 
ATOM      8  C6  ZIN A   1      19.149   4.225  13.107  0.00  0.00     0.290 A 
ATOM      9  N3  ZIN A   1      18.861   3.967  15.811  0.00  0.00    -0.045 NA
ATOM     10  N36 ZIN A   1      18.192   1.709  15.605  0.00  0.00    -0.370 N 
ATOM     11  C2  ZIN A   1      19.250   5.108  15.284  0.00  0.00     0.703 A 
ATOM     12  N8  ZIN A   1      19.396   5.260  13.939  0.00  0.00    -0.152 N 
ATOM     13  H39 ZIN A   1      19.686   6.113  13.577  0.00  0.00     0.187 HD
ATOM     14  C35 ZIN A   1      17.553   0.697  14.753  0.00  0.00     0.148 C 
ATOM     15  H55 ZIN A   1      18.329   1.540  16.551  0.00  0.00     0.161 HD
ATOM     16  O7  ZIN A   1      19.280   4.349  11.899  0.00  0.00    -0.265 OA
BRANCH   5  17
ATOM     17  C10 ZIN A   1      18.266   2.055  11.512  0.00  0.00     0.356 C 
ATOM     18  O11 ZIN A   1      17.172   1.855  11.026  0.00  0.00    -0.283 OA
ENDBRANCH   5  17
BRANCH  11  19
ATOM     19  N1  ZIN A   1      19.511   6.172  16.110  0.00  0.00    -0.233 N 
ATOM     20  H37 ZIN A   1      19.719   7.040  15.730  0.00  0.00     0.174 HD
ATOM     21  H38 ZIN A   1      19.483   6.057  17.072  0.00  0.00     0.174 HD
ENDBRANCH  11  19
ENDBRANCH   3   4
ENDBRANCH   1   3
BRANCH   1  22
ATOM     22  C16 ZIN A   1      19.306  -2.025  12.536  0.00  0.00     0.028 A 
ATOM     23  C34 ZIN A   1      19.823  -1.699  11.285  0.00  0.00     0.030 A 
ATOM     24  C33 ZIN A   1      19.337  -2.319  10.155  0.00  0.00     0.019 A 
ATOM     25  C19 ZIN A   1      18.315  -3.267  10.265  0.00  0.00     0.032 A 
ATOM     26  C18 ZIN A   1      17.795  -3.587  11.523  0.00  0.00     0.019 A 
ATOM     27  C17 ZIN A   1      18.288  -2.969  12.648  0.00  0.00     0.030 A 
BRANCH  25  28
ATOM     28  C20 ZIN A   1      17.787  -3.928   9.057  0.00  0.00     0.252 C 
ATOM     29  O21 ZIN A   1      16.676  -4.420   9.069  0.00  0.00    -0.268 OA
ATOM     30  N22 ZIN A   1      18.538  -3.986   7.938  0.00  0.00    -0.342 N 
ATOM     31  H46 ZIN A   1      19.425  -3.593   7.928  0.00  0.00     0.163 HD
BRANCH  30  32
ATOM     32  C23 ZIN A   1      18.014  -4.643   6.738  0.00  0.00     0.186 C 
BRANCH  32  33
ATOM     33  C25 ZIN A   1      18.289  -3.765   5.516  0.00  0.00     0.046 C 
BRANCH  33  34
ATOM     34  C26 ZIN A   1      19.399  -2.765   5.844  0.00  0.00     0.116 C 
BRANCH  34  35
ATOM     35  C27 ZIN A   1      19.092  -1.440   5.194  0.00  0.00     0.172 C 
ATOM     36  O28 ZIN A   1      17.972  -0.968   5.274  0.00  0.00    -0.648 OA
ATOM     37  O29 ZIN A   1      19.965  -0.841   4.589  0.00  0.00    -0.648 OA
ENDBRANCH  34  35
ENDBRANCH  33  34
ENDBRANCH  32  33
BRANCH  32  38
ATOM     38  C30 ZIN A   1      18.690  -5.977   6.560  0.00  0.00     0.196 C 
ATOM     39  O31 ZIN A   1      19.405  -6.421   7.442  0.00  0.00    -0.646 OA
ATOM     40  O32 ZIN A   1      18.522  -6.613   5.533  0.00  0.00    -0.646 OA
ENDBRANCH  32  38
ENDBRANCH  30  32
ENDBRANCH  25  28
ENDBRANCH   1  22
TORSDOF 11
ENDMDL
MODEL 6
REMARK VINA RESULT:      -7.9      2.643      5.392
REMARK  11 active torsions:
REMARK  status: ('A' for Active; 'I' for Inactive)
REMARK    1  A    between atoms: N1_1  and  C2_2 
REMARK    2  A    between atoms: N9_9  and  C10_10 
REMARK    3  A    between atoms: C12_12  and  C14_13 
REMARK    4  A    between atoms: C14_13  and  N15_14 
REMARK    5  A    between atoms: N15_14  and  C16_15 
REMARK    6  A    between atoms: C19_18  and  C20_19 
REMARK       I    between atoms: C20_19  and  N22_21 
REMARK    7  A    between atoms: N22_21  and  C23_22 
REMARK    8  A    between atoms: C23_22  and  C25_23 
REMARK    9  A    between atoms: C23_22  and  C30_28 
REMARK   10  A    between atoms: C25_23  and  C26_24 
REMARK   11  A    between atoms: C26_24  and  C27_25 
ROOT
ATOM      1  N15 ZIN A   1      19.056  -1.575  13.613  0.00  0.00    -0.388 N 
ATOM      2  H43 ZIN A   1      18.731  -2.477  13.760  0.00  0.00     0.159 HD
ENDROOT
BRANCH   1   3
ATOM      3  C14 ZIN A   1      19.631  -1.206  12.317  0.00  0.00     0.147 C 
BRANCH   3   4
ATOM      4  C12 ZIN A   1      18.614  -1.486  11.209  0.00  0.00     0.128 C 
ATOM      5  N9  ZIN A   1      18.859  -0.587  10.069  0.00  0.00    -0.309 N 
ATOM      6  C5  ZIN A   1      18.463   0.761  10.179  0.00  0.00     0.153 A 
ATOM      7  C4  ZIN A   1      17.574   1.148  11.174  0.00  0.00     0.175 A 
ATOM      8  C6  ZIN A   1      18.953   1.727   9.292  0.00  0.00     0.290 A 
ATOM      9  N3  ZIN A   1      17.201   2.430  11.266  0.00  0.00    -0.045 NA
ATOM     10  N36 ZIN A   1      17.083   0.207  12.064  0.00  0.00    -0.370 N 
ATOM     11  C2  ZIN A   1      17.664   3.332  10.428  0.00  0.00     0.703 A 
ATOM     12  N8  ZIN A   1      18.535   3.003   9.434  0.00  0.00    -0.152 N 
ATOM     13  H39 ZIN A   1      18.862   3.689   8.831  0.00  0.00     0.187 HD
ATOM     14  C35 ZIN A   1      17.193  -1.219  11.728  0.00  0.00     0.148 C 
ATOM     15  H55 ZIN A   1      16.673   0.486  12.897  0.00  0.00     0.161 HD
ATOM     16  O7  ZIN A   1      19.736   1.420   8.406  0.00  0.00    -0.265 OA
BRANCH   5  17
ATOM     17  C10 ZIN A   1      19.449  -1.043   8.947  0.00  0.00     0.356 C 
ATOM     18  O11 ZIN A   1      18.854  -1.806   8.214  0.00  0.00    -0.283 OA
ENDBRANCH   5  17
BRANCH  11  19
ATOM     19  N1  ZIN A   1      17.257   4.635  10.556  0.00  0.00    -0.233 N 
ATOM     20  H37 ZIN A   1      17.254   5.220   9.781  0.00  0.00     0.174 HD
ATOM     21  H38 ZIN A   1      16.968   4.970  11.418  0.00  0.00     0.174 HD
ENDBRANCH  11  19
ENDBRANCH   3   4
ENDBRANCH   1   3
BRANCH   1  22
ATOM     22  C16 ZIN A   1      18.974  -0.633  14.631  0.00  0.00     0.028 A 
ATOM     23  C34 ZIN A   1      18.435  -0.988  15.865  0.00  0.00     0.030 A 
ATOM     24  C33 ZIN A   1      18.358  -0.058  16.877  0.00  0.00     0.019 A 
ATOM     25  C19 ZIN A   1      18.810   1.247  16.661  0.00  0.00     0.032 A 
ATOM     26  C18 ZIN A   1      19.345   1.602  15.420  0.00  0.00     0.019 A 
ATOM     27  C17 ZIN A   1      19.425   0.667  14.413  0.00  0.00     0.030 A 
BRANCH  25  28
ATOM     28  C20 ZIN A   1      18.723   2.248  17.742  0.00  0.00     0.252 C 
ATOM     29  O21 ZIN A   1      19.472   2.179  18.696  0.00  0.00    -0.268 OA
ATOM     30  N22 ZIN A   1      17.812   3.238  17.671  0.00  0.00    -0.342 N 
ATOM     31  H46 ZIN A   1      17.213   3.294  16.909  0.00  0.00     0.163 HD
BRANCH  30  32
ATOM     32  C23 ZIN A   1      17.724   4.232  18.744  0.00  0.00     0.186 C 
BRANCH  32  33
ATOM     33  C25 ZIN A   1      17.726   5.637  18.140  0.00  0.00     0.046 C 
BRANCH  33  34
ATOM     34  C26 ZIN A   1      17.465   5.546  16.635  0.00  0.00     0.116 C 
BRANCH  34  35
ATOM     35  C27 ZIN A   1      18.564   6.260  15.889  0.00  0.00     0.172 C 
ATOM     36  O28 ZIN A   1      18.437   6.499  14.701  0.00  0.00    -0.648 OA
ATOM     37  O29 ZIN A   1      19.577   6.599  16.475  0.00  0.00    -0.648 OA
ENDBRANCH  34  35
ENDBRANCH  33  34
ENDBRANCH  32  33
BRANCH  32  38
ATOM     38  C30 ZIN A   1      16.451   4.021  19.521  0.00  0.00     0.196 C 
ATOM     39  O31 ZIN A   1      15.435   4.612  19.198  0.00  0.00    -0.646 OA
ATOM     40  O32 ZIN A   1      16.437   3.260  20.474  0.00  0.00    -0.646 OA
ENDBRANCH  32  38
ENDBRANCH  30  32
ENDBRANCH  25  28
ENDBRANCH   1  22
TORSDOF 11
ENDMDL
MODEL 7
REMARK VINA RESULT:      -7.9      3.084      6.474
REMARK  11 active torsions:
REMARK  status: ('A' for Active; 'I' for Inactive)
REMARK    1  A    between atoms: N1_1  and  C2_2 
REMARK    2  A    between atoms: N9_9  and  C10_10 
REMARK    3  A    between atoms: C12_12  and  C14_13 
REMARK    4  A    between atoms: C14_13  and  N15_14 
REMARK    5  A    between atoms: N15_14  and  C16_15 
REMARK    6  A    between atoms: C19_18  and  C20_19 
REMARK       I    between atoms: C20_19  and  N22_21 
REMARK    7  A    between atoms: N22_21  and  C23_22 
REMARK    8  A    between atoms: C23_22  and  C25_23 
REMARK    9  A    between atoms: C23_22  and  C30_28 
REMARK   10  A    between atoms: C25_23  and  C26_24 
REMARK   11  A    between atoms: C26_24  and  C27_25 
ROOT
ATOM      1  N15 ZIN A   1      17.948  -5.817  10.296  0.00  0.00    -0.388 N 
ATOM      2  H43 ZIN A   1      18.117  -6.576  10.876  0.00  0.00     0.159 HD
ENDROOT
BRANCH   1   3
ATOM      3  C14 ZIN A   1      17.325  -6.020   8.986  0.00  0.00     0.147 C 
BRANCH   3   4
ATOM      4  C12 ZIN A   1      18.308  -6.741   8.061  0.00  0.00     0.128 C 
ATOM      5  N9  ZIN A   1      19.151  -5.756   7.364  0.00  0.00    -0.309 N 
ATOM      6  C5  ZIN A   1      18.589  -5.023   6.299  0.00  0.00     0.153 A 
ATOM      7  C4  ZIN A   1      17.406  -5.449   5.708  0.00  0.00     0.175 A 
ATOM      8  C6  ZIN A   1      19.209  -3.863   5.822  0.00  0.00     0.290 A 
ATOM      9  N3  ZIN A   1      16.884  -4.748   4.695  0.00  0.00    -0.045 NA
ATOM     10  N36 ZIN A   1      16.776  -6.592   6.171  0.00  0.00    -0.370 N 
ATOM     11  C2  ZIN A   1      17.472  -3.659   4.250  0.00  0.00     0.703 A 
ATOM     12  N8  ZIN A   1      18.634  -3.202   4.794  0.00  0.00    -0.152 N 
ATOM     13  H39 ZIN A   1      19.046  -2.395   4.447  0.00  0.00     0.187 HD
ATOM     14  C35 ZIN A   1      17.534  -7.539   7.001  0.00  0.00     0.148 C 
ATOM     15  H55 ZIN A   1      15.847  -6.765   5.951  0.00  0.00     0.161 HD
ATOM     16  O7  ZIN A   1      20.248  -3.460   6.321  0.00  0.00    -0.265 OA
BRANCH   5  17
ATOM     17  C10 ZIN A   1      20.431  -5.558   7.737  0.00  0.00     0.356 C 
ATOM     18  O11 ZIN A   1      20.906  -6.210   8.644  0.00  0.00    -0.283 OA
ENDBRANCH   5  17
BRANCH  11  19
ATOM     19  N1  ZIN A   1      16.905  -2.970   3.209  0.00  0.00    -0.233 N 
ATOM     20  H37 ZIN A   1      16.078  -2.480   3.346  0.00  0.00     0.174 HD
ATOM     21  H38 ZIN A   1      17.331  -2.968   2.338  0.00  0.00     0.174 HD
ENDBRANCH  11  19
ENDBRANCH   3   4
ENDBRANCH   1   3
BRANCH   1  22
ATOM     22  C16 ZIN A   1      18.295  -4.536  10.710  0.00  0.00     0.028 A 
ATOM     23  C34 ZIN A   1      19.571  -4.289  11.210  0.00  0.00     0.030 A 
ATOM     24  C33 ZIN A   1      19.920  -3.020  11.615  0.00  0.00     0.019 A 
ATOM     25  C19 ZIN A   1      18.986  -1.982  11.535  0.00  0.00     0.032 A 
ATOM     26  C18 ZIN A   1      17.705  -2.235  11.038  0.00  0.00     0.019 A 
ATOM     27  C17 ZIN A   1      17.364  -3.503  10.629  0.00  0.00     0.030 A 
BRANCH  25  28
ATOM     28  C20 ZIN A   1      19.354  -0.623  11.974  0.00  0.00     0.252 C 
ATOM     29  O21 ZIN A   1      20.509  -0.252  11.900  0.00  0.00    -0.268 OA
ATOM     30  N22 ZIN A   1      18.410   0.208  12.457  0.00  0.00    -0.342 N 
ATOM     31  H46 ZIN A   1      17.487  -0.087  12.517  0.00  0.00     0.163 HD
BRANCH  30  32
ATOM     32  C23 ZIN A   1      18.775   1.558  12.894  0.00  0.00     0.186 C 
BRANCH  32  33
ATOM     33  C25 ZIN A   1      18.150   2.587  11.950  0.00  0.00     0.046 C 
BRANCH  33  34
ATOM     34  C26 ZIN A   1      19.104   2.859  10.786  0.00  0.00     0.116 C 
BRANCH  34  35
ATOM     35  C27 ZIN A   1      18.596   2.169   9.546  0.00  0.00     0.172 C 
ATOM     36  O28 ZIN A   1      17.695   1.353   9.630  0.00  0.00    -0.648 OA
ATOM     37  O29 ZIN A   1      19.085   2.428   8.460  0.00  0.00    -0.648 OA
ENDBRANCH  34  35
ENDBRANCH  33  34
ENDBRANCH  32  33
BRANCH  32  38
ATOM     38  C30 ZIN A   1      18.269   1.788  14.294  0.00  0.00     0.196 C 
ATOM     39  O31 ZIN A   1      17.497   0.992  14.801  0.00  0.00    -0.646 OA
ATOM     40  O32 ZIN A   1      18.631   2.770  14.920  0.00  0.00    -0.646 OA
ENDBRANCH  32  38
ENDBRANCH  30  32
ENDBRANCH  25  28
ENDBRANCH   1  22
TORSDOF 11
ENDMDL
MODEL 8
REMARK VINA RESULT:      -7.8      3.558      6.193
REMARK  11 active torsions:
REMARK  status: ('A' for Active; 'I' for Inactive)
REMARK    1  A    between atoms: N1_1  and  C2_2 
REMARK    2  A    between atoms: N9_9  and  C10_10 
REMARK    3  A    between atoms: C12_12  and  C14_13 
REMARK    4  A    between atoms: C14_13  and  N15_14 
REMARK    5  A    between atoms: N15_14  and  C16_15 
REMARK    6  A    between atoms: C19_18  and  C20_19 
REMARK       I    between atoms: C20_19  and  N22_21 
REMARK    7  A    between atoms: N22_21  and  C23_22 
REMARK    8  A    between atoms: C23_22  and  C25_23 
REMARK    9  A    between atoms: C23_22  and  C30_28 
REMARK   10  A    between atoms: C25_23  and  C26_24 
REMARK   11  A    between atoms: C26_24  and  C27_25 
ROOT
ATOM      1  N15 ZIN A   1      17.595  -6.184   9.288  0.00  0.00    -0.388 N 
ATOM      2  H43 ZIN A   1      17.986  -6.996   9.647  0.00  0.00     0.159 HD
ENDROOT
BRANCH   1   3
ATOM      3  C14 ZIN A   1      16.979  -6.193   7.959  0.00  0.00     0.147 C 
BRANCH   3   4
ATOM      4  C12 ZIN A   1      17.997  -6.680   6.927  0.00  0.00     0.128 C 
ATOM      5  N9  ZIN A   1      18.992  -5.625   6.672  0.00  0.00    -0.309 N 
ATOM      6  C5  ZIN A   1      18.617  -4.524   5.876  0.00  0.00     0.153 A 
ATOM      7  C4  ZIN A   1      17.478  -4.595   5.083  0.00  0.00     0.175 A 
ATOM      8  C6  ZIN A   1      19.380  -3.351   5.868  0.00  0.00     0.290 A 
ATOM      9  N3  ZIN A   1      17.134  -3.546   4.326  0.00  0.00    -0.045 NA
ATOM     10  N36 ZIN A   1      16.708  -5.746   5.082  0.00  0.00    -0.370 N 
ATOM     11  C2  ZIN A   1      17.856  -2.447   4.322  0.00  0.00     0.703 A 
ATOM     12  N8  ZIN A   1      18.981  -2.330   5.080  0.00  0.00    -0.152 N 
ATOM     13  H39 ZIN A   1      19.495  -1.506   5.059  0.00  0.00     0.187 HD
ATOM     14  C35 ZIN A   1      17.286  -6.992   5.602  0.00  0.00     0.148 C 
ATOM     15  H55 ZIN A   1      15.799  -5.729   4.743  0.00  0.00     0.161 HD
ATOM     16  O7  ZIN A   1      20.385  -3.257   6.554  0.00  0.00    -0.265 OA
BRANCH   5  17
ATOM     17  C10 ZIN A   1      20.233  -5.709   7.191  0.00  0.00     0.356 C 
ATOM     18  O11 ZIN A   1      20.393  -6.125   8.320  0.00  0.00    -0.283 OA
ENDBRANCH   5  17
BRANCH  11  19
ATOM     19  N1  ZIN A   1      17.469  -1.395   3.533  0.00  0.00    -0.233 N 
ATOM     20  H37 ZIN A   1      16.680  -1.474   2.973  0.00  0.00     0.174 HD
ATOM     21  H38 ZIN A   1      17.980  -0.571   3.537  0.00  0.00     0.174 HD
ENDBRANCH  11  19
ENDBRANCH   3   4
ENDBRANCH   1   3
BRANCH   1  22
ATOM     22  C16 ZIN A   1      17.620  -5.012  10.035  0.00  0.00     0.028 A 
ATOM     23  C34 ZIN A   1      17.544  -5.072  11.424  0.00  0.00     0.030 A 
ATOM     24  C33 ZIN A   1      17.574  -3.914  12.168  0.00  0.00     0.019 A 
ATOM     25  C19 ZIN A   1      17.669  -2.675  11.525  0.00  0.00     0.032 A 
ATOM     26  C18 ZIN A   1      17.740  -2.619  10.130  0.00  0.00     0.019 A 
ATOM     27  C17 ZIN A   1      17.715  -3.780   9.393  0.00  0.00     0.030 A 
BRANCH  25  28
ATOM     28  C20 ZIN A   1      17.695  -1.432  12.318  0.00  0.00     0.252 C 
ATOM     29  O21 ZIN A   1      17.056  -0.465  11.953  0.00  0.00    -0.268 OA
ATOM     30  N22 ZIN A   1      18.427  -1.368  13.448  0.00  0.00    -0.342 N 
ATOM     31  H46 ZIN A   1      18.937  -2.140  13.740  0.00  0.00     0.163 HD
BRANCH  30  32
ATOM     32  C23 ZIN A   1      18.453  -0.133  14.235  0.00  0.00     0.186 C 
BRANCH  32  33
ATOM     33  C25 ZIN A   1      18.887  -0.450  15.668  0.00  0.00     0.046 C 
BRANCH  33  34
ATOM     34  C26 ZIN A   1      18.853   0.828  16.507  0.00  0.00     0.116 C 
BRANCH  34  35
ATOM     35  C27 ZIN A   1      19.350   0.531  17.899  0.00  0.00     0.172 C 
ATOM     36  O28 ZIN A   1      19.362  -0.617  18.308  0.00  0.00    -0.648 OA
ATOM     37  O29 ZIN A   1      19.741   1.437  18.613  0.00  0.00    -0.648 OA
ENDBRANCH  34  35
ENDBRANCH  33  34
ENDBRANCH  32  33
BRANCH  32  38
ATOM     38  C30 ZIN A   1      19.427   0.836  13.618  0.00  0.00     0.196 C 
ATOM     39  O31 ZIN A   1      19.073   1.973  13.358  0.00  0.00    -0.646 OA
ATOM     40  O32 ZIN A   1      20.570   0.483  13.379  0.00  0.00    -0.646 OA
ENDBRANCH  32  38
ENDBRANCH  30  32
ENDBRANCH  25  28
ENDBRANCH   1  22
TORSDOF 11
ENDMDL
MODEL 9
REMARK VINA RESULT:      -7.7      3.229      5.658
REMARK  11 active torsions:
REMARK  status: ('A' for Active; 'I' for Inactive)
REMARK    1  A    between atoms: N1_1  and  C2_2 
REMARK    2  A    between atoms: N9_9  and  C10_10 
REMARK    3  A    between atoms: C12_12  and  C14_13 
REMARK    4  A    between atoms: C14_13  and  N15_14 
REMARK    5  A    between atoms: N15_14  and  C16_15 
REMARK    6  A    between atoms: C19_18  and  C20_19 
REMARK       I    between atoms: C20_19  and  N22_21 
REMARK    7  A    between atoms: N22_21  and  C23_22 
REMARK    8  A    between atoms: C23_22  and  C25_23 
REMARK    9  A    between atoms: C23_22  and  C30_28 
REMARK   10  A    between atoms: C25_23  and  C26_24 
REMARK   11  A    between atoms: C26_24  and  C27_25 
ROOT
ATOM      1  N15 ZIN A   1      18.152  -4.864   9.783  0.00  0.00    -0.388 N 
ATOM      2  H43 ZIN A   1      18.115  -5.799  10.037  0.00  0.00     0.159 HD
ENDROOT
BRANCH   1   3
ATOM      3  C14 ZIN A   1      17.900  -4.470   8.394  0.00  0.00     0.147 C 
BRANCH   3   4
ATOM      4  C12 ZIN A   1      19.206  -3.995   7.754  0.00  0.00     0.128 C 
ATOM      5  N9  ZIN A   1      18.937  -2.851   6.867  0.00  0.00    -0.309 N 
ATOM      6  C5  ZIN A   1      18.339  -3.096   5.615  0.00  0.00     0.153 A 
ATOM      7  C4  ZIN A   1      18.317  -4.384   5.094  0.00  0.00     0.175 A 
ATOM      8  C6  ZIN A   1      17.763  -2.055   4.879  0.00  0.00     0.290 A 
ATOM      9  N3  ZIN A   1      17.751  -4.605   3.902  0.00  0.00    -0.045 NA
ATOM     10  N36 ZIN A   1      18.878  -5.428   5.810  0.00  0.00    -0.370 N 
ATOM     11  C2  ZIN A   1      17.212  -3.621   3.214  0.00  0.00     0.703 A 
ATOM     12  N8  ZIN A   1      17.210  -2.342   3.681  0.00  0.00    -0.152 N 
ATOM     13  H39 ZIN A   1      16.805  -1.636   3.153  0.00  0.00     0.187 HD
ATOM     14  C35 ZIN A   1      19.809  -5.123   6.905  0.00  0.00     0.148 C 
ATOM     15  H55 ZIN A   1      18.659  -6.347   5.593  0.00  0.00     0.161 HD
ATOM     16  O7  ZIN A   1      17.764  -0.912   5.309  0.00  0.00    -0.265 OA
BRANCH   5  17
ATOM     17  C10 ZIN A   1      19.256  -1.597   7.245  0.00  0.00     0.356 C 
ATOM     18  O11 ZIN A   1      19.123  -1.259   8.403  0.00  0.00    -0.283 OA
ENDBRANCH   5  17
BRANCH  11  19
ATOM     19  N1  ZIN A   1      16.642  -3.890   1.997  0.00  0.00    -0.233 N 
ATOM     20  H37 ZIN A   1      16.350  -3.161   1.427  0.00  0.00     0.174 HD
ATOM     21  H38 ZIN A   1      16.534  -4.808   1.704  0.00  0.00     0.174 HD
ENDBRANCH  11  19
ENDBRANCH   3   4
ENDBRANCH   1   3
BRANCH   1  22
ATOM     22  C16 ZIN A   1      18.444  -3.897  10.738  0.00  0.00     0.028 A 
ATOM     23  C34 ZIN A   1      17.467  -2.980  11.119  0.00  0.00     0.030 A 
ATOM     24  C33 ZIN A   1      17.751  -2.025  12.069  0.00  0.00     0.019 A 
ATOM     25  C19 ZIN A   1      19.026  -1.969  12.642  0.00  0.00     0.032 A 
ATOM     26  C18 ZIN A   1      20.005  -2.887  12.253  0.00  0.00     0.019 A 
ATOM     27  C17 ZIN A   1      19.714  -3.843  11.307  0.00  0.00     0.030 A 
BRANCH  25  28
ATOM     28  C20 ZIN A   1      19.335  -0.943  13.655  0.00  0.00     0.252 C 
ATOM     29  O21 ZIN A   1      20.267  -0.182  13.484  0.00  0.00    -0.268 OA
ATOM     30  N22 ZIN A   1      18.584  -0.849  14.771  0.00  0.00    -0.342 N 
ATOM     31  H46 ZIN A   1      17.840  -1.456  14.908  0.00  0.00     0.163 HD
BRANCH  30  32
ATOM     32  C23 ZIN A   1      18.892   0.170  15.777  0.00  0.00     0.186 C 
BRANCH  32  33
ATOM     33  C25 ZIN A   1      18.087   1.438  15.483  0.00  0.00     0.046 C 
BRANCH  33  34
ATOM     34  C26 ZIN A   1      19.044   2.610  15.258  0.00  0.00     0.116 C 
BRANCH  34  35
ATOM     35  C27 ZIN A   1      19.323   3.292  16.573  0.00  0.00     0.172 C 
ATOM     36  O28 ZIN A   1      18.527   3.193  17.491  0.00  0.00    -0.648 OA
ATOM     37  O29 ZIN A   1      20.345   3.939  16.719  0.00  0.00    -0.648 OA
ENDBRANCH  34  35
ENDBRANCH  33  34
ENDBRANCH  32  33
BRANCH  32  38
ATOM     38  C30 ZIN A   1      18.530  -0.348  17.144  0.00  0.00     0.196 C 
ATOM     39  O31 ZIN A   1      17.436  -0.851  17.336  0.00  0.00    -0.646 OA
ATOM     40  O32 ZIN A   1      19.332  -0.265  18.060  0.00  0.00    -0.646 OA
ENDBRANCH  32  38
ENDBRANCH  30  32
ENDBRANCH  25  28
ENDBRANCH   1  22
TORSDOF 11
ENDMDL
