MODEL 1
REMARK VINA RESULT:      -3.9      0.000      0.000
REMARK  5 active torsions:
REMARK  status: ('A' for Active; 'I' for Inactive)
REMARK    1  A    between atoms: C2_2  and  C4_4 
REMARK    2  A    between atoms: C4_4  and  S6_5 
REMARK    3  A    between atoms: C4_4  and  C7_6 
REMARK    4  A    between atoms: C7_6  and  S9_7 
REMARK    5  A    between atoms: C7_6  and  C10_8 
ROOT
ATOM      1  C4  <0> d   1      18.241   0.328  11.051  0.00  0.00     0.169 C 
ENDROOT
BRANCH   1   2
ATOM      2  C2  <0> d   1      17.006  -0.424  11.476  0.00  0.00     0.188 C 
ATOM      3  O1  <0> d   1      15.925   0.139  11.495  0.00  0.00    -0.647 OA
ATOM      4  O3  <0> d   1      17.087  -1.598  11.795  0.00  0.00    -0.647 OA
ENDBRANCH   1   2
BRANCH   1   5
ATOM      5  S6  <0> d   1      19.449  -0.835  10.360  0.00  0.00    -0.165 SA
ATOM      6  H13 <0> d   1      19.733  -1.633  11.404  0.00  0.00     0.102 HD
ENDBRANCH   1   5
BRANCH   1   7
ATOM      7  C7  <0> d   1      17.867   1.366   9.991  0.00  0.00     0.169 C 
BRANCH   7   8
ATOM      8  S9  <0> d   1      18.979   1.202   8.566  0.00  0.00    -0.165 SA
ATOM      9  H14 <0> d   1      18.909  -0.110   8.277  0.00  0.00     0.102 HD
ENDBRANCH   7   8
BRANCH   7  10
ATOM     10  C10 <0> d   1      17.998   2.748  10.574  0.00  0.00     0.188 C 
ATOM     11  O11 <0> d   1      19.095   3.275  10.656  0.00  0.00    -0.647 OA
ATOM     12  O12 <0> d   1      17.006   3.342  10.965  0.00  0.00    -0.647 OA
ENDBRANCH   7  10
ENDBRANCH   1   7
TORSDOF 5
ENDMDL
MODEL 2
REMARK VINA RESULT:      -3.8      0.078      3.604
REMARK  5 active torsions:
REMARK  status: ('A' for Active; 'I' for Inactive)
REMARK    1  A    between atoms: C2_2  and  C4_4 
REMARK    2  A    between atoms: C4_4  and  S6_5 
REMARK    3  A    between atoms: C4_4  and  C7_6 
REMARK    4  A    between atoms: C7_6  and  S9_7 
REMARK    5  A    between atoms: C7_6  and  C10_8 
ROOT
ATOM      1  C4  <0> d   1      17.850   1.411  10.032  0.00  0.00     0.169 C 
ENDROOT
BRANCH   1   2
ATOM      2  C2  <0> d   1      17.969   2.795  10.616  0.00  0.00     0.188 C 
ATOM      3  O1  <0> d   1      16.970   3.393  10.979  0.00  0.00    -0.647 OA
ATOM      4  O3  <0> d   1      19.066   3.316  10.732  0.00  0.00    -0.647 OA
ENDBRANCH   1   2
BRANCH   1   5
ATOM      5  S6  <0> d   1      18.981   1.250   8.624  0.00  0.00    -0.165 SA
ATOM      6  H13 <0> d   1      19.687   2.393   8.670  0.00  0.00     0.102 HD
ENDBRANCH   1   5
BRANCH   1   7
ATOM      7  C7  <0> d   1      18.211   0.375  11.099  0.00  0.00     0.169 C 
BRANCH   7   8
ATOM      8  S9  <0> d   1      19.422  -0.794  10.421  0.00  0.00    -0.165 SA
ATOM      9  H14 <0> d   1      18.661  -1.631   9.694  0.00  0.00     0.102 HD
ENDBRANCH   7   8
BRANCH   7  10
ATOM     10  C10 <0> d   1      16.970  -0.372  11.512  0.00  0.00     0.188 C 
ATOM     11  O11 <0> d   1      15.883   0.181  11.475  0.00  0.00    -0.647 OA
ATOM     12  O12 <0> d   1      17.051  -1.532  11.882  0.00  0.00    -0.647 OA
ENDBRANCH   7  10
ENDBRANCH   1   7
TORSDOF 5
ENDMDL
MODEL 3
REMARK VINA RESULT:      -3.8      6.152      7.070
REMARK  5 active torsions:
REMARK  status: ('A' for Active; 'I' for Inactive)
REMARK    1  A    between atoms: C2_2  and  C4_4 
REMARK    2  A    between atoms: C4_4  and  S6_5 
REMARK    3  A    between atoms: C4_4  and  C7_6 
REMARK    4  A    between atoms: C7_6  and  S9_7 
REMARK    5  A    between atoms: C7_6  and  C10_8 
ROOT
ATOM      1  C4  <0> d   1      18.527   1.660  16.906  0.00  0.00     0.169 C 
ENDROOT
BRANCH   1   2
ATOM      2  C2  <0> d   1      19.399   1.592  18.133  0.00  0.00     0.188 C 
ATOM      3  O1  <0> d   1      19.969   0.553  18.420  0.00  0.00    -0.647 OA
ATOM      4  O3  <0> d   1      19.539   2.578  18.837  0.00  0.00    -0.647 OA
ENDBRANCH   1   2
BRANCH   1   5
ATOM      5  S6  <0> d   1      18.978   3.116  15.925  0.00  0.00    -0.165 SA
ATOM      6  H13 <0> d   1      20.118   3.531  16.504  0.00  0.00     0.102 HD
ENDBRANCH   1   5
BRANCH   1   7
ATOM      7  C7  <0> d   1      18.729   0.396  16.067  0.00  0.00     0.169 C 
BRANCH   7   8
ATOM      8  S9  <0> d   1      18.564   0.806  14.307  0.00  0.00    -0.165 SA
ATOM      9  H14 <0> d   1      18.869  -0.353  13.697  0.00  0.00     0.102 HD
ENDBRANCH   7   8
BRANCH   7  10
ATOM     10  C10 <0> d   1      17.688  -0.626  16.443  0.00  0.00     0.188 C 
ATOM     11  O11 <0> d   1      17.937  -1.816  16.344  0.00  0.00    -0.647 OA
ATOM     12  O12 <0> d   1      16.596  -0.264  16.849  0.00  0.00    -0.647 OA
ENDBRANCH   7  10
ENDBRANCH   1   7
TORSDOF 5
ENDMDL
MODEL 4
REMARK VINA RESULT:      -3.8      1.269      1.850
REMARK  5 active torsions:
REMARK  status: ('A' for Active; 'I' for Inactive)
REMARK    1  A    between atoms: C2_2  and  C4_4 
REMARK    2  A    between atoms: C4_4  and  S6_5 
REMARK    3  A    between atoms: C4_4  and  C7_6 
REMARK    4  A    between atoms: C7_6  and  S9_7 
REMARK    5  A    between atoms: C7_6  and  C10_8 
ROOT
ATOM      1  C4  <0> d   1      18.226   0.096  10.813  0.00  0.00     0.169 C 
ENDROOT
BRANCH   1   2
ATOM      2  C2  <0> d   1      16.998  -0.531  11.421  0.00  0.00     0.188 C 
ATOM      3  O1  <0> d   1      17.024  -1.693  11.788  0.00  0.00    -0.647 OA
ATOM      4  O3  <0> d   1      15.979   0.127  11.552  0.00  0.00    -0.647 OA
ENDBRANCH   1   2
BRANCH   1   5
ATOM      5  S6  <0> d   1      19.368  -1.208  10.279  0.00  0.00    -0.165 SA
ATOM      6  H13 <0> d   1      20.168  -1.367  11.348  0.00  0.00     0.102 HD
ENDBRANCH   1   5
BRANCH   1   7
ATOM      7  C7  <0> d   1      17.821   0.945   9.607  0.00  0.00     0.169 C 
BRANCH   7   8
ATOM      8  S9  <0> d   1      17.468  -0.139   8.195  0.00  0.00    -0.165 SA
ATOM      9  H14 <0> d   1      18.681  -0.626   7.877  0.00  0.00     0.102 HD
ENDBRANCH   7   8
BRANCH   7  10
ATOM     10  C10 <0> d   1      18.947   1.881   9.252  0.00  0.00     0.188 C 
ATOM     11  O11 <0> d   1      19.326   2.713  10.059  0.00  0.00    -0.647 OA
ATOM     12  O12 <0> d   1      19.481   1.806   8.158  0.00  0.00    -0.647 OA
ENDBRANCH   7  10
ENDBRANCH   1   7
TORSDOF 5
ENDMDL
MODEL 5
REMARK VINA RESULT:      -3.6      2.803      4.189
REMARK  5 active torsions:
REMARK  status: ('A' for Active; 'I' for Inactive)
REMARK    1  A    between atoms: C2_2  and  C4_4 
REMARK    2  A    between atoms: C4_4  and  S6_5 
REMARK    3  A    between atoms: C4_4  and  C7_6 
REMARK    4  A    between atoms: C7_6  and  S9_7 
REMARK    5  A    between atoms: C7_6  and  C10_8 
ROOT
ATOM      1  C4  <0> d   1      18.451   3.639  10.656  0.00  0.00     0.169 C 
ENDROOT
BRANCH   1   2
ATOM      2  C2  <0> d   1      17.354   4.659  10.493  0.00  0.00     0.188 C 
ATOM      3  O1  <0> d   1      16.337   4.574  11.160  0.00  0.00    -0.647 OA
ATOM      4  O3  <0> d   1      17.486   5.574   9.698  0.00  0.00    -0.647 OA
ENDBRANCH   1   2
BRANCH   1   5
ATOM      5  S6  <0> d   1      18.932   3.542  12.402  0.00  0.00    -0.165 SA
ATOM      6  H13 <0> d   1      17.862   2.968  12.980  0.00  0.00     0.102 HD
ENDBRANCH   1   5
BRANCH   1   7
ATOM      7  C7  <0> d   1      17.948   2.271  10.189  0.00  0.00     0.169 C 
BRANCH   7   8
ATOM      8  S9  <0> d   1      17.676   1.202  11.629  0.00  0.00    -0.165 SA
ATOM      9  H14 <0> d   1      17.550   2.082  12.639  0.00  0.00     0.102 HD
ENDBRANCH   7   8
BRANCH   7  10
ATOM     10  C10 <0> d   1      18.976   1.642   9.284  0.00  0.00     0.188 C 
ATOM     11  O11 <0> d   1      19.616   0.677   9.665  0.00  0.00    -0.647 OA
ATOM     12  O12 <0> d   1      19.167   2.098   8.169  0.00  0.00    -0.647 OA
ENDBRANCH   7  10
ENDBRANCH   1   7
TORSDOF 5
ENDMDL
MODEL 6
REMARK VINA RESULT:      -3.6      3.116      4.211
REMARK  5 active torsions:
REMARK  status: ('A' for Active; 'I' for Inactive)
REMARK    1  A    between atoms: C2_2  and  C4_4 
REMARK    2  A    between atoms: C4_4  and  S6_5 
REMARK    3  A    between atoms: C4_4  and  C7_6 
REMARK    4  A    between atoms: C7_6  and  S9_7 
REMARK    5  A    between atoms: C7_6  and  C10_8 
ROOT
ATOM      1  C4  <0> d   1      17.875   0.007  14.175  0.00  0.00     0.169 C 
ENDROOT
BRANCH   1   2
ATOM      2  C2  <0> d   1      18.777  -1.053  14.753  0.00  0.00     0.188 C 
ATOM      3  O1  <0> d   1      18.690  -1.353  15.931  0.00  0.00    -0.647 OA
ATOM      4  O3  <0> d   1      19.592  -1.615  14.040  0.00  0.00    -0.647 OA
ENDBRANCH   1   2
BRANCH   1   5
ATOM      5  S6  <0> d   1      18.244   1.603  14.952  0.00  0.00    -0.165 SA
ATOM      6  H13 <0> d   1      17.027   2.070  15.279  0.00  0.00     0.102 HD
ENDBRANCH   1   5
BRANCH   1   7
ATOM      7  C7  <0> d   1      18.108   0.107  12.666  0.00  0.00     0.169 C 
BRANCH   7   8
ATOM      8  S9  <0> d   1      18.200   1.854  12.183  0.00  0.00    -0.165 SA
ATOM      9  H14 <0> d   1      17.580   2.481  13.199  0.00  0.00     0.102 HD
ENDBRANCH   7   8
BRANCH   7  10
ATOM     10  C10 <0> d   1      16.969  -0.556  11.938  0.00  0.00     0.188 C 
ATOM     11  O11 <0> d   1      16.004   0.102  11.585  0.00  0.00    -0.647 OA
ATOM     12  O12 <0> d   1      17.011  -1.752  11.700  0.00  0.00    -0.647 OA
ENDBRANCH   7  10
ENDBRANCH   1   7
TORSDOF 5
ENDMDL
MODEL 7
REMARK VINA RESULT:      -3.6      2.186      3.160
REMARK  5 active torsions:
REMARK  status: ('A' for Active; 'I' for Inactive)
REMARK    1  A    between atoms: C2_2  and  C4_4 
REMARK    2  A    between atoms: C4_4  and  S6_5 
REMARK    3  A    between atoms: C4_4  and  C7_6 
REMARK    4  A    between atoms: C7_6  and  S9_7 
REMARK    5  A    between atoms: C7_6  and  C10_8 
ROOT
ATOM      1  C4  <0> d   1      18.102  -1.321  12.774  0.00  0.00     0.169 C 
ENDROOT
BRANCH   1   2
ATOM      2  C2  <0> d   1      18.291  -2.640  12.071  0.00  0.00     0.188 C 
ATOM      3  O1  <0> d   1      19.387  -3.173  12.058  0.00  0.00    -0.647 OA
ATOM      4  O3  <0> d   1      17.345  -3.179  11.520  0.00  0.00    -0.647 OA
ENDBRANCH   1   2
BRANCH   1   5
ATOM      5  S6  <0> d   1      19.257  -1.208  14.167  0.00  0.00    -0.165 SA
ATOM      6  H13 <0> d   1      20.441  -1.004  13.564  0.00  0.00     0.102 HD
ENDBRANCH   1   5
BRANCH   1   7
ATOM      7  C7  <0> d   1      18.372  -0.177  11.794  0.00  0.00     0.169 C 
BRANCH   7   8
ATOM      8  S9  <0> d   1      19.663   0.905  12.467  0.00  0.00    -0.165 SA
ATOM      9  H14 <0> d   1      19.460   0.828  13.795  0.00  0.00     0.102 HD
ENDBRANCH   7   8
BRANCH   7  10
ATOM     10  C10 <0> d   1      17.107   0.616  11.589  0.00  0.00     0.188 C 
ATOM     11  O11 <0> d   1      17.163   1.824  11.431  0.00  0.00    -0.647 OA
ATOM     12  O12 <0> d   1      16.027   0.050  11.581  0.00  0.00    -0.647 OA
ENDBRANCH   7  10
ENDBRANCH   1   7
TORSDOF 5
ENDMDL
MODEL 8
REMARK VINA RESULT:      -3.4      5.844      6.479
REMARK  5 active torsions:
REMARK  status: ('A' for Active; 'I' for Inactive)
REMARK    1  A    between atoms: C2_2  and  C4_4 
REMARK    2  A    between atoms: C4_4  and  S6_5 
REMARK    3  A    between atoms: C4_4  and  C7_6 
REMARK    4  A    between atoms: C7_6  and  S9_7 
REMARK    5  A    between atoms: C7_6  and  C10_8 
ROOT
ATOM      1  C4  <0> d   1      18.692  -0.147  16.944  0.00  0.00     0.169 C 
ENDROOT
BRANCH   1   2
ATOM      2  C2  <0> d   1      18.879   0.705  18.173  0.00  0.00     0.188 C 
ATOM      3  O1  <0> d   1      17.919   0.996  18.866  0.00  0.00    -0.647 OA
ATOM      4  O3  <0> d   1      19.992   1.100  18.477  0.00  0.00    -0.647 OA
ENDBRANCH   1   2
BRANCH   1   5
ATOM      5  S6  <0> d   1      16.922  -0.447  16.681  0.00  0.00    -0.165 SA
ATOM      6  H13 <0> d   1      16.852  -0.710  15.365  0.00  0.00     0.102 HD
ENDBRANCH   1   5
BRANCH   1   7
ATOM      7  C7  <0> d   1      19.273   0.577  15.728  0.00  0.00     0.169 C 
BRANCH   7   8
ATOM      8  S9  <0> d   1      18.271   2.044  15.361  0.00  0.00    -0.165 SA
ATOM      9  H14 <0> d   1      17.746   2.359  16.559  0.00  0.00     0.102 HD
ENDBRANCH   7   8
BRANCH   7  10
ATOM     10  C10 <0> d   1      19.260  -0.350  14.541  0.00  0.00     0.188 C 
ATOM     11  O11 <0> d   1      19.721  -1.475  14.638  0.00  0.00    -0.647 OA
ATOM     12  O12 <0> d   1      18.787   0.024  13.480  0.00  0.00    -0.647 OA
ENDBRANCH   7  10
ENDBRANCH   1   7
TORSDOF 5
ENDMDL
MODEL 9
REMARK VINA RESULT:      -3.4      1.470      1.780
REMARK  5 active torsions:
REMARK  status: ('A' for Active; 'I' for Inactive)
REMARK    1  A    between atoms: C2_2  and  C4_4 
REMARK    2  A    between atoms: C4_4  and  S6_5 
REMARK    3  A    between atoms: C4_4  and  C7_6 
REMARK    4  A    between atoms: C7_6  and  S9_7 
REMARK    5  A    between atoms: C7_6  and  C10_8 
ROOT
ATOM      1  C4  <0> d   1      18.008   0.632  12.297  0.00  0.00     0.169 C 
ENDROOT
BRANCH   1   2
ATOM      2  C2  <0> d   1      16.902  -0.303  11.879  0.00  0.00     0.188 C 
ATOM      3  O1  <0> d   1      17.077  -1.509  11.915  0.00  0.00    -0.647 OA
ATOM      4  O3  <0> d   1      15.831   0.147  11.510  0.00  0.00    -0.647 OA
ENDBRANCH   1   2
BRANCH   1   5
ATOM      5  S6  <0> d   1      19.613  -0.116  11.903  0.00  0.00    -0.165 SA
ATOM      6  H13 <0> d   1      20.152  -0.334  13.115  0.00  0.00     0.102 HD
ENDBRANCH   1   5
BRANCH   1   7
ATOM      7  C7  <0> d   1      17.865   1.958  11.547  0.00  0.00     0.169 C 
BRANCH   7   8
ATOM      8  S9  <0> d   1      18.604   1.803   9.897  0.00  0.00    -0.165 SA
ATOM      9  H14 <0> d   1      19.822   1.295  10.158  0.00  0.00     0.102 HD
ENDBRANCH   7   8
BRANCH   7  10
ATOM     10  C10 <0> d   1      18.572   3.045  12.313  0.00  0.00     0.188 C 
ATOM     11  O11 <0> d   1      19.445   3.704  11.774  0.00  0.00    -0.647 OA
ATOM     12  O12 <0> d   1      18.270   3.268  13.474  0.00  0.00    -0.647 OA
ENDBRANCH   7  10
ENDBRANCH   1   7
TORSDOF 5
ENDMDL
