MODEL 1
REMARK VINA RESULT:      -8.3      0.000      0.000
REMARK  4 active torsions:
REMARK  status: ('A' for Active; 'I' for Inactive)
REMARK    1  A    between atoms: S2_2  and  C3_3 
REMARK    2  A    between atoms: N14_14  and  C15_15 
REMARK    3  A    between atoms: C15_15  and  C16_16 
REMARK    4  A    between atoms: C16_16  and  C17_17 
ROOT
ATOM      1  C3  <0> d   1      17.757   3.299  10.418  0.00  0.00     0.002 A 
ATOM      2  C4  <0> d   1      18.557   3.250   9.284  0.00  0.00     0.020 A 
ATOM      3  C5  <0> d   1      19.182   2.068   8.934  0.00  0.00     0.022 A 
ATOM      4  C6  <0> d   1      19.014   0.929   9.710  0.00  0.00     0.032 A 
ATOM      5  S7  <0> d   1      19.814  -0.564   9.231  0.00  0.00    -0.086 SA
ATOM      6  C8  <0> d   1      18.944  -1.802  10.132  0.00  0.00     0.032 A 
ATOM      7  C9  <0> d   1      19.051  -3.129   9.739  0.00  0.00     0.021 A 
ATOM      8  C10 <0> d   1      18.374  -4.116  10.433  0.00  0.00     0.002 A 
ATOM      9  C11 <0> d   1      17.589  -3.781  11.519  0.00  0.00     0.002 A 
ATOM     10  C12 <0> d   1      17.478  -2.462  11.916  0.00  0.00     0.031 A 
ATOM     11  C13 <0> d   1      18.156  -1.462  11.228  0.00  0.00     0.052 A 
ATOM     12  N14 <0> d   1      18.028  -0.144  11.660  0.00  0.00    -0.345 N 
ATOM     13  C26 <0> d   1      18.216   0.973  10.850  0.00  0.00     0.053 A 
ATOM     14  C27 <0> d   1      17.592   2.165  11.201  0.00  0.00     0.049 A 
ENDROOT
BRANCH  12  15
ATOM     15  C15 <0> d   1      17.669   0.082  13.062  0.00  0.00     0.131 C 
BRANCH  15  16
ATOM     16  C16 <0> d   1      18.937   0.337  13.878  0.00  0.00     0.053 C 
BRANCH  16  17
ATOM     17  C17 <0> d   1      18.578   0.432  15.362  0.00  0.00     0.189 C 
ATOM     18  N23 <0> d   1      19.283   1.570  15.964  0.00  0.00    -0.071 N 
ATOM     19  C22 <0> d   1      18.885   1.716  17.369  0.00  0.00     0.235 C 
ATOM     20  H24 <0> d   1      20.278   1.415  15.912  0.00  0.00     0.279 HD
ATOM     21  C25 <0> d   1      18.940   2.795  15.230  0.00  0.00     0.270 C 
ATOM     22  C21 <0> d   1      19.311   0.473  18.155  0.00  0.00     0.028 C 
ATOM     23  C20 <0> d   1      18.631  -0.760  17.555  0.00  0.00     0.004 C 
ATOM     24  C19 <0> d   1      18.992  -0.860  16.070  0.00  0.00     0.033 C 
ENDBRANCH  16  17
ENDBRANCH  15  16
ENDBRANCH  12  15
BRANCH   1  25
ATOM     25  S2  <0> d   1      16.957   4.804  10.866  0.00  0.00    -0.134 SA
ATOM     26  C1  <0> d   1      17.131   4.838  12.671  0.00  0.00     0.095 C 
ENDBRANCH   1  25
TORSDOF 4
ENDMDL
MODEL 2
REMARK VINA RESULT:      -8.1      2.894      7.849
REMARK  4 active torsions:
REMARK  status: ('A' for Active; 'I' for Inactive)
REMARK    1  A    between atoms: S2_2  and  C3_3 
REMARK    2  A    between atoms: N14_14  and  C15_15 
REMARK    3  A    between atoms: C15_15  and  C16_16 
REMARK    4  A    between atoms: C16_16  and  C17_17 
ROOT
ATOM      1  C3  <0> d   1      17.799  -2.832  11.665  0.00  0.00     0.002 A 
ATOM      2  C4  <0> d   1      18.619  -2.849  12.786  0.00  0.00     0.020 A 
ATOM      3  C5  <0> d   1      19.287  -1.701  13.168  0.00  0.00     0.022 A 
ATOM      4  C6  <0> d   1      19.144  -0.530  12.436  0.00  0.00     0.032 A 
ATOM      5  S7  <0> d   1      20.000   0.918  12.955  0.00  0.00    -0.086 SA
ATOM      6  C8  <0> d   1      19.156   2.215  12.114  0.00  0.00     0.032 A 
ATOM      7  C9  <0> d   1      19.313   3.524  12.552  0.00  0.00     0.021 A 
ATOM      8  C10 <0> d   1      18.657   4.556  11.906  0.00  0.00     0.002 A 
ATOM      9  C11 <0> d   1      17.844   4.286  10.822  0.00  0.00     0.002 A 
ATOM     10  C12 <0> d   1      17.685   2.986  10.380  0.00  0.00     0.031 A 
ATOM     11  C13 <0> d   1      18.341   1.941  11.020  0.00  0.00     0.052 A 
ATOM     12  N14 <0> d   1      18.162   0.644  10.544  0.00  0.00    -0.345 N 
ATOM     13  C26 <0> d   1      18.327  -0.507  11.309  0.00  0.00     0.053 A 
ATOM     14  C27 <0> d   1      17.660  -1.665  10.926  0.00  0.00     0.049 A 
ENDROOT
BRANCH  12  15
ATOM     15  C15 <0> d   1      17.774   0.481   9.140  0.00  0.00     0.131 C 
BRANCH  15  16
ATOM     16  C16 <0> d   1      19.014   0.166   8.302  0.00  0.00     0.053 C 
BRANCH  16  17
ATOM     17  C17 <0> d   1      18.587  -0.482   6.983  0.00  0.00     0.189 C 
ATOM     18  N23 <0> d   1      19.343  -1.724   6.781  0.00  0.00    -0.071 N 
ATOM     19  C22 <0> d   1      18.885  -2.392   5.557  0.00  0.00     0.235 C 
ATOM     20  H24 <0> d   1      20.325  -1.509   6.698  0.00  0.00     0.279 HD
ATOM     21  C25 <0> d   1      19.132  -2.613   7.931  0.00  0.00     0.270 C 
ATOM     22  C21 <0> d   1      19.175  -1.501   4.346  0.00  0.00     0.028 C 
ATOM     23  C20 <0> d   1      18.436  -0.170   4.511  0.00  0.00     0.004 C 
ATOM     24  C19 <0> d   1      18.865   0.482   5.828  0.00  0.00     0.033 C 
ENDBRANCH  16  17
ENDBRANCH  15  16
ENDBRANCH  12  15
BRANCH   1  25
ATOM     25  S2  <0> d   1      16.944  -4.292  11.177  0.00  0.00    -0.134 SA
ATOM     26  C1  <0> d   1      18.244  -5.285  10.393  0.00  0.00     0.095 C 
ENDBRANCH   1  25
TORSDOF 4
ENDMDL
MODEL 3
REMARK VINA RESULT:      -8.0      2.504      5.440
REMARK  4 active torsions:
REMARK  status: ('A' for Active; 'I' for Inactive)
REMARK    1  A    between atoms: S2_2  and  C3_3 
REMARK    2  A    between atoms: N14_14  and  C15_15 
REMARK    3  A    between atoms: C15_15  and  C16_16 
REMARK    4  A    between atoms: C16_16  and  C17_17 
ROOT
ATOM      1  C3  <0> d   1      19.259  -1.711  12.532  0.00  0.00     0.002 A 
ATOM      2  C4  <0> d   1      19.236  -3.036  12.114  0.00  0.00     0.020 A 
ATOM      3  C5  <0> d   1      18.987  -3.334  10.788  0.00  0.00     0.022 A 
ATOM      4  C6  <0> d   1      18.760  -2.318   9.870  0.00  0.00     0.032 A 
ATOM      5  S7  <0> d   1      18.456  -2.730   8.186  0.00  0.00    -0.086 SA
ATOM      6  C8  <0> d   1      18.745  -1.216   7.335  0.00  0.00     0.032 A 
ATOM      7  C9  <0> d   1      18.956  -1.237   5.963  0.00  0.00     0.021 A 
ATOM      8  C10 <0> d   1      19.186  -0.059   5.277  0.00  0.00     0.002 A 
ATOM      9  C11 <0> d   1      19.206   1.144   5.957  0.00  0.00     0.002 A 
ATOM     10  C12 <0> d   1      18.996   1.172   7.323  0.00  0.00     0.031 A 
ATOM     11  C13 <0> d   1      18.761  -0.006   8.023  0.00  0.00     0.052 A 
ATOM     12  N14 <0> d   1      18.546   0.060   9.398  0.00  0.00    -0.345 N 
ATOM     13  C26 <0> d   1      18.777  -0.989  10.283  0.00  0.00     0.053 A 
ATOM     14  C27 <0> d   1      19.024  -0.692  11.619  0.00  0.00     0.049 A 
ENDROOT
BRANCH  12  15
ATOM     15  C15 <0> d   1      18.043   1.322   9.948  0.00  0.00     0.131 C 
BRANCH  15  16
ATOM     16  C16 <0> d   1      19.210   2.131  10.517  0.00  0.00     0.053 C 
BRANCH  16  17
ATOM     17  C17 <0> d   1      18.686   3.454  11.080  0.00  0.00     0.189 C 
ATOM     18  N23 <0> d   1      18.002   3.206  12.355  0.00  0.00    -0.071 N 
ATOM     19  C22 <0> d   1      17.563   4.479  12.940  0.00  0.00     0.235 C 
ATOM     20  H24 <0> d   1      17.199   2.616  12.197  0.00  0.00     0.279 HD
ATOM     21  C25 <0> d   1      18.927   2.537  13.279  0.00  0.00     0.270 C 
ATOM     22  C21 <0> d   1      16.539   5.142  12.016  0.00  0.00     0.028 C 
ATOM     23  C20 <0> d   1      17.183   5.401  10.651  0.00  0.00     0.004 C 
ATOM     24  C19 <0> d   1      17.705   4.078  10.084  0.00  0.00     0.033 C 
ENDBRANCH  16  17
ENDBRANCH  15  16
ENDBRANCH  12  15
BRANCH   1  25
ATOM     25  S2  <0> d   1      19.579  -1.326  14.221  0.00  0.00    -0.134 SA
ATOM     26  C1  <0> d   1      17.986  -0.682  14.802  0.00  0.00     0.095 C 
ENDBRANCH   1  25
TORSDOF 4
ENDMDL
MODEL 4
REMARK VINA RESULT:      -7.8      1.716      5.812
REMARK  4 active torsions:
REMARK  status: ('A' for Active; 'I' for Inactive)
REMARK    1  A    between atoms: S2_2  and  C3_3 
REMARK    2  A    between atoms: N14_14  and  C15_15 
REMARK    3  A    between atoms: C15_15  and  C16_16 
REMARK    4  A    between atoms: C16_16  and  C17_17 
ROOT
ATOM      1  C3  <0> d   1      18.745   1.516   9.215  0.00  0.00     0.002 A 
ATOM      2  C4  <0> d   1      18.617   2.834   9.633  0.00  0.00     0.020 A 
ATOM      3  C5  <0> d   1      18.354   3.112  10.961  0.00  0.00     0.022 A 
ATOM      4  C6  <0> d   1      18.216   2.081  11.880  0.00  0.00     0.032 A 
ATOM      5  S7  <0> d   1      17.892   2.469  13.566  0.00  0.00    -0.086 SA
ATOM      6  C8  <0> d   1      18.308   0.984  14.416  0.00  0.00     0.032 A 
ATOM      7  C9  <0> d   1      18.526   1.023  15.786  0.00  0.00     0.021 A 
ATOM      8  C10 <0> d   1      18.856  -0.132  16.471  0.00  0.00     0.002 A 
ATOM      9  C11 <0> d   1      18.969  -1.330  15.790  0.00  0.00     0.002 A 
ATOM     10  C12 <0> d   1      18.753  -1.376  14.426  0.00  0.00     0.031 A 
ATOM     11  C13 <0> d   1      18.418  -0.221  13.728  0.00  0.00     0.052 A 
ATOM     12  N14 <0> d   1      18.200  -0.306  12.354  0.00  0.00    -0.345 N 
ATOM     13  C26 <0> d   1      18.339   0.758  11.467  0.00  0.00     0.053 A 
ATOM     14  C27 <0> d   1      18.600   0.481  10.129  0.00  0.00     0.049 A 
ENDROOT
BRANCH  12  15
ATOM     15  C15 <0> d   1      17.797  -1.605  11.807  0.00  0.00     0.131 C 
BRANCH  15  16
ATOM     16  C16 <0> d   1      19.041  -2.382  11.371  0.00  0.00     0.053 C 
BRANCH  16  17
ATOM     17  C17 <0> d   1      18.625  -3.761  10.857  0.00  0.00     0.189 C 
ATOM     18  N23 <0> d   1      17.988  -3.621   9.542  0.00  0.00    -0.071 N 
ATOM     19  C22 <0> d   1      17.655  -4.947   9.007  0.00  0.00     0.235 C 
ATOM     20  H24 <0> d   1      17.144  -3.076   9.634  0.00  0.00     0.279 HD
ATOM     21  C25 <0> d   1      18.913  -2.943   8.625  0.00  0.00     0.270 C 
ATOM     22  C21 <0> d   1      16.630  -5.627   9.919  0.00  0.00     0.028 C 
ATOM     23  C20 <0> d   1      17.224  -5.775  11.322  0.00  0.00     0.004 C 
ATOM     24  C19 <0> d   1      17.638  -4.395  11.841  0.00  0.00     0.033 C 
ENDBRANCH  16  17
ENDBRANCH  15  16
ENDBRANCH  12  15
BRANCH   1  25
ATOM     25  S2  <0> d   1      19.083   1.157   7.524  0.00  0.00    -0.134 SA
ATOM     26  C1  <0> d   1      17.683   0.111   7.040  0.00  0.00     0.095 C 
ENDBRANCH   1  25
TORSDOF 4
ENDMDL
MODEL 5
REMARK VINA RESULT:      -7.7      2.310      6.085
REMARK  4 active torsions:
REMARK  status: ('A' for Active; 'I' for Inactive)
REMARK    1  A    between atoms: S2_2  and  C3_3 
REMARK    2  A    between atoms: N14_14  and  C15_15 
REMARK    3  A    between atoms: C15_15  and  C16_16 
REMARK    4  A    between atoms: C16_16  and  C17_17 
ROOT
ATOM      1  C3  <0> d   1      17.871   0.302  15.310  0.00  0.00     0.002 A 
ATOM      2  C4  <0> d   1      18.603   1.477  15.427  0.00  0.00     0.020 A 
ATOM      3  C5  <0> d   1      19.205   2.027  14.312  0.00  0.00     0.022 A 
ATOM      4  C6  <0> d   1      19.082   1.412  13.074  0.00  0.00     0.032 A 
ATOM      5  S7  <0> d   1      19.851   2.144  11.669  0.00  0.00    -0.086 SA
ATOM      6  C8  <0> d   1      19.035   1.379  10.310  0.00  0.00     0.032 A 
ATOM      7  C9  <0> d   1      19.118   1.962   9.052  0.00  0.00     0.021 A 
ATOM      8  C10 <0> d   1      18.482   1.376   7.972  0.00  0.00     0.002 A 
ATOM      9  C11 <0> d   1      17.762   0.209   8.144  0.00  0.00     0.002 A 
ATOM     10  C12 <0> d   1      17.677  -0.377   9.393  0.00  0.00     0.031 A 
ATOM     11  C13 <0> d   1      18.314   0.201  10.485  0.00  0.00     0.052 A 
ATOM     12  N14 <0> d   1      18.212  -0.420  11.728  0.00  0.00    -0.345 N 
ATOM     13  C26 <0> d   1      18.353   0.233  12.949  0.00  0.00     0.053 A 
ATOM     14  C27 <0> d   1      17.752  -0.320  14.075  0.00  0.00     0.049 A 
ENDROOT
BRANCH  12  15
ATOM     15  C15 <0> d   1      17.937  -1.859  11.750  0.00  0.00     0.131 C 
BRANCH  15  16
ATOM     16  C16 <0> d   1      19.190  -2.624  11.319  0.00  0.00     0.053 C 
BRANCH  16  17
ATOM     17  C17 <0> d   1      18.808  -4.057  10.945  0.00  0.00     0.189 C 
ATOM     18  N23 <0> d   1      18.285  -4.082   9.574  0.00  0.00    -0.071 N 
ATOM     19  C22 <0> d   1      17.988  -5.465   9.179  0.00  0.00     0.235 C 
ATOM     20  H24 <0> d   1      17.441  -3.532   9.525  0.00  0.00     0.279 HD
ATOM     21  C25 <0> d   1      19.289  -3.519   8.662  0.00  0.00     0.270 C 
ATOM     22  C21 <0> d   1      16.885  -6.030  10.078  0.00  0.00     0.028 C 
ATOM     23  C20 <0> d   1      17.358  -6.002  11.534  0.00  0.00     0.004 C 
ATOM     24  C19 <0> d   1      17.737  -4.568  11.912  0.00  0.00     0.033 C 
ENDBRANCH  16  17
ENDBRANCH  15  16
ENDBRANCH  12  15
BRANCH   1  25
ATOM     25  S2  <0> d   1      17.100  -0.401  16.730  0.00  0.00    -0.134 SA
ATOM     26  C1  <0> d   1      18.303  -0.081  18.048  0.00  0.00     0.095 C 
ENDBRANCH   1  25
TORSDOF 4
ENDMDL
MODEL 6
REMARK VINA RESULT:      -7.4      2.440      5.298
REMARK  4 active torsions:
REMARK  status: ('A' for Active; 'I' for Inactive)
REMARK    1  A    between atoms: S2_2  and  C3_3 
REMARK    2  A    between atoms: N14_14  and  C15_15 
REMARK    3  A    between atoms: C15_15  and  C16_16 
REMARK    4  A    between atoms: C16_16  and  C17_17 
ROOT
ATOM      1  C3  <0> d   1      18.724   0.724  15.551  0.00  0.00     0.002 A 
ATOM      2  C4  <0> d   1      18.738  -0.656  15.403  0.00  0.00     0.020 A 
ATOM      3  C5  <0> d   1      18.583  -1.215  14.148  0.00  0.00     0.022 A 
ATOM      4  C6  <0> d   1      18.414  -0.403  13.035  0.00  0.00     0.032 A 
ATOM      5  S7  <0> d   1      18.230  -1.144  11.449  0.00  0.00    -0.086 SA
ATOM      6  C8  <0> d   1      18.568   0.178  10.337  0.00  0.00     0.032 A 
ATOM      7  C9  <0> d   1      18.873  -0.108   9.013  0.00  0.00     0.021 A 
ATOM      8  C10 <0> d   1      19.143   0.917   8.125  0.00  0.00     0.002 A 
ATOM      9  C11 <0> d   1      19.109   2.230   8.554  0.00  0.00     0.002 A 
ATOM     10  C12 <0> d   1      18.805   2.522   9.871  0.00  0.00     0.031 A 
ATOM     11  C13 <0> d   1      18.529   1.500  10.772  0.00  0.00     0.052 A 
ATOM     12  N14 <0> d   1      18.220   1.832  12.089  0.00  0.00    -0.345 N 
ATOM     13  C26 <0> d   1      18.395   0.981  13.178  0.00  0.00     0.053 A 
ATOM     14  C27 <0> d   1      18.547   1.540  14.442  0.00  0.00     0.049 A 
ENDROOT
BRANCH  12  15
ATOM     15  C15 <0> d   1      17.672   3.166  12.345  0.00  0.00     0.131 C 
BRANCH  15  16
ATOM     16  C16 <0> d   1      18.809   4.120  12.717  0.00  0.00     0.053 C 
BRANCH  16  17
ATOM     17  C17 <0> d   1      18.224   5.396  13.327  0.00  0.00     0.189 C 
ATOM     18  N23 <0> d   1      18.881   5.668  14.611  0.00  0.00    -0.071 N 
ATOM     19  C22 <0> d   1      18.381   6.932  15.168  0.00  0.00     0.235 C 
ATOM     20  H24 <0> d   1      18.685   4.918  15.256  0.00  0.00     0.279 HD
ATOM     21  C25 <0> d   1      20.332   5.767  14.402  0.00  0.00     0.270 C 
ATOM     22  C21 <0> d   1      16.884   6.807  15.461  0.00  0.00     0.028 C 
ATOM     23  C20 <0> d   1      16.140   6.490  14.161  0.00  0.00     0.004 C 
ATOM     24  C19 <0> d   1      16.721   5.212  13.549  0.00  0.00     0.033 C 
ENDBRANCH  16  17
ENDBRANCH  15  16
ENDBRANCH  12  15
BRANCH   1  25
ATOM     25  S2  <0> d   1      18.924   1.440  17.149  0.00  0.00    -0.134 SA
ATOM     26  C1  <0> d   1      19.310   0.008  18.193  0.00  0.00     0.095 C 
ENDBRANCH   1  25
TORSDOF 4
ENDMDL
MODEL 7
REMARK VINA RESULT:      -7.4      1.866      5.938
REMARK  4 active torsions:
REMARK  status: ('A' for Active; 'I' for Inactive)
REMARK    1  A    between atoms: S2_2  and  C3_3 
REMARK    2  A    between atoms: N14_14  and  C15_15 
REMARK    3  A    between atoms: C15_15  and  C16_16 
REMARK    4  A    between atoms: C16_16  and  C17_17 
ROOT
ATOM      1  C3  <0> d   1      18.872   2.662  10.002  0.00  0.00     0.002 A 
ATOM      2  C4  <0> d   1      17.987   3.707   9.769  0.00  0.00     0.020 A 
ATOM      3  C5  <0> d   1      17.398   4.360  10.835  0.00  0.00     0.022 A 
ATOM      4  C6  <0> d   1      17.685   3.977  12.138  0.00  0.00     0.032 A 
ATOM      5  S7  <0> d   1      16.927   4.835  13.474  0.00  0.00    -0.086 SA
ATOM      6  C8  <0> d   1      17.928   4.406  14.858  0.00  0.00     0.032 A 
ATOM      7  C9  <0> d   1      17.858   5.174  16.012  0.00  0.00     0.021 A 
ATOM      8  C10 <0> d   1      18.637   4.854  17.108  0.00  0.00     0.002 A 
ATOM      9  C11 <0> d   1      19.488   3.767  17.057  0.00  0.00     0.002 A 
ATOM     10  C12 <0> d   1      19.563   2.997  15.911  0.00  0.00     0.031 A 
ATOM     11  C13 <0> d   1      18.782   3.308  14.804  0.00  0.00     0.052 A 
ATOM     12  N14 <0> d   1      18.877   2.506  13.668  0.00  0.00    -0.345 N 
ATOM     13  C26 <0> d   1      18.567   2.927  12.378  0.00  0.00     0.053 A 
ATOM     14  C27 <0> d   1      19.156   2.270  11.302  0.00  0.00     0.049 A 
ENDROOT
BRANCH  12  15
ATOM     15  C15 <0> d   1      19.334   1.125  13.846  0.00  0.00     0.131 C 
BRANCH  15  16
ATOM     16  C16 <0> d   1      18.154   0.170  13.660  0.00  0.00     0.053 C 
BRANCH  16  17
ATOM     17  C17 <0> d   1      18.510  -0.881  12.607  0.00  0.00     0.189 C 
ATOM     18  N23 <0> d   1      17.290  -1.312  11.914  0.00  0.00    -0.071 N 
ATOM     19  C22 <0> d   1      17.632  -2.264  10.850  0.00  0.00     0.235 C 
ATOM     20  H24 <0> d   1      16.668  -1.755  12.572  0.00  0.00     0.279 HD
ATOM     21  C25 <0> d   1      16.627  -0.141  11.326  0.00  0.00     0.270 C 
ATOM     22  C21 <0> d   1      18.252  -3.521  11.465  0.00  0.00     0.028 C 
ATOM     23  C20 <0> d   1      19.519  -3.134  12.233  0.00  0.00     0.004 C 
ATOM     24  C19 <0> d   1      19.164  -2.084  13.290  0.00  0.00     0.033 C 
ENDBRANCH  16  17
ENDBRANCH  15  16
ENDBRANCH  12  15
BRANCH   1  25
ATOM     25  S2  <0> d   1      19.627   1.829   8.645  0.00  0.00    -0.134 SA
ATOM     26  C1  <0> d   1      19.752   0.118   9.234  0.00  0.00     0.095 C 
ENDBRANCH   1  25
TORSDOF 4
ENDMDL
MODEL 8
REMARK VINA RESULT:      -7.4      2.579      4.976
REMARK  4 active torsions:
REMARK  status: ('A' for Active; 'I' for Inactive)
REMARK    1  A    between atoms: S2_2  and  C3_3 
REMARK    2  A    between atoms: N14_14  and  C15_15 
REMARK    3  A    between atoms: C15_15  and  C16_16 
REMARK    4  A    between atoms: C16_16  and  C17_17 
ROOT
ATOM      1  C3  <0> d   1      17.829  -0.515   7.331  0.00  0.00     0.002 A 
ATOM      2  C4  <0> d   1      18.787  -1.520   7.340  0.00  0.00     0.020 A 
ATOM      3  C5  <0> d   1      19.464  -1.815   8.508  0.00  0.00     0.022 A 
ATOM      4  C6  <0> d   1      19.192  -1.110   9.673  0.00  0.00     0.032 A 
ATOM      5  S7  <0> d   1      20.064  -1.516  11.148  0.00  0.00    -0.086 SA
ATOM      6  C8  <0> d   1      19.080  -0.795  12.417  0.00  0.00     0.032 A 
ATOM      7  C9  <0> d   1      19.253  -1.212  13.731  0.00  0.00     0.021 A 
ATOM      8  C10 <0> d   1      18.488  -0.658  14.741  0.00  0.00     0.002 A 
ATOM      9  C11 <0> d   1      17.550   0.312  14.445  0.00  0.00     0.002 A 
ATOM     10  C12 <0> d   1      17.374   0.732  13.140  0.00  0.00     0.031 A 
ATOM     11  C13 <0> d   1      18.138   0.185  12.117  0.00  0.00     0.052 A 
ATOM     12  N14 <0> d   1      17.939   0.637  10.814  0.00  0.00    -0.345 N 
ATOM     13  C26 <0> d   1      18.236  -0.099   9.670  0.00  0.00     0.053 A 
ATOM     14  C27 <0> d   1      17.560   0.197   8.492  0.00  0.00     0.049 A 
ENDROOT
BRANCH  12  15
ATOM     15  C15 <0> d   1      17.377   1.979  10.637  0.00  0.00     0.131 C 
BRANCH  15  16
ATOM     16  C16 <0> d   1      18.497   2.956  10.277  0.00  0.00     0.053 C 
BRANCH  16  17
ATOM     17  C17 <0> d   1      18.466   4.144  11.241  0.00  0.00     0.189 C 
ATOM     18  N23 <0> d   1      19.368   3.881  12.369  0.00  0.00    -0.071 N 
ATOM     19  C22 <0> d   1      19.403   5.047  13.260  0.00  0.00     0.235 C 
ATOM     20  H24 <0> d   1      19.039   3.078  12.883  0.00  0.00     0.279 HD
ATOM     21  C25 <0> d   1      20.719   3.615  11.859  0.00  0.00     0.270 C 
ATOM     22  C21 <0> d   1      18.013   5.281  13.856  0.00  0.00     0.028 C 
ATOM     23  C20 <0> d   1      17.014   5.532  12.724  0.00  0.00     0.004 C 
ATOM     24  C19 <0> d   1      17.040   4.343  11.759  0.00  0.00     0.033 C 
ENDBRANCH  16  17
ENDBRANCH  15  16
ENDBRANCH  12  15
BRANCH   1  25
ATOM     25  S2  <0> d   1      16.962  -0.138   5.844  0.00  0.00    -0.134 SA
ATOM     26  C1  <0> d   1      17.735  -1.242   4.630  0.00  0.00     0.095 C 
ENDBRANCH   1  25
TORSDOF 4
ENDMDL
MODEL 9
REMARK VINA RESULT:      -7.2      2.702      7.607
REMARK  4 active torsions:
REMARK  status: ('A' for Active; 'I' for Inactive)
REMARK    1  A    between atoms: S2_2  and  C3_3 
REMARK    2  A    between atoms: N14_14  and  C15_15 
REMARK    3  A    between atoms: C15_15  and  C16_16 
REMARK    4  A    between atoms: C16_16  and  C17_17 
ROOT
ATOM      1  C3  <0> d   1      18.540   0.608  15.908  0.00  0.00     0.002 A 
ATOM      2  C4  <0> d   1      19.253   1.064  17.009  0.00  0.00     0.020 A 
ATOM      3  C5  <0> d   1      19.545   2.409  17.131  0.00  0.00     0.022 A 
ATOM      4  C6  <0> d   1      19.130   3.308  16.159  0.00  0.00     0.032 A 
ATOM      5  S7  <0> d   1      19.508   5.017  16.348  0.00  0.00    -0.086 SA
ATOM      6  C8  <0> d   1      18.394   5.809  15.238  0.00  0.00     0.032 A 
ATOM      7  C9  <0> d   1      18.147   7.168  15.377  0.00  0.00     0.021 A 
ATOM      8  C10 <0> d   1      17.274   7.807  14.517  0.00  0.00     0.002 A 
ATOM      9  C11 <0> d   1      16.644   7.093  13.515  0.00  0.00     0.002 A 
ATOM     10  C12 <0> d   1      16.886   5.740  13.370  0.00  0.00     0.031 A 
ATOM     11  C13 <0> d   1      17.764   5.087  14.228  0.00  0.00     0.052 A 
ATOM     12  N14 <0> d   1      17.989   3.724  14.049  0.00  0.00    -0.345 N 
ATOM     13  C26 <0> d   1      18.418   2.857  15.051  0.00  0.00     0.053 A 
ATOM     14  C27 <0> d   1      18.129   1.503  14.929  0.00  0.00     0.049 A 
ENDROOT
BRANCH  12  15
ATOM     15  C15 <0> d   1      17.758   3.165  12.714  0.00  0.00     0.131 C 
BRANCH  15  16
ATOM     16  C16 <0> d   1      19.102   2.866  12.047  0.00  0.00     0.053 C 
BRANCH  16  17
ATOM     17  C17 <0> d   1      18.945   1.682  11.092  0.00  0.00     0.189 C 
ATOM     18  N23 <0> d   1      20.242   1.018  10.920  0.00  0.00    -0.071 N 
ATOM     19  C22 <0> d   1      20.086  -0.166  10.065  0.00  0.00     0.235 C 
ATOM     20  H24 <0> d   1      20.893   1.657  10.490  0.00  0.00     0.279 HD
ATOM     21  C25 <0> d   1      20.755   0.607  12.233  0.00  0.00     0.270 C 
ATOM     22  C21 <0> d   1      19.626   0.265   8.670  0.00  0.00     0.028 C 
ATOM     23  C20 <0> d   1      18.286   0.995   8.784  0.00  0.00     0.004 C 
ATOM     24  C19 <0> d   1      18.441   2.184   9.737  0.00  0.00     0.033 C 
ENDBRANCH  16  17
ENDBRANCH  15  16
ENDBRANCH  12  15
BRANCH   1  25
ATOM     25  S2  <0> d   1      18.163  -1.106  15.750  0.00  0.00    -0.134 SA
ATOM     26  C1  <0> d   1      18.154  -1.359  13.955  0.00  0.00     0.095 C 
ENDBRANCH   1  25
TORSDOF 4
ENDMDL
