MODEL 1
REMARK VINA RESULT:      -9.5      0.000      0.000
REMARK  5 active torsions:
REMARK  status: ('A' for Active; 'I' for Inactive)
REMARK    1  A    between atoms: C2_2  and  C3_3 
REMARK    2  A    between atoms: C3_3  and  O4_4 
REMARK    3  A    between atoms: C21_21  and  O22_22 
REMARK    4  A    between atoms: C23_23  and  C24_24 
REMARK    5  A    between atoms: C24_24  and  N25_25 
ROOT
ATOM      1  C3  ZIN A   1      18.764  -4.207   9.604  0.00  0.00     0.173 C 
ATOM      2  C5  ZIN A   1      19.043  -4.331   8.123  0.00  0.00     0.298 C 
ATOM      3  O6  ZIN A   1      19.684  -5.250   7.674  0.00  0.00    -0.261 OA
ATOM      4  O7  ZIN A   1      18.538  -3.361   7.327  0.00  0.00    -0.314 OA
ATOM      5  C8  ZIN A   1      19.025  -2.023   7.614  0.00  0.00     0.224 C 
ATOM      6  C9  ZIN A   1      19.018  -1.764   9.097  0.00  0.00     0.044 A 
ATOM      7  C10 ZIN A   1      18.911  -2.763  10.013  0.00  0.00     0.002 A 
ATOM      8  C11 ZIN A   1      18.931  -2.452  11.379  0.00  0.00     0.043 A 
ATOM      9  C12 ZIN A   1      19.052  -1.141  11.790  0.00  0.00     0.068 A 
ATOM     10  C13 ZIN A   1      19.099  -0.564  13.153  0.00  0.00     0.092 A 
ATOM     11  C14 ZIN A   1      19.226   0.831  13.035  0.00  0.00    -0.008 A 
ATOM     12  C15 ZIN A   1      19.293   1.613  14.145  0.00  0.00     0.025 A 
ATOM     13  C16 ZIN A   1      19.231   0.985  15.407  0.00  0.00     0.004 A 
ATOM     14  C17 ZIN A   1      19.100  -0.427  15.467  0.00  0.00     0.068 A 
ATOM     15  N18 ZIN A   1      19.040  -1.141  14.344  0.00  0.00    -0.245 NA
ATOM     16  C19 ZIN A   1      19.036  -1.056  16.726  0.00  0.00     0.035 A 
ATOM     17  C20 ZIN A   1      19.101  -0.307  17.859  0.00  0.00     0.039 A 
ATOM     18  C21 ZIN A   1      19.229   1.085  17.798  0.00  0.00     0.074 A 
ATOM     19  C23 ZIN A   1      19.294   1.728  16.594  0.00  0.00     0.013 A 
ATOM     20  C29 ZIN A   1      19.261   1.143  11.562  0.00  0.00     0.173 A 
ATOM     21  N30 ZIN A   1      19.148  -0.144  10.861  0.00  0.00    -0.307 N 
ATOM     22  C31 ZIN A   1      19.131  -0.431   9.545  0.00  0.00     0.257 A 
ATOM     23  O32 ZIN A   1      19.213   0.473   8.730  0.00  0.00    -0.267 OA
ENDROOT
BRANCH  19  24
ATOM     24  C24 ZIN A   1      19.432   3.228  16.543  0.00  0.00     0.276 C 
BRANCH  24  25
ATOM     25  N25 ZIN A   1      18.101   3.844  16.632  0.00  0.00    -0.075 N 
ATOM     26  H26 ZIN A   1      17.399   3.122  16.691  0.00  0.00     0.279 HD
ATOM     27  C27 ZIN A   1      18.033   4.693  17.829  0.00  0.00     0.269 C 
ATOM     28  C28 ZIN A   1      17.861   4.664  15.437  0.00  0.00     0.269 C 
ENDBRANCH  24  25
ENDBRANCH  19  24
BRANCH  18  29
ATOM     29  O22 ZIN A   1      19.292   1.804  18.949  0.00  0.00    -0.360 OA
ATOM     30  H45 ZIN A   1      19.840   1.401  19.635  0.00  0.00     0.217 HD
ENDBRANCH  18  29
BRANCH   1  31
ATOM     31  C2  ZIN A   1      17.338  -4.680   9.897  0.00  0.00     0.049 C 
ATOM     32  C1  ZIN A   1      17.374  -6.124  10.401  0.00  0.00     0.009 C 
ENDBRANCH   1  31
BRANCH   1  33
ATOM     33  O4  ZIN A   1      19.694  -5.008  10.336  0.00  0.00    -0.375 OA
ATOM     34  H38 ZIN A   1      20.337  -5.469   9.780  0.00  0.00     0.211 HD
ENDBRANCH   1  33
TORSDOF 5
ENDMDL
MODEL 2
REMARK VINA RESULT:      -9.5      2.725      9.469
REMARK  5 active torsions:
REMARK  status: ('A' for Active; 'I' for Inactive)
REMARK    1  A    between atoms: C2_2  and  C3_3 
REMARK    2  A    between atoms: C3_3  and  O4_4 
REMARK    3  A    between atoms: C21_21  and  O22_22 
REMARK    4  A    between atoms: C23_23  and  C24_24 
REMARK    5  A    between atoms: C24_24  and  N25_25 
ROOT
ATOM      1  C3  ZIN A   1      18.846   3.809  13.659  0.00  0.00     0.173 C 
ATOM      2  C5  ZIN A   1      19.101   3.847  15.149  0.00  0.00     0.298 C 
ATOM      3  O6  ZIN A   1      19.763   4.721  15.655  0.00  0.00    -0.261 OA
ATOM      4  O7  ZIN A   1      18.549   2.856  15.885  0.00  0.00    -0.314 OA
ATOM      5  C8  ZIN A   1      18.998   1.519  15.538  0.00  0.00     0.224 C 
ATOM      6  C9  ZIN A   1      19.011   1.336  14.044  0.00  0.00     0.044 A 
ATOM      7  C10 ZIN A   1      18.954   2.383  13.179  0.00  0.00     0.002 A 
ATOM      8  C11 ZIN A   1      18.989   2.141  11.799  0.00  0.00     0.043 A 
ATOM      9  C12 ZIN A   1      19.075   0.849  11.324  0.00  0.00     0.068 A 
ATOM     10  C13 ZIN A   1      19.129   0.340   9.934  0.00  0.00     0.092 A 
ATOM     11  C14 ZIN A   1      19.209  -1.062   9.982  0.00  0.00    -0.008 A 
ATOM     12  C15 ZIN A   1      19.271  -1.789   8.835  0.00  0.00     0.025 A 
ATOM     13  C16 ZIN A   1      19.253  -1.096   7.606  0.00  0.00     0.004 A 
ATOM     14  C17 ZIN A   1      19.170   0.321   7.616  0.00  0.00     0.068 A 
ATOM     15  N18 ZIN A   1      19.112   0.979   8.774  0.00  0.00    -0.245 NA
ATOM     16  C19 ZIN A   1      19.150   1.015   6.390  0.00  0.00     0.035 A 
ATOM     17  C20 ZIN A   1      19.212   0.323   5.221  0.00  0.00     0.039 A 
ATOM     18  C21 ZIN A   1      19.293  -1.074   5.213  0.00  0.00     0.074 A 
ATOM     19  C23 ZIN A   1      19.315  -1.779   6.384  0.00  0.00     0.013 A 
ATOM     20  C29 ZIN A   1      19.205  -1.449  11.438  0.00  0.00     0.173 A 
ATOM     21  N30 ZIN A   1      19.121  -0.197  12.202  0.00  0.00    -0.307 N 
ATOM     22  C31 ZIN A   1      19.088   0.024  13.531  0.00  0.00     0.257 A 
ATOM     23  O32 ZIN A   1      19.125  -0.922  14.299  0.00  0.00    -0.267 OA
ENDROOT
BRANCH  19  24
ATOM     24  C24 ZIN A   1      19.402  -3.283   6.360  0.00  0.00     0.276 C 
BRANCH  24  25
ATOM     25  N25 ZIN A   1      18.054  -3.850   6.215  0.00  0.00    -0.075 N 
ATOM     26  H26 ZIN A   1      17.376  -3.103   6.191  0.00  0.00     0.279 HD
ATOM     27  C27 ZIN A   1      17.978  -4.620   4.966  0.00  0.00     0.269 C 
ATOM     28  C28 ZIN A   1      17.769  -4.733   7.353  0.00  0.00     0.269 C 
ENDBRANCH  24  25
ENDBRANCH  19  24
BRANCH  18  29
ATOM     29  O22 ZIN A   1      19.355  -1.736   4.029  0.00  0.00    -0.360 OA
ATOM     30  H45 ZIN A   1      18.507  -1.795   3.567  0.00  0.00     0.217 HD
ENDBRANCH  18  29
BRANCH   1  31
ATOM     31  C2  ZIN A   1      17.443   4.343  13.366  0.00  0.00     0.049 C 
ATOM     32  C1  ZIN A   1      17.448   5.870  13.464  0.00  0.00     0.009 C 
ENDBRANCH   1  31
BRANCH   1  33
ATOM     33  O4  ZIN A   1      19.815   4.614  12.985  0.00  0.00    -0.375 OA
ATOM     34  H38 ZIN A   1      20.715   4.262  13.028  0.00  0.00     0.211 HD
ENDBRANCH   1  33
TORSDOF 5
ENDMDL
MODEL 3
REMARK VINA RESULT:      -9.1      1.995      4.121
REMARK  5 active torsions:
REMARK  status: ('A' for Active; 'I' for Inactive)
REMARK    1  A    between atoms: C2_2  and  C3_3 
REMARK    2  A    between atoms: C3_3  and  O4_4 
REMARK    3  A    between atoms: C21_21  and  O22_22 
REMARK    4  A    between atoms: C23_23  and  C24_24 
REMARK    5  A    between atoms: C24_24  and  N25_25 
ROOT
ATOM      1  C3  ZIN A   1      18.229  -1.603   6.043  0.00  0.00     0.173 C 
ATOM      2  C5  ZIN A   1      18.160  -2.890   5.253  0.00  0.00     0.298 C 
ATOM      3  O6  ZIN A   1      17.353  -3.047   4.369  0.00  0.00    -0.261 OA
ATOM      4  O7  ZIN A   1      19.047  -3.855   5.585  0.00  0.00    -0.314 OA
ATOM      5  C8  ZIN A   1      18.942  -4.335   6.950  0.00  0.00     0.224 C 
ATOM      6  C9  ZIN A   1      18.794  -3.183   7.908  0.00  0.00     0.044 A 
ATOM      7  C10 ZIN A   1      18.455  -1.932   7.497  0.00  0.00     0.002 A 
ATOM      8  C11 ZIN A   1      18.316  -0.909   8.446  0.00  0.00     0.043 A 
ATOM      9  C12 ZIN A   1      18.528  -1.170   9.783  0.00  0.00     0.068 A 
ATOM     10  C13 ZIN A   1      18.443  -0.274  10.960  0.00  0.00     0.092 A 
ATOM     11  C14 ZIN A   1      18.756  -1.024  12.106  0.00  0.00    -0.008 A 
ATOM     12  C15 ZIN A   1      18.752  -0.441  13.334  0.00  0.00     0.025 A 
ATOM     13  C16 ZIN A   1      18.428   0.929  13.419  0.00  0.00     0.004 A 
ATOM     14  C17 ZIN A   1      18.122   1.639  12.229  0.00  0.00     0.068 A 
ATOM     15  N18 ZIN A   1      18.141   1.012  11.053  0.00  0.00    -0.245 NA
ATOM     16  C19 ZIN A   1      17.800   3.008  12.311  0.00  0.00     0.035 A 
ATOM     17  C20 ZIN A   1      17.785   3.627  13.522  0.00  0.00     0.039 A 
ATOM     18  C21 ZIN A   1      18.087   2.926  14.694  0.00  0.00     0.074 A 
ATOM     19  C23 ZIN A   1      18.404   1.597  14.651  0.00  0.00     0.013 A 
ATOM     20  C29 ZIN A   1      19.045  -2.428  11.643  0.00  0.00     0.173 A 
ATOM     21  N30 ZIN A   1      18.879  -2.428  10.183  0.00  0.00    -0.307 N 
ATOM     22  C31 ZIN A   1      19.014  -3.420   9.281  0.00  0.00     0.257 A 
ATOM     23  O32 ZIN A   1      19.332  -4.536   9.656  0.00  0.00    -0.267 OA
ENDROOT
BRANCH  19  24
ATOM     24  C24 ZIN A   1      18.728   0.855  15.922  0.00  0.00     0.276 C 
BRANCH  24  25
ATOM     25  N25 ZIN A   1      17.525   0.772  16.761  0.00  0.00    -0.075 N 
ATOM     26  H26 ZIN A   1      16.835   1.426  16.424  0.00  0.00     0.279 HD
ATOM     27  C27 ZIN A   1      16.979  -0.591  16.702  0.00  0.00     0.269 C 
ATOM     28  C28 ZIN A   1      17.873   1.100  18.150  0.00  0.00     0.269 C 
ENDBRANCH  24  25
ENDBRANCH  19  24
BRANCH  18  29
ATOM     29  O22 ZIN A   1      18.062   3.572  15.889  0.00  0.00    -0.360 OA
ATOM     30  H45 ZIN A   1      17.424   4.297  15.930  0.00  0.00     0.217 HD
ENDBRANCH  18  29
BRANCH   1  31
ATOM     31  C2  ZIN A   1      19.385  -0.746   5.525  0.00  0.00     0.049 C 
ATOM     32  C1  ZIN A   1      18.875   0.189   4.426  0.00  0.00     0.009 C 
ENDBRANCH   1  31
BRANCH   1  33
ATOM     33  O4  ZIN A   1      17.001  -0.886   5.901  0.00  0.00    -0.375 OA
ATOM     34  H38 ZIN A   1      16.385  -1.284   5.271  0.00  0.00     0.211 HD
ENDBRANCH   1  33
TORSDOF 5
ENDMDL
MODEL 4
REMARK VINA RESULT:      -9.0      1.498      2.048
REMARK  5 active torsions:
REMARK  status: ('A' for Active; 'I' for Inactive)
REMARK    1  A    between atoms: C2_2  and  C3_3 
REMARK    2  A    between atoms: C3_3  and  O4_4 
REMARK    3  A    between atoms: C21_21  and  O22_22 
REMARK    4  A    between atoms: C23_23  and  C24_24 
REMARK    5  A    between atoms: C24_24  and  N25_25 
ROOT
ATOM      1  C3  ZIN A   1      18.831  -1.679   8.359  0.00  0.00     0.173 C 
ATOM      2  C5  ZIN A   1      19.054  -1.382   6.893  0.00  0.00     0.298 C 
ATOM      3  O6  ZIN A   1      19.749  -2.088   6.203  0.00  0.00    -0.261 OA
ATOM      4  O7  ZIN A   1      18.436  -0.288   6.394  0.00  0.00    -0.314 OA
ATOM      5  C8  ZIN A   1      18.821   0.966   7.016  0.00  0.00     0.224 C 
ATOM      6  C9  ZIN A   1      18.858   0.824   8.515  0.00  0.00     0.044 A 
ATOM      7  C10 ZIN A   1      18.875  -0.386   9.134  0.00  0.00     0.002 A 
ATOM      8  C11 ZIN A   1      18.929  -0.444  10.533  0.00  0.00     0.043 A 
ATOM      9  C12 ZIN A   1      18.958   0.718  11.275  0.00  0.00     0.068 A 
ATOM     10  C13 ZIN A   1      19.016   0.918  12.742  0.00  0.00     0.092 A 
ATOM     11  C14 ZIN A   1      19.022   2.299  12.996  0.00  0.00    -0.008 A 
ATOM     12  C15 ZIN A   1      19.072   2.765  14.273  0.00  0.00     0.025 A 
ATOM     13  C16 ZIN A   1      19.117   1.825  15.323  0.00  0.00     0.004 A 
ATOM     14  C17 ZIN A   1      19.108   0.441  15.008  0.00  0.00     0.068 A 
ATOM     15  N18 ZIN A   1      19.058   0.045  13.737  0.00  0.00    -0.245 NA
ATOM     16  C19 ZIN A   1      19.152  -0.500  16.056  0.00  0.00     0.035 A 
ATOM     17  C20 ZIN A   1      19.203  -0.073  17.346  0.00  0.00     0.039 A 
ATOM     18  C21 ZIN A   1      19.212   1.291  17.654  0.00  0.00     0.074 A 
ATOM     19  C23 ZIN A   1      19.170   2.231  16.663  0.00  0.00     0.013 A 
ATOM     20  C29 ZIN A   1      18.966   2.990  11.659  0.00  0.00     0.173 A 
ATOM     21  N30 ZIN A   1      18.929   1.929  10.643  0.00  0.00    -0.307 N 
ATOM     22  C31 ZIN A   1      18.879   1.997   9.299  0.00  0.00     0.257 A 
ATOM     23  O32 ZIN A   1      18.850   3.087   8.752  0.00  0.00    -0.267 OA
ENDROOT
BRANCH  19  24
ATOM     24  C24 ZIN A   1      19.180   3.698  17.010  0.00  0.00     0.276 C 
BRANCH  24  25
ATOM     25  N25 ZIN A   1      17.805   4.149  17.265  0.00  0.00    -0.075 N 
ATOM     26  H26 ZIN A   1      17.164   3.390  17.092  0.00  0.00     0.279 HD
ATOM     27  C27 ZIN A   1      17.683   4.584  18.664  0.00  0.00     0.269 C 
ATOM     28  C28 ZIN A   1      17.485   5.272  16.374  0.00  0.00     0.269 C 
ENDBRANCH  24  25
ENDBRANCH  19  24
BRANCH  18  29
ATOM     29  O22 ZIN A   1      19.265   1.685  18.953  0.00  0.00    -0.360 OA
ATOM     30  H45 ZIN A   1      20.069   1.410  19.415  0.00  0.00     0.217 HD
ENDBRANCH  18  29
BRANCH   1  31
ATOM     31  C2  ZIN A   1      17.465  -2.341   8.545  0.00  0.00     0.049 C 
ATOM     32  C1  ZIN A   1      17.653  -3.745   9.124  0.00  0.00     0.009 C 
ENDBRANCH   1  31
BRANCH   1  33
ATOM     33  O4  ZIN A   1      19.856  -2.555   8.833  0.00  0.00    -0.375 OA
ATOM     34  H38 ZIN A   1      20.080  -3.265   8.216  0.00  0.00     0.211 HD
ENDBRANCH   1  33
TORSDOF 5
ENDMDL
MODEL 5
REMARK VINA RESULT:      -8.9      2.343      9.037
REMARK  5 active torsions:
REMARK  status: ('A' for Active; 'I' for Inactive)
REMARK    1  A    between atoms: C2_2  and  C3_3 
REMARK    2  A    between atoms: C3_3  and  O4_4 
REMARK    3  A    between atoms: C21_21  and  O22_22 
REMARK    4  A    between atoms: C23_23  and  C24_24 
REMARK    5  A    between atoms: C24_24  and  N25_25 
ROOT
ATOM      1  C3  ZIN A   1      18.947   2.664  16.836  0.00  0.00     0.173 C 
ATOM      2  C5  ZIN A   1      19.025   2.226  18.281  0.00  0.00     0.298 C 
ATOM      3  O6  ZIN A   1      19.851   2.677  19.036  0.00  0.00    -0.261 OA
ATOM      4  O7  ZIN A   1      18.122   1.304  18.685  0.00  0.00    -0.314 OA
ATOM      5  C8  ZIN A   1      18.191   0.035  17.982  0.00  0.00     0.224 C 
ATOM      6  C9  ZIN A   1      18.325   0.257  16.499  0.00  0.00     0.044 A 
ATOM      7  C10 ZIN A   1      18.683   1.458  15.970  0.00  0.00     0.002 A 
ATOM      8  C11 ZIN A   1      18.808   1.589  14.580  0.00  0.00     0.043 A 
ATOM      9  C12 ZIN A   1      18.562   0.510  13.757  0.00  0.00     0.068 A 
ATOM     10  C13 ZIN A   1      18.626   0.396  12.281  0.00  0.00     0.092 A 
ATOM     11  C14 ZIN A   1      18.280  -0.919  11.927  0.00  0.00    -0.008 A 
ATOM     12  C15 ZIN A   1      18.259  -1.298  10.622  0.00  0.00     0.025 A 
ATOM     13  C16 ZIN A   1      18.592  -0.338   9.644  0.00  0.00     0.004 A 
ATOM     14  C17 ZIN A   1      18.933   0.976  10.058  0.00  0.00     0.068 A 
ATOM     15  N18 ZIN A   1      18.936   1.289  11.354  0.00  0.00    -0.245 NA
ATOM     16  C19 ZIN A   1      19.264   1.937   9.083  0.00  0.00     0.035 A 
ATOM     17  C20 ZIN A   1      19.255   1.596   7.767  0.00  0.00     0.039 A 
ATOM     18  C21 ZIN A   1      18.919   0.300   7.360  0.00  0.00     0.074 A 
ATOM     19  C23 ZIN A   1      18.592  -0.658   8.280  0.00  0.00     0.013 A 
ATOM     20  C29 ZIN A   1      17.991  -1.654  13.210  0.00  0.00     0.173 A 
ATOM     21  N30 ZIN A   1      18.192  -0.688  14.298  0.00  0.00    -0.307 N 
ATOM     22  C31 ZIN A   1      18.070  -0.827  15.633  0.00  0.00     0.257 A 
ATOM     23  O32 ZIN A   1      17.734  -1.903  16.098  0.00  0.00    -0.267 OA
ENDROOT
BRANCH  19  24
ATOM     24  C24 ZIN A   1      18.232  -2.049   7.827  0.00  0.00     0.276 C 
BRANCH  24  25
ATOM     25  N25 ZIN A   1      19.453  -2.858   7.709  0.00  0.00    -0.075 N 
ATOM     26  H26 ZIN A   1      20.248  -2.310   8.004  0.00  0.00     0.279 HD
ATOM     27  C27 ZIN A   1      19.336  -4.050   8.560  0.00  0.00     0.269 C 
ATOM     28  C28 ZIN A   1      19.635  -3.270   6.311  0.00  0.00     0.269 C 
ENDBRANCH  24  25
ENDBRANCH  19  24
BRANCH  18  29
ATOM     29  O22 ZIN A   1      18.920  -0.011   6.038  0.00  0.00    -0.360 OA
ATOM     30  H45 ZIN A   1      18.040  -0.035   5.639  0.00  0.00     0.217 HD
ENDBRANCH  18  29
BRANCH   1  31
ATOM     31  C2  ZIN A   1      17.810   3.674  16.667  0.00  0.00     0.049 C 
ATOM     32  C1  ZIN A   1      18.333   4.913  15.938  0.00  0.00     0.009 C 
ENDBRANCH   1  31
BRANCH   1  33
ATOM     33  O4  ZIN A   1      20.184   3.267  16.450  0.00  0.00    -0.375 OA
ATOM     34  H38 ZIN A   1      20.932   2.654  16.437  0.00  0.00     0.211 HD
ENDBRANCH   1  33
TORSDOF 5
ENDMDL
MODEL 6
REMARK VINA RESULT:      -8.8      2.253      9.172
REMARK  5 active torsions:
REMARK  status: ('A' for Active; 'I' for Inactive)
REMARK    1  A    between atoms: C2_2  and  C3_3 
REMARK    2  A    between atoms: C3_3  and  O4_4 
REMARK    3  A    between atoms: C21_21  and  O22_22 
REMARK    4  A    between atoms: C23_23  and  C24_24 
REMARK    5  A    between atoms: C24_24  and  N25_25 
ROOT
ATOM      1  C3  ZIN A   1      18.319   5.077  15.023  0.00  0.00     0.173 C 
ATOM      2  C5  ZIN A   1      18.814   5.600  16.352  0.00  0.00     0.298 C 
ATOM      3  O6  ZIN A   1      19.438   6.630  16.434  0.00  0.00    -0.261 OA
ATOM      4  O7  ZIN A   1      18.522   4.857  17.444  0.00  0.00    -0.314 OA
ATOM      5  C8  ZIN A   1      19.067   3.512  17.429  0.00  0.00     0.224 C 
ATOM      6  C9  ZIN A   1      18.851   2.867  16.085  0.00  0.00     0.044 A 
ATOM      7  C10 ZIN A   1      18.520   3.583  14.977  0.00  0.00     0.002 A 
ATOM      8  C11 ZIN A   1      18.353   2.920  13.754  0.00  0.00     0.043 A 
ATOM      9  C12 ZIN A   1      18.516   1.553  13.677  0.00  0.00     0.068 A 
ATOM     10  C13 ZIN A   1      18.398   0.636  12.519  0.00  0.00     0.092 A 
ATOM     11  C14 ZIN A   1      18.658  -0.670  12.966  0.00  0.00    -0.008 A 
ATOM     12  C15 ZIN A   1      18.616  -1.716  12.098  0.00  0.00     0.025 A 
ATOM     13  C16 ZIN A   1      18.305  -1.450  10.748  0.00  0.00     0.004 A 
ATOM     14  C17 ZIN A   1      18.050  -0.110  10.352  0.00  0.00     0.068 A 
ATOM     15  N18 ZIN A   1      18.107   0.874  11.249  0.00  0.00    -0.245 NA
ATOM     16  C19 ZIN A   1      17.739   0.158   9.005  0.00  0.00     0.035 A 
ATOM     17  C20 ZIN A   1      17.688  -0.861   8.107  0.00  0.00     0.039 A 
ATOM     18  C21 ZIN A   1      17.939  -2.181   8.499  0.00  0.00     0.074 A 
ATOM     19  C23 ZIN A   1      18.244  -2.478   9.798  0.00  0.00     0.013 A 
ATOM     20  C29 ZIN A   1      18.948  -0.578  14.441  0.00  0.00     0.173 A 
ATOM     21  N30 ZIN A   1      18.838   0.843  14.799  0.00  0.00    -0.307 N 
ATOM     22  C31 ZIN A   1      19.003   1.469  15.980  0.00  0.00     0.257 A 
ATOM     23  O32 ZIN A   1      19.286   0.818  16.972  0.00  0.00    -0.267 OA
ENDROOT
BRANCH  19  24
ATOM     24  C24 ZIN A   1      18.512  -3.903  10.205  0.00  0.00     0.276 C 
BRANCH  24  25
ATOM     25  N25 ZIN A   1      17.280  -4.692  10.068  0.00  0.00    -0.075 N 
ATOM     26  H26 ZIN A   1      16.661  -4.236   9.414  0.00  0.00     0.279 HD
ATOM     27  C27 ZIN A   1      17.610  -6.036   9.575  0.00  0.00     0.269 C 
ATOM     28  C28 ZIN A   1      16.619  -4.798  11.375  0.00  0.00     0.269 C 
ENDBRANCH  24  25
ENDBRANCH  19  24
BRANCH  18  29
ATOM     29  O22 ZIN A   1      17.882  -3.177   7.577  0.00  0.00    -0.360 OA
ATOM     30  H45 ZIN A   1      17.281  -2.998   6.841  0.00  0.00     0.217 HD
ENDBRANCH  18  29
BRANCH   1  31
ATOM     31  C2  ZIN A   1      16.831   5.398  14.869  0.00  0.00     0.049 C 
ATOM     32  C1  ZIN A   1      16.619   6.238  13.608  0.00  0.00     0.009 C 
ENDBRANCH   1  31
BRANCH   1  33
ATOM     33  O4  ZIN A   1      19.053   5.690  13.961  0.00  0.00    -0.375 OA
ATOM     34  H38 ZIN A   1      19.522   5.061  13.395  0.00  0.00     0.211 HD
ENDBRANCH   1  33
TORSDOF 5
ENDMDL
MODEL 7
REMARK VINA RESULT:      -8.6      1.980      8.574
REMARK  5 active torsions:
REMARK  status: ('A' for Active; 'I' for Inactive)
REMARK    1  A    between atoms: C2_2  and  C3_3 
REMARK    2  A    between atoms: C3_3  and  O4_4 
REMARK    3  A    between atoms: C21_21  and  O22_22 
REMARK    4  A    between atoms: C23_23  and  C24_24 
REMARK    5  A    between atoms: C24_24  and  N25_25 
ROOT
ATOM      1  C3  ZIN A   1      18.173   1.686  17.589  0.00  0.00     0.173 C 
ATOM      2  C5  ZIN A   1      17.957   3.021  18.265  0.00  0.00     0.298 C 
ATOM      3  O6  ZIN A   1      17.114   3.170  19.116  0.00  0.00    -0.261 OA
ATOM      4  O7  ZIN A   1      18.756   4.038  17.870  0.00  0.00    -0.314 OA
ATOM      5  C8  ZIN A   1      18.642   4.390  16.466  0.00  0.00     0.224 C 
ATOM      6  C9  ZIN A   1      18.634   3.154  15.608  0.00  0.00     0.044 A 
ATOM      7  C10 ZIN A   1      18.408   1.913  16.117  0.00  0.00     0.002 A 
ATOM      8  C11 ZIN A   1      18.395   0.807  15.257  0.00  0.00     0.043 A 
ATOM      9  C12 ZIN A   1      18.619   0.975  13.906  0.00  0.00     0.068 A 
ATOM     10  C13 ZIN A   1      18.654  -0.019  12.809  0.00  0.00     0.092 A 
ATOM     11  C14 ZIN A   1      18.924   0.661  11.609  0.00  0.00    -0.008 A 
ATOM     12  C15 ZIN A   1      19.012  -0.020  10.435  0.00  0.00     0.025 A 
ATOM     13  C16 ZIN A   1      18.825  -1.418  10.461  0.00  0.00     0.004 A 
ATOM     14  C17 ZIN A   1      18.556  -2.053  11.702  0.00  0.00     0.068 A 
ATOM     15  N18 ZIN A   1      18.481  -1.332  12.820  0.00  0.00    -0.245 NA
ATOM     16  C19 ZIN A   1      18.371  -3.449  11.730  0.00  0.00     0.035 A 
ATOM     17  C20 ZIN A   1      18.450  -4.165  10.577  0.00  0.00     0.039 A 
ATOM     18  C21 ZIN A   1      18.715  -3.537   9.355  0.00  0.00     0.074 A 
ATOM     19  C23 ZIN A   1      18.901  -2.184   9.291  0.00  0.00     0.013 A 
ATOM     20  C29 ZIN A   1      19.062   2.120  11.957  0.00  0.00     0.173 A 
ATOM     21  N30 ZIN A   1      18.856   2.225  13.407  0.00  0.00    -0.307 N 
ATOM     22  C31 ZIN A   1      18.869   3.296  14.224  0.00  0.00     0.257 A 
ATOM     23  O32 ZIN A   1      19.087   4.403  13.762  0.00  0.00    -0.267 OA
ENDROOT
BRANCH  19  24
ATOM     24  C24 ZIN A   1      19.187  -1.522   7.968  0.00  0.00     0.276 C 
BRANCH  24  25
ATOM     25  N25 ZIN A   1      17.975  -1.543   7.138  0.00  0.00    -0.075 N 
ATOM     26  H26 ZIN A   1      17.344  -2.252   7.482  0.00  0.00     0.279 HD
ATOM     27  C27 ZIN A   1      17.317  -0.231   7.198  0.00  0.00     0.269 C 
ATOM     28  C28 ZIN A   1      18.339  -1.845   5.747  0.00  0.00     0.269 C 
ENDBRANCH  24  25
ENDBRANCH  19  24
BRANCH  18  29
ATOM     29  O22 ZIN A   1      18.787  -4.280   8.220  0.00  0.00    -0.360 OA
ATOM     30  H45 ZIN A   1      18.017  -4.845   8.070  0.00  0.00     0.217 HD
ENDBRANCH  18  29
BRANCH   1  31
ATOM     31  C2  ZIN A   1      19.393   0.993  18.201  0.00  0.00     0.049 C 
ATOM     32  C1  ZIN A   1      19.025  -0.442  18.583  0.00  0.00     0.009 C 
ENDBRANCH   1  31
BRANCH   1  33
ATOM     33  O4  ZIN A   1      17.017   0.865  17.767  0.00  0.00    -0.375 OA
ATOM     34  H38 ZIN A   1      16.212   1.360  17.970  0.00  0.00     0.211 HD
ENDBRANCH   1  33
TORSDOF 5
ENDMDL
MODEL 8
REMARK VINA RESULT:      -8.6      3.097      4.564
REMARK  5 active torsions:
REMARK  status: ('A' for Active; 'I' for Inactive)
REMARK    1  A    between atoms: C2_2  and  C3_3 
REMARK    2  A    between atoms: C3_3  and  O4_4 
REMARK    3  A    between atoms: C21_21  and  O22_22 
REMARK    4  A    between atoms: C23_23  and  C24_24 
REMARK    5  A    between atoms: C24_24  and  N25_25 
ROOT
ATOM      1  C3  ZIN A   1      17.664  -6.166   6.037  0.00  0.00     0.173 C 
ATOM      2  C5  ZIN A   1      17.742  -6.530   4.572  0.00  0.00     0.298 C 
ATOM      3  O6  ZIN A   1      18.222  -7.575   4.204  0.00  0.00    -0.261 OA
ATOM      4  O7  ZIN A   1      17.247  -5.627   3.695  0.00  0.00    -0.314 OA
ATOM      5  C8  ZIN A   1      17.904  -4.333   3.718  0.00  0.00     0.224 C 
ATOM      6  C9  ZIN A   1      18.110  -3.868   5.135  0.00  0.00     0.044 A 
ATOM      7  C10 ZIN A   1      18.012  -4.708   6.200  0.00  0.00     0.002 A 
ATOM      8  C11 ZIN A   1      18.235  -4.211   7.492  0.00  0.00     0.043 A 
ATOM      9  C12 ZIN A   1      18.543  -2.880   7.680  0.00  0.00     0.068 A 
ATOM     10  C13 ZIN A   1      18.820  -2.127   8.925  0.00  0.00     0.092 A 
ATOM     11  C14 ZIN A   1      19.078  -0.790   8.581  0.00  0.00    -0.008 A 
ATOM     12  C15 ZIN A   1      19.365   0.127   9.543  0.00  0.00     0.025 A 
ATOM     13  C16 ZIN A   1      19.394  -0.304  10.886  0.00  0.00     0.004 A 
ATOM     14  C17 ZIN A   1      19.124  -1.667  11.177  0.00  0.00     0.068 A 
ATOM     15  N18 ZIN A   1      18.849  -2.520  10.190  0.00  0.00    -0.245 NA
ATOM     16  C19 ZIN A   1      19.150  -2.099  12.517  0.00  0.00     0.035 A 
ATOM     17  C20 ZIN A   1      19.434  -1.212  13.507  0.00  0.00     0.039 A 
ATOM     18  C21 ZIN A   1      19.700   0.131  13.219  0.00  0.00     0.074 A 
ATOM     19  C23 ZIN A   1      19.682   0.585  11.930  0.00  0.00     0.013 A 
ATOM     20  C29 ZIN A   1      18.963  -0.695   7.082  0.00  0.00     0.173 A 
ATOM     21  N30 ZIN A   1      18.628  -2.044   6.604  0.00  0.00    -0.307 N 
ATOM     22  C31 ZIN A   1      18.417  -2.509   5.357  0.00  0.00     0.257 A 
ATOM     23  O32 ZIN A   1      18.492  -1.746   4.408  0.00  0.00    -0.267 OA
ENDROOT
BRANCH  19  24
ATOM     24  C24 ZIN A   1      19.970   2.034  11.634  0.00  0.00     0.276 C 
BRANCH  24  25
ATOM     25  N25 ZIN A   1      18.929   2.874  12.243  0.00  0.00    -0.075 N 
ATOM     26  H26 ZIN A   1      18.618   2.452  13.105  0.00  0.00     0.279 HD
ATOM     27  C27 ZIN A   1      19.476   4.209  12.520  0.00  0.00     0.269 C 
ATOM     28  C28 ZIN A   1      17.793   2.993  11.319  0.00  0.00     0.269 C 
ENDBRANCH  24  25
ENDBRANCH  19  24
BRANCH  18  29
ATOM     29  O22 ZIN A   1      19.981   0.992  14.231  0.00  0.00    -0.360 OA
ATOM     30  H45 ZIN A   1      20.800   1.491  14.107  0.00  0.00     0.217 HD
ENDBRANCH  18  29
BRANCH   1  31
ATOM     31  C2  ZIN A   1      16.244  -6.413   6.551  0.00  0.00     0.049 C 
ATOM     32  C1  ZIN A   1      16.258  -7.578   7.543  0.00  0.00     0.009 C 
ENDBRANCH   1  31
BRANCH   1  33
ATOM     33  O4  ZIN A   1      18.588  -6.963   6.780  0.00  0.00    -0.375 OA
ATOM     34  H38 ZIN A   1      18.913  -6.538   7.585  0.00  0.00     0.211 HD
ENDBRANCH   1  33
TORSDOF 5
ENDMDL
MODEL 9
REMARK VINA RESULT:      -8.5      2.877      9.286
REMARK  5 active torsions:
REMARK  status: ('A' for Active; 'I' for Inactive)
REMARK    1  A    between atoms: C2_2  and  C3_3 
REMARK    2  A    between atoms: C3_3  and  O4_4 
REMARK    3  A    between atoms: C21_21  and  O22_22 
REMARK    4  A    between atoms: C23_23  and  C24_24 
REMARK    5  A    between atoms: C24_24  and  N25_25 
ROOT
ATOM      1  C3  ZIN A   1      18.605   3.246  12.194  0.00  0.00     0.173 C 
ATOM      2  C5  ZIN A   1      18.687   3.829  13.586  0.00  0.00     0.298 C 
ATOM      3  O6  ZIN A   1      19.459   4.717  13.855  0.00  0.00    -0.261 OA
ATOM      4  O7  ZIN A   1      17.852   3.308  14.513  0.00  0.00    -0.314 OA
ATOM      5  C8  ZIN A   1      18.037   1.891  14.770  0.00  0.00     0.224 C 
ATOM      6  C9  ZIN A   1      18.184   1.132  13.478  0.00  0.00     0.044 A 
ATOM      7  C10 ZIN A   1      18.456   1.748  12.297  0.00  0.00     0.002 A 
ATOM      8  C11 ZIN A   1      18.598   0.978  11.134  0.00  0.00     0.043 A 
ATOM      9  C12 ZIN A   1      18.457  -0.393  11.189  0.00  0.00     0.068 A 
ATOM     10  C13 ZIN A   1      18.560  -1.410  10.117  0.00  0.00     0.092 A 
ATOM     11  C14 ZIN A   1      18.328  -2.673  10.688  0.00  0.00    -0.008 A 
ATOM     12  C15 ZIN A   1      18.364  -3.794   9.919  0.00  0.00     0.025 A 
ATOM     13  C16 ZIN A   1      18.640  -3.649   8.544  0.00  0.00     0.004 A 
ATOM     14  C17 ZIN A   1      18.865  -2.349   8.020  0.00  0.00     0.068 A 
ATOM     15  N18 ZIN A   1      18.817  -1.287   8.824  0.00  0.00    -0.245 NA
ATOM     16  C19 ZIN A   1      19.139  -2.202   6.646  0.00  0.00     0.035 A 
ATOM     17  C20 ZIN A   1      19.185  -3.300   5.845  0.00  0.00     0.039 A 
ATOM     18  C21 ZIN A   1      18.962  -4.581   6.363  0.00  0.00     0.074 A 
ATOM     19  C23 ZIN A   1      18.693  -4.760   7.691  0.00  0.00     0.013 A 
ATOM     20  C29 ZIN A   1      18.072  -2.448  12.155  0.00  0.00     0.173 A 
ATOM     21  N30 ZIN A   1      18.172  -1.000  12.379  0.00  0.00    -0.307 N 
ATOM     22  C31 ZIN A   1      18.034  -0.270  13.503  0.00  0.00     0.257 A 
ATOM     23  O32 ZIN A   1      17.776  -0.829  14.556  0.00  0.00    -0.267 OA
ENDROOT
BRANCH  19  24
ATOM     24  C24 ZIN A   1      18.455  -6.145   8.234  0.00  0.00     0.276 C 
BRANCH  24  25
ATOM     25  N25 ZIN A   1      17.236  -6.704   7.633  0.00  0.00    -0.075 N 
ATOM     26  H26 ZIN A   1      17.090  -6.290   6.724  0.00  0.00     0.279 HD
ATOM     27  C27 ZIN A   1      17.381  -8.159   7.492  0.00  0.00     0.269 C 
ATOM     28  C28 ZIN A   1      16.085  -6.408   8.496  0.00  0.00     0.269 C 
ENDBRANCH  24  25
ENDBRANCH  19  24
BRANCH  18  29
ATOM     29  O22 ZIN A   1      19.015  -5.657   5.536  0.00  0.00    -0.360 OA
ATOM     30  H45 ZIN A   1      19.913  -5.917   5.286  0.00  0.00     0.217 HD
ENDBRANCH  18  29
BRANCH   1  31
ATOM     31  C2  ZIN A   1      17.395   3.831  11.463  0.00  0.00     0.049 C 
ATOM     32  C1  ZIN A   1      17.857   4.505  10.170  0.00  0.00     0.009 C 
ENDBRANCH   1  31
BRANCH   1  33
ATOM     33  O4  ZIN A   1      19.797   3.558  11.471  0.00  0.00    -0.375 OA
ATOM     34  H38 ZIN A   1      20.301   4.294  11.845  0.00  0.00     0.211 HD
ENDBRANCH   1  33
TORSDOF 5
ENDMDL
