MODEL 1
REMARK VINA RESULT:      -7.3      0.000      0.000
REMARK  12 active torsions:
REMARK  status: ('A' for Active; 'I' for Inactive)
REMARK    1  A    between atoms: N2_2  and  C3_3 
REMARK    2  A    between atoms: C6_6  and  C7_7 
REMARK    3  A    between atoms: C8_8  and  C9_9 
REMARK    4  A    between atoms: C12_12  and  O13_13 
REMARK    5  A    between atoms: O13_13  and  C14_14 
REMARK    6  A    between atoms: C14_14  and  C15_15 
REMARK    7  A    between atoms: C15_15  and  O16_16 
REMARK    8  A    between atoms: O16_16  and  C17_17 
REMARK    9  A    between atoms: C17_17  and  C18_18 
REMARK   10  A    between atoms: C18_18  and  O19_19 
REMARK   11  A    between atoms: O19_19  and  C20_20 
REMARK   12  A    between atoms: C20_20  and  C21_21 
ROOT
ATOM      1  C9  ZIN A   1      18.676   3.268  10.291  0.00  0.00    -0.036 A 
ATOM      2  C10 ZIN A   1      19.678   3.249  11.264  0.00  0.00     0.014 A 
ATOM      3  C11 ZIN A   1      19.529   3.988  12.419  0.00  0.00     0.037 A 
ATOM      4  C12 ZIN A   1      18.385   4.751  12.614  0.00  0.00     0.068 A 
ATOM      5  C23 ZIN A   1      17.385   4.772  11.650  0.00  0.00     0.037 A 
ATOM      6  C24 ZIN A   1      17.528   4.042  10.491  0.00  0.00     0.014 A 
ENDROOT
BRANCH   1   7
ATOM      7  C8  ZIN A   1      18.830   2.480   9.055  0.00  0.00     0.012 C 
ATOM      8  C7  ZIN A   1      18.631   1.152   9.078  0.00  0.00     0.012 C 
BRANCH   8   9
ATOM      9  C6  ZIN A   1      18.786   0.363   7.843  0.00  0.00    -0.036 A 
ATOM     10  C5  ZIN A   1      18.654   0.981   6.597  0.00  0.00     0.013 A 
ATOM     11  C4  ZIN A   1      18.799   0.240   5.444  0.00  0.00     0.030 A 
ATOM     12  C3  ZIN A   1      19.078  -1.120   5.520  0.00  0.00     0.027 A 
ATOM     13  C26 ZIN A   1      19.206  -1.739   6.759  0.00  0.00     0.030 A 
ATOM     14  C25 ZIN A   1      19.066  -1.005   7.916  0.00  0.00     0.013 A 
BRANCH  12  15
ATOM     15  N2  ZIN A   1      19.225  -1.867   4.351  0.00  0.00    -0.394 N 
ATOM     16  C1  ZIN A   1      18.547  -3.159   4.217  0.00  0.00     0.146 C 
ATOM     17  H30 ZIN A   1      19.776  -1.530   3.626  0.00  0.00     0.159 HD
ENDBRANCH  12  15
ENDBRANCH   8   9
ENDBRANCH   1   7
BRANCH   4  18
ATOM     18  O13 ZIN A   1      18.243   5.478  13.754  0.00  0.00    -0.349 OA
BRANCH  18  19
ATOM     19  C14 ZIN A   1      17.214   5.070  14.658  0.00  0.00     0.201 C 
BRANCH  19  20
ATOM     20  C15 ZIN A   1      17.816   4.840  16.046  0.00  0.00     0.194 C 
BRANCH  20  21
ATOM     21  O16 ZIN A   1      18.460   3.565  16.079  0.00  0.00    -0.387 OA
BRANCH  21  22
ATOM     22  C17 ZIN A   1      19.562   3.494  16.987  0.00  0.00     0.193 C 
BRANCH  22  23
ATOM     23  C18 ZIN A   1      19.131   2.751  18.253  0.00  0.00     0.193 C 
BRANCH  23  24
ATOM     24  O19 ZIN A   1      19.743   1.460  18.280  0.00  0.00    -0.387 OA
BRANCH  24  25
ATOM     25  C20 ZIN A   1      18.820   0.383  18.454  0.00  0.00     0.199 C 
BRANCH  25  26
ATOM     26  C21 ZIN A   1      18.371  -0.130  17.084  0.00  0.00     0.248 C 
ATOM     27  F22 ZIN A   1      16.981  -0.009  16.974  0.00  0.00    -0.253 F 
ENDBRANCH  25  26
ENDBRANCH  24  25
ENDBRANCH  23  24
ENDBRANCH  22  23
ENDBRANCH  21  22
ENDBRANCH  20  21
ENDBRANCH  19  20
ENDBRANCH  18  19
ENDBRANCH   4  18
TORSDOF 12
ENDMDL
MODEL 2
REMARK VINA RESULT:      -7.0      1.493      1.853
REMARK  12 active torsions:
REMARK  status: ('A' for Active; 'I' for Inactive)
REMARK    1  A    between atoms: N2_2  and  C3_3 
REMARK    2  A    between atoms: C6_6  and  C7_7 
REMARK    3  A    between atoms: C8_8  and  C9_9 
REMARK    4  A    between atoms: C12_12  and  O13_13 
REMARK    5  A    between atoms: O13_13  and  C14_14 
REMARK    6  A    between atoms: C14_14  and  C15_15 
REMARK    7  A    between atoms: C15_15  and  O16_16 
REMARK    8  A    between atoms: O16_16  and  C17_17 
REMARK    9  A    between atoms: C17_17  and  C18_18 
REMARK   10  A    between atoms: C18_18  and  O19_19 
REMARK   11  A    between atoms: O19_19  and  C20_20 
REMARK   12  A    between atoms: C20_20  and  C21_21 
ROOT
ATOM      1  C9  ZIN A   1      18.657   3.232  10.376  0.00  0.00    -0.036 A 
ATOM      2  C10 ZIN A   1      17.457   3.858  10.724  0.00  0.00     0.014 A 
ATOM      3  C11 ZIN A   1      17.368   4.568  11.903  0.00  0.00     0.037 A 
ATOM      4  C12 ZIN A   1      18.470   4.661  12.745  0.00  0.00     0.068 A 
ATOM      5  C23 ZIN A   1      19.665   4.041  12.402  0.00  0.00     0.037 A 
ATOM      6  C24 ZIN A   1      19.761   3.325  11.229  0.00  0.00     0.014 A 
ENDROOT
BRANCH   1   7
ATOM      7  C8  ZIN A   1      18.757   2.473   9.117  0.00  0.00     0.012 C 
ATOM      8  C7  ZIN A   1      18.808   1.132   9.145  0.00  0.00     0.012 C 
BRANCH   8   9
ATOM      9  C6  ZIN A   1      18.909   0.373   7.886  0.00  0.00    -0.036 A 
ATOM     10  C5  ZIN A   1      18.870   1.042   6.660  0.00  0.00     0.013 A 
ATOM     11  C4  ZIN A   1      18.964   0.329   5.485  0.00  0.00     0.030 A 
ATOM     12  C3  ZIN A   1      19.100  -1.055   5.518  0.00  0.00     0.027 A 
ATOM     13  C26 ZIN A   1      19.134  -1.725   6.737  0.00  0.00     0.030 A 
ATOM     14  C25 ZIN A   1      19.045  -1.019   7.916  0.00  0.00     0.013 A 
BRANCH  12  15
ATOM     15  N2  ZIN A   1      19.195  -1.774   4.326  0.00  0.00    -0.394 N 
ATOM     16  C1  ZIN A   1      18.684  -3.145   4.255  0.00  0.00     0.146 C 
ATOM     17  H30 ZIN A   1      19.600  -1.365   3.544  0.00  0.00     0.159 HD
ENDBRANCH  12  15
ENDBRANCH   8   9
ENDBRANCH   1   7
BRANCH   4  18
ATOM     18  O13 ZIN A   1      18.377   5.361  13.905  0.00  0.00    -0.349 OA
BRANCH  18  19
ATOM     19  C14 ZIN A   1      19.432   5.186  14.854  0.00  0.00     0.201 C 
BRANCH  19  20
ATOM     20  C15 ZIN A   1      18.865   5.289  16.271  0.00  0.00     0.194 C 
BRANCH  20  21
ATOM     21  O16 ZIN A   1      18.501   3.986  16.734  0.00  0.00    -0.387 OA
BRANCH  21  22
ATOM     22  C17 ZIN A   1      19.437   2.963  16.384  0.00  0.00     0.193 C 
BRANCH  22  23
ATOM     23  C18 ZIN A   1      18.941   1.617  16.915  0.00  0.00     0.193 C 
BRANCH  23  24
ATOM     24  O19 ZIN A   1      18.691   0.735  15.819  0.00  0.00    -0.387 OA
BRANCH  24  25
ATOM     25  C20 ZIN A   1      19.266   1.166  14.583  0.00  0.00     0.199 C 
BRANCH  25  26
ATOM     26  C21 ZIN A   1      18.508   0.525  13.418  0.00  0.00     0.248 C 
ATOM     27  F22 ZIN A   1      17.461   1.366  13.024  0.00  0.00    -0.253 F 
ENDBRANCH  25  26
ENDBRANCH  24  25
ENDBRANCH  23  24
ENDBRANCH  22  23
ENDBRANCH  21  22
ENDBRANCH  20  21
ENDBRANCH  19  20
ENDBRANCH  18  19
ENDBRANCH   4  18
TORSDOF 12
ENDMDL
MODEL 3
REMARK VINA RESULT:      -6.9      5.211      9.223
REMARK  12 active torsions:
REMARK  status: ('A' for Active; 'I' for Inactive)
REMARK    1  A    between atoms: N2_2  and  C3_3 
REMARK    2  A    between atoms: C6_6  and  C7_7 
REMARK    3  A    between atoms: C8_8  and  C9_9 
REMARK    4  A    between atoms: C12_12  and  O13_13 
REMARK    5  A    between atoms: O13_13  and  C14_14 
REMARK    6  A    between atoms: C14_14  and  C15_15 
REMARK    7  A    between atoms: C15_15  and  O16_16 
REMARK    8  A    between atoms: O16_16  and  C17_17 
REMARK    9  A    between atoms: C17_17  and  C18_18 
REMARK   10  A    between atoms: C18_18  and  O19_19 
REMARK   11  A    between atoms: O19_19  and  C20_20 
REMARK   12  A    between atoms: C20_20  and  C21_21 
ROOT
ATOM      1  C9  ZIN A   1      18.347   1.434   8.870  0.00  0.00    -0.036 A 
ATOM      2  C10 ZIN A   1      17.461   0.358   8.772  0.00  0.00     0.014 A 
ATOM      3  C11 ZIN A   1      17.330  -0.319   7.578  0.00  0.00     0.037 A 
ATOM      4  C12 ZIN A   1      18.078   0.068   6.473  0.00  0.00     0.068 A 
ATOM      5  C23 ZIN A   1      18.961   1.136   6.566  0.00  0.00     0.037 A 
ATOM      6  C24 ZIN A   1      19.093   1.822   7.753  0.00  0.00     0.014 A 
ENDROOT
BRANCH   1   7
ATOM      7  C8  ZIN A   1      18.491   2.161  10.144  0.00  0.00     0.012 C 
ATOM      8  C7  ZIN A   1      18.032   3.418  10.255  0.00  0.00     0.012 C 
BRANCH   8   9
ATOM      9  C6  ZIN A   1      18.176   4.145  11.528  0.00  0.00    -0.036 A 
ATOM     10  C5  ZIN A   1      19.437   4.287  12.114  0.00  0.00     0.013 A 
ATOM     11  C4  ZIN A   1      19.568   4.967  13.306  0.00  0.00     0.030 A 
ATOM     12  C3  ZIN A   1      18.448   5.512  13.923  0.00  0.00     0.027 A 
ATOM     13  C26 ZIN A   1      17.191   5.369  13.345  0.00  0.00     0.030 A 
ATOM     14  C25 ZIN A   1      17.053   4.694  12.153  0.00  0.00     0.013 A 
BRANCH  12  15
ATOM     15  N2  ZIN A   1      18.585   6.200  15.130  0.00  0.00    -0.394 N 
ATOM     16  C1  ZIN A   1      18.050   7.557  15.264  0.00  0.00     0.146 C 
ATOM     17  H30 ZIN A   1      19.034   5.779  15.880  0.00  0.00     0.159 HD
ENDBRANCH  12  15
ENDBRANCH   8   9
ENDBRANCH   1   7
BRANCH   4  18
ATOM     18  O13 ZIN A   1      17.946  -0.603   5.298  0.00  0.00    -0.349 OA
BRANCH  18  19
ATOM     19  C14 ZIN A   1      19.133  -1.165   4.736  0.00  0.00     0.201 C 
BRANCH  19  20
ATOM     20  C15 ZIN A   1      19.004  -2.689   4.694  0.00  0.00     0.194 C 
BRANCH  20  21
ATOM     21  O16 ZIN A   1      19.789  -3.262   5.743  0.00  0.00    -0.387 OA
BRANCH  21  22
ATOM     22  C17 ZIN A   1      19.022  -3.963   6.725  0.00  0.00     0.193 C 
BRANCH  22  23
ATOM     23  C18 ZIN A   1      19.134  -3.241   8.069  0.00  0.00     0.193 C 
BRANCH  23  24
ATOM     24  O19 ZIN A   1      18.216  -3.820   8.999  0.00  0.00    -0.387 OA
BRANCH  24  25
ATOM     25  C20 ZIN A   1      18.612  -3.685  10.367  0.00  0.00     0.199 C 
BRANCH  25  26
ATOM     26  C21 ZIN A   1      17.392  -3.321  11.216  0.00  0.00     0.248 C 
ATOM     27  F22 ZIN A   1      17.168  -1.942  11.143  0.00  0.00    -0.253 F 
ENDBRANCH  25  26
ENDBRANCH  24  25
ENDBRANCH  23  24
ENDBRANCH  22  23
ENDBRANCH  21  22
ENDBRANCH  20  21
ENDBRANCH  19  20
ENDBRANCH  18  19
ENDBRANCH   4  18
TORSDOF 12
ENDMDL
MODEL 4
REMARK VINA RESULT:      -6.9      6.006     10.956
REMARK  12 active torsions:
REMARK  status: ('A' for Active; 'I' for Inactive)
REMARK    1  A    between atoms: N2_2  and  C3_3 
REMARK    2  A    between atoms: C6_6  and  C7_7 
REMARK    3  A    between atoms: C8_8  and  C9_9 
REMARK    4  A    between atoms: C12_12  and  O13_13 
REMARK    5  A    between atoms: O13_13  and  C14_14 
REMARK    6  A    between atoms: C14_14  and  C15_15 
REMARK    7  A    between atoms: C15_15  and  O16_16 
REMARK    8  A    between atoms: O16_16  and  C17_17 
REMARK    9  A    between atoms: C17_17  and  C18_18 
REMARK   10  A    between atoms: C18_18  and  O19_19 
REMARK   11  A    between atoms: O19_19  and  C20_20 
REMARK   12  A    between atoms: C20_20  and  C21_21 
ROOT
ATOM      1  C9  ZIN A   1      18.483  -2.900  11.887  0.00  0.00    -0.036 A 
ATOM      2  C10 ZIN A   1      19.767  -3.425  11.712  0.00  0.00     0.014 A 
ATOM      3  C11 ZIN A   1      19.978  -4.429  10.790  0.00  0.00     0.037 A 
ATOM      4  C12 ZIN A   1      18.918  -4.917  10.037  0.00  0.00     0.068 A 
ATOM      5  C23 ZIN A   1      17.641  -4.398  10.207  0.00  0.00     0.037 A 
ATOM      6  C24 ZIN A   1      17.419  -3.399  11.130  0.00  0.00     0.014 A 
ENDROOT
BRANCH   1   7
ATOM      7  C8  ZIN A   1      18.252  -1.826  12.870  0.00  0.00     0.012 C 
ATOM      8  C7  ZIN A   1      18.875  -1.861  14.059  0.00  0.00     0.012 C 
BRANCH   8   9
ATOM      9  C6  ZIN A   1      18.643  -0.788  15.043  0.00  0.00    -0.036 A 
ATOM     10  C5  ZIN A   1      17.901  -1.046  16.198  0.00  0.00     0.013 A 
ATOM     11  C4  ZIN A   1      17.685  -0.040  17.115  0.00  0.00     0.030 A 
ATOM     12  C3  ZIN A   1      18.208   1.229  16.893  0.00  0.00     0.027 A 
ATOM     13  C26 ZIN A   1      18.943   1.491  15.741  0.00  0.00     0.030 A 
ATOM     14  C25 ZIN A   1      19.166   0.490  14.822  0.00  0.00     0.013 A 
BRANCH  12  15
ATOM     15  N2  ZIN A   1      17.988   2.245  17.824  0.00  0.00    -0.394 N 
ATOM     16  C1  ZIN A   1      18.766   3.484  17.754  0.00  0.00     0.146 C 
ATOM     17  H30 ZIN A   1      17.319   2.130  18.518  0.00  0.00     0.159 HD
ENDBRANCH  12  15
ENDBRANCH   8   9
ENDBRANCH   1   7
BRANCH   4  18
ATOM     18  O13 ZIN A   1      19.132  -5.907   9.130  0.00  0.00    -0.349 OA
BRANCH  18  19
ATOM     19  C14 ZIN A   1      19.797  -5.542   7.919  0.00  0.00     0.201 C 
BRANCH  19  20
ATOM     20  C15 ZIN A   1      18.818  -5.649   6.748  0.00  0.00     0.194 C 
BRANCH  20  21
ATOM     21  O16 ZIN A   1      18.369  -4.342   6.384  0.00  0.00    -0.387 OA
BRANCH  21  22
ATOM     22  C17 ZIN A   1      19.419  -3.456   5.989  0.00  0.00     0.193 C 
BRANCH  22  23
ATOM     23  C18 ZIN A   1      18.903  -2.504   4.909  0.00  0.00     0.193 C 
BRANCH  23  24
ATOM     24  O19 ZIN A   1      19.831  -1.430   4.736  0.00  0.00    -0.387 OA
BRANCH  24  25
ATOM     25  C20 ZIN A   1      19.221  -0.140   4.663  0.00  0.00     0.199 C 
BRANCH  25  26
ATOM     26  C21 ZIN A   1      18.424   0.119   5.944  0.00  0.00     0.248 C 
ATOM     27  F22 ZIN A   1      19.212   0.845   6.844  0.00  0.00    -0.253 F 
ENDBRANCH  25  26
ENDBRANCH  24  25
ENDBRANCH  23  24
ENDBRANCH  22  23
ENDBRANCH  21  22
ENDBRANCH  20  21
ENDBRANCH  19  20
ENDBRANCH  18  19
ENDBRANCH   4  18
TORSDOF 12
ENDMDL
MODEL 5
REMARK VINA RESULT:      -6.9      2.258      4.487
REMARK  12 active torsions:
REMARK  status: ('A' for Active; 'I' for Inactive)
REMARK    1  A    between atoms: N2_2  and  C3_3 
REMARK    2  A    between atoms: C6_6  and  C7_7 
REMARK    3  A    between atoms: C8_8  and  C9_9 
REMARK    4  A    between atoms: C12_12  and  O13_13 
REMARK    5  A    between atoms: O13_13  and  C14_14 
REMARK    6  A    between atoms: C14_14  and  C15_15 
REMARK    7  A    between atoms: C15_15  and  O16_16 
REMARK    8  A    between atoms: O16_16  and  C17_17 
REMARK    9  A    between atoms: C17_17  and  C18_18 
REMARK   10  A    between atoms: C18_18  and  O19_19 
REMARK   11  A    between atoms: O19_19  and  C20_20 
REMARK   12  A    between atoms: C20_20  and  C21_21 
ROOT
ATOM      1  C9  ZIN A   1      18.509  -0.554  13.232  0.00  0.00    -0.036 A 
ATOM      2  C10 ZIN A   1      17.576   0.285  13.848  0.00  0.00     0.014 A 
ATOM      3  C11 ZIN A   1      17.459   0.291  15.222  0.00  0.00     0.037 A 
ATOM      4  C12 ZIN A   1      18.267  -0.536  15.993  0.00  0.00     0.068 A 
ATOM      5  C23 ZIN A   1      19.196  -1.370  15.385  0.00  0.00     0.037 A 
ATOM      6  C24 ZIN A   1      19.316  -1.387  14.012  0.00  0.00     0.014 A 
ENDROOT
BRANCH   1   7
ATOM      7  C8  ZIN A   1      18.637  -0.563  11.764  0.00  0.00     0.012 C 
ATOM      8  C7  ZIN A   1      18.541   0.586  11.075  0.00  0.00     0.012 C 
BRANCH   8   9
ATOM      9  C6  ZIN A   1      18.669   0.576   9.607  0.00  0.00    -0.036 A 
ATOM     10  C5  ZIN A   1      18.986   1.753   8.924  0.00  0.00     0.013 A 
ATOM     11  C4  ZIN A   1      19.104   1.741   7.551  0.00  0.00     0.030 A 
ATOM     12  C3  ZIN A   1      18.911   0.558   6.846  0.00  0.00     0.027 A 
ATOM     13  C26 ZIN A   1      18.590  -0.615   7.522  0.00  0.00     0.030 A 
ATOM     14  C25 ZIN A   1      18.475  -0.611   8.894  0.00  0.00     0.013 A 
BRANCH  12  15
ATOM     15  N2  ZIN A   1      19.031   0.549   5.456  0.00  0.00    -0.394 N 
ATOM     16  C1  ZIN A   1      19.138  -0.724   4.738  0.00  0.00     0.146 C 
ATOM     17  H30 ZIN A   1      19.045   1.386   4.964  0.00  0.00     0.159 HD
ENDBRANCH  12  15
ENDBRANCH   8   9
ENDBRANCH   1   7
BRANCH   4  18
ATOM     18  O13 ZIN A   1      18.148  -0.526  17.347  0.00  0.00    -0.349 OA
BRANCH  18  19
ATOM     19  C14 ZIN A   1      19.241   0.019  18.089  0.00  0.00     0.201 C 
BRANCH  19  20
ATOM     20  C15 ZIN A   1      18.884   1.432  18.557  0.00  0.00     0.194 C 
BRANCH  20  21
ATOM     21  O16 ZIN A   1      19.803   2.367  17.988  0.00  0.00    -0.387 OA
BRANCH  21  22
ATOM     22  C17 ZIN A   1      19.178   3.506  17.390  0.00  0.00     0.193 C 
BRANCH  22  23
ATOM     23  C18 ZIN A   1      19.185   3.349  15.868  0.00  0.00     0.193 C 
BRANCH  23  24
ATOM     24  O19 ZIN A   1      18.462   4.430  15.274  0.00  0.00    -0.387 OA
BRANCH  24  25
ATOM     25  C20 ZIN A   1      19.022   4.899  14.046  0.00  0.00     0.199 C 
BRANCH  25  26
ATOM     26  C21 ZIN A   1      18.610   3.963  12.908  0.00  0.00     0.248 C 
ATOM     27  F22 ZIN A   1      19.745   3.327  12.393  0.00  0.00    -0.253 F 
ENDBRANCH  25  26
ENDBRANCH  24  25
ENDBRANCH  23  24
ENDBRANCH  22  23
ENDBRANCH  21  22
ENDBRANCH  20  21
ENDBRANCH  19  20
ENDBRANCH  18  19
ENDBRANCH   4  18
TORSDOF 12
ENDMDL
MODEL 6
REMARK VINA RESULT:      -6.8      5.247      9.886
REMARK  12 active torsions:
REMARK  status: ('A' for Active; 'I' for Inactive)
REMARK    1  A    between atoms: N2_2  and  C3_3 
REMARK    2  A    between atoms: C6_6  and  C7_7 
REMARK    3  A    between atoms: C8_8  and  C9_9 
REMARK    4  A    between atoms: C12_12  and  O13_13 
REMARK    5  A    between atoms: O13_13  and  C14_14 
REMARK    6  A    between atoms: C14_14  and  C15_15 
REMARK    7  A    between atoms: C15_15  and  O16_16 
REMARK    8  A    between atoms: O16_16  and  C17_17 
REMARK    9  A    between atoms: C17_17  and  C18_18 
REMARK   10  A    between atoms: C18_18  and  O19_19 
REMARK   11  A    between atoms: O19_19  and  C20_20 
REMARK   12  A    between atoms: C20_20  and  C21_21 
ROOT
ATOM      1  C9  ZIN A   1      19.060  -2.811  12.296  0.00  0.00    -0.036 A 
ATOM      2  C10 ZIN A   1      20.104  -3.550  11.734  0.00  0.00     0.014 A 
ATOM      3  C11 ZIN A   1      19.883  -4.299  10.598  0.00  0.00     0.037 A 
ATOM      4  C12 ZIN A   1      18.624  -4.319  10.012  0.00  0.00     0.068 A 
ATOM      5  C23 ZIN A   1      17.583  -3.586  10.566  0.00  0.00     0.037 A 
ATOM      6  C24 ZIN A   1      17.793  -2.839  11.705  0.00  0.00     0.014 A 
ENDROOT
BRANCH   1   7
ATOM      7  C8  ZIN A   1      19.292  -2.009  13.510  0.00  0.00     0.012 C 
ATOM      8  C7  ZIN A   1      18.296  -1.270  14.026  0.00  0.00     0.012 C 
BRANCH   8   9
ATOM      9  C6  ZIN A   1      18.528  -0.467  15.239  0.00  0.00    -0.036 A 
ATOM     10  C5  ZIN A   1      18.476  -1.070  16.499  0.00  0.00     0.013 A 
ATOM     11  C4  ZIN A   1      18.693  -0.316  17.632  0.00  0.00     0.030 A 
ATOM     12  C3  ZIN A   1      18.965   1.043  17.522  0.00  0.00     0.027 A 
ATOM     13  C26 ZIN A   1      19.012   1.648  16.270  0.00  0.00     0.030 A 
ATOM     14  C25 ZIN A   1      18.801   0.900  15.133  0.00  0.00     0.013 A 
BRANCH  12  15
ATOM     15  N2  ZIN A   1      19.184   1.804  18.671  0.00  0.00    -0.394 N 
ATOM     16  C1  ZIN A   1      18.763   3.206  18.712  0.00  0.00     0.146 C 
ATOM     17  H30 ZIN A   1      19.616   1.403  19.443  0.00  0.00     0.159 HD
ENDBRANCH  12  15
ENDBRANCH   8   9
ENDBRANCH   1   7
BRANCH   4  18
ATOM     18  O13 ZIN A   1      18.411  -5.059   8.891  0.00  0.00    -0.349 OA
BRANCH  18  19
ATOM     19  C14 ZIN A   1      17.947  -4.362   7.733  0.00  0.00     0.201 C 
BRANCH  19  20
ATOM     20  C15 ZIN A   1      19.080  -3.499   7.172  0.00  0.00     0.194 C 
BRANCH  20  21
ATOM     21  O16 ZIN A   1      18.670  -2.129   7.154  0.00  0.00    -0.387 OA
BRANCH  21  22
ATOM     22  C17 ZIN A   1      19.326  -1.314   8.128  0.00  0.00     0.193 C 
BRANCH  22  23
ATOM     23  C18 ZIN A   1      19.017   0.158   7.851  0.00  0.00     0.193 C 
BRANCH  23  24
ATOM     24  O19 ZIN A   1      17.669   0.442   8.232  0.00  0.00    -0.387 OA
BRANCH  24  25
ATOM     25  C20 ZIN A   1      17.347   0.049   9.568  0.00  0.00     0.199 C 
BRANCH  25  26
ATOM     26  C21 ZIN A   1      17.860   1.107  10.548  0.00  0.00     0.248 C 
ATOM     27  F22 ZIN A   1      18.919   0.577  11.293  0.00  0.00    -0.253 F 
ENDBRANCH  25  26
ENDBRANCH  24  25
ENDBRANCH  23  24
ENDBRANCH  22  23
ENDBRANCH  21  22
ENDBRANCH  20  21
ENDBRANCH  19  20
ENDBRANCH  18  19
ENDBRANCH   4  18
TORSDOF 12
ENDMDL
MODEL 7
REMARK VINA RESULT:      -6.8      5.209      9.351
REMARK  12 active torsions:
REMARK  status: ('A' for Active; 'I' for Inactive)
REMARK    1  A    between atoms: N2_2  and  C3_3 
REMARK    2  A    between atoms: C6_6  and  C7_7 
REMARK    3  A    between atoms: C8_8  and  C9_9 
REMARK    4  A    between atoms: C12_12  and  O13_13 
REMARK    5  A    between atoms: O13_13  and  C14_14 
REMARK    6  A    between atoms: C14_14  and  C15_15 
REMARK    7  A    between atoms: C15_15  and  O16_16 
REMARK    8  A    between atoms: O16_16  and  C17_17 
REMARK    9  A    between atoms: C17_17  and  C18_18 
REMARK   10  A    between atoms: C18_18  and  O19_19 
REMARK   11  A    between atoms: O19_19  and  C20_20 
REMARK   12  A    between atoms: C20_20  and  C21_21 
ROOT
ATOM      1  C9  ZIN A   1      18.298   0.760  10.016  0.00  0.00    -0.036 A 
ATOM      2  C10 ZIN A   1      17.395  -0.060   9.334  0.00  0.00     0.014 A 
ATOM      3  C11 ZIN A   1      17.380  -0.068   7.955  0.00  0.00     0.037 A 
ATOM      4  C12 ZIN A   1      18.261   0.737   7.244  0.00  0.00     0.068 A 
ATOM      5  C23 ZIN A   1      19.161   1.553   7.918  0.00  0.00     0.037 A 
ATOM      6  C24 ZIN A   1      19.179   1.573   9.295  0.00  0.00     0.014 A 
ENDROOT
BRANCH   1   7
ATOM      7  C8  ZIN A   1      18.318   0.772  11.489  0.00  0.00     0.012 C 
ATOM      8  C7  ZIN A   1      18.282  -0.385  12.170  0.00  0.00     0.012 C 
BRANCH   8   9
ATOM      9  C6  ZIN A   1      18.301  -0.372  13.643  0.00  0.00    -0.036 A 
ATOM     10  C5  ZIN A   1      18.979  -1.374  14.343  0.00  0.00     0.013 A 
ATOM     11  C4  ZIN A   1      18.995  -1.360  15.721  0.00  0.00     0.030 A 
ATOM     12  C3  ZIN A   1      18.338  -0.349  16.414  0.00  0.00     0.027 A 
ATOM     13  C26 ZIN A   1      17.658   0.647  15.721  0.00  0.00     0.030 A 
ATOM     14  C25 ZIN A   1      17.642   0.642  14.344  0.00  0.00     0.013 A 
BRANCH  12  15
ATOM     15  N2  ZIN A   1      18.356  -0.338  17.810  0.00  0.00    -0.394 N 
ATOM     16  C1  ZIN A   1      18.005   0.885  18.537  0.00  0.00     0.146 C 
ATOM     17  H30 ZIN A   1      18.601  -1.140  18.299  0.00  0.00     0.159 HD
ENDBRANCH  12  15
ENDBRANCH   8   9
ENDBRANCH   1   7
BRANCH   4  18
ATOM     18  O13 ZIN A   1      18.242   0.725   5.885  0.00  0.00    -0.349 OA
BRANCH  18  19
ATOM     19  C14 ZIN A   1      17.958  -0.524   5.253  0.00  0.00     0.201 C 
BRANCH  19  20
ATOM     20  C15 ZIN A   1      19.269  -1.190   4.828  0.00  0.00     0.194 C 
BRANCH  20  21
ATOM     21  O16 ZIN A   1      19.609  -2.212   5.768  0.00  0.00    -0.387 OA
BRANCH  21  22
ATOM     22  C17 ZIN A   1      19.139  -3.513   5.405  0.00  0.00     0.193 C 
BRANCH  22  23
ATOM     23  C18 ZIN A   1      18.423  -4.146   6.599  0.00  0.00     0.193 C 
BRANCH  23  24
ATOM     24  O19 ZIN A   1      18.575  -3.307   7.746  0.00  0.00    -0.387 OA
BRANCH  24  25
ATOM     25  C20 ZIN A   1      19.051  -3.991   8.908  0.00  0.00     0.199 C 
BRANCH  25  26
ATOM     26  C21 ZIN A   1      18.311  -3.473  10.143  0.00  0.00     0.248 C 
ATOM     27  F22 ZIN A   1      18.925  -3.972  11.297  0.00  0.00    -0.253 F 
ENDBRANCH  25  26
ENDBRANCH  24  25
ENDBRANCH  23  24
ENDBRANCH  22  23
ENDBRANCH  21  22
ENDBRANCH  20  21
ENDBRANCH  19  20
ENDBRANCH  18  19
ENDBRANCH   4  18
TORSDOF 12
ENDMDL
MODEL 8
REMARK VINA RESULT:      -6.7      5.540      9.600
REMARK  12 active torsions:
REMARK  status: ('A' for Active; 'I' for Inactive)
REMARK    1  A    between atoms: N2_2  and  C3_3 
REMARK    2  A    between atoms: C6_6  and  C7_7 
REMARK    3  A    between atoms: C8_8  and  C9_9 
REMARK    4  A    between atoms: C12_12  and  O13_13 
REMARK    5  A    between atoms: O13_13  and  C14_14 
REMARK    6  A    between atoms: C14_14  and  C15_15 
REMARK    7  A    between atoms: C15_15  and  O16_16 
REMARK    8  A    between atoms: O16_16  and  C17_17 
REMARK    9  A    between atoms: C17_17  and  C18_18 
REMARK   10  A    between atoms: C18_18  and  O19_19 
REMARK   11  A    between atoms: O19_19  and  C20_20 
REMARK   12  A    between atoms: C20_20  and  C21_21 
ROOT
ATOM      1  C9  ZIN A   1      18.971   0.938   7.957  0.00  0.00    -0.036 A 
ATOM      2  C10 ZIN A   1      18.900   1.272   6.602  0.00  0.00     0.014 A 
ATOM      3  C11 ZIN A   1      19.049   0.292   5.644  0.00  0.00     0.037 A 
ATOM      4  C12 ZIN A   1      19.271  -1.026   6.024  0.00  0.00     0.068 A 
ATOM      5  C23 ZIN A   1      19.341  -1.362   7.370  0.00  0.00     0.037 A 
ATOM      6  C24 ZIN A   1      19.199  -0.389   8.334  0.00  0.00     0.014 A 
ENDROOT
BRANCH   1   7
ATOM      7  C8  ZIN A   1      18.811   1.982   8.985  0.00  0.00     0.012 C 
ATOM      8  C7  ZIN A   1      17.920   1.816   9.976  0.00  0.00     0.012 C 
BRANCH   8   9
ATOM      9  C6  ZIN A   1      17.760   2.860  11.004  0.00  0.00    -0.036 A 
ATOM     10  C5  ZIN A   1      17.289   4.127  10.648  0.00  0.00     0.013 A 
ATOM     11  C4  ZIN A   1      17.141   5.101  11.611  0.00  0.00     0.030 A 
ATOM     12  C3  ZIN A   1      17.457   4.823  12.936  0.00  0.00     0.027 A 
ATOM     13  C26 ZIN A   1      17.931   3.565  13.294  0.00  0.00     0.030 A 
ATOM     14  C25 ZIN A   1      18.078   2.586  12.337  0.00  0.00     0.013 A 
BRANCH  12  15
ATOM     15  N2  ZIN A   1      17.306   5.812  13.910  0.00  0.00    -0.394 N 
ATOM     16  C1  ZIN A   1      15.976   6.352  14.204  0.00  0.00     0.146 C 
ATOM     17  H30 ZIN A   1      18.081   6.142  14.391  0.00  0.00     0.159 HD
ENDBRANCH  12  15
ENDBRANCH   8   9
ENDBRANCH   1   7
BRANCH   4  18
ATOM     18  O13 ZIN A   1      19.417  -1.988   5.075  0.00  0.00    -0.349 OA
BRANCH  18  19
ATOM     19  C14 ZIN A   1      18.221  -2.543   4.526  0.00  0.00     0.201 C 
BRANCH  19  20
ATOM     20  C15 ZIN A   1      18.253  -4.066   4.670  0.00  0.00     0.194 C 
BRANCH  20  21
ATOM     21  O16 ZIN A   1      18.111  -4.417   6.048  0.00  0.00    -0.387 OA
BRANCH  21  22
ATOM     22  C17 ZIN A   1      19.085  -5.354   6.513  0.00  0.00     0.193 C 
BRANCH  22  23
ATOM     23  C18 ZIN A   1      18.423  -6.344   7.473  0.00  0.00     0.193 C 
BRANCH  23  24
ATOM     24  O19 ZIN A   1      19.300  -6.602   8.571  0.00  0.00    -0.387 OA
BRANCH  24  25
ATOM     25  C20 ZIN A   1      20.008  -5.450   9.034  0.00  0.00     0.199 C 
BRANCH  25  26
ATOM     26  C21 ZIN A   1      19.255  -4.830  10.214  0.00  0.00     0.248 C 
ATOM     27  F22 ZIN A   1      20.072  -4.849  11.350  0.00  0.00    -0.253 F 
ENDBRANCH  25  26
ENDBRANCH  24  25
ENDBRANCH  23  24
ENDBRANCH  22  23
ENDBRANCH  21  22
ENDBRANCH  20  21
ENDBRANCH  19  20
ENDBRANCH  18  19
ENDBRANCH   4  18
TORSDOF 12
ENDMDL
MODEL 9
REMARK VINA RESULT:      -6.5      6.659     11.440
REMARK  12 active torsions:
REMARK  status: ('A' for Active; 'I' for Inactive)
REMARK    1  A    between atoms: N2_2  and  C3_3 
REMARK    2  A    between atoms: C6_6  and  C7_7 
REMARK    3  A    between atoms: C8_8  and  C9_9 
REMARK    4  A    between atoms: C12_12  and  O13_13 
REMARK    5  A    between atoms: O13_13  and  C14_14 
REMARK    6  A    between atoms: C14_14  and  C15_15 
REMARK    7  A    between atoms: C15_15  and  O16_16 
REMARK    8  A    between atoms: O16_16  and  C17_17 
REMARK    9  A    between atoms: C17_17  and  C18_18 
REMARK   10  A    between atoms: C18_18  and  O19_19 
REMARK   11  A    between atoms: O19_19  and  C20_20 
REMARK   12  A    between atoms: C20_20  and  C21_21 
ROOT
ATOM      1  C9  ZIN A   1      18.498  -2.574  12.248  0.00  0.00    -0.036 A 
ATOM      2  C10 ZIN A   1      17.386  -2.776  11.425  0.00  0.00     0.014 A 
ATOM      3  C11 ZIN A   1      17.468  -3.649  10.361  0.00  0.00     0.037 A 
ATOM      4  C12 ZIN A   1      18.653  -4.328  10.107  0.00  0.00     0.068 A 
ATOM      5  C23 ZIN A   1      19.760  -4.131  10.922  0.00  0.00     0.037 A 
ATOM      6  C24 ZIN A   1      19.690  -3.256  11.984  0.00  0.00     0.014 A 
ENDROOT
BRANCH   1   7
ATOM      7  C8  ZIN A   1      18.416  -1.642  13.386  0.00  0.00     0.012 C 
ATOM      8  C7  ZIN A   1      19.281  -1.754  14.408  0.00  0.00     0.012 C 
BRANCH   8   9
ATOM      9  C6  ZIN A   1      19.198  -0.822  15.547  0.00  0.00    -0.036 A 
ATOM     10  C5  ZIN A   1      19.177  -1.315  16.854  0.00  0.00     0.013 A 
ATOM     11  C4  ZIN A   1      19.099  -0.441  17.917  0.00  0.00     0.030 A 
ATOM     12  C3  ZIN A   1      19.044   0.929  17.689  0.00  0.00     0.027 A 
ATOM     13  C26 ZIN A   1      19.061   1.423  16.389  0.00  0.00     0.030 A 
ATOM     14  C25 ZIN A   1      19.142   0.556  15.322  0.00  0.00     0.013 A 
BRANCH  12  15
ATOM     15  N2  ZIN A   1      18.965   1.811  18.768  0.00  0.00    -0.394 N 
ATOM     16  C1  ZIN A   1      18.839   3.251  18.529  0.00  0.00     0.146 C 
ATOM     17  H30 ZIN A   1      18.995   1.470  19.676  0.00  0.00     0.159 HD
ENDBRANCH  12  15
ENDBRANCH   8   9
ENDBRANCH   1   7
BRANCH   4  18
ATOM     18  O13 ZIN A   1      18.728  -5.188   9.057  0.00  0.00    -0.349 OA
BRANCH  18  19
ATOM     19  C14 ZIN A   1      18.763  -4.611   7.749  0.00  0.00     0.201 C 
BRANCH  19  20
ATOM     20  C15 ZIN A   1      20.210  -4.562   7.253  0.00  0.00     0.194 C 
BRANCH  20  21
ATOM     21  O16 ZIN A   1      20.305  -3.655   6.153  0.00  0.00    -0.387 OA
BRANCH  21  22
ATOM     22  C17 ZIN A   1      19.269  -2.669   6.122  0.00  0.00     0.193 C 
BRANCH  22  23
ATOM     23  C18 ZIN A   1      19.006  -2.252   4.674  0.00  0.00     0.193 C 
BRANCH  23  24
ATOM     24  O19 ZIN A   1      18.614  -3.397   3.912  0.00  0.00    -0.387 OA
BRANCH  24  25
ATOM     25  C20 ZIN A   1      17.399  -4.003   4.357  0.00  0.00     0.199 C 
BRANCH  25  26
ATOM     26  C21 ZIN A   1      17.557  -5.525   4.353  0.00  0.00     0.248 C 
ATOM     27  F22 ZIN A   1      17.042  -6.043   3.160  0.00  0.00    -0.253 F 
ENDBRANCH  25  26
ENDBRANCH  24  25
ENDBRANCH  23  24
ENDBRANCH  22  23
ENDBRANCH  21  22
ENDBRANCH  20  21
ENDBRANCH  19  20
ENDBRANCH  18  19
ENDBRANCH   4  18
TORSDOF 12
ENDMDL
