MODEL 1
REMARK VINA RESULT:      -7.4      0.000      0.000
REMARK  5 active torsions:
REMARK  status: ('A' for Active; 'I' for Inactive)
REMARK    1  A    between atoms: C2_2  and  O3_3 
REMARK    2  A    between atoms: C2_2  and  C13_13 
REMARK    3  A    between atoms: O3_3  and  O4_4 
REMARK    4  A    between atoms: O4_4  and  C5_5 
REMARK    5  A    between atoms: C5_5  and  C7_7 
ROOT
ATOM      1  O3  ZIN A   1      17.337   1.912  12.009  0.00  0.00    -0.144 OA
ENDROOT
BRANCH   1   2
ATOM      2  C2  ZIN A   1      17.011   0.658  12.362  0.00  0.00     0.323 C 
ATOM      3  O1  ZIN A   1      16.131   0.068  11.766  0.00  0.00    -0.257 OA
BRANCH   2   4
ATOM      4  C13 ZIN A   1      17.722  -0.005  13.476  0.00  0.00     0.042 A 
ATOM      5  C18 ZIN A   1      17.397   0.307  14.798  0.00  0.00     0.017 A 
ATOM      6  C17 ZIN A   1      18.063  -0.315  15.833  0.00  0.00     0.001 A 
ATOM      7  C16 ZIN A   1      19.051  -1.247  15.564  0.00  0.00     0.000 A 
ATOM      8  C15 ZIN A   1      19.377  -1.560  14.255  0.00  0.00     0.001 A 
ATOM      9  C14 ZIN A   1      18.715  -0.948  13.212  0.00  0.00     0.017 A 
ENDBRANCH   2   4
ENDBRANCH   1   2
BRANCH   1  10
ATOM     10  O4  ZIN A   1      17.268   2.197  10.783  0.00  0.00    -0.144 OA
BRANCH  10  11
ATOM     11  C5  ZIN A   1      18.389   2.041  10.057  0.00  0.00     0.323 C 
ATOM     12  O6  ZIN A   1      19.445   2.480  10.467  0.00  0.00    -0.257 OA
BRANCH  11  13
ATOM     13  C7  ZIN A   1      18.335   1.337   8.759  0.00  0.00     0.042 A 
ATOM     14  C12 ZIN A   1      19.096   1.793   7.680  0.00  0.00     0.017 A 
ATOM     15  C11 ZIN A   1      19.040   1.130   6.472  0.00  0.00     0.001 A 
ATOM     16  C10 ZIN A   1      18.231   0.016   6.327  0.00  0.00     0.000 A 
ATOM     17  C9  ZIN A   1      17.479  -0.444   7.392  0.00  0.00     0.001 A 
ATOM     18  C8  ZIN A   1      17.521   0.212   8.605  0.00  0.00     0.017 A 
ENDBRANCH  11  13
ENDBRANCH  10  11
ENDBRANCH   1  10
TORSDOF 5
ENDMDL
MODEL 2
REMARK VINA RESULT:      -7.3      0.046      6.363
REMARK  5 active torsions:
REMARK  status: ('A' for Active; 'I' for Inactive)
REMARK    1  A    between atoms: C2_2  and  O3_3 
REMARK    2  A    between atoms: C2_2  and  C13_13 
REMARK    3  A    between atoms: O3_3  and  O4_4 
REMARK    4  A    between atoms: O4_4  and  C5_5 
REMARK    5  A    between atoms: C5_5  and  C7_7 
ROOT
ATOM      1  O3  ZIN A   1      17.242   2.157  10.812  0.00  0.00    -0.144 OA
ENDROOT
BRANCH   1   2
ATOM      2  C2  ZIN A   1      18.366   2.007  10.093  0.00  0.00     0.323 C 
ATOM      3  O1  ZIN A   1      19.421   2.436  10.517  0.00  0.00    -0.257 OA
BRANCH   2   4
ATOM      4  C13 ZIN A   1      18.320   1.322   8.783  0.00  0.00     0.042 A 
ATOM      5  C18 ZIN A   1      19.107   1.781   7.725  0.00  0.00     0.017 A 
ATOM      6  C17 ZIN A   1      19.060   1.137   6.506  0.00  0.00     0.001 A 
ATOM      7  C16 ZIN A   1      18.237   0.038   6.331  0.00  0.00     0.000 A 
ATOM      8  C15 ZIN A   1      17.455  -0.422   7.377  0.00  0.00     0.001 A 
ATOM      9  C14 ZIN A   1      17.496   0.211   8.602  0.00  0.00     0.017 A 
ENDBRANCH   2   4
ENDBRANCH   1   2
BRANCH   1  10
ATOM     10  O4  ZIN A   1      17.306   1.875  12.039  0.00  0.00    -0.144 OA
BRANCH  10  11
ATOM     11  C5  ZIN A   1      16.998   0.615  12.392  0.00  0.00     0.323 C 
ATOM     12  O6  ZIN A   1      16.128   0.011  11.795  0.00  0.00    -0.257 OA
BRANCH  11  13
ATOM     13  C7  ZIN A   1      17.718  -0.036  13.506  0.00  0.00     0.042 A 
ATOM     14  C12 ZIN A   1      17.399   0.282  14.828  0.00  0.00     0.017 A 
ATOM     15  C11 ZIN A   1      18.075  -0.330  15.863  0.00  0.00     0.001 A 
ATOM     16  C10 ZIN A   1      19.068  -1.255  15.594  0.00  0.00     0.000 A 
ATOM     17  C9  ZIN A   1      19.386  -1.578  14.287  0.00  0.00     0.001 A 
ATOM     18  C8  ZIN A   1      18.721  -0.970  13.242  0.00  0.00     0.017 A 
ENDBRANCH  11  13
ENDBRANCH  10  11
ENDBRANCH   1  10
TORSDOF 5
ENDMDL
MODEL 3
REMARK VINA RESULT:      -7.2      1.830      5.033
REMARK  5 active torsions:
REMARK  status: ('A' for Active; 'I' for Inactive)
REMARK    1  A    between atoms: C2_2  and  O3_3 
REMARK    2  A    between atoms: C2_2  and  C13_13 
REMARK    3  A    between atoms: O3_3  and  O4_4 
REMARK    4  A    between atoms: O4_4  and  C5_5 
REMARK    5  A    between atoms: C5_5  and  C7_7 
ROOT
ATOM      1  O3  ZIN A   1      17.397   2.246  12.412  0.00  0.00    -0.144 OA
ENDROOT
BRANCH   1   2
ATOM      2  C2  ZIN A   1      17.366   2.740  11.163  0.00  0.00     0.323 C 
ATOM      3  O1  ZIN A   1      16.911   3.848  10.959  0.00  0.00    -0.257 OA
BRANCH   2   4
ATOM      4  C13 ZIN A   1      17.884   1.934  10.037  0.00  0.00     0.042 A 
ATOM      5  C18 ZIN A   1      17.330   0.683   9.758  0.00  0.00     0.017 A 
ATOM      6  C17 ZIN A   1      17.817  -0.063   8.705  0.00  0.00     0.001 A 
ATOM      7  C16 ZIN A   1      18.852   0.425   7.927  0.00  0.00     0.000 A 
ATOM      8  C15 ZIN A   1      19.405   1.665   8.198  0.00  0.00     0.001 A 
ATOM      9  C14 ZIN A   1      18.924   2.423   9.245  0.00  0.00     0.017 A 
ENDBRANCH   2   4
ENDBRANCH   1   2
BRANCH   1  10
ATOM     10  O4  ZIN A   1      18.425   2.494  13.099  0.00  0.00    -0.144 OA
BRANCH  10  11
ATOM     11  C5  ZIN A   1      19.082   1.440  13.614  0.00  0.00     0.323 C 
ATOM     12  O6  ZIN A   1      19.425   1.448  14.780  0.00  0.00    -0.257 OA
BRANCH  11  13
ATOM     13  C7  ZIN A   1      19.386   0.272  12.762  0.00  0.00     0.042 A 
ATOM     14  C12 ZIN A   1      18.618  -0.890  12.863  0.00  0.00     0.017 A 
ATOM     15  C11 ZIN A   1      18.908  -1.976  12.064  0.00  0.00     0.001 A 
ATOM     16  C10 ZIN A   1      19.958  -1.917  11.165  0.00  0.00     0.000 A 
ATOM     17  C9  ZIN A   1      20.720  -0.768  11.056  0.00  0.00     0.001 A 
ATOM     18  C8  ZIN A   1      20.444   0.324  11.852  0.00  0.00     0.017 A 
ENDBRANCH  11  13
ENDBRANCH  10  11
ENDBRANCH   1  10
TORSDOF 5
ENDMDL
MODEL 4
REMARK VINA RESULT:      -7.2      1.407      2.584
REMARK  5 active torsions:
REMARK  status: ('A' for Active; 'I' for Inactive)
REMARK    1  A    between atoms: C2_2  and  O3_3 
REMARK    2  A    between atoms: C2_2  and  C13_13 
REMARK    3  A    between atoms: O3_3  and  O4_4 
REMARK    4  A    between atoms: O4_4  and  C5_5 
REMARK    5  A    between atoms: C5_5  and  C7_7 
ROOT
ATOM      1  O3  ZIN A   1      18.952  -0.950  11.980  0.00  0.00    -0.144 OA
ENDROOT
BRANCH   1   2
ATOM      2  C2  ZIN A   1      19.306  -0.162  13.009  0.00  0.00     0.323 C 
ATOM      3  O1  ZIN A   1      20.085   0.753  12.833  0.00  0.00    -0.257 OA
BRANCH   2   4
ATOM      4  C13 ZIN A   1      18.748  -0.410  14.356  0.00  0.00     0.042 A 
ATOM      5  C18 ZIN A   1      17.702   0.380  14.836  0.00  0.00     0.017 A 
ATOM      6  C17 ZIN A   1      17.185   0.143  16.093  0.00  0.00     0.001 A 
ATOM      7  C16 ZIN A   1      17.700  -0.875  16.876  0.00  0.00     0.000 A 
ATOM      8  C15 ZIN A   1      18.736  -1.662  16.404  0.00  0.00     0.001 A 
ATOM      9  C14 ZIN A   1      19.259  -1.438  15.148  0.00  0.00     0.017 A 
ENDBRANCH   2   4
ENDBRANCH   1   2
BRANCH   1  10
ATOM     10  O4  ZIN A   1      17.717  -1.105  11.777  0.00  0.00    -0.144 OA
BRANCH  10  11
ATOM     11  C5  ZIN A   1      17.092  -0.151  11.066  0.00  0.00     0.323 C 
ATOM     12  O6  ZIN A   1      15.993   0.240  11.406  0.00  0.00    -0.257 OA
BRANCH  11  13
ATOM     13  C7  ZIN A   1      17.742   0.423   9.870  0.00  0.00     0.042 A 
ATOM     14  C12 ZIN A   1      17.730  -0.276   8.661  0.00  0.00     0.017 A 
ATOM     15  C11 ZIN A   1      18.340   0.267   7.549  0.00  0.00     0.001 A 
ATOM     16  C10 ZIN A   1      18.963   1.499   7.629  0.00  0.00     0.000 A 
ATOM     17  C9  ZIN A   1      18.975   2.200   8.822  0.00  0.00     0.001 A 
ATOM     18  C8  ZIN A   1      18.374   1.667   9.944  0.00  0.00     0.017 A 
ENDBRANCH  11  13
ENDBRANCH  10  11
ENDBRANCH   1  10
TORSDOF 5
ENDMDL
MODEL 5
REMARK VINA RESULT:      -7.2      1.844      3.577
REMARK  5 active torsions:
REMARK  status: ('A' for Active; 'I' for Inactive)
REMARK    1  A    between atoms: C2_2  and  O3_3 
REMARK    2  A    between atoms: C2_2  and  C13_13 
REMARK    3  A    between atoms: O3_3  and  O4_4 
REMARK    4  A    between atoms: O4_4  and  C5_5 
REMARK    5  A    between atoms: C5_5  and  C7_7 
ROOT
ATOM      1  O3  ZIN A   1      17.838  -0.091  10.442  0.00  0.00    -0.144 OA
ENDROOT
BRANCH   1   2
ATOM      2  C2  ZIN A   1      17.081  -0.025  11.549  0.00  0.00     0.323 C 
ATOM      3  O1  ZIN A   1      15.873   0.066  11.456  0.00  0.00    -0.257 OA
BRANCH   2   4
ATOM      4  C13 ZIN A   1      17.719  -0.063  12.883  0.00  0.00     0.042 A 
ATOM      5  C18 ZIN A   1      18.349  -1.228  13.325  0.00  0.00     0.017 A 
ATOM      6  C17 ZIN A   1      18.943  -1.257  14.570  0.00  0.00     0.001 A 
ATOM      7  C16 ZIN A   1      18.915  -0.134  15.379  0.00  0.00     0.000 A 
ATOM      8  C15 ZIN A   1      18.293   1.024  14.946  0.00  0.00     0.001 A 
ATOM      9  C14 ZIN A   1      17.699   1.066  13.702  0.00  0.00     0.017 A 
ENDBRANCH   2   4
ENDBRANCH   1   2
BRANCH   1  10
ATOM     10  O4  ZIN A   1      17.607   0.759   9.540  0.00  0.00    -0.144 OA
BRANCH  10  11
ATOM     11  C5  ZIN A   1      18.476   1.779   9.428  0.00  0.00     0.323 C 
ATOM     12  O6  ZIN A   1      19.212   1.847   8.464  0.00  0.00    -0.257 OA
BRANCH  11  13
ATOM     13  C7  ZIN A   1      18.535   2.817  10.478  0.00  0.00     0.042 A 
ATOM     14  C12 ZIN A   1      17.428   3.633  10.721  0.00  0.00     0.017 A 
ATOM     15  C11 ZIN A   1      17.490   4.600  11.703  0.00  0.00     0.001 A 
ATOM     16  C10 ZIN A   1      18.647   4.763  12.444  0.00  0.00     0.000 A 
ATOM     17  C9  ZIN A   1      19.746   3.956  12.212  0.00  0.00     0.001 A 
ATOM     18  C8  ZIN A   1      19.699   2.988  11.230  0.00  0.00     0.017 A 
ENDBRANCH  11  13
ENDBRANCH  10  11
ENDBRANCH   1  10
TORSDOF 5
ENDMDL
MODEL 6
REMARK VINA RESULT:      -7.2      1.870      5.604
REMARK  5 active torsions:
REMARK  status: ('A' for Active; 'I' for Inactive)
REMARK    1  A    between atoms: C2_2  and  O3_3 
REMARK    2  A    between atoms: C2_2  and  C13_13 
REMARK    3  A    between atoms: O3_3  and  O4_4 
REMARK    4  A    between atoms: O4_4  and  C5_5 
REMARK    5  A    between atoms: C5_5  and  C7_7 
ROOT
ATOM      1  O3  ZIN A   1      17.614   0.849   9.554  0.00  0.00    -0.144 OA
ENDROOT
BRANCH   1   2
ATOM      2  C2  ZIN A   1      18.500   1.856   9.473  0.00  0.00     0.323 C 
ATOM      3  O1  ZIN A   1      19.269   1.915   8.534  0.00  0.00    -0.257 OA
BRANCH   2   4
ATOM      4  C13 ZIN A   1      18.541   2.890  10.528  0.00  0.00     0.042 A 
ATOM      5  C18 ZIN A   1      17.416   3.680  10.778  0.00  0.00     0.017 A 
ATOM      6  C17 ZIN A   1      17.460   4.643  11.765  0.00  0.00     0.001 A 
ATOM      7  C16 ZIN A   1      18.614   4.827  12.506  0.00  0.00     0.000 A 
ATOM      8  C15 ZIN A   1      19.732   4.046  12.264  0.00  0.00     0.001 A 
ATOM      9  C14 ZIN A   1      19.699   3.077  11.283  0.00  0.00     0.017 A 
ENDBRANCH   2   4
ENDBRANCH   1   2
BRANCH   1  10
ATOM     10  O4  ZIN A   1      17.834  -0.038  10.422  0.00  0.00    -0.144 OA
BRANCH  10  11
ATOM     11  C5  ZIN A   1      17.079  -0.004  11.533  0.00  0.00     0.323 C 
ATOM     12  O6  ZIN A   1      15.869   0.066  11.445  0.00  0.00    -0.257 OA
BRANCH  11  13
ATOM     13  C7  ZIN A   1      17.721  -0.052  12.863  0.00  0.00     0.042 A 
ATOM     14  C12 ZIN A   1      18.338  -1.225  13.303  0.00  0.00     0.017 A 
ATOM     15  C11 ZIN A   1      18.935  -1.261  14.546  0.00  0.00     0.001 A 
ATOM     16  C10 ZIN A   1      18.923  -0.140  15.357  0.00  0.00     0.000 A 
ATOM     17  C9  ZIN A   1      18.318   1.027  14.925  0.00  0.00     0.001 A 
ATOM     18  C8  ZIN A   1      17.713   1.076  13.687  0.00  0.00     0.017 A 
ENDBRANCH  11  13
ENDBRANCH  10  11
ENDBRANCH   1  10
TORSDOF 5
ENDMDL
MODEL 7
REMARK VINA RESULT:      -7.1      2.535      3.593
REMARK  5 active torsions:
REMARK  status: ('A' for Active; 'I' for Inactive)
REMARK    1  A    between atoms: C2_2  and  O3_3 
REMARK    2  A    between atoms: C2_2  and  C13_13 
REMARK    3  A    between atoms: O3_3  and  O4_4 
REMARK    4  A    between atoms: O4_4  and  C5_5 
REMARK    5  A    between atoms: C5_5  and  C7_7 
ROOT
ATOM      1  O3  ZIN A   1      18.976  -0.331  12.316  0.00  0.00    -0.144 OA
ENDROOT
BRANCH   1   2
ATOM      2  C2  ZIN A   1      18.668  -1.517  12.867  0.00  0.00     0.323 C 
ATOM      3  O1  ZIN A   1      18.404  -1.587  14.051  0.00  0.00    -0.257 OA
BRANCH   2   4
ATOM      4  C13 ZIN A   1      18.650  -2.737  12.031  0.00  0.00     0.042 A 
ATOM      5  C18 ZIN A   1      17.445  -3.207  11.505  0.00  0.00     0.017 A 
ATOM      6  C17 ZIN A   1      17.435  -4.345  10.725  0.00  0.00     0.001 A 
ATOM      7  C16 ZIN A   1      18.616  -5.020  10.465  0.00  0.00     0.000 A 
ATOM      8  C15 ZIN A   1      19.813  -4.557  10.984  0.00  0.00     0.001 A 
ATOM      9  C14 ZIN A   1      19.837  -3.418  11.761  0.00  0.00     0.017 A 
ENDBRANCH   2   4
ENDBRANCH   1   2
BRANCH   1  10
ATOM     10  O4  ZIN A   1      18.053   0.524  12.243  0.00  0.00    -0.144 OA
BRANCH  10  11
ATOM     11  C5  ZIN A   1      17.225   0.438  11.188  0.00  0.00     0.323 C 
ATOM     12  O6  ZIN A   1      16.047   0.191  11.357  0.00  0.00    -0.257 OA
BRANCH  11  13
ATOM     13  C7  ZIN A   1      17.748   0.643   9.821  0.00  0.00     0.042 A 
ATOM     14  C12 ZIN A   1      17.395  -0.236   8.795  0.00  0.00     0.017 A 
ATOM     15  C11 ZIN A   1      17.888  -0.038   7.522  0.00  0.00     0.001 A 
ATOM     16  C10 ZIN A   1      18.730   1.029   7.261  0.00  0.00     0.000 A 
ATOM     17  C9  ZIN A   1      19.079   1.906   8.271  0.00  0.00     0.001 A 
ATOM     18  C8  ZIN A   1      18.598   1.717   9.550  0.00  0.00     0.017 A 
ENDBRANCH  11  13
ENDBRANCH  10  11
ENDBRANCH   1  10
TORSDOF 5
ENDMDL
MODEL 8
REMARK VINA RESULT:      -7.1      2.590      5.491
REMARK  5 active torsions:
REMARK  status: ('A' for Active; 'I' for Inactive)
REMARK    1  A    between atoms: C2_2  and  O3_3 
REMARK    2  A    between atoms: C2_2  and  C13_13 
REMARK    3  A    between atoms: O3_3  and  O4_4 
REMARK    4  A    between atoms: O4_4  and  C5_5 
REMARK    5  A    between atoms: C5_5  and  C7_7 
ROOT
ATOM      1  O3  ZIN A   1      17.943   0.335  12.443  0.00  0.00    -0.144 OA
ENDROOT
BRANCH   1   2
ATOM      2  C2  ZIN A   1      17.155   0.388  11.357  0.00  0.00     0.323 C 
ATOM      3  O1  ZIN A   1      15.958   0.208  11.465  0.00  0.00    -0.257 OA
BRANCH   2   4
ATOM      4  C13 ZIN A   1      17.745   0.665  10.029  0.00  0.00     0.042 A 
ATOM      5  C18 ZIN A   1      17.586  -0.252   8.988  0.00  0.00     0.017 A 
ATOM      6  C17 ZIN A   1      18.138   0.012   7.752  0.00  0.00     0.001 A 
ATOM      7  C16 ZIN A   1      18.846   1.183   7.542  0.00  0.00     0.000 A 
ATOM      8  C15 ZIN A   1      19.005   2.096   8.570  0.00  0.00     0.001 A 
ATOM      9  C14 ZIN A   1      18.455   1.845   9.810  0.00  0.00     0.017 A 
ENDBRANCH   2   4
ENDBRANCH   1   2
BRANCH   1  10
ATOM     10  O4  ZIN A   1      19.020  -0.312  12.338  0.00  0.00    -0.144 OA
BRANCH  10  11
ATOM     11  C5  ZIN A   1      19.055  -1.532  12.900  0.00  0.00     0.323 C 
ATOM     12  O6  ZIN A   1      19.236  -1.646  14.097  0.00  0.00    -0.257 OA
BRANCH  11  13
ATOM     13  C7  ZIN A   1      18.873  -2.736  12.063  0.00  0.00     0.042 A 
ATOM     14  C12 ZIN A   1      17.594  -3.122  11.657  0.00  0.00     0.017 A 
ATOM     15  C11 ZIN A   1      17.433  -4.247  10.875  0.00  0.00     0.001 A 
ATOM     16  C10 ZIN A   1      18.534  -4.994  10.495  0.00  0.00     0.000 A 
ATOM     17  C9  ZIN A   1      19.805  -4.614  10.890  0.00  0.00     0.001 A 
ATOM     18  C8  ZIN A   1      19.980  -3.494  11.676  0.00  0.00     0.017 A 
ENDBRANCH  11  13
ENDBRANCH  10  11
ENDBRANCH   1  10
TORSDOF 5
ENDMDL
MODEL 9
REMARK VINA RESULT:      -7.1      1.404      6.438
REMARK  5 active torsions:
REMARK  status: ('A' for Active; 'I' for Inactive)
REMARK    1  A    between atoms: C2_2  and  O3_3 
REMARK    2  A    between atoms: C2_2  and  C13_13 
REMARK    3  A    between atoms: O3_3  and  O4_4 
REMARK    4  A    between atoms: O4_4  and  C5_5 
REMARK    5  A    between atoms: C5_5  and  C7_7 
ROOT
ATOM      1  O3  ZIN A   1      17.760  -1.004  11.853  0.00  0.00    -0.144 OA
ENDROOT
BRANCH   1   2
ATOM      2  C2  ZIN A   1      17.088  -0.123  11.094  0.00  0.00     0.323 C 
ATOM      3  O1  ZIN A   1      15.959   0.205  11.400  0.00  0.00    -0.257 OA
BRANCH   2   4
ATOM      4  C13 ZIN A   1      17.723   0.447   9.887  0.00  0.00     0.042 A 
ATOM      5  C18 ZIN A   1      17.743  -0.282   8.696  0.00  0.00     0.017 A 
ATOM      6  C17 ZIN A   1      18.336   0.257   7.573  0.00  0.00     0.001 A 
ATOM      7  C16 ZIN A   1      18.909   1.516   7.624  0.00  0.00     0.000 A 
ATOM      8  C15 ZIN A   1      18.890   2.243   8.801  0.00  0.00     0.001 A 
ATOM      9  C14 ZIN A   1      18.297   1.718   9.930  0.00  0.00     0.017 A 
ENDBRANCH   2   4
ENDBRANCH   1   2
BRANCH   1  10
ATOM     10  O4  ZIN A   1      18.960  -0.729  12.122  0.00  0.00    -0.144 OA
BRANCH  10  11
ATOM     11  C5  ZIN A   1      19.179   0.079  13.174  0.00  0.00     0.323 C 
ATOM     12  O6  ZIN A   1      19.822   1.101  13.033  0.00  0.00    -0.257 OA
BRANCH  11  13
ATOM     13  C7  ZIN A   1      18.638  -0.276  14.502  0.00  0.00     0.042 A 
ATOM     14  C12 ZIN A   1      19.163  -1.361  15.207  0.00  0.00     0.017 A 
ATOM     15  C11 ZIN A   1      18.652  -1.686  16.446  0.00  0.00     0.001 A 
ATOM     16  C10 ZIN A   1      17.620  -0.941  16.990  0.00  0.00     0.000 A 
ATOM     17  C9  ZIN A   1      17.099   0.138  16.300  0.00  0.00     0.001 A 
ATOM     18  C8  ZIN A   1      17.597   0.472  15.057  0.00  0.00     0.017 A 
ENDBRANCH  11  13
ENDBRANCH  10  11
ENDBRANCH   1  10
TORSDOF 5
ENDMDL
