MODEL 1
REMARK VINA RESULT:      -8.0      0.000      0.000
REMARK  2 active torsions:
REMARK  status: ('A' for Active; 'I' for Inactive)
REMARK    1  A    between atoms: C6_6  and  C7_7 
REMARK    2  A    between atoms: C6_6  and  C13_13 
ROOT
ATOM      1  O1  ZIN A   1      16.967  -2.091  11.904  0.00  0.00    -0.247 OA
ATOM      2  C2  ZIN A   1      17.678  -1.315  11.296  0.00  0.00     0.324 A 
ATOM      3  N3  ZIN A   1      19.004  -1.455  11.182  0.00  0.00    -0.277 N 
ATOM      4  C4  ZIN A   1      19.548  -0.457  10.458  0.00  0.00     0.263 A 
ATOM      5  O5  ZIN A   1      20.719  -0.309  10.182  0.00  0.00    -0.269 OA
ATOM      6  C6  ZIN A   1      18.393   0.438  10.060  0.00  0.00     0.171 A 
ATOM      7  N19 ZIN A   1      17.220  -0.223  10.658  0.00  0.00    -0.317 N 
ATOM      8  H20 ZIN A   1      19.510  -2.184  11.574  0.00  0.00     0.173 HD
ATOM      9  H31 ZIN A   1      16.298   0.074  10.607  0.00  0.00     0.166 HD
ENDROOT
BRANCH   6  10
ATOM     10  C7  ZIN A   1      18.574   1.822  10.629  0.00  0.00    -0.016 A 
ATOM     11  C12 ZIN A   1      19.677   2.111  11.408  0.00  0.00     0.010 A 
ATOM     12  C11 ZIN A   1      19.845   3.381  11.926  0.00  0.00     0.001 A 
ATOM     13  C10 ZIN A   1      18.903   4.361  11.672  0.00  0.00     0.000 A 
ATOM     14  C9  ZIN A   1      17.797   4.071  10.897  0.00  0.00     0.001 A 
ATOM     15  C8  ZIN A   1      17.631   2.801  10.376  0.00  0.00     0.010 A 
ENDBRANCH   6  10
BRANCH   6  16
ATOM     16  C13 ZIN A   1      18.258   0.496   8.560  0.00  0.00    -0.016 A 
ATOM     17  C18 ZIN A   1      19.146   1.249   7.815  0.00  0.00     0.010 A 
ATOM     18  C17 ZIN A   1      19.025   1.297   6.439  0.00  0.00     0.001 A 
ATOM     19  C16 ZIN A   1      18.011   0.601   5.809  0.00  0.00     0.000 A 
ATOM     20  C15 ZIN A   1      17.119  -0.148   6.554  0.00  0.00     0.001 A 
ATOM     21  C14 ZIN A   1      17.243  -0.201   7.930  0.00  0.00     0.010 A 
ENDBRANCH   6  16
TORSDOF 2
ENDMDL
MODEL 2
REMARK VINA RESULT:      -8.0      1.168      4.501
REMARK  2 active torsions:
REMARK  status: ('A' for Active; 'I' for Inactive)
REMARK    1  A    between atoms: C6_6  and  C7_7 
REMARK    2  A    between atoms: C6_6  and  C13_13 
ROOT
ATOM      1  O1  ZIN A   1      19.834  -1.924  12.267  0.00  0.00    -0.247 OA
ATOM      2  C2  ZIN A   1      19.124  -1.095  11.733  0.00  0.00     0.324 A 
ATOM      3  N3  ZIN A   1      17.793  -1.061  11.863  0.00  0.00    -0.277 N 
ATOM      4  C4  ZIN A   1      17.252  -0.043  11.167  0.00  0.00     0.263 A 
ATOM      5  O5  ZIN A   1      16.077   0.247  11.088  0.00  0.00    -0.269 OA
ATOM      6  C6  ZIN A   1      18.415   0.666  10.504  0.00  0.00     0.171 A 
ATOM      7  N19 ZIN A   1      19.589  -0.105  10.948  0.00  0.00    -0.317 N 
ATOM      8  H20 ZIN A   1      17.282  -1.693  12.393  0.00  0.00     0.173 HD
ATOM      9  H31 ZIN A   1      20.516   0.063  10.718  0.00  0.00     0.166 HD
ENDROOT
BRANCH   6  10
ATOM     10  C7  ZIN A   1      18.281   0.617   9.003  0.00  0.00    -0.016 A 
ATOM     11  C12 ZIN A   1      17.292  -0.153   8.423  0.00  0.00     0.010 A 
ATOM     12  C11 ZIN A   1      17.167  -0.195   7.046  0.00  0.00     0.001 A 
ATOM     13  C10 ZIN A   1      18.037   0.527   6.251  0.00  0.00     0.000 A 
ATOM     14  C9  ZIN A   1      19.030   1.293   6.832  0.00  0.00     0.001 A 
ATOM     15  C8  ZIN A   1      19.152   1.337   8.209  0.00  0.00     0.010 A 
ENDBRANCH   6  10
BRANCH   6  16
ATOM     16  C13 ZIN A   1      18.509   2.092  10.980  0.00  0.00    -0.016 A 
ATOM     17  C18 ZIN A   1      17.502   2.989  10.680  0.00  0.00     0.010 A 
ATOM     18  C17 ZIN A   1      17.587   4.297  11.121  0.00  0.00     0.001 A 
ATOM     19  C16 ZIN A   1      18.683   4.709  11.855  0.00  0.00     0.000 A 
ATOM     20  C15 ZIN A   1      19.694   3.813  12.151  0.00  0.00     0.001 A 
ATOM     21  C14 ZIN A   1      19.607   2.505  11.714  0.00  0.00     0.010 A 
ENDBRANCH   6  16
TORSDOF 2
ENDMDL
MODEL 3
REMARK VINA RESULT:      -7.7      3.418      6.555
REMARK  2 active torsions:
REMARK  status: ('A' for Active; 'I' for Inactive)
REMARK    1  A    between atoms: C6_6  and  C7_7 
REMARK    2  A    between atoms: C6_6  and  C13_13 
ROOT
ATOM      1  O1  ZIN A   1      17.016   2.139  11.105  0.00  0.00    -0.247 OA
ATOM      2  C2  ZIN A   1      17.727   1.348  11.693  0.00  0.00     0.324 A 
ATOM      3  N3  ZIN A   1      19.053   1.482  11.806  0.00  0.00    -0.277 N 
ATOM      4  C4  ZIN A   1      19.598   0.467  12.505  0.00  0.00     0.263 A 
ATOM      5  O5  ZIN A   1      20.769   0.310  12.774  0.00  0.00    -0.269 OA
ATOM      6  C6  ZIN A   1      18.441  -0.435  12.887  0.00  0.00     0.171 A 
ATOM      7  N19 ZIN A   1      17.268   0.242  12.308  0.00  0.00    -0.317 N 
ATOM      8  H20 ZIN A   1      19.560   2.219  11.430  0.00  0.00     0.173 HD
ATOM      9  H31 ZIN A   1      16.346  -0.053  12.355  0.00  0.00     0.166 HD
ENDROOT
BRANCH   6  10
ATOM     10  C7  ZIN A   1      18.618  -1.806  12.286  0.00  0.00    -0.016 A 
ATOM     11  C12 ZIN A   1      17.511  -2.551  11.929  0.00  0.00     0.010 A 
ATOM     12  C11 ZIN A   1      17.674  -3.807  11.373  0.00  0.00     0.001 A 
ATOM     13  C10 ZIN A   1      18.944  -4.320  11.185  0.00  0.00     0.000 A 
ATOM     14  C9  ZIN A   1      20.050  -3.576  11.547  0.00  0.00     0.001 A 
ATOM     15  C8  ZIN A   1      19.887  -2.319  12.099  0.00  0.00     0.010 A 
ENDBRANCH   6  10
BRANCH   6  16
ATOM     16  C13 ZIN A   1      18.312  -0.526  14.386  0.00  0.00    -0.016 A 
ATOM     17  C18 ZIN A   1      17.439   0.310  15.056  0.00  0.00     0.010 A 
ATOM     18  C17 ZIN A   1      17.317   0.222  16.430  0.00  0.00     0.001 A 
ATOM     19  C16 ZIN A   1      18.075  -0.695  17.134  0.00  0.00     0.000 A 
ATOM     20  C15 ZIN A   1      18.952  -1.528  16.464  0.00  0.00     0.001 A 
ATOM     21  C14 ZIN A   1      19.070  -1.444  15.090  0.00  0.00     0.010 A 
ENDBRANCH   6  16
TORSDOF 2
ENDMDL
MODEL 4
REMARK VINA RESULT:      -7.7      2.166      4.546
REMARK  2 active torsions:
REMARK  status: ('A' for Active; 'I' for Inactive)
REMARK    1  A    between atoms: C6_6  and  C7_7 
REMARK    2  A    between atoms: C6_6  and  C13_13 
ROOT
ATOM      1  O1  ZIN A   1      19.305   1.863  13.821  0.00  0.00    -0.247 OA
ATOM      2  C2  ZIN A   1      18.754   1.182  12.978  0.00  0.00     0.324 A 
ATOM      3  N3  ZIN A   1      17.426   1.058  12.875  0.00  0.00    -0.277 N 
ATOM      4  C4  ZIN A   1      17.081   0.246  11.857  0.00  0.00     0.263 A 
ATOM      5  O5  ZIN A   1      15.960  -0.060  11.513  0.00  0.00    -0.269 OA
ATOM      6  C6  ZIN A   1      18.385  -0.203  11.230  0.00  0.00     0.171 A 
ATOM      7  N19 ZIN A   1      19.411   0.475  12.041  0.00  0.00    -0.317 N 
ATOM      8  H20 ZIN A   1      16.790   1.498  13.462  0.00  0.00     0.173 HD
ATOM      9  H31 ZIN A   1      20.372   0.419  11.927  0.00  0.00     0.166 HD
ENDROOT
BRANCH   6  10
ATOM     10  C7  ZIN A   1      18.532  -1.700  11.326  0.00  0.00    -0.016 A 
ATOM     11  C12 ZIN A   1      17.416  -2.494  11.504  0.00  0.00     0.010 A 
ATOM     12  C11 ZIN A   1      17.550  -3.868  11.588  0.00  0.00     0.001 A 
ATOM     13  C10 ZIN A   1      18.803  -4.446  11.503  0.00  0.00     0.000 A 
ATOM     14  C9  ZIN A   1      19.920  -3.650  11.330  0.00  0.00     0.001 A 
ATOM     15  C8  ZIN A   1      19.785  -2.278  11.243  0.00  0.00     0.010 A 
ENDBRANCH   6  10
BRANCH   6  16
ATOM     16  C13 ZIN A   1      18.466   0.246   9.794  0.00  0.00    -0.016 A 
ATOM     17  C18 ZIN A   1      17.734  -0.410   8.823  0.00  0.00     0.010 A 
ATOM     18  C17 ZIN A   1      17.805   0.006   7.506  0.00  0.00     0.001 A 
ATOM     19  C16 ZIN A   1      18.617   1.069   7.159  0.00  0.00     0.000 A 
ATOM     20  C15 ZIN A   1      19.354   1.722   8.130  0.00  0.00     0.001 A 
ATOM     21  C14 ZIN A   1      19.279   1.310   9.447  0.00  0.00     0.010 A 
ENDBRANCH   6  16
TORSDOF 2
ENDMDL
MODEL 5
REMARK VINA RESULT:      -7.6      2.847      5.392
REMARK  2 active torsions:
REMARK  status: ('A' for Active; 'I' for Inactive)
REMARK    1  A    between atoms: C6_6  and  C7_7 
REMARK    2  A    between atoms: C6_6  and  C13_13 
ROOT
ATOM      1  O1  ZIN A   1      20.607  -3.478  11.323  0.00  0.00    -0.247 OA
ATOM      2  C2  ZIN A   1      19.802  -2.637  11.671  0.00  0.00     0.324 A 
ATOM      3  N3  ZIN A   1      18.491  -2.713  11.418  0.00  0.00    -0.277 N 
ATOM      4  C4  ZIN A   1      17.827  -1.650  11.913  0.00  0.00     0.263 A 
ATOM      5  O5  ZIN A   1      16.636  -1.434  11.846  0.00  0.00    -0.269 OA
ATOM      6  C6  ZIN A   1      18.878  -0.781  12.574  0.00  0.00     0.171 A 
ATOM      7  N19 ZIN A   1      20.130  -1.527  12.358  0.00  0.00    -0.317 N 
ATOM      8  H20 ZIN A   1      18.070  -3.443  10.937  0.00  0.00     0.173 HD
ATOM      9  H31 ZIN A   1      21.017  -1.268  12.649  0.00  0.00     0.166 HD
ENDROOT
BRANCH   6  10
ATOM     10  C7  ZIN A   1      18.941   0.571  11.911  0.00  0.00    -0.016 A 
ATOM     11  C12 ZIN A   1      17.992   0.927  10.973  0.00  0.00     0.010 A 
ATOM     12  C11 ZIN A   1      18.048   2.169  10.369  0.00  0.00     0.001 A 
ATOM     13  C10 ZIN A   1      19.060   3.052  10.697  0.00  0.00     0.000 A 
ATOM     14  C9  ZIN A   1      20.013   2.694  11.632  0.00  0.00     0.001 A 
ATOM     15  C8  ZIN A   1      19.954   1.453  12.239  0.00  0.00     0.010 A 
ENDBRANCH   6  10
BRANCH   6  16
ATOM     16  C13 ZIN A   1      18.598  -0.636  14.048  0.00  0.00    -0.016 A 
ATOM     17  C18 ZIN A   1      19.260  -1.435  14.959  0.00  0.00     0.010 A 
ATOM     18  C17 ZIN A   1      19.006  -1.298  16.311  0.00  0.00     0.001 A 
ATOM     19  C16 ZIN A   1      18.082  -0.369  16.750  0.00  0.00     0.000 A 
ATOM     20  C15 ZIN A   1      17.415   0.427  15.838  0.00  0.00     0.001 A 
ATOM     21  C14 ZIN A   1      17.673   0.294  14.487  0.00  0.00     0.010 A 
ENDBRANCH   6  16
TORSDOF 2
ENDMDL
MODEL 6
REMARK VINA RESULT:      -7.3      2.538      4.467
REMARK  2 active torsions:
REMARK  status: ('A' for Active; 'I' for Inactive)
REMARK    1  A    between atoms: C6_6  and  C7_7 
REMARK    2  A    between atoms: C6_6  and  C13_13 
ROOT
ATOM      1  O1  ZIN A   1      19.053  -1.821   9.346  0.00  0.00    -0.247 OA
ATOM      2  C2  ZIN A   1      19.300  -1.049  10.251  0.00  0.00     0.324 A 
ATOM      3  N3  ZIN A   1      20.540  -0.733  10.641  0.00  0.00    -0.277 N 
ATOM      4  C4  ZIN A   1      20.531   0.142  11.665  0.00  0.00     0.263 A 
ATOM      5  O5  ZIN A   1      21.493   0.615  12.232  0.00  0.00    -0.269 OA
ATOM      6  C6  ZIN A   1      19.070   0.416  11.958  0.00  0.00     0.171 A 
ATOM      7  N19 ZIN A   1      18.358  -0.413  10.970  0.00  0.00    -0.317 N 
ATOM      8  H20 ZIN A   1      21.346  -1.092  10.237  0.00  0.00     0.173 HD
ATOM      9  H31 ZIN A   1      17.397  -0.489  10.862  0.00  0.00     0.166 HD
ENDROOT
BRANCH   6  10
ATOM     10  C7  ZIN A   1      18.722  -0.010  13.362  0.00  0.00    -0.016 A 
ATOM     11  C12 ZIN A   1      19.414  -1.045  13.962  0.00  0.00     0.010 A 
ATOM     12  C11 ZIN A   1      19.097  -1.432  15.251  0.00  0.00     0.001 A 
ATOM     13  C10 ZIN A   1      18.082  -0.790  15.936  0.00  0.00     0.000 A 
ATOM     14  C9  ZIN A   1      17.387   0.241  15.333  0.00  0.00     0.001 A 
ATOM     15  C8  ZIN A   1      17.707   0.631  14.046  0.00  0.00     0.010 A 
ENDBRANCH   6  10
BRANCH   6  16
ATOM     16  C13 ZIN A   1      18.750   1.874  11.753  0.00  0.00    -0.016 A 
ATOM     17  C18 ZIN A   1      17.751   2.245  10.874  0.00  0.00     0.010 A 
ATOM     18  C17 ZIN A   1      17.455   3.583  10.690  0.00  0.00     0.001 A 
ATOM     19  C16 ZIN A   1      18.166   4.549  11.377  0.00  0.00     0.000 A 
ATOM     20  C15 ZIN A   1      19.169   4.178  12.253  0.00  0.00     0.001 A 
ATOM     21  C14 ZIN A   1      19.461   2.840  12.441  0.00  0.00     0.010 A 
ENDBRANCH   6  16
TORSDOF 2
ENDMDL
MODEL 7
REMARK VINA RESULT:      -7.0      4.407      6.128
REMARK  2 active torsions:
REMARK  status: ('A' for Active; 'I' for Inactive)
REMARK    1  A    between atoms: C6_6  and  C7_7 
REMARK    2  A    between atoms: C6_6  and  C13_13 
ROOT
ATOM      1  O1  ZIN A   1      20.722   6.736  14.907  0.00  0.00    -0.247 OA
ATOM      2  C2  ZIN A   1      19.867   5.941  14.570  0.00  0.00     0.324 A 
ATOM      3  N3  ZIN A   1      18.554   6.194  14.622  0.00  0.00    -0.277 N 
ATOM      4  C4  ZIN A   1      17.828   5.144  14.191  0.00  0.00     0.263 A 
ATOM      5  O5  ZIN A   1      16.621   5.069  14.119  0.00  0.00    -0.269 OA
ATOM      6  C6  ZIN A   1      18.835   4.076  13.813  0.00  0.00     0.171 A 
ATOM      7  N19 ZIN A   1      20.134   4.709  14.097  0.00  0.00    -0.317 N 
ATOM      8  H20 ZIN A   1      18.173   7.030  14.932  0.00  0.00     0.173 HD
ATOM      9  H31 ZIN A   1      21.011   4.315  13.974  0.00  0.00     0.166 HD
ENDROOT
BRANCH   6  10
ATOM     10  C7  ZIN A   1      18.645   2.844  14.660  0.00  0.00    -0.016 A 
ATOM     11  C12 ZIN A   1      19.285   2.738  15.880  0.00  0.00     0.010 A 
ATOM     12  C11 ZIN A   1      19.107   1.609  16.658  0.00  0.00     0.001 A 
ATOM     13  C10 ZIN A   1      18.295   0.583  16.212  0.00  0.00     0.000 A 
ATOM     14  C9  ZIN A   1      17.659   0.688  14.990  0.00  0.00     0.001 A 
ATOM     15  C8  ZIN A   1      17.834   1.818  14.214  0.00  0.00     0.010 A 
ENDBRANCH   6  10
BRANCH   6  16
ATOM     16  C13 ZIN A   1      18.723   3.735  12.350  0.00  0.00    -0.016 A 
ATOM     17  C18 ZIN A   1      19.528   2.752  11.806  0.00  0.00     0.010 A 
ATOM     18  C17 ZIN A   1      19.421   2.435  10.464  0.00  0.00     0.001 A 
ATOM     19  C16 ZIN A   1      18.517   3.109   9.665  0.00  0.00     0.000 A 
ATOM     20  C15 ZIN A   1      17.716   4.096  10.208  0.00  0.00     0.001 A 
ATOM     21  C14 ZIN A   1      17.819   4.409  11.550  0.00  0.00     0.010 A 
ENDBRANCH   6  16
TORSDOF 2
ENDMDL
MODEL 8
REMARK VINA RESULT:      -7.0      2.283      4.773
REMARK  2 active torsions:
REMARK  status: ('A' for Active; 'I' for Inactive)
REMARK    1  A    between atoms: C6_6  and  C7_7 
REMARK    2  A    between atoms: C6_6  and  C13_13 
ROOT
ATOM      1  O1  ZIN A   1      21.142   0.615  12.178  0.00  0.00    -0.247 OA
ATOM      2  C2  ZIN A   1      20.260   0.146  11.486  0.00  0.00     0.324 A 
ATOM      3  N3  ZIN A   1      18.964   0.451  11.625  0.00  0.00    -0.277 N 
ATOM      4  C4  ZIN A   1      18.200  -0.208  10.732  0.00  0.00     0.263 A 
ATOM      5  O5  ZIN A   1      16.997  -0.141  10.609  0.00  0.00    -0.269 OA
ATOM      6  C6  ZIN A   1      19.159  -1.049   9.913  0.00  0.00     0.171 A 
ATOM      7  N19 ZIN A   1      20.477  -0.733  10.491  0.00  0.00    -0.317 N 
ATOM      8  H20 ZIN A   1      18.619   1.070  12.288  0.00  0.00     0.173 HD
ATOM      9  H31 ZIN A   1      21.333  -1.092  10.213  0.00  0.00     0.166 HD
ENDROOT
BRANCH   6  10
ATOM     10  C7  ZIN A   1      18.845  -2.515  10.069  0.00  0.00    -0.016 A 
ATOM     11  C12 ZIN A   1      17.752  -3.060   9.423  0.00  0.00     0.010 A 
ATOM     12  C11 ZIN A   1      17.467  -4.406   9.563  0.00  0.00     0.001 A 
ATOM     13  C10 ZIN A   1      18.270  -5.203  10.358  0.00  0.00     0.000 A 
ATOM     14  C9  ZIN A   1      19.359  -4.656  11.008  0.00  0.00     0.001 A 
ATOM     15  C8  ZIN A   1      19.647  -3.312  10.864  0.00  0.00     0.010 A 
ENDBRANCH   6  10
BRANCH   6  16
ATOM     16  C13 ZIN A   1      19.110  -0.648   8.461  0.00  0.00    -0.016 A 
ATOM     17  C18 ZIN A   1      19.257  -1.605   7.475  0.00  0.00     0.010 A 
ATOM     18  C17 ZIN A   1      19.207  -1.238   6.143  0.00  0.00     0.001 A 
ATOM     19  C16 ZIN A   1      19.019   0.087   5.799  0.00  0.00     0.000 A 
ATOM     20  C15 ZIN A   1      18.877   1.046   6.785  0.00  0.00     0.001 A 
ATOM     21  C14 ZIN A   1      18.922   0.678   8.116  0.00  0.00     0.010 A 
ENDBRANCH   6  16
TORSDOF 2
ENDMDL
MODEL 9
REMARK VINA RESULT:      -6.9      2.114      4.423
REMARK  2 active torsions:
REMARK  status: ('A' for Active; 'I' for Inactive)
REMARK    1  A    between atoms: C6_6  and  C7_7 
REMARK    2  A    between atoms: C6_6  and  C13_13 
ROOT
ATOM      1  O1  ZIN A   1      17.986   1.727  13.900  0.00  0.00    -0.247 OA
ATOM      2  C2  ZIN A   1      18.522   1.062  13.036  0.00  0.00     0.324 A 
ATOM      3  N3  ZIN A   1      19.849   0.952  12.897  0.00  0.00    -0.277 N 
ATOM      4  C4  ZIN A   1      20.176   0.157  11.860  0.00  0.00     0.263 A 
ATOM      5  O5  ZIN A   1      21.291  -0.135  11.485  0.00  0.00    -0.269 OA
ATOM      6  C6  ZIN A   1      18.860  -0.299  11.262  0.00  0.00     0.171 A 
ATOM      7  N19 ZIN A   1      17.849   0.350  12.114  0.00  0.00    -0.317 N 
ATOM      8  H20 ZIN A   1      20.494   1.392  13.473  0.00  0.00     0.173 HD
ATOM      9  H31 ZIN A   1      16.886   0.282  12.025  0.00  0.00     0.166 HD
ENDROOT
BRANCH   6  10
ATOM     10  C7  ZIN A   1      18.737   0.169   9.834  0.00  0.00    -0.016 A 
ATOM     11  C12 ZIN A   1      19.276   1.383   9.456  0.00  0.00     0.010 A 
ATOM     12  C11 ZIN A   1      19.166   1.810   8.146  0.00  0.00     0.001 A 
ATOM     13  C10 ZIN A   1      18.508   1.026   7.216  0.00  0.00     0.000 A 
ATOM     14  C9  ZIN A   1      17.964  -0.186   7.597  0.00  0.00     0.001 A 
ATOM     15  C8  ZIN A   1      18.077  -0.614   8.906  0.00  0.00     0.010 A 
ENDBRANCH   6  10
BRANCH   6  16
ATOM     16  C13 ZIN A   1      18.733  -1.799  11.340  0.00  0.00    -0.016 A 
ATOM     17  C18 ZIN A   1      17.493  -2.378  11.533  0.00  0.00     0.010 A 
ATOM     18  C17 ZIN A   1      17.376  -3.754  11.599  0.00  0.00     0.001 A 
ATOM     19  C16 ZIN A   1      18.500  -4.549  11.484  0.00  0.00     0.000 A 
ATOM     20  C15 ZIN A   1      19.741  -3.970  11.296  0.00  0.00     0.001 A 
ATOM     21  C14 ZIN A   1      19.858  -2.595  11.224  0.00  0.00     0.010 A 
ENDBRANCH   6  16
TORSDOF 2
ENDMDL
