MODEL 1
REMARK VINA RESULT:      -9.5      0.000      0.000
REMARK  8 active torsions:
REMARK  status: ('A' for Active; 'I' for Inactive)
REMARK    1  A    between atoms: O2_2  and  C3_3 
REMARK    2  A    between atoms: C9_9  and  C10_10 
REMARK       I    between atoms: C10_10  and  N12_12 
REMARK    3  A    between atoms: N12_12  and  C13_13 
REMARK    4  A    between atoms: C13_13  and  C14_14 
REMARK    5  A    between atoms: C14_14  and  C15_15 
REMARK    6  A    between atoms: C18_18  and  S19_19 
REMARK    7  A    between atoms: S19_19  and  N22_22 
REMARK       I    between atoms: C23_23  and  N25_25 
REMARK    8  A    between atoms: N25_25  and  C26_26 
ROOT
ATOM      1  C15 ZIN A   1      18.125   0.131   6.473  0.00  0.00    -0.057 A 
ATOM      2  C16 ZIN A   1      19.045   1.142   6.678  0.00  0.00     0.009 A 
ATOM      3  C17 ZIN A   1      19.133   1.757   7.914  0.00  0.00     0.026 A 
ATOM      4  C18 ZIN A   1      18.301   1.361   8.943  0.00  0.00     0.081 A 
ATOM      5  C32 ZIN A   1      17.379   0.351   8.738  0.00  0.00     0.026 A 
ATOM      6  C33 ZIN A   1      17.289  -0.261   7.501  0.00  0.00     0.009 A 
ENDROOT
BRANCH   1   7
ATOM      7  C14 ZIN A   1      18.029  -0.538   5.126  0.00  0.00     0.058 C 
BRANCH   7   8
ATOM      8  C13 ZIN A   1      18.853  -1.827   5.137  0.00  0.00     0.127 C 
BRANCH   8   9
ATOM      9  N12 ZIN A   1      18.265  -2.774   6.088  0.00  0.00    -0.356 N 
ATOM     10  C10 ZIN A   1      19.056  -3.636   6.756  0.00  0.00     0.254 C 
ATOM     11  O11 ZIN A   1      20.258  -3.629   6.569  0.00  0.00    -0.268 OA
ATOM     12  H40 ZIN A   1      17.306  -2.779   6.238  0.00  0.00     0.162 HD
BRANCH  10  13
ATOM     13  C9  ZIN A   1      18.464  -4.590   7.714  0.00  0.00     0.066 A 
ATOM     14  C3  ZIN A   1      18.402  -5.955   7.401  0.00  0.00     0.084 A 
ATOM     15  C4  ZIN A   1      17.844  -6.843   8.309  0.00  0.00     0.039 A 
ATOM     16  C5  ZIN A   1      17.346  -6.383   9.511  0.00  0.00     0.026 A 
ATOM     17  C6  ZIN A   1      17.401  -5.033   9.822  0.00  0.00     0.035 A 
ATOM     18 Cl7  ZIN A   1      16.772  -4.470  11.339  0.00  0.00    -0.084 Cl
ATOM     19  C8  ZIN A   1      17.953  -4.136   8.932  0.00  0.00     0.043 A 
BRANCH  14  20
ATOM     20  O2  ZIN A   1      18.890  -6.406   6.219  0.00  0.00    -0.355 OA
ATOM     21  C1  ZIN A   1      17.937  -6.791   5.227  0.00  0.00     0.210 C 
ENDBRANCH  14  20
ENDBRANCH  10  13
ENDBRANCH   8   9
ENDBRANCH   7   8
ENDBRANCH   1   7
BRANCH   4  22
ATOM     22  S19 ZIN A   1      18.413   2.143  10.518  0.00  0.00     0.286 S 
ATOM     23  O20 ZIN A   1      19.675   2.794  10.553  0.00  0.00    -0.198 OA
ATOM     24  O21 ZIN A   1      17.182   2.825  10.715  0.00  0.00    -0.198 OA
BRANCH  22  25
ATOM     25  N22 ZIN A   1      18.472   0.945  11.659  0.00  0.00    -0.115 NA
ATOM     26  C23 ZIN A   1      18.231   1.221  12.907  0.00  0.00     0.284 C 
ATOM     27  O24 ZIN A   1      17.933   2.488  13.272  0.00  0.00    -0.149 OA
ATOM     28  N25 ZIN A   1      18.282   0.227  13.852  0.00  0.00    -0.347 N 
ATOM     29  H47 ZIN A   1      18.495  -0.681  13.590  0.00  0.00     0.163 HD
BRANCH  28  30
ATOM     30  C26 ZIN A   1      18.010   0.539  15.258  0.00  0.00     0.085 C 
ATOM     31  C31 ZIN A   1      19.247   1.183  15.886  0.00  0.00     0.025 C 
ATOM     32  C30 ZIN A   1      18.964   1.510  17.353  0.00  0.00     0.002 C 
ATOM     33  C29 ZIN A   1      18.622   0.222  18.105  0.00  0.00     0.000 C 
ATOM     34  C28 ZIN A   1      17.385  -0.422  17.477  0.00  0.00     0.002 C 
ATOM     35  C27 ZIN A   1      17.668  -0.748  16.010  0.00  0.00     0.025 C 
ENDBRANCH  28  30
ENDBRANCH  22  25
ENDBRANCH   4  22
TORSDOF 8
ENDMDL
MODEL 2
REMARK VINA RESULT:      -9.5      1.313      2.128
REMARK  8 active torsions:
REMARK  status: ('A' for Active; 'I' for Inactive)
REMARK    1  A    between atoms: O2_2  and  C3_3 
REMARK    2  A    between atoms: C9_9  and  C10_10 
REMARK       I    between atoms: C10_10  and  N12_12 
REMARK    3  A    between atoms: N12_12  and  C13_13 
REMARK    4  A    between atoms: C13_13  and  C14_14 
REMARK    5  A    between atoms: C14_14  and  C15_15 
REMARK    6  A    between atoms: C18_18  and  S19_19 
REMARK    7  A    between atoms: S19_19  and  N22_22 
REMARK       I    between atoms: C23_23  and  N25_25 
REMARK    8  A    between atoms: N25_25  and  C26_26 
ROOT
ATOM      1  C15 ZIN A   1      18.116   0.227   6.739  0.00  0.00    -0.057 A 
ATOM      2  C16 ZIN A   1      17.312  -0.197   7.780  0.00  0.00     0.009 A 
ATOM      3  C17 ZIN A   1      17.387   0.429   9.011  0.00  0.00     0.026 A 
ATOM      4  C18 ZIN A   1      18.264   1.480   9.199  0.00  0.00     0.081 A 
ATOM      5  C32 ZIN A   1      19.069   1.904   8.157  0.00  0.00     0.026 A 
ATOM      6  C33 ZIN A   1      18.997   1.274   6.928  0.00  0.00     0.009 A 
ENDROOT
BRANCH   1   7
ATOM      7  C14 ZIN A   1      18.035  -0.457   5.398  0.00  0.00     0.058 C 
BRANCH   7   8
ATOM      8  C13 ZIN A   1      18.926  -1.701   5.405  0.00  0.00     0.127 C 
BRANCH   8   9
ATOM      9  N12 ZIN A   1      18.294  -2.749   6.210  0.00  0.00    -0.356 N 
ATOM     10  C10 ZIN A   1      19.037  -3.762   6.700  0.00  0.00     0.254 C 
ATOM     11  O11 ZIN A   1      20.231  -3.805   6.473  0.00  0.00    -0.268 OA
ATOM     12  H40 ZIN A   1      17.342  -2.714   6.392  0.00  0.00     0.162 HD
BRANCH  10  13
ATOM     13  C9  ZIN A   1      18.400  -4.818   7.511  0.00  0.00     0.066 A 
ATOM     14  C3  ZIN A   1      17.956  -4.536   8.810  0.00  0.00     0.084 A 
ATOM     15  C4  ZIN A   1      17.357  -5.535   9.563  0.00  0.00     0.039 A 
ATOM     16  C5  ZIN A   1      17.207  -6.803   9.038  0.00  0.00     0.026 A 
ATOM     17  C6  ZIN A   1      17.650  -7.087   7.755  0.00  0.00     0.035 A 
ATOM     18 Cl7  ZIN A   1      17.453  -8.686   7.107  0.00  0.00    -0.084 Cl
ATOM     19  C8  ZIN A   1      18.246  -6.105   6.992  0.00  0.00     0.043 A 
BRANCH  14  20
ATOM     20  O2  ZIN A   1      18.104  -3.291   9.326  0.00  0.00    -0.355 OA
ATOM     21  C1  ZIN A   1      17.625  -3.077  10.655  0.00  0.00     0.210 C 
ENDBRANCH  14  20
ENDBRANCH  10  13
ENDBRANCH   8   9
ENDBRANCH   7   8
ENDBRANCH   1   7
BRANCH   4  22
ATOM     22  S19 ZIN A   1      18.359   2.279  10.766  0.00  0.00     0.286 S 
ATOM     23  O20 ZIN A   1      19.659   2.849  10.848  0.00  0.00    -0.198 OA
ATOM     24  O21 ZIN A   1      17.167   3.041  10.900  0.00  0.00    -0.198 OA
BRANCH  22  25
ATOM     25  N22 ZIN A   1      18.292   1.098  11.925  0.00  0.00    -0.115 NA
ATOM     26  C23 ZIN A   1      18.144   1.421  13.176  0.00  0.00     0.284 C 
ATOM     27  O24 ZIN A   1      18.046   2.721  13.530  0.00  0.00    -0.149 OA
ATOM     28  N25 ZIN A   1      18.089   0.441  14.136  0.00  0.00    -0.347 N 
ATOM     29  H47 ZIN A   1      18.159  -0.492  13.881  0.00  0.00     0.163 HD
BRANCH  28  30
ATOM     30  C26 ZIN A   1      17.922   0.805  15.546  0.00  0.00     0.085 C 
ATOM     31  C31 ZIN A   1      19.265   1.264  16.116  0.00  0.00     0.025 C 
ATOM     32  C30 ZIN A   1      19.092   1.645  17.587  0.00  0.00     0.002 C 
ATOM     33  C29 ZIN A   1      18.592   0.431  18.373  0.00  0.00     0.000 C 
ATOM     34  C28 ZIN A   1      17.249  -0.028  17.802  0.00  0.00     0.002 C 
ATOM     35  C27 ZIN A   1      17.422  -0.408  16.331  0.00  0.00     0.025 C 
ENDBRANCH  28  30
ENDBRANCH  22  25
ENDBRANCH   4  22
TORSDOF 8
ENDMDL
MODEL 3
REMARK VINA RESULT:      -9.3      2.592      7.222
REMARK  8 active torsions:
REMARK  status: ('A' for Active; 'I' for Inactive)
REMARK    1  A    between atoms: O2_2  and  C3_3 
REMARK    2  A    between atoms: C9_9  and  C10_10 
REMARK       I    between atoms: C10_10  and  N12_12 
REMARK    3  A    between atoms: N12_12  and  C13_13 
REMARK    4  A    between atoms: C13_13  and  C14_14 
REMARK    5  A    between atoms: C14_14  and  C15_15 
REMARK    6  A    between atoms: C18_18  and  S19_19 
REMARK    7  A    between atoms: S19_19  and  N22_22 
REMARK       I    between atoms: C23_23  and  N25_25 
REMARK    8  A    between atoms: N25_25  and  C26_26 
ROOT
ATOM      1  C15 ZIN A   1      18.983   1.742   8.501  0.00  0.00    -0.057 A 
ATOM      2  C16 ZIN A   1      18.450   1.891   7.234  0.00  0.00     0.009 A 
ATOM      3  C17 ZIN A   1      18.499   0.842   6.335  0.00  0.00     0.026 A 
ATOM      4  C18 ZIN A   1      19.080  -0.357   6.703  0.00  0.00     0.081 A 
ATOM      5  C32 ZIN A   1      19.615  -0.506   7.970  0.00  0.00     0.026 A 
ATOM      6  C33 ZIN A   1      19.570   0.545   8.867  0.00  0.00     0.009 A 
ENDROOT
BRANCH   1   7
ATOM      7  C14 ZIN A   1      18.931   2.886   9.480  0.00  0.00     0.058 C 
BRANCH   7   8
ATOM      8  C13 ZIN A   1      17.753   2.686  10.436  0.00  0.00     0.127 C 
BRANCH   8   9
ATOM      9  N12 ZIN A   1      18.213   1.983  11.636  0.00  0.00    -0.356 N 
ATOM     10  C10 ZIN A   1      17.539   0.905  12.085  0.00  0.00     0.254 C 
ATOM     11  O11 ZIN A   1      16.550   0.517  11.495  0.00  0.00    -0.268 OA
ATOM     12  H40 ZIN A   1      19.004   2.291  12.107  0.00  0.00     0.162 HD
BRANCH  10  13
ATOM     13  C9  ZIN A   1      18.003   0.197  13.294  0.00  0.00     0.066 A 
ATOM     14  C3  ZIN A   1      19.204  -0.527  13.269  0.00  0.00     0.084 A 
ATOM     15  C4  ZIN A   1      19.631  -1.188  14.410  0.00  0.00     0.039 A 
ATOM     16  C5  ZIN A   1      18.875  -1.138  15.564  0.00  0.00     0.026 A 
ATOM     17  C6  ZIN A   1      17.685  -0.428  15.592  0.00  0.00     0.035 A 
ATOM     18 Cl7  ZIN A   1      16.745  -0.373  17.050  0.00  0.00    -0.084 Cl
ATOM     19  C8  ZIN A   1      17.245   0.236  14.465  0.00  0.00     0.043 A 
BRANCH  14  20
ATOM     20  O2  ZIN A   1      19.946  -0.576  12.134  0.00  0.00    -0.355 OA
ATOM     21  C1  ZIN A   1      21.121   0.237  12.092  0.00  0.00     0.210 C 
ENDBRANCH  14  20
ENDBRANCH  10  13
ENDBRANCH   8   9
ENDBRANCH   7   8
ENDBRANCH   1   7
BRANCH   4  22
ATOM     22  S19 ZIN A   1      19.142  -1.695   5.558  0.00  0.00     0.286 S 
ATOM     23  O20 ZIN A   1      17.798  -2.108   5.351  0.00  0.00    -0.198 OA
ATOM     24  O21 ZIN A   1      19.998  -1.281   4.503  0.00  0.00    -0.198 OA
BRANCH  22  25
ATOM     25  N22 ZIN A   1      19.907  -2.954   6.315  0.00  0.00    -0.115 NA
ATOM     26  C23 ZIN A   1      19.363  -3.516   7.354  0.00  0.00     0.284 C 
ATOM     27  O24 ZIN A   1      18.174  -3.072   7.817  0.00  0.00    -0.149 OA
ATOM     28  N25 ZIN A   1      19.999  -4.559   7.981  0.00  0.00    -0.347 N 
ATOM     29  H47 ZIN A   1      20.852  -4.877   7.649  0.00  0.00     0.163 HD
BRANCH  28  30
ATOM     30  C26 ZIN A   1      19.386  -5.193   9.152  0.00  0.00     0.085 C 
ATOM     31  C31 ZIN A   1      18.011  -5.744   8.772  0.00  0.00     0.025 C 
ATOM     32  C30 ZIN A   1      17.370  -6.406   9.993  0.00  0.00     0.002 C 
ATOM     33  C29 ZIN A   1      17.214  -5.372  11.110  0.00  0.00     0.000 C 
ATOM     34  C28 ZIN A   1      18.590  -4.821  11.490  0.00  0.00     0.002 C 
ATOM     35  C27 ZIN A   1      19.230  -4.160  10.269  0.00  0.00     0.025 C 
ENDBRANCH  28  30
ENDBRANCH  22  25
ENDBRANCH   4  22
TORSDOF 8
ENDMDL
MODEL 4
REMARK VINA RESULT:      -9.3      3.571      9.346
REMARK  8 active torsions:
REMARK  status: ('A' for Active; 'I' for Inactive)
REMARK    1  A    between atoms: O2_2  and  C3_3 
REMARK    2  A    between atoms: C9_9  and  C10_10 
REMARK       I    between atoms: C10_10  and  N12_12 
REMARK    3  A    between atoms: N12_12  and  C13_13 
REMARK    4  A    between atoms: C13_13  and  C14_14 
REMARK    5  A    between atoms: C14_14  and  C15_15 
REMARK    6  A    between atoms: C18_18  and  S19_19 
REMARK    7  A    between atoms: S19_19  and  N22_22 
REMARK       I    between atoms: C23_23  and  N25_25 
REMARK    8  A    between atoms: N25_25  and  C26_26 
ROOT
ATOM      1  C15 ZIN A   1      18.601   5.724  14.050  0.00  0.00    -0.057 A 
ATOM      2  C16 ZIN A   1      17.394   5.141  13.712  0.00  0.00     0.009 A 
ATOM      3  C17 ZIN A   1      17.351   4.149  12.750  0.00  0.00     0.026 A 
ATOM      4  C18 ZIN A   1      18.515   3.739  12.127  0.00  0.00     0.081 A 
ATOM      5  C32 ZIN A   1      19.722   4.324  12.464  0.00  0.00     0.026 A 
ATOM      6  C33 ZIN A   1      19.764   5.319  13.423  0.00  0.00     0.009 A 
ENDROOT
BRANCH   1   7
ATOM      7  C14 ZIN A   1      18.647   6.807  15.097  0.00  0.00     0.058 C 
BRANCH   7   8
ATOM      8  C13 ZIN A   1      19.239   6.241  16.390  0.00  0.00     0.127 C 
BRANCH   8   9
ATOM      9  N12 ZIN A   1      18.653   4.925  16.660  0.00  0.00    -0.356 N 
ATOM     10  C10 ZIN A   1      19.447   3.840  16.752  0.00  0.00     0.254 C 
ATOM     11  O11 ZIN A   1      20.650   3.953  16.611  0.00  0.00    -0.268 OA
ATOM     12  H40 ZIN A   1      17.694   4.835  16.774  0.00  0.00     0.162 HD
BRANCH  10  13
ATOM     13  C9  ZIN A   1      18.857   2.516  17.025  0.00  0.00     0.066 A 
ATOM     14  C3  ZIN A   1      18.152   2.290  18.216  0.00  0.00     0.084 A 
ATOM     15  C4  ZIN A   1      17.600   1.042  18.461  0.00  0.00     0.039 A 
ATOM     16  C5  ZIN A   1      17.749   0.025  17.540  0.00  0.00     0.026 A 
ATOM     17  C6  ZIN A   1      18.449   0.242  16.363  0.00  0.00     0.035 A 
ATOM     18 Cl7  ZIN A   1      18.628  -1.047  15.214  0.00  0.00    -0.084 Cl
ATOM     19  C8  ZIN A   1      19.004   1.478  16.102  0.00  0.00     0.043 A 
BRANCH  14  20
ATOM     20  O2  ZIN A   1      18.007   3.290  19.121  0.00  0.00    -0.355 OA
ATOM     21  C1  ZIN A   1      16.673   3.623  19.510  0.00  0.00     0.210 C 
ENDBRANCH  14  20
ENDBRANCH  10  13
ENDBRANCH   8   9
ENDBRANCH   7   8
ENDBRANCH   1   7
BRANCH   4  22
ATOM     22  S19 ZIN A   1      18.461   2.474  10.902  0.00  0.00     0.286 S 
ATOM     23  O20 ZIN A   1      17.100   2.356  10.507  0.00  0.00    -0.198 OA
ATOM     24  O21 ZIN A   1      19.513   2.754   9.989  0.00  0.00    -0.198 OA
BRANCH  22  25
ATOM     25  N22 ZIN A   1      18.856   1.050  11.649  0.00  0.00    -0.115 NA
ATOM     26  C23 ZIN A   1      18.638  -0.083  11.048  0.00  0.00     0.284 C 
ATOM     27  O24 ZIN A   1      18.089  -0.097   9.814  0.00  0.00    -0.149 OA
ATOM     28  N25 ZIN A   1      18.966  -1.263  11.668  0.00  0.00    -0.347 N 
ATOM     29  H47 ZIN A   1      19.360  -1.252  12.554  0.00  0.00     0.163 HD
BRANCH  28  30
ATOM     30  C26 ZIN A   1      18.721  -2.539  10.991  0.00  0.00     0.085 C 
ATOM     31  C31 ZIN A   1      17.371  -3.103  11.438  0.00  0.00     0.025 C 
ATOM     32  C30 ZIN A   1      17.114  -4.434  10.730  0.00  0.00     0.002 C 
ATOM     33  C29 ZIN A   1      18.225  -5.424  11.089  0.00  0.00     0.000 C 
ATOM     34  C28 ZIN A   1      19.575  -4.860  10.642  0.00  0.00     0.002 C 
ATOM     35  C27 ZIN A   1      19.831  -3.529  11.349  0.00  0.00     0.025 C 
ENDBRANCH  28  30
ENDBRANCH  22  25
ENDBRANCH   4  22
TORSDOF 8
ENDMDL
MODEL 5
REMARK VINA RESULT:      -9.3      3.590     10.900
REMARK  8 active torsions:
REMARK  status: ('A' for Active; 'I' for Inactive)
REMARK    1  A    between atoms: O2_2  and  C3_3 
REMARK    2  A    between atoms: C9_9  and  C10_10 
REMARK       I    between atoms: C10_10  and  N12_12 
REMARK    3  A    between atoms: N12_12  and  C13_13 
REMARK    4  A    between atoms: C13_13  and  C14_14 
REMARK    5  A    between atoms: C14_14  and  C15_15 
REMARK    6  A    between atoms: C18_18  and  S19_19 
REMARK    7  A    between atoms: S19_19  and  N22_22 
REMARK       I    between atoms: C23_23  and  N25_25 
REMARK    8  A    between atoms: N25_25  and  C26_26 
ROOT
ATOM      1  C15 ZIN A   1      17.894  -0.479  15.702  0.00  0.00    -0.057 A 
ATOM      2  C16 ZIN A   1      19.026  -1.157  15.292  0.00  0.00     0.009 A 
ATOM      3  C17 ZIN A   1      19.600  -0.868  14.068  0.00  0.00     0.026 A 
ATOM      4  C18 ZIN A   1      19.042   0.101  13.255  0.00  0.00     0.081 A 
ATOM      5  C32 ZIN A   1      17.909   0.779  13.665  0.00  0.00     0.026 A 
ATOM      6  C33 ZIN A   1      17.333   0.486  14.887  0.00  0.00     0.009 A 
ENDROOT
BRANCH   1   7
ATOM      7  C14 ZIN A   1      17.268  -0.796  17.036  0.00  0.00     0.058 C 
BRANCH   7   8
ATOM      8  C13 ZIN A   1      17.876   0.105  18.112  0.00  0.00     0.127 C 
BRANCH   8   9
ATOM      9  N12 ZIN A   1      17.858   1.496  17.652  0.00  0.00    -0.356 N 
ATOM     10  C10 ZIN A   1      18.879   2.321  17.960  0.00  0.00     0.254 C 
ATOM     11  O11 ZIN A   1      19.813   1.910  18.620  0.00  0.00    -0.268 OA
ATOM     12  H40 ZIN A   1      17.113   1.823  17.124  0.00  0.00     0.162 HD
BRANCH  10  13
ATOM     13  C9  ZIN A   1      18.861   3.721  17.496  0.00  0.00     0.066 A 
ATOM     14  C3  ZIN A   1      17.902   4.615  17.993  0.00  0.00     0.084 A 
ATOM     15  C4  ZIN A   1      17.894   5.929  17.551  0.00  0.00     0.039 A 
ATOM     16  C5  ZIN A   1      18.822   6.353  16.621  0.00  0.00     0.026 A 
ATOM     17  C6  ZIN A   1      19.769   5.471  16.124  0.00  0.00     0.035 A 
ATOM     18 Cl7  ZIN A   1      20.931   6.020  14.956  0.00  0.00    -0.084 Cl
ATOM     19  C8  ZIN A   1      19.792   4.161  16.553  0.00  0.00     0.043 A 
BRANCH  14  20
ATOM     20  O2  ZIN A   1      16.990   4.197  18.906  0.00  0.00    -0.355 OA
ATOM     21  C1  ZIN A   1      17.135   4.688  20.240  0.00  0.00     0.210 C 
ENDBRANCH  14  20
ENDBRANCH  10  13
ENDBRANCH   8   9
ENDBRANCH   7   8
ENDBRANCH   1   7
BRANCH   4  22
ATOM     22  S19 ZIN A   1      19.774   0.472  11.696  0.00  0.00     0.286 S 
ATOM     23  O20 ZIN A   1      19.212   1.706  11.272  0.00  0.00    -0.198 OA
ATOM     24  O21 ZIN A   1      21.172   0.267  11.850  0.00  0.00    -0.198 OA
BRANCH  22  25
ATOM     25  N22 ZIN A   1      19.250  -0.675  10.622  0.00  0.00    -0.115 NA
ATOM     26  C23 ZIN A   1      19.352  -0.464   9.343  0.00  0.00     0.284 C 
ATOM     27  O24 ZIN A   1      19.885   0.692   8.890  0.00  0.00    -0.149 OA
ATOM     28  N25 ZIN A   1      18.916  -1.415   8.454  0.00  0.00    -0.347 N 
ATOM     29  H47 ZIN A   1      18.533  -2.244   8.779  0.00  0.00     0.163 HD
BRANCH  28  30
ATOM     30  C26 ZIN A   1      19.031  -1.177   7.012  0.00  0.00     0.085 C 
ATOM     31  C31 ZIN A   1      17.847  -0.332   6.538  0.00  0.00     0.025 C 
ATOM     32  C30 ZIN A   1      17.967  -0.082   5.035  0.00  0.00     0.002 C 
ATOM     33  C29 ZIN A   1      17.967  -1.421   4.294  0.00  0.00     0.000 C 
ATOM     34  C28 ZIN A   1      19.151  -2.267   4.768  0.00  0.00     0.002 C 
ATOM     35  C27 ZIN A   1      19.031  -2.515   6.272  0.00  0.00     0.025 C 
ENDBRANCH  28  30
ENDBRANCH  22  25
ENDBRANCH   4  22
TORSDOF 8
ENDMDL
MODEL 6
REMARK VINA RESULT:      -9.1      3.779     10.611
REMARK  8 active torsions:
REMARK  status: ('A' for Active; 'I' for Inactive)
REMARK    1  A    between atoms: O2_2  and  C3_3 
REMARK    2  A    between atoms: C9_9  and  C10_10 
REMARK       I    between atoms: C10_10  and  N12_12 
REMARK    3  A    between atoms: N12_12  and  C13_13 
REMARK    4  A    between atoms: C13_13  and  C14_14 
REMARK    5  A    between atoms: C14_14  and  C15_15 
REMARK    6  A    between atoms: C18_18  and  S19_19 
REMARK    7  A    between atoms: S19_19  and  N22_22 
REMARK       I    between atoms: C23_23  and  N25_25 
REMARK    8  A    between atoms: N25_25  and  C26_26 
ROOT
ATOM      1  C15 ZIN A   1      17.835  -0.532  15.675  0.00  0.00    -0.057 A 
ATOM      2  C16 ZIN A   1      18.967  -1.272  15.389  0.00  0.00     0.009 A 
ATOM      3  C17 ZIN A   1      19.629  -1.089  14.189  0.00  0.00     0.026 A 
ATOM      4  C18 ZIN A   1      19.158  -0.165  13.276  0.00  0.00     0.081 A 
ATOM      5  C32 ZIN A   1      18.025   0.575  13.560  0.00  0.00     0.026 A 
ATOM      6  C33 ZIN A   1      17.361   0.388  14.759  0.00  0.00     0.009 A 
ENDROOT
BRANCH   1   7
ATOM      7  C14 ZIN A   1      17.113  -0.733  16.983  0.00  0.00     0.058 C 
BRANCH   7   8
ATOM      8  C13 ZIN A   1      17.731   0.171  18.051  0.00  0.00     0.127 C 
BRANCH   8   9
ATOM      9  N12 ZIN A   1      17.717   1.559  17.582  0.00  0.00    -0.356 N 
ATOM     10  C10 ZIN A   1      18.722   2.393  17.917  0.00  0.00     0.254 C 
ATOM     11  O11 ZIN A   1      19.638   1.994  18.609  0.00  0.00    -0.268 OA
ATOM     12  H40 ZIN A   1      16.987   1.878  17.029  0.00  0.00     0.162 HD
BRANCH  10  13
ATOM     13  C9  ZIN A   1      18.708   3.791  17.444  0.00  0.00     0.066 A 
ATOM     14  C3  ZIN A   1      17.768   4.697  17.954  0.00  0.00     0.084 A 
ATOM     15  C4  ZIN A   1      17.764   6.009  17.504  0.00  0.00     0.039 A 
ATOM     16  C5  ZIN A   1      18.678   6.418  16.554  0.00  0.00     0.026 A 
ATOM     17  C6  ZIN A   1      19.607   5.524  16.044  0.00  0.00     0.035 A 
ATOM     18 Cl7  ZIN A   1      20.751   6.054  14.851  0.00  0.00    -0.084 Cl
ATOM     19  C8  ZIN A   1      19.626   4.216  16.481  0.00  0.00     0.043 A 
BRANCH  14  20
ATOM     20  O2  ZIN A   1      16.869   4.294  18.887  0.00  0.00    -0.355 OA
ATOM     21  C1  ZIN A   1      15.765   5.164  19.142  0.00  0.00     0.210 C 
ENDBRANCH  14  20
ENDBRANCH  10  13
ENDBRANCH   8   9
ENDBRANCH   7   8
ENDBRANCH   1   7
BRANCH   4  22
ATOM     22  S19 ZIN A   1      20.002   0.070  11.747  0.00  0.00     0.286 S 
ATOM     23  O20 ZIN A   1      19.080   0.709  10.874  0.00  0.00    -0.198 OA
ATOM     24  O21 ZIN A   1      21.272   0.618  12.069  0.00  0.00    -0.198 OA
BRANCH  22  25
ATOM     25  N22 ZIN A   1      20.288  -1.431  11.108  0.00  0.00    -0.115 NA
ATOM     26  C23 ZIN A   1      19.301  -2.142  10.649  0.00  0.00     0.284 C 
ATOM     27  O24 ZIN A   1      18.041  -1.655  10.693  0.00  0.00    -0.149 OA
ATOM     28  N25 ZIN A   1      19.539  -3.386  10.120  0.00  0.00    -0.347 N 
ATOM     29  H47 ZIN A   1      20.443  -3.735  10.088  0.00  0.00     0.163 HD
BRANCH  28  30
ATOM     30  C26 ZIN A   1      18.426  -4.187   9.602  0.00  0.00     0.085 C 
ATOM     31  C31 ZIN A   1      18.162  -5.363  10.544  0.00  0.00     0.025 C 
ATOM     32  C30 ZIN A   1      17.001  -6.199  10.005  0.00  0.00     0.002 C 
ATOM     33  C29 ZIN A   1      17.357  -6.729   8.614  0.00  0.00     0.000 C 
ATOM     34  C28 ZIN A   1      17.621  -5.553   7.672  0.00  0.00     0.002 C 
ATOM     35  C27 ZIN A   1      18.782  -4.717   8.212  0.00  0.00     0.025 C 
ENDBRANCH  28  30
ENDBRANCH  22  25
ENDBRANCH   4  22
TORSDOF 8
ENDMDL
MODEL 7
REMARK VINA RESULT:      -8.9      3.037      5.393
REMARK  8 active torsions:
REMARK  status: ('A' for Active; 'I' for Inactive)
REMARK    1  A    between atoms: O2_2  and  C3_3 
REMARK    2  A    between atoms: C9_9  and  C10_10 
REMARK       I    between atoms: C10_10  and  N12_12 
REMARK    3  A    between atoms: N12_12  and  C13_13 
REMARK    4  A    between atoms: C13_13  and  C14_14 
REMARK    5  A    between atoms: C14_14  and  C15_15 
REMARK    6  A    between atoms: C18_18  and  S19_19 
REMARK    7  A    between atoms: S19_19  and  N22_22 
REMARK       I    between atoms: C23_23  and  N25_25 
REMARK    8  A    between atoms: N25_25  and  C26_26 
ROOT
ATOM      1  C15 ZIN A   1      18.563  -4.587  10.462  0.00  0.00    -0.057 A 
ATOM      2  C16 ZIN A   1      17.488  -3.795  10.817  0.00  0.00     0.009 A 
ATOM      3  C17 ZIN A   1      17.657  -2.763  11.723  0.00  0.00     0.026 A 
ATOM      4  C18 ZIN A   1      18.903  -2.524  12.272  0.00  0.00     0.081 A 
ATOM      5  C32 ZIN A   1      19.979  -3.317  11.918  0.00  0.00     0.026 A 
ATOM      6  C33 ZIN A   1      19.808  -4.351  11.015  0.00  0.00     0.009 A 
ENDROOT
BRANCH   1   7
ATOM      7  C14 ZIN A   1      18.377  -5.711   9.476  0.00  0.00     0.058 C 
BRANCH   7   8
ATOM      8  C13 ZIN A   1      19.202  -5.429   8.219  0.00  0.00     0.127 C 
BRANCH   8   9
ATOM      9  N12 ZIN A   1      18.741  -4.183   7.602  0.00  0.00    -0.356 N 
ATOM     10  C10 ZIN A   1      19.581  -3.460   6.834  0.00  0.00     0.254 C 
ATOM     11  O11 ZIN A   1      20.722  -3.842   6.656  0.00  0.00    -0.268 OA
ATOM     12  H40 ZIN A   1      17.831  -3.879   7.744  0.00  0.00     0.162 HD
BRANCH  10  13
ATOM     13  C9  ZIN A   1      19.116  -2.206   6.213  0.00  0.00     0.066 A 
ATOM     14  C3  ZIN A   1      18.555  -2.222   4.928  0.00  0.00     0.084 A 
ATOM     15  C4  ZIN A   1      18.120  -1.038   4.353  0.00  0.00     0.039 A 
ATOM     16  C5  ZIN A   1      18.245   0.153   5.041  0.00  0.00     0.026 A 
ATOM     17  C6  ZIN A   1      18.804   0.175   6.309  0.00  0.00     0.035 A 
ATOM     18 Cl7  ZIN A   1      18.954   1.680   7.162  0.00  0.00    -0.084 Cl
ATOM     19  C8  ZIN A   1      19.241  -0.994   6.896  0.00  0.00     0.043 A 
BRANCH  14  20
ATOM     20  O2  ZIN A   1      18.433  -3.392   4.253  0.00  0.00    -0.355 OA
ATOM     21  C1  ZIN A   1      17.108  -3.813   3.918  0.00  0.00     0.210 C 
ENDBRANCH  14  20
ENDBRANCH  10  13
ENDBRANCH   8   9
ENDBRANCH   7   8
ENDBRANCH   1   7
BRANCH   4  22
ATOM     22  S19 ZIN A   1      19.120  -1.210  13.425  0.00  0.00     0.286 S 
ATOM     23  O20 ZIN A   1      17.824  -0.689  13.688  0.00  0.00    -0.198 OA
ATOM     24  O21 ZIN A   1      19.979  -1.706  14.442  0.00  0.00    -0.198 OA
BRANCH  22  25
ATOM     25  N22 ZIN A   1      19.958  -0.010  12.649  0.00  0.00    -0.115 NA
ATOM     26  C23 ZIN A   1      19.379   1.125  12.388  0.00  0.00     0.284 C 
ATOM     27  O24 ZIN A   1      18.092   1.324  12.749  0.00  0.00    -0.149 OA
ATOM     28  N25 ZIN A   1      20.074   2.118  11.745  0.00  0.00    -0.347 N 
ATOM     29  H47 ZIN A   1      20.997   1.975  11.486  0.00  0.00     0.163 HD
BRANCH  28  30
ATOM     30  C26 ZIN A   1      19.421   3.397  11.451  0.00  0.00     0.085 C 
ATOM     31  C31 ZIN A   1      18.658   3.875  12.687  0.00  0.00     0.025 C 
ATOM     32  C30 ZIN A   1      17.976   5.210  12.382  0.00  0.00     0.002 C 
ATOM     33  C29 ZIN A   1      17.000   5.029  11.218  0.00  0.00     0.000 C 
ATOM     34  C28 ZIN A   1      17.763   4.551   9.982  0.00  0.00     0.002 C 
ATOM     35  C27 ZIN A   1      18.445   3.217  10.287  0.00  0.00     0.025 C 
ENDBRANCH  28  30
ENDBRANCH  22  25
ENDBRANCH   4  22
TORSDOF 8
ENDMDL
MODEL 8
REMARK VINA RESULT:      -8.9      5.828      9.677
REMARK  8 active torsions:
REMARK  status: ('A' for Active; 'I' for Inactive)
REMARK    1  A    between atoms: O2_2  and  C3_3 
REMARK    2  A    between atoms: C9_9  and  C10_10 
REMARK       I    between atoms: C10_10  and  N12_12 
REMARK    3  A    between atoms: N12_12  and  C13_13 
REMARK    4  A    between atoms: C13_13  and  C14_14 
REMARK    5  A    between atoms: C14_14  and  C15_15 
REMARK    6  A    between atoms: C18_18  and  S19_19 
REMARK    7  A    between atoms: S19_19  and  N22_22 
REMARK       I    between atoms: C23_23  and  N25_25 
REMARK    8  A    between atoms: N25_25  and  C26_26 
ROOT
ATOM      1  C15 ZIN A   1      18.744  -0.395  14.510  0.00  0.00    -0.057 A 
ATOM      2  C16 ZIN A   1      19.835   0.316  14.045  0.00  0.00     0.009 A 
ATOM      3  C17 ZIN A   1      19.699   1.157  12.957  0.00  0.00     0.026 A 
ATOM      4  C18 ZIN A   1      18.472   1.290  12.335  0.00  0.00     0.081 A 
ATOM      5  C32 ZIN A   1      17.380   0.578  12.799  0.00  0.00     0.026 A 
ATOM      6  C33 ZIN A   1      17.518  -0.267  13.885  0.00  0.00     0.009 A 
ENDROOT
BRANCH   1   7
ATOM      7  C14 ZIN A   1      18.893  -1.313  15.696  0.00  0.00     0.058 C 
BRANCH   7   8
ATOM      8  C13 ZIN A   1      18.120  -0.741  16.885  0.00  0.00     0.127 C 
BRANCH   8   9
ATOM      9  N12 ZIN A   1      18.037   0.717  16.758  0.00  0.00    -0.356 N 
ATOM     10  C10 ZIN A   1      18.861   1.503  17.479  0.00  0.00     0.254 C 
ATOM     11  O11 ZIN A   1      19.672   1.003  18.234  0.00  0.00    -0.268 OA
ATOM     12  H40 ZIN A   1      17.391   1.115  16.155  0.00  0.00     0.162 HD
BRANCH  10  13
ATOM     13  C9  ZIN A   1      18.778   2.971  17.351  0.00  0.00     0.066 A 
ATOM     14  C3  ZIN A   1      17.839   3.691  18.102  0.00  0.00     0.084 A 
ATOM     15  C4  ZIN A   1      17.769   5.070  17.975  0.00  0.00     0.039 A 
ATOM     16  C5  ZIN A   1      18.617   5.730  17.108  0.00  0.00     0.026 A 
ATOM     17  C6  ZIN A   1      19.544   5.021  16.359  0.00  0.00     0.035 A 
ATOM     18 Cl7  ZIN A   1      20.604   5.864  15.273  0.00  0.00    -0.084 Cl
ATOM     19  C8  ZIN A   1      19.627   3.649  16.474  0.00  0.00     0.043 A 
BRANCH  14  20
ATOM     20  O2  ZIN A   1      17.006   3.042  18.954  0.00  0.00    -0.355 OA
ATOM     21  C1  ZIN A   1      16.451   3.806  20.026  0.00  0.00     0.210 C 
ENDBRANCH  14  20
ENDBRANCH  10  13
ENDBRANCH   8   9
ENDBRANCH   7   8
ENDBRANCH   1   7
BRANCH   4  22
ATOM     22  S19 ZIN A   1      18.298   2.363  10.948  0.00  0.00     0.286 S 
ATOM     23  O20 ZIN A   1      19.525   3.070  10.832  0.00  0.00    -0.198 OA
ATOM     24  O21 ZIN A   1      17.752   1.577   9.898  0.00  0.00    -0.198 OA
BRANCH  22  25
ATOM     25  N22 ZIN A   1      17.146   3.487  11.339  0.00  0.00    -0.115 NA
ATOM     26  C23 ZIN A   1      17.262   4.186  12.429  0.00  0.00     0.284 C 
ATOM     27  O24 ZIN A   1      18.323   3.995  13.244  0.00  0.00    -0.149 OA
ATOM     28  N25 ZIN A   1      16.306   5.117  12.753  0.00  0.00    -0.347 N 
ATOM     29  H47 ZIN A   1      15.544   5.253  12.168  0.00  0.00     0.163 HD
BRANCH  28  30
ATOM     30  C26 ZIN A   1      16.437   5.905  13.981  0.00  0.00     0.085 C 
ATOM     31  C31 ZIN A   1      15.063   6.064  14.635  0.00  0.00     0.025 C 
ATOM     32  C30 ZIN A   1      15.199   6.885  15.917  0.00  0.00     0.002 C 
ATOM     33  C29 ZIN A   1      15.766   8.266  15.580  0.00  0.00     0.000 C 
ATOM     34  C28 ZIN A   1      17.140   8.108  14.926  0.00  0.00     0.002 C 
ATOM     35  C27 ZIN A   1      17.003   7.286  13.644  0.00  0.00     0.025 C 
ENDBRANCH  28  30
ENDBRANCH  22  25
ENDBRANCH   4  22
TORSDOF 8
ENDMDL
MODEL 9
REMARK VINA RESULT:      -8.8      3.255      4.454
REMARK  8 active torsions:
REMARK  status: ('A' for Active; 'I' for Inactive)
REMARK    1  A    between atoms: O2_2  and  C3_3 
REMARK    2  A    between atoms: C9_9  and  C10_10 
REMARK       I    between atoms: C10_10  and  N12_12 
REMARK    3  A    between atoms: N12_12  and  C13_13 
REMARK    4  A    between atoms: C13_13  and  C14_14 
REMARK    5  A    between atoms: C14_14  and  C15_15 
REMARK    6  A    between atoms: C18_18  and  S19_19 
REMARK    7  A    between atoms: S19_19  and  N22_22 
REMARK       I    between atoms: C23_23  and  N25_25 
REMARK    8  A    between atoms: N25_25  and  C26_26 
ROOT
ATOM      1  C15 ZIN A   1      18.671   3.145  10.051  0.00  0.00    -0.057 A 
ATOM      2  C16 ZIN A   1      17.588   3.943  10.365  0.00  0.00     0.009 A 
ATOM      3  C17 ZIN A   1      17.560   4.633  11.563  0.00  0.00     0.026 A 
ATOM      4  C18 ZIN A   1      18.618   4.526  12.446  0.00  0.00     0.081 A 
ATOM      5  C32 ZIN A   1      19.702   3.726  12.133  0.00  0.00     0.026 A 
ATOM      6  C33 ZIN A   1      19.727   3.033  10.936  0.00  0.00     0.009 A 
ENDROOT
BRANCH   1   7
ATOM      7  C14 ZIN A   1      18.699   2.392   8.746  0.00  0.00     0.058 C 
BRANCH   7   8
ATOM      8  C13 ZIN A   1      19.732   1.267   8.828  0.00  0.00     0.127 C 
BRANCH   8   9
ATOM      9  N12 ZIN A   1      19.066   0.020   9.212  0.00  0.00    -0.356 N 
ATOM     10  C10 ZIN A   1      19.655  -0.815  10.091  0.00  0.00     0.254 C 
ATOM     11  O11 ZIN A   1      20.738  -0.533  10.565  0.00  0.00    -0.268 OA
ATOM     12  H40 ZIN A   1      18.201  -0.204   8.834  0.00  0.00     0.162 HD
BRANCH  10  13
ATOM     13  C9  ZIN A   1      18.983  -2.071  10.477  0.00  0.00     0.066 A 
ATOM     14  C3  ZIN A   1      18.080  -2.085  11.550  0.00  0.00     0.084 A 
ATOM     15  C4  ZIN A   1      17.453  -3.271  11.904  0.00  0.00     0.039 A 
ATOM     16  C5  ZIN A   1      17.723  -4.432  11.208  0.00  0.00     0.026 A 
ATOM     17  C6  ZIN A   1      18.619  -4.423  10.150  0.00  0.00     0.035 A 
ATOM     18 Cl7  ZIN A   1      18.947  -5.891   9.283  0.00  0.00    -0.084 Cl
ATOM     19  C8  ZIN A   1      19.251  -3.253   9.783  0.00  0.00     0.043 A 
BRANCH  14  20
ATOM     20  O2  ZIN A   1      17.816  -0.944  12.234  0.00  0.00    -0.355 OA
ATOM     21  C1  ZIN A   1      16.673  -0.191  11.824  0.00  0.00     0.210 C 
ENDBRANCH  14  20
ENDBRANCH  10  13
ENDBRANCH   8   9
ENDBRANCH   7   8
ENDBRANCH   1   7
BRANCH   4  22
ATOM     22  S19 ZIN A   1      18.585   5.405  13.972  0.00  0.00     0.286 S 
ATOM     23  O20 ZIN A   1      19.443   6.526  13.808  0.00  0.00    -0.198 OA
ATOM     24  O21 ZIN A   1      17.217   5.522  14.338  0.00  0.00    -0.198 OA
BRANCH  22  25
ATOM     25  N22 ZIN A   1      19.294   4.437  15.113  0.00  0.00    -0.115 NA
ATOM     26  C23 ZIN A   1      18.810   3.253  15.354  0.00  0.00     0.284 C 
ATOM     27  O24 ZIN A   1      17.728   2.815  14.673  0.00  0.00    -0.149 OA
ATOM     28  N25 ZIN A   1      19.398   2.451  16.300  0.00  0.00    -0.347 N 
ATOM     29  H47 ZIN A   1      20.174   2.766  16.789  0.00  0.00     0.163 HD
BRANCH  28  30
ATOM     30  C26 ZIN A   1      18.853   1.118  16.571  0.00  0.00     0.085 C 
ATOM     31  C31 ZIN A   1      19.410   0.599  17.898  0.00  0.00     0.025 C 
ATOM     32  C30 ZIN A   1      18.841  -0.792  18.181  0.00  0.00     0.002 C 
ATOM     33  C29 ZIN A   1      19.241  -1.745  17.053  0.00  0.00     0.000 C 
ATOM     34  C28 ZIN A   1      18.684  -1.227  15.726  0.00  0.00     0.002 C 
ATOM     35  C27 ZIN A   1      19.252   0.164  15.443  0.00  0.00     0.025 C 
ENDBRANCH  28  30
ENDBRANCH  22  25
ENDBRANCH   4  22
TORSDOF 8
ENDMDL
